MODEL 1
REMARK VINA RESULT:    -5.493      0.000      0.000
REMARK INTER + INTRA:          -5.493
REMARK INTER:                  -5.493
REMARK INTRA:                   0.000
REMARK UNBOUND:                 0.000
REMARK SMILES C[C@H]1CCC=C2CC[C@@H]3[C@@H](C3(C)C)[C@@]21C
REMARK SMILES IDX 1 1 2 2 3 3 4 4 5 5 6 6 14 7 10 8 9 9 11 10 12 11 13 12 8 13
REMARK SMILES IDX 7 14 15 15
REMARK H PARENT
REMARK Flexibility Score: inf
ROOT
ATOM      1  C   UNL     1      31.759  12.064  31.497  1.00  0.00     0.008 C 
ATOM      2  C   UNL     1      30.699  11.190  32.214  1.00  0.00    -0.004 C 
ATOM      3  C   UNL     1      29.605  10.786  31.206  1.00  0.00     0.008 C 
ATOM      4  C   UNL     1      30.151   9.772  30.204  1.00  0.00     0.027 C 
ATOM      5  C   UNL     1      30.759   8.595  30.906  1.00  0.00    -0.027 C 
ATOM      6  C   UNL     1      31.236   8.641  32.170  1.00  0.00    -0.068 C 
ATOM      7  C   UNL     1      31.248   9.927  33.017  1.00  0.00    -0.005 C 
ATOM      8  C   UNL     1      30.234   9.681  34.204  1.00  0.00     0.009 C 
ATOM      9  C   UNL     1      30.260   8.256  34.820  1.00  0.00    -0.000 C 
ATOM     10  C   UNL     1      30.485   9.483  35.720  1.00  0.00    -0.028 C 
ATOM     11  C   UNL     1      29.272   9.851  36.588  1.00  0.00     0.012 C 
ATOM     12  C   UNL     1      31.839   9.808  36.378  1.00  0.00     0.012 C 
ATOM     13  C   UNL     1      31.417   7.342  34.365  1.00  0.00     0.009 C 
ATOM     14  C   UNL     1      31.575   7.317  32.836  1.00  0.00     0.031 C 
ATOM     15  C   UNL     1      32.710  10.197  33.460  1.00  0.00     0.017 C 
ENDROOT
TORSDOF 0
ENDMDL
MODEL 2
REMARK VINA RESULT:    -5.393      1.129      4.515
REMARK INTER + INTRA:          -5.393
REMARK INTER:                  -5.393
REMARK INTRA:                   0.000
REMARK UNBOUND:                 0.000
REMARK SMILES C[C@H]1CCC=C2CC[C@@H]3[C@@H](C3(C)C)[C@@]21C
REMARK SMILES IDX 1 1 2 2 3 3 4 4 5 5 6 6 14 7 10 8 9 9 11 10 12 11 13 12 8 13
REMARK SMILES IDX 7 14 15 15
REMARK H PARENT
REMARK Flexibility Score: inf
ROOT
ATOM      1  C   UNL     1      28.816  10.220  36.929  1.00  0.00     0.008 C 
ATOM      2  C   UNL     1      30.204  10.305  36.245  1.00  0.00    -0.004 C 
ATOM      3  C   UNL     1      31.306  10.067  37.295  1.00  0.00     0.008 C 
ATOM      4  C   UNL     1      31.317   8.606  37.735  1.00  0.00     0.027 C 
ATOM      5  C   UNL     1      31.430   7.689  36.555  1.00  0.00    -0.027 C 
ATOM      6  C   UNL     1      31.050   8.029  35.302  1.00  0.00    -0.068 C 
ATOM      7  C   UNL     1      30.416   9.388  34.958  1.00  0.00    -0.005 C 
ATOM      8  C   UNL     1      31.461  10.143  34.043  1.00  0.00     0.009 C 
ATOM      9  C   UNL     1      32.196   9.257  33.001  1.00  0.00    -0.000 C 
ATOM     10  C   UNL     1      31.411  10.496  32.536  1.00  0.00    -0.028 C 
ATOM     11  C   UNL     1      32.298  11.695  32.164  1.00  0.00     0.012 C 
ATOM     12  C   UNL     1      30.111  10.410  31.713  1.00  0.00     0.012 C 
ATOM     13  C   UNL     1      31.655   7.823  32.826  1.00  0.00     0.009 C 
ATOM     14  C   UNL     1      31.468   7.103  34.172  1.00  0.00     0.031 C 
ATOM     15  C   UNL     1      29.042   9.122  34.287  1.00  0.00     0.017 C 
ENDROOT
TORSDOF 0
ENDMDL
MODEL 3
REMARK VINA RESULT:    -4.712      1.155      4.675
REMARK INTER + INTRA:          -4.712
REMARK INTER:                  -4.712
REMARK INTRA:                   0.000
REMARK UNBOUND:                 0.000
REMARK SMILES C[C@H]1CCC=C2CC[C@@H]3[C@@H](C3(C)C)[C@@]21C
REMARK SMILES IDX 1 1 2 2 3 3 4 4 5 5 6 6 14 7 10 8 9 9 11 10 12 11 13 12 8 13
REMARK SMILES IDX 7 14 15 15
REMARK H PARENT
REMARK Flexibility Score: inf
ROOT
ATOM      1  C   UNL     1      30.516   7.207  33.391  1.00  0.00     0.008 C 
ATOM      2  C   UNL     1      29.958   8.652  33.391  1.00  0.00    -0.004 C 
ATOM      3  C   UNL     1      30.006   9.218  34.823  1.00  0.00     0.008 C 
ATOM      4  C   UNL     1      31.447   9.491  35.241  1.00  0.00     0.027 C 
ATOM      5  C   UNL     1      32.139  10.371  34.245  1.00  0.00    -0.027 C 
ATOM      6  C   UNL     1      31.765  10.475  32.949  1.00  0.00    -0.068 C 
ATOM      7  C   UNL     1      30.608   9.662  32.343  1.00  0.00    -0.005 C 
ATOM      8  C   UNL     1      29.480  10.707  31.975  1.00  0.00     0.009 C 
ATOM      9  C   UNL     1      29.984  12.048  31.378  1.00  0.00    -0.000 C 
ATOM     10  C   UNL     1      28.969  11.195  30.598  1.00  0.00    -0.028 C 
ATOM     11  C   UNL     1      27.532  11.738  30.643  1.00  0.00     0.012 C 
ATOM     12  C   UNL     1      29.313  10.465  29.286  1.00  0.00     0.012 C 
ATOM     13  C   UNL     1      31.478  12.105  31.000  1.00  0.00     0.009 C 
ATOM     14  C   UNL     1      32.386  11.597  32.133  1.00  0.00     0.031 C 
ATOM     15  C   UNL     1      31.164   8.860  31.136  1.00  0.00     0.017 C 
ENDROOT
TORSDOF 0
ENDMDL
MODEL 4
REMARK VINA RESULT:    -4.615      1.695      3.080
REMARK INTER + INTRA:          -4.615
REMARK INTER:                  -4.615
REMARK INTRA:                   0.000
REMARK UNBOUND:                 0.000
REMARK SMILES C[C@H]1CCC=C2CC[C@@H]3[C@@H](C3(C)C)[C@@]21C
REMARK SMILES IDX 1 1 2 2 3 3 4 4 5 5 6 6 14 7 10 8 9 9 11 10 12 11 13 12 8 13
REMARK SMILES IDX 7 14 15 15
REMARK H PARENT
REMARK Flexibility Score: inf
ROOT
ATOM      1  C   UNL     1      32.445  10.373  33.838  1.00  0.00     0.008 C 
ATOM      2  C   UNL     1      31.082   9.698  34.130  1.00  0.00    -0.004 C 
ATOM      3  C   UNL     1      30.723   8.749  32.970  1.00  0.00     0.008 C 
ATOM      4  C   UNL     1      31.633   7.525  32.981  1.00  0.00     0.027 C 
ATOM      5  C   UNL     1      31.606   6.846  34.317  1.00  0.00    -0.027 C 
ATOM      6  C   UNL     1      31.279   7.473  35.470  1.00  0.00    -0.068 C 
ATOM      7  C   UNL     1      30.939   8.972  35.542  1.00  0.00    -0.005 C 
ATOM      8  C   UNL     1      29.410   9.059  35.934  1.00  0.00     0.009 C 
ATOM      9  C   UNL     1      28.933   8.026  36.990  1.00  0.00    -0.000 C 
ATOM     10  C   UNL     1      28.730   9.530  37.244  1.00  0.00    -0.028 C 
ATOM     11  C   UNL     1      27.285  10.009  37.038  1.00  0.00     0.012 C 
ATOM     12  C   UNL     1      29.492  10.311  38.331  1.00  0.00     0.012 C 
ATOM     13  C   UNL     1      30.039   7.212  37.691  1.00  0.00     0.009 C 
ATOM     14  C   UNL     1      31.037   6.603  36.692  1.00  0.00     0.031 C 
ATOM     15  C   UNL     1      31.906   9.636  36.559  1.00  0.00     0.017 C 
ENDROOT
TORSDOF 0
ENDMDL
MODEL 5
REMARK VINA RESULT:    -4.613      1.551      3.284
REMARK INTER + INTRA:          -4.613
REMARK INTER:                  -4.613
REMARK INTRA:                   0.000
REMARK UNBOUND:                 0.000
REMARK SMILES C[C@H]1CCC=C2CC[C@@H]3[C@@H](C3(C)C)[C@@]21C
REMARK SMILES IDX 1 1 2 2 3 3 4 4 5 5 6 6 14 7 10 8 9 9 11 10 12 11 13 12 8 13
REMARK SMILES IDX 7 14 15 15
REMARK H PARENT
REMARK Flexibility Score: inf
ROOT
ATOM      1  C   UNL     1      27.852  11.737  30.767  1.00  0.00     0.008 C 
ATOM      2  C   UNL     1      29.030  10.740  30.630  1.00  0.00    -0.004 C 
ATOM      3  C   UNL     1      29.821  11.059  29.346  1.00  0.00     0.008 C 
ATOM      4  C   UNL     1      30.596  12.363  29.507  1.00  0.00     0.027 C 
ATOM      5  C   UNL     1      31.462  12.329  30.730  1.00  0.00    -0.027 C 
ATOM      6  C   UNL     1      31.219  11.534  31.797  1.00  0.00    -0.068 C 
ATOM      7  C   UNL     1      29.995  10.606  31.891  1.00  0.00    -0.005 C 
ATOM      8  C   UNL     1      30.560   9.130  31.864  1.00  0.00     0.009 C 
ATOM      9  C   UNL     1      31.866   8.900  32.669  1.00  0.00    -0.000 C 
ATOM     10  C   UNL     1      30.620   8.053  32.975  1.00  0.00    -0.028 C 
ATOM     11  C   UNL     1      30.689   6.619  32.426  1.00  0.00     0.012 C 
ATOM     12  C   UNL     1      29.817   8.176  34.284  1.00  0.00     0.012 C 
ATOM     13  C   UNL     1      32.318  10.063  33.577  1.00  0.00     0.009 C 
ATOM     14  C   UNL     1      32.319  11.412  32.839  1.00  0.00     0.031 C 
ATOM     15  C   UNL     1      29.210  10.974  33.178  1.00  0.00     0.017 C 
ENDROOT
TORSDOF 0
ENDMDL
MODEL 6
REMARK VINA RESULT:    -4.582      4.468      7.919
REMARK INTER + INTRA:          -4.582
REMARK INTER:                  -4.582
REMARK INTRA:                   0.000
REMARK UNBOUND:                 0.000
REMARK SMILES C[C@H]1CCC=C2CC[C@@H]3[C@@H](C3(C)C)[C@@]21C
REMARK SMILES IDX 1 1 2 2 3 3 4 4 5 5 6 6 14 7 10 8 9 9 11 10 12 11 13 12 8 13
REMARK SMILES IDX 7 14 15 15
REMARK H PARENT
REMARK Flexibility Score: inf
ROOT
ATOM      1  C   UNL     1      27.324  11.691  28.209  1.00  0.00     0.008 C 
ATOM      2  C   UNL     1      28.791  11.511  27.743  1.00  0.00    -0.004 C 
ATOM      3  C   UNL     1      29.735  11.698  28.947  1.00  0.00     0.008 C 
ATOM      4  C   UNL     1      29.615  10.519  29.908  1.00  0.00     0.027 C 
ATOM      5  C   UNL     1      29.833   9.218  29.194  1.00  0.00    -0.027 C 
ATOM      6  C   UNL     1      29.636   9.050  27.867  1.00  0.00    -0.068 C 
ATOM      7  C   UNL     1      29.121  10.170  26.946  1.00  0.00    -0.005 C 
ATOM      8  C   UNL     1      30.312  10.517  25.967  1.00  0.00     0.009 C 
ATOM      9  C   UNL     1      31.130   9.302  25.454  1.00  0.00    -0.000 C 
ATOM     10  C   UNL     1      30.475  10.264  24.448  1.00  0.00    -0.028 C 
ATOM     11  C   UNL     1      31.462  11.231  23.774  1.00  0.00     0.012 C 
ATOM     12  C   UNL     1      29.290   9.865  23.549  1.00  0.00     0.012 C 
ATOM     13  C   UNL     1      30.544   7.910  25.766  1.00  0.00     0.009 C 
ATOM     14  C   UNL     1      30.149   7.761  27.245  1.00  0.00     0.031 C 
ATOM     15  C   UNL     1      27.834   9.662  26.244  1.00  0.00     0.017 C 
ENDROOT
TORSDOF 0
ENDMDL
MODEL 7
REMARK VINA RESULT:    -4.454      1.427      3.186
REMARK INTER + INTRA:          -4.454
REMARK INTER:                  -4.454
REMARK INTRA:                   0.000
REMARK UNBOUND:                 0.000
REMARK SMILES C[C@H]1CCC=C2CC[C@@H]3[C@@H](C3(C)C)[C@@]21C
REMARK SMILES IDX 1 1 2 2 3 3 4 4 5 5 6 6 14 7 10 8 9 9 11 10 12 11 13 12 8 13
REMARK SMILES IDX 7 14 15 15
REMARK H PARENT
REMARK Flexibility Score: inf
ROOT
ATOM      1  C   UNL     1      29.545  11.012  32.327  1.00  0.00     0.008 C 
ATOM      2  C   UNL     1      30.193   9.728  32.904  1.00  0.00    -0.004 C 
ATOM      3  C   UNL     1      31.558   9.497  32.227  1.00  0.00     0.008 C 
ATOM      4  C   UNL     1      32.569  10.539  32.696  1.00  0.00     0.027 C 
ATOM      5  C   UNL     1      32.659  10.567  34.192  1.00  0.00    -0.027 C 
ATOM      6  C   UNL     1      31.665  10.153  35.010  1.00  0.00    -0.068 C 
ATOM      7  C   UNL     1      30.308   9.646  34.492  1.00  0.00    -0.005 C 
ATOM      8  C   UNL     1      30.240   8.111  34.863  1.00  0.00     0.009 C 
ATOM      9  C   UNL     1      30.813   7.735  36.255  1.00  0.00    -0.000 C 
ATOM     10  C   UNL     1      29.365   7.362  35.898  1.00  0.00    -0.028 C 
ATOM     11  C   UNL     1      29.168   5.875  35.562  1.00  0.00     0.012 C 
ATOM     12  C   UNL     1      28.137   8.013  36.563  1.00  0.00     0.012 C 
ATOM     13  C   UNL     1      31.155   8.915  37.189  1.00  0.00     0.009 C 
ATOM     14  C   UNL     1      31.998   9.991  36.484  1.00  0.00     0.031 C 
ATOM     15  C   UNL     1      29.193  10.516  35.132  1.00  0.00     0.017 C 
ENDROOT
TORSDOF 0
ENDMDL
MODEL 8
REMARK VINA RESULT:    -4.413      4.913      7.070
REMARK INTER + INTRA:          -4.413
REMARK INTER:                  -4.413
REMARK INTRA:                   0.000
REMARK UNBOUND:                 0.000
REMARK SMILES C[C@H]1CCC=C2CC[C@@H]3[C@@H](C3(C)C)[C@@]21C
REMARK SMILES IDX 1 1 2 2 3 3 4 4 5 5 6 6 14 7 10 8 9 9 11 10 12 11 13 12 8 13
REMARK SMILES IDX 7 14 15 15
REMARK H PARENT
REMARK Flexibility Score: inf
ROOT
ATOM      1  C   UNL     1      30.434  11.461  24.789  1.00  0.00     0.008 C 
ATOM      2  C   UNL     1      29.102  11.135  25.510  1.00  0.00    -0.004 C 
ATOM      3  C   UNL     1      28.699   9.679  25.205  1.00  0.00     0.008 C 
ATOM      4  C   UNL     1      29.632   8.706  25.918  1.00  0.00     0.027 C 
ATOM      5  C   UNL     1      29.692   8.996  27.387  1.00  0.00    -0.027 C 
ATOM      6  C   UNL     1      29.416  10.206  27.924  1.00  0.00    -0.068 C 
ATOM      7  C   UNL     1      29.052  11.437  27.075  1.00  0.00    -0.005 C 
ATOM      8  C   UNL     1      27.545  11.775  27.414  1.00  0.00     0.009 C 
ATOM      9  C   UNL     1      27.147  11.622  28.906  1.00  0.00    -0.000 C 
ATOM     10  C   UNL     1      26.929  12.966  28.190  1.00  0.00    -0.028 C 
ATOM     11  C   UNL     1      25.466  13.243  27.813  1.00  0.00     0.012 C 
ATOM     12  C   UNL     1      27.734  14.237  28.520  1.00  0.00     0.012 C 
ATOM     13  C   UNL     1      28.306  11.394  29.898  1.00  0.00     0.009 C 
ATOM     14  C   UNL     1      29.260  10.280  29.434  1.00  0.00     0.031 C 
ATOM     15  C   UNL     1      30.060  12.568  27.410  1.00  0.00     0.017 C 
ENDROOT
TORSDOF 0
ENDMDL
