MODEL 1
REMARK VINA RESULT:    -4.716      0.000      0.000
REMARK INTER + INTRA:          -6.162
REMARK INTER:                  -5.818
REMARK INTRA:                  -0.344
REMARK UNBOUND:                -0.344
REMARK SMILES O=C1c2c(O)cc(O)cc2O[C@@H](c2cc(O)c(O)c(O)c2)[C@@H]1O
REMARK SMILES IDX 12 1 22 2 2 3 1 4 3 5 4 6 6 7 7 8 9 9 10 10 11 11 13 12
REMARK SMILES IDX 14 13 15 14 21 15 17 16 19 17 16 18 18 20 20 22 23 24 5 26
REMARK SMILES IDX 8 28
REMARK H PARENT 16 19 18 21 20 23 23 25 5 27 8 29
REMARK Flexibility Score: inf
ROOT
ATOM      1  C   UNL     1       7.587  10.537   8.128  1.00  0.00     0.240 C 
ATOM      2  C   UNL     1       8.640  11.058   9.131  1.00  0.00     0.231 C 
ATOM      3  C   UNL     1       8.023  12.104  10.024  1.00  0.00     0.202 C 
ATOM      4  O   UNL     1       8.440  12.233  11.207  1.00  0.00    -0.291 OA
ATOM      5  C   UNL     1       6.994  13.021   9.476  1.00  0.00     0.105 A 
ATOM      6  C   UNL     1       6.529  14.154  10.180  1.00  0.00     0.133 A 
ATOM      7  C   UNL     1       5.591  15.009   9.580  1.00  0.00     0.093 A 
ATOM      8  C   UNL     1       5.121  14.752   8.290  1.00  0.00     0.123 A 
ATOM      9  C   UNL     1       5.577  13.628   7.593  1.00  0.00     0.093 A 
ATOM     10  C   UNL     1       6.496  12.758   8.186  1.00  0.00     0.138 A 
ATOM     11  O   UNL     1       6.923  11.627   7.483  1.00  0.00    -0.481 OA
ENDROOT
BRANCH   1  12
ATOM     12  C   UNL     1       8.219   9.643   7.087  1.00  0.00     0.003 A 
ATOM     13  C   UNL     1       9.448   9.992   6.506  1.00  0.00     0.058 A 
ATOM     14  C   UNL     1      10.026   9.181   5.519  1.00  0.00     0.161 A 
ATOM     15  C   UNL     1       7.563   8.479   6.655  1.00  0.00     0.058 A 
ATOM     16  C   UNL     1       9.369   8.011   5.101  1.00  0.00     0.200 A 
ATOM     17  C   UNL     1       8.133   7.663   5.672  1.00  0.00     0.161 A 
BRANCH  14  18
ATOM     18  O   UNL     1      11.249   9.536   4.953  1.00  0.00    -0.504 OA
ATOM     19  H   UNL     1      11.411  10.460   4.571  1.00  0.00     0.293 HD
ENDBRANCH  14  18
BRANCH  16  20
ATOM     20  O   UNL     1       9.932   7.192   4.122  1.00  0.00    -0.502 OA
ATOM     21  H   UNL     1       9.931   7.443   3.142  1.00  0.00     0.293 HD
ENDBRANCH  16  20
BRANCH  17  22
ATOM     22  O   UNL     1       7.454   6.512   5.274  1.00  0.00    -0.504 OA
ATOM     23  H   UNL     1       7.432   5.675   5.843  1.00  0.00     0.293 HD
ENDBRANCH  17  22
ENDBRANCH   1  12
BRANCH   2  24
ATOM     24  O   UNL     1       9.123   9.995   9.914  1.00  0.00    -0.381 OA
ATOM     25  H   UNL     1       8.636  10.030  10.779  1.00  0.00     0.211 HD
ENDBRANCH   2  24
BRANCH   6  26
ATOM     26  O   UNL     1       6.999  14.440  11.462  1.00  0.00    -0.507 OA
ATOM     27  H   UNL     1       7.018  15.386  11.823  1.00  0.00     0.293 HD
ENDBRANCH   6  26
BRANCH   8  28
ATOM     28  O   UNL     1       4.197  15.619   7.710  1.00  0.00    -0.508 OA
ATOM     29  H   UNL     1       4.025  15.619   6.711  1.00  0.00     0.293 HD
ENDBRANCH   8  28
TORSDOF 7
ENDMDL
MODEL 2
REMARK VINA RESULT:    -4.673      0.325      1.785
REMARK INTER + INTRA:          -6.109
REMARK INTER:                  -5.766
REMARK INTRA:                  -0.343
REMARK UNBOUND:                -0.344
REMARK SMILES O=C1c2c(O)cc(O)cc2O[C@@H](c2cc(O)c(O)c(O)c2)[C@@H]1O
REMARK SMILES IDX 12 1 22 2 2 3 1 4 3 5 4 6 6 7 7 8 9 9 10 10 11 11 13 12
REMARK SMILES IDX 14 13 15 14 21 15 17 16 19 17 16 18 18 20 20 22 23 24 5 26
REMARK SMILES IDX 8 28
REMARK H PARENT 16 19 18 21 20 23 23 25 5 27 8 29
REMARK Flexibility Score: inf
ROOT
ATOM      1  C   UNL     1       7.714  10.360   8.042  1.00  0.00     0.240 C 
ATOM      2  C   UNL     1       8.777  10.762   9.089  1.00  0.00     0.231 C 
ATOM      3  C   UNL     1       8.193  11.763  10.053  1.00  0.00     0.202 C 
ATOM      4  O   UNL     1       8.602  11.787  11.246  1.00  0.00    -0.291 OA
ATOM      5  C   UNL     1       7.208  12.760   9.567  1.00  0.00     0.105 A 
ATOM      6  C   UNL     1       6.781  13.856  10.349  1.00  0.00     0.133 A 
ATOM      7  C   UNL     1       5.885  14.790   9.808  1.00  0.00     0.093 A 
ATOM      8  C   UNL     1       5.418  14.649   8.499  1.00  0.00     0.123 A 
ATOM      9  C   UNL     1       5.836  13.561   7.723  1.00  0.00     0.093 A 
ATOM     10  C   UNL     1       6.713  12.613   8.257  1.00  0.00     0.138 A 
ATOM     11  O   UNL     1       7.101  11.520   7.476  1.00  0.00    -0.481 OA
ENDROOT
BRANCH   1  12
ATOM     12  C   UNL     1       8.321   9.521   6.943  1.00  0.00     0.003 A 
ATOM     13  C   UNL     1       7.663   8.368   6.487  1.00  0.00     0.058 A 
ATOM     14  C   UNL     1       8.235   7.570   5.486  1.00  0.00     0.161 A 
ATOM     15  C   UNL     1       9.570   9.857   6.397  1.00  0.00     0.058 A 
ATOM     16  C   UNL     1       9.480   7.919   4.936  1.00  0.00     0.200 A 
ATOM     17  C   UNL     1      10.148   9.067   5.398  1.00  0.00     0.161 A 
BRANCH  14  18
ATOM     18  O   UNL     1       7.570   6.430   5.039  1.00  0.00    -0.504 OA
ATOM     19  H   UNL     1       7.364   6.284   4.056  1.00  0.00     0.293 HD
ENDBRANCH  14  18
BRANCH  16  20
ATOM     20  O   UNL     1      10.062   7.137   3.939  1.00  0.00    -0.502 OA
ATOM     21  H   UNL     1       9.947   6.132   3.905  1.00  0.00     0.293 HD
ENDBRANCH  16  20
BRANCH  17  22
ATOM     22  O   UNL     1      11.387   9.437   4.876  1.00  0.00    -0.504 OA
ATOM     23  H   UNL     1      11.607  10.397   4.637  1.00  0.00     0.293 HD
ENDBRANCH  17  22
ENDBRANCH   1  12
BRANCH   2  24
ATOM     24  O   UNL     1       9.209   9.626   9.795  1.00  0.00    -0.381 OA
ATOM     25  H   UNL     1       9.927   9.925  10.412  1.00  0.00     0.211 HD
ENDBRANCH   2  24
BRANCH   6  26
ATOM     26  O   UNL     1       7.249  14.026  11.653  1.00  0.00    -0.507 OA
ATOM     27  H   UNL     1       7.283  13.256  12.310  1.00  0.00     0.293 HD
ENDBRANCH   6  26
BRANCH   8  28
ATOM     28  O   UNL     1       4.536  15.593   7.978  1.00  0.00    -0.508 OA
ATOM     29  H   UNL     1       4.547  15.844   6.996  1.00  0.00     0.293 HD
ENDBRANCH   8  28
TORSDOF 7
ENDMDL
MODEL 3
REMARK VINA RESULT:    -4.664      2.443      3.216
REMARK INTER + INTRA:          -6.098
REMARK INTER:                  -5.727
REMARK INTRA:                  -0.372
REMARK UNBOUND:                -0.344
REMARK SMILES O=C1c2c(O)cc(O)cc2O[C@@H](c2cc(O)c(O)c(O)c2)[C@@H]1O
REMARK SMILES IDX 12 1 22 2 2 3 1 4 3 5 4 6 6 7 7 8 9 9 10 10 11 11 13 12
REMARK SMILES IDX 14 13 15 14 21 15 17 16 19 17 16 18 18 20 20 22 23 24 5 26
REMARK SMILES IDX 8 28
REMARK H PARENT 16 19 18 21 20 23 23 25 5 27 8 29
REMARK Flexibility Score: inf
ROOT
ATOM      1  C   UNL     1       7.722  10.360   7.921  1.00  0.00     0.240 C 
ATOM      2  C   UNL     1       7.927  11.820   7.461  1.00  0.00     0.231 C 
ATOM      3  C   UNL     1       6.731  12.652   7.849  1.00  0.00     0.202 C 
ATOM      4  O   UNL     1       6.886  13.874   8.118  1.00  0.00    -0.291 OA
ATOM      5  C   UNL     1       5.378  12.044   7.829  1.00  0.00     0.105 A 
ATOM      6  C   UNL     1       4.197  12.806   7.968  1.00  0.00     0.133 A 
ATOM      7  C   UNL     1       2.947  12.172   7.888  1.00  0.00     0.093 A 
ATOM      8  C   UNL     1       2.862  10.796   7.663  1.00  0.00     0.123 A 
ATOM      9  C   UNL     1       4.031  10.039   7.528  1.00  0.00     0.093 A 
ATOM     10  C   UNL     1       5.282  10.655   7.625  1.00  0.00     0.138 A 
ATOM     11  O   UNL     1       6.440   9.878   7.512  1.00  0.00    -0.481 OA
ENDROOT
BRANCH   1  12
ATOM     12  C   UNL     1       8.801   9.457   7.371  1.00  0.00     0.003 A 
ATOM     13  C   UNL     1       9.523   8.613   8.228  1.00  0.00     0.058 A 
ATOM     14  C   UNL     1      10.545   7.794   7.727  1.00  0.00     0.161 A 
ATOM     15  C   UNL     1       9.124   9.486   6.004  1.00  0.00     0.058 A 
ATOM     16  C   UNL     1      10.855   7.819   6.356  1.00  0.00     0.200 A 
ATOM     17  C   UNL     1      10.141   8.671   5.496  1.00  0.00     0.161 A 
BRANCH  14  18
ATOM     18  O   UNL     1      11.252   6.956   8.587  1.00  0.00    -0.504 OA
ATOM     19  H   UNL     1      12.241   7.088   8.765  1.00  0.00     0.293 HD
ENDBRANCH  14  18
BRANCH  16  20
ATOM     20  O   UNL     1      11.867   7.009   5.841  1.00  0.00    -0.502 OA
ATOM     21  H   UNL     1      11.907   6.750   4.863  1.00  0.00     0.293 HD
ENDBRANCH  16  20
BRANCH  17  22
ATOM     22  O   UNL     1      10.430   8.723   4.132  1.00  0.00    -0.504 OA
ATOM     23  H   UNL     1      11.372   8.851   3.785  1.00  0.00     0.293 HD
ENDBRANCH  17  22
ENDBRANCH   1  12
BRANCH   2  24
ATOM     24  O   UNL     1       9.084  12.353   8.056  1.00  0.00    -0.381 OA
ATOM     25  H   UNL     1       9.808  12.297   7.379  1.00  0.00     0.211 HD
ENDBRANCH   2  24
BRANCH   6  26
ATOM     26  O   UNL     1       4.258  14.184   8.176  1.00  0.00    -0.507 OA
ATOM     27  H   UNL     1       3.844  14.839   7.523  1.00  0.00     0.293 HD
ENDBRANCH   6  26
BRANCH   8  28
ATOM     28  O   UNL     1       1.611  10.190   7.577  1.00  0.00    -0.508 OA
ATOM     29  H   UNL     1       1.476   9.322   7.070  1.00  0.00     0.293 HD
ENDBRANCH   8  28
TORSDOF 7
ENDMDL
MODEL 4
REMARK VINA RESULT:    -4.662      2.778      4.995
REMARK INTER + INTRA:          -6.096
REMARK INTER:                  -5.735
REMARK INTRA:                  -0.360
REMARK UNBOUND:                -0.344
REMARK SMILES O=C1c2c(O)cc(O)cc2O[C@@H](c2cc(O)c(O)c(O)c2)[C@@H]1O
REMARK SMILES IDX 12 1 22 2 2 3 1 4 3 5 4 6 6 7 7 8 9 9 10 10 11 11 13 12
REMARK SMILES IDX 14 13 15 14 21 15 17 16 19 17 16 18 18 20 20 22 23 24 5 26
REMARK SMILES IDX 8 28
REMARK H PARENT 16 19 18 21 20 23 23 25 5 27 8 29
REMARK Flexibility Score: inf
ROOT
ATOM      1  C   UNL     1       4.961  14.093   8.095  1.00  0.00     0.240 C 
ATOM      2  C   UNL     1       5.351  15.371   8.870  1.00  0.00     0.231 C 
ATOM      3  C   UNL     1       4.198  16.341   8.871  1.00  0.00     0.202 C 
ATOM      4  O   UNL     1       4.042  17.119   9.851  1.00  0.00    -0.291 OA
ATOM      5  C   UNL     1       3.310  16.427   7.685  1.00  0.00     0.105 A 
ATOM      6  C   UNL     1       2.349  17.449   7.522  1.00  0.00     0.133 A 
ATOM      7  C   UNL     1       1.578  17.498   6.351  1.00  0.00     0.093 A 
ATOM      8  C   UNL     1       1.759  16.550   5.341  1.00  0.00     0.123 A 
ATOM      9  C   UNL     1       2.708  15.534   5.502  1.00  0.00     0.093 A 
ATOM     10  C   UNL     1       3.469  15.462   6.672  1.00  0.00     0.138 A 
ATOM     11  O   UNL     1       4.396  14.426   6.825  1.00  0.00    -0.481 OA
ENDROOT
BRANCH   1  12
ATOM     12  C   UNL     1       6.155  13.189   7.896  1.00  0.00     0.003 A 
ATOM     13  C   UNL     1       7.374  13.716   7.443  1.00  0.00     0.058 A 
ATOM     14  C   UNL     1       8.478  12.878   7.230  1.00  0.00     0.161 A 
ATOM     15  C   UNL     1       6.046  11.807   8.116  1.00  0.00     0.058 A 
ATOM     16  C   UNL     1       8.365  11.497   7.464  1.00  0.00     0.200 A 
ATOM     17  C   UNL     1       7.142  10.963   7.907  1.00  0.00     0.161 A 
BRANCH  14  18
ATOM     18  O   UNL     1       9.685  13.414   6.785  1.00  0.00    -0.504 OA
ATOM     19  H   UNL     1      10.062  14.272   7.173  1.00  0.00     0.293 HD
ENDBRANCH  14  18
BRANCH  16  20
ATOM     20  O   UNL     1       9.454  10.649   7.259  1.00  0.00    -0.502 OA
ATOM     21  H   UNL     1       9.360   9.642   7.257  1.00  0.00     0.293 HD
ENDBRANCH  16  20
BRANCH  17  22
ATOM     22  O   UNL     1       6.997   9.596   8.143  1.00  0.00    -0.504 OA
ATOM     23  H   UNL     1       7.443   8.898   7.560  1.00  0.00     0.293 HD
ENDBRANCH  17  22
ENDBRANCH   1  12
BRANCH   2  24
ATOM     24  O   UNL     1       5.694  15.045  10.193  1.00  0.00    -0.381 OA
ATOM     25  H   UNL     1       6.189  14.185  10.160  1.00  0.00     0.211 HD
ENDBRANCH   2  24
BRANCH   6  26
ATOM     26  O   UNL     1       2.164  18.417   8.510  1.00  0.00    -0.507 OA
ATOM     27  H   UNL     1       2.793  18.498   9.300  1.00  0.00     0.293 HD
ENDBRANCH   6  26
BRANCH   8  28
ATOM     28  O   UNL     1       0.990  16.625   4.182  1.00  0.00    -0.508 OA
ATOM     29  H   UNL     1       0.274  15.937   3.976  1.00  0.00     0.293 HD
ENDBRANCH   8  28
TORSDOF 7
ENDMDL
MODEL 5
REMARK VINA RESULT:    -4.633      2.949      7.767
REMARK INTER + INTRA:          -6.060
REMARK INTER:                  -5.738
REMARK INTRA:                  -0.322
REMARK UNBOUND:                -0.344
REMARK SMILES O=C1c2c(O)cc(O)cc2O[C@@H](c2cc(O)c(O)c(O)c2)[C@@H]1O
REMARK SMILES IDX 12 1 22 2 2 3 1 4 3 5 4 6 6 7 7 8 9 9 10 10 11 11 13 12
REMARK SMILES IDX 14 13 15 14 21 15 17 16 19 17 16 18 18 20 20 22 23 24 5 26
REMARK SMILES IDX 8 28
REMARK H PARENT 16 19 18 21 20 23 23 25 5 27 8 29
REMARK Flexibility Score: inf
ROOT
ATOM      1  C   UNL     1       9.262   8.864   6.612  1.00  0.00     0.240 C 
ATOM      2  C   UNL     1      10.048   8.897   5.283  1.00  0.00     0.231 C 
ATOM      3  C   UNL     1      10.773   7.590   5.085  1.00  0.00     0.202 C 
ATOM      4  O   UNL     1      10.967   7.160   3.915  1.00  0.00    -0.291 OA
ATOM      5  C   UNL     1      11.321   6.870   6.261  1.00  0.00     0.105 A 
ATOM      6  C   UNL     1      12.190   5.763   6.141  1.00  0.00     0.133 A 
ATOM      7  C   UNL     1      12.712   5.161   7.296  1.00  0.00     0.093 A 
ATOM      8  C   UNL     1      12.386   5.653   8.562  1.00  0.00     0.123 A 
ATOM      9  C   UNL     1      11.522   6.747   8.683  1.00  0.00     0.093 A 
ATOM     10  C   UNL     1      10.980   7.344   7.541  1.00  0.00     0.138 A 
ATOM     11  O   UNL     1      10.099   8.422   7.682  1.00  0.00    -0.481 OA
ENDROOT
BRANCH   1  12
ATOM     12  C   UNL     1       8.693  10.224   6.944  1.00  0.00     0.003 A 
ATOM     13  C   UNL     1       9.440  11.385   6.689  1.00  0.00     0.058 A 
ATOM     14  C   UNL     1       8.929  12.647   7.021  1.00  0.00     0.161 A 
ATOM     15  C   UNL     1       7.433  10.340   7.554  1.00  0.00     0.058 A 
ATOM     16  C   UNL     1       7.662  12.756   7.620  1.00  0.00     0.200 A 
ATOM     17  C   UNL     1       6.916  11.596   7.887  1.00  0.00     0.161 A 
BRANCH  14  18
ATOM     18  O   UNL     1       9.677  13.794   6.758  1.00  0.00    -0.504 OA
ATOM     19  H   UNL     1      10.541  13.756   6.229  1.00  0.00     0.293 HD
ENDBRANCH  14  18
BRANCH  16  20
ATOM     20  O   UNL     1       7.138  14.005   7.954  1.00  0.00    -0.502 OA
ATOM     21  H   UNL     1       7.716  14.755   8.312  1.00  0.00     0.293 HD
ENDBRANCH  16  20
BRANCH  17  22
ATOM     22  O   UNL     1       5.658  11.670   8.485  1.00  0.00    -0.504 OA
ATOM     23  H   UNL     1       4.907  11.036   8.243  1.00  0.00     0.293 HD
ENDBRANCH  17  22
ENDBRANCH   1  12
BRANCH   2  24
ATOM     24  O   UNL     1       9.167   9.114   4.209  1.00  0.00    -0.381 OA
ATOM     25  H   UNL     1       8.363   9.563   4.582  1.00  0.00     0.211 HD
ENDBRANCH   2  24
BRANCH   6  26
ATOM     26  O   UNL     1      12.543   5.266   4.886  1.00  0.00    -0.507 OA
ATOM     27  H   UNL     1      12.882   4.319   4.765  1.00  0.00     0.293 HD
ENDBRANCH   6  26
BRANCH   8  28
ATOM     28  O   UNL     1      12.923   5.045   9.695  1.00  0.00    -0.508 OA
ATOM     29  H   UNL     1      12.337   4.750  10.467  1.00  0.00     0.293 HD
ENDBRANCH   8  28
TORSDOF 7
ENDMDL
MODEL 6
REMARK VINA RESULT:    -4.600      2.541      3.255
REMARK INTER + INTRA:          -6.020
REMARK INTER:                  -5.781
REMARK INTRA:                  -0.239
REMARK UNBOUND:                -0.344
REMARK SMILES O=C1c2c(O)cc(O)cc2O[C@@H](c2cc(O)c(O)c(O)c2)[C@@H]1O
REMARK SMILES IDX 12 1 22 2 2 3 1 4 3 5 4 6 6 7 7 8 9 9 10 10 11 11 13 12
REMARK SMILES IDX 14 13 15 14 21 15 17 16 19 17 16 18 18 20 20 22 23 24 5 26
REMARK SMILES IDX 8 28
REMARK H PARENT 16 19 18 21 20 23 23 25 5 27 8 29
REMARK Flexibility Score: inf
ROOT
ATOM      1  C   UNL     1       8.137  10.078   7.931  1.00  0.00     0.240 C 
ATOM      2  C   UNL     1       8.256  11.549   7.476  1.00  0.00     0.231 C 
ATOM      3  C   UNL     1       7.003  12.302   7.843  1.00  0.00     0.202 C 
ATOM      4  O   UNL     1       7.075  13.531   8.116  1.00  0.00    -0.291 OA
ATOM      5  C   UNL     1       5.692  11.609   7.798  1.00  0.00     0.105 A 
ATOM      6  C   UNL     1       4.462  12.293   7.918  1.00  0.00     0.133 A 
ATOM      7  C   UNL     1       3.257  11.581   7.815  1.00  0.00     0.093 A 
ATOM      8  C   UNL     1       3.264  10.203   7.587  1.00  0.00     0.123 A 
ATOM      9  C   UNL     1       4.482   9.522   7.472  1.00  0.00     0.093 A 
ATOM     10  C   UNL     1       5.689  10.217   7.592  1.00  0.00     0.138 A 
ATOM     11  O   UNL     1       6.896   9.516   7.498  1.00  0.00    -0.481 OA
ENDROOT
BRANCH   1  12
ATOM     12  C   UNL     1       9.281   9.247   7.398  1.00  0.00     0.003 A 
ATOM     13  C   UNL     1       9.902   9.591   6.188  1.00  0.00     0.058 A 
ATOM     14  C   UNL     1      10.946   8.808   5.675  1.00  0.00     0.161 A 
ATOM     15  C   UNL     1       9.705   8.097   8.084  1.00  0.00     0.058 A 
ATOM     16  C   UNL     1      11.373   7.665   6.372  1.00  0.00     0.200 A 
ATOM     17  C   UNL     1      10.746   7.311   7.580  1.00  0.00     0.161 A 
BRANCH  14  18
ATOM     18  O   UNL     1      11.558   9.162   4.474  1.00  0.00    -0.504 OA
ATOM     19  H   UNL     1      11.130   9.819   3.831  1.00  0.00     0.293 HD
ENDBRANCH  14  18
BRANCH  16  20
ATOM     20  O   UNL     1      12.412   6.877   5.877  1.00  0.00    -0.502 OA
ATOM     21  H   UNL     1      12.628   5.965   6.261  1.00  0.00     0.293 HD
ENDBRANCH  16  20
BRANCH  17  22
ATOM     22  O   UNL     1      11.144   6.180   8.292  1.00  0.00    -0.504 OA
ATOM     23  H   UNL     1      12.114   5.998   8.519  1.00  0.00     0.293 HD
ENDBRANCH  17  22
ENDBRANCH   1  12
BRANCH   2  24
ATOM     24  O   UNL     1       9.366  12.154   8.092  1.00  0.00    -0.381 OA
ATOM     25  H   UNL     1       9.011  12.762   8.793  1.00  0.00     0.211 HD
ENDBRANCH   2  24
BRANCH   6  26
ATOM     26  O   UNL     1       4.431  13.672   8.128  1.00  0.00    -0.507 OA
ATOM     27  H   UNL     1       5.160  14.147   8.647  1.00  0.00     0.293 HD
ENDBRANCH   6  26
BRANCH   8  28
ATOM     28  O   UNL     1       2.056   9.518   7.477  1.00  0.00    -0.508 OA
ATOM     29  H   UNL     1       1.542   9.486   6.605  1.00  0.00     0.293 HD
ENDBRANCH   8  28
TORSDOF 7
ENDMDL
MODEL 7
REMARK VINA RESULT:    -4.557      1.846      6.618
REMARK INTER + INTRA:          -5.967
REMARK INTER:                  -5.588
REMARK INTRA:                  -0.379
REMARK UNBOUND:                -0.344
REMARK SMILES O=C1c2c(O)cc(O)cc2O[C@@H](c2cc(O)c(O)c(O)c2)[C@@H]1O
REMARK SMILES IDX 12 1 22 2 2 3 1 4 3 5 4 6 6 7 7 8 9 9 10 10 11 11 13 12
REMARK SMILES IDX 14 13 15 14 21 15 17 16 19 17 16 18 18 20 20 22 23 24 5 26
REMARK SMILES IDX 8 28
REMARK H PARENT 16 19 18 21 20 23 23 25 5 27 8 29
REMARK Flexibility Score: inf
ROOT
ATOM      1  C   UNL     1       7.889  11.359   8.440  1.00  0.00     0.240 C 
ATOM      2  C   UNL     1       7.595  10.096   9.280  1.00  0.00     0.231 C 
ATOM      3  C   UNL     1       8.749   9.131   9.174  1.00  0.00     0.202 C 
ATOM      4  O   UNL     1       9.016   8.375  10.147  1.00  0.00    -0.291 OA
ATOM      5  C   UNL     1       9.501   9.025   7.899  1.00  0.00     0.105 A 
ATOM      6  C   UNL     1      10.445   8.003   7.654  1.00  0.00     0.133 A 
ATOM      7  C   UNL     1      11.083   7.932   6.406  1.00  0.00     0.093 A 
ATOM      8  C   UNL     1      10.785   8.858   5.402  1.00  0.00     0.123 A 
ATOM      9  C   UNL     1       9.852   9.872   5.645  1.00  0.00     0.093 A 
ATOM     10  C   UNL     1       9.224   9.966   6.891  1.00  0.00     0.138 A 
ATOM     11  O   UNL     1       8.313  11.001   7.124  1.00  0.00    -0.481 OA
ENDROOT
BRANCH   1  12
ATOM     12  C   UNL     1       6.673  12.253   8.355  1.00  0.00     0.003 A 
ATOM     13  C   UNL     1       6.753  13.595   8.756  1.00  0.00     0.058 A 
ATOM     14  C   UNL     1       5.621  14.422   8.706  1.00  0.00     0.161 A 
ATOM     15  C   UNL     1       5.441  11.739   7.919  1.00  0.00     0.058 A 
ATOM     16  C   UNL     1       4.394  13.904   8.257  1.00  0.00     0.200 A 
ATOM     17  C   UNL     1       4.308  12.557   7.865  1.00  0.00     0.161 A 
BRANCH  14  18
ATOM     18  O   UNL     1       5.714  15.755   9.102  1.00  0.00    -0.504 OA
ATOM     19  H   UNL     1       6.610  16.211   9.231  1.00  0.00     0.293 HD
ENDBRANCH  14  18
BRANCH  16  20
ATOM     20  O   UNL     1       3.260  14.713   8.198  1.00  0.00    -0.502 OA
ATOM     21  H   UNL     1       3.315  15.724   8.225  1.00  0.00     0.293 HD
ENDBRANCH  16  20
BRANCH  17  22
ATOM     22  O   UNL     1       3.103  12.012   7.420  1.00  0.00    -0.504 OA
ATOM     23  H   UNL     1       3.051  11.410   6.608  1.00  0.00     0.293 HD
ENDBRANCH  17  22
ENDBRANCH   1  12
BRANCH   2  24
ATOM     24  O   UNL     1       7.398  10.448  10.626  1.00  0.00    -0.381 OA
ATOM     25  H   UNL     1       6.797   9.763  11.019  1.00  0.00     0.211 HD
ENDBRANCH   2  24
BRANCH   6  26
ATOM     26  O   UNL     1      10.745   7.058   8.635  1.00  0.00    -0.507 OA
ATOM     27  H   UNL     1      11.436   7.239   9.354  1.00  0.00     0.293 HD
ENDBRANCH   6  26
BRANCH   8  28
ATOM     28  O   UNL     1      11.422   8.762   4.167  1.00  0.00    -0.508 OA
ATOM     29  H   UNL     1      11.922   9.548   3.766  1.00  0.00     0.293 HD
ENDBRANCH   8  28
TORSDOF 7
ENDMDL
MODEL 8
REMARK VINA RESULT:    -4.540      1.844      6.805
REMARK INTER + INTRA:          -5.946
REMARK INTER:                  -5.566
REMARK INTRA:                  -0.380
REMARK UNBOUND:                -0.344
REMARK SMILES O=C1c2c(O)cc(O)cc2O[C@@H](c2cc(O)c(O)c(O)c2)[C@@H]1O
REMARK SMILES IDX 12 1 22 2 2 3 1 4 3 5 4 6 6 7 7 8 9 9 10 10 11 11 13 12
REMARK SMILES IDX 14 13 15 14 21 15 17 16 19 17 16 18 18 20 20 22 23 24 5 26
REMARK SMILES IDX 8 28
REMARK H PARENT 16 19 18 21 20 23 23 25 5 27 8 29
REMARK Flexibility Score: inf
ROOT
ATOM      1  C   UNL     1       7.890  11.340   8.468  1.00  0.00     0.240 C 
ATOM      2  C   UNL     1       7.628  10.072   9.310  1.00  0.00     0.231 C 
ATOM      3  C   UNL     1       8.792   9.124   9.184  1.00  0.00     0.202 C 
ATOM      4  O   UNL     1       9.087   8.371  10.151  1.00  0.00    -0.291 OA
ATOM      5  C   UNL     1       9.524   9.029   7.897  1.00  0.00     0.105 A 
ATOM      6  C   UNL     1      10.478   8.021   7.633  1.00  0.00     0.133 A 
ATOM      7  C   UNL     1      11.096   7.960   6.375  1.00  0.00     0.093 A 
ATOM      8  C   UNL     1      10.768   8.883   5.378  1.00  0.00     0.123 A 
ATOM      9  C   UNL     1       9.827   9.884   5.638  1.00  0.00     0.093 A 
ATOM     10  C   UNL     1       9.218   9.968   6.894  1.00  0.00     0.138 A 
ATOM     11  O   UNL     1       8.297  10.990   7.143  1.00  0.00    -0.481 OA
ENDROOT
BRANCH   1  12
ATOM     12  C   UNL     1       6.661  12.217   8.404  1.00  0.00     0.003 A 
ATOM     13  C   UNL     1       5.443  11.697   7.942  1.00  0.00     0.058 A 
ATOM     14  C   UNL     1       4.307  12.513   7.855  1.00  0.00     0.161 A 
ATOM     15  C   UNL     1       6.735  13.573   8.763  1.00  0.00     0.058 A 
ATOM     16  C   UNL     1       4.385  13.867   8.226  1.00  0.00     0.200 A 
ATOM     17  C   UNL     1       5.606  14.395   8.679  1.00  0.00     0.161 A 
BRANCH  14  18
ATOM     18  O   UNL     1       3.101  11.984   7.399  1.00  0.00    -0.504 OA
ATOM     19  H   UNL     1       2.207  12.352   7.706  1.00  0.00     0.293 HD
ENDBRANCH  14  18
BRANCH  16  20
ATOM     20  O   UNL     1       3.263  14.692   8.147  1.00  0.00    -0.502 OA
ATOM     21  H   UNL     1       2.369  14.427   8.541  1.00  0.00     0.293 HD
ENDBRANCH  16  20
BRANCH  17  22
ATOM     22  O   UNL     1       5.718  15.735   9.050  1.00  0.00    -0.504 OA
ATOM     23  H   UNL     1       5.053  16.435   8.745  1.00  0.00     0.293 HD
ENDBRANCH  17  22
ENDBRANCH   1  12
BRANCH   2  24
ATOM     24  O   UNL     1       7.449  10.421  10.660  1.00  0.00    -0.381 OA
ATOM     25  H   UNL     1       6.864   9.726  11.062  1.00  0.00     0.211 HD
ENDBRANCH   2  24
BRANCH   6  26
ATOM     26  O   UNL     1      10.807   7.079   8.608  1.00  0.00    -0.507 OA
ATOM     27  H   UNL     1      11.508   7.268   9.316  1.00  0.00     0.293 HD
ENDBRANCH   6  26
BRANCH   8  28
ATOM     28  O   UNL     1      11.386   8.797   4.133  1.00  0.00    -0.508 OA
ATOM     29  H   UNL     1      11.868   9.590   3.724  1.00  0.00     0.293 HD
ENDBRANCH   8  28
TORSDOF 7
ENDMDL
MODEL 9
REMARK VINA RESULT:    -4.514      2.664      8.281
REMARK INTER + INTRA:          -5.913
REMARK INTER:                  -5.580
REMARK INTRA:                  -0.333
REMARK UNBOUND:                -0.344
REMARK SMILES O=C1c2c(O)cc(O)cc2O[C@@H](c2cc(O)c(O)c(O)c2)[C@@H]1O
REMARK SMILES IDX 12 1 22 2 2 3 1 4 3 5 4 6 6 7 7 8 9 9 10 10 11 11 13 12
REMARK SMILES IDX 14 13 15 14 21 15 17 16 19 17 16 18 18 20 20 22 23 24 5 26
REMARK SMILES IDX 8 28
REMARK H PARENT 16 19 18 21 20 23 23 25 5 27 8 29
REMARK Flexibility Score: inf
ROOT
ATOM      1  C   UNL     1      10.100   8.679   5.772  1.00  0.00     0.240 C 
ATOM      2  C   UNL     1       9.196   8.388   4.553  1.00  0.00     0.231 C 
ATOM      3  C   UNL     1       9.894   7.438   3.614  1.00  0.00     0.202 C 
ATOM      4  O   UNL     1       9.210   6.635   2.923  1.00  0.00    -0.291 OA
ATOM      5  C   UNL     1      11.367   7.517   3.451  1.00  0.00     0.105 A 
ATOM      6  C   UNL     1      12.062   6.816   2.441  1.00  0.00     0.133 A 
ATOM      7  C   UNL     1      13.450   6.977   2.313  1.00  0.00     0.093 A 
ATOM      8  C   UNL     1      14.148   7.831   3.171  1.00  0.00     0.123 A 
ATOM      9  C   UNL     1      13.462   8.524   4.174  1.00  0.00     0.093 A 
ATOM     10  C   UNL     1      12.082   8.358   4.325  1.00  0.00     0.138 A 
ATOM     11  O   UNL     1      11.416   9.040   5.349  1.00  0.00    -0.481 OA
ENDROOT
BRANCH   1  12
ATOM     12  C   UNL     1       9.524   9.782   6.629  1.00  0.00     0.003 A 
ATOM     13  C   UNL     1       9.732  11.126   6.286  1.00  0.00     0.058 A 
ATOM     14  C   UNL     1       9.223  12.154   7.092  1.00  0.00     0.161 A 
ATOM     15  C   UNL     1       8.814   9.476   7.801  1.00  0.00     0.058 A 
ATOM     16  C   UNL     1       8.504  11.840   8.258  1.00  0.00     0.200 A 
ATOM     17  C   UNL     1       8.303  10.495   8.611  1.00  0.00     0.161 A 
BRANCH  14  18
ATOM     18  O   UNL     1       9.432  13.486   6.738  1.00  0.00    -0.504 OA
ATOM     19  H   UNL     1       9.232  14.245   7.380  1.00  0.00     0.293 HD
ENDBRANCH  14  18
BRANCH  16  20
ATOM     20  O   UNL     1       7.989  12.851   9.070  1.00  0.00    -0.502 OA
ATOM     21  H   UNL     1       7.157  13.372   8.822  1.00  0.00     0.293 HD
ENDBRANCH  16  20
BRANCH  17  22
ATOM     22  O   UNL     1       7.598  10.151   9.765  1.00  0.00    -0.504 OA
ATOM     23  H   UNL     1       8.062   9.816  10.600  1.00  0.00     0.293 HD
ENDBRANCH  17  22
ENDBRANCH   1  12
BRANCH   2  24
ATOM     24  O   UNL     1       7.983   7.822   4.979  1.00  0.00    -0.381 OA
ATOM     25  H   UNL     1       7.604   7.333   4.202  1.00  0.00     0.211 HD
ENDBRANCH   2  24
BRANCH   6  26
ATOM     26  O   UNL     1      11.383   5.971   1.563  1.00  0.00    -0.507 OA
ATOM     27  H   UNL     1      10.724   6.331   0.883  1.00  0.00     0.293 HD
ENDBRANCH   6  26
BRANCH   8  28
ATOM     28  O   UNL     1      15.525   7.983   3.019  1.00  0.00    -0.508 OA
ATOM     29  H   UNL     1      16.138   8.089   3.819  1.00  0.00     0.293 HD
ENDBRANCH   8  28
TORSDOF 7
ENDMDL
