MODEL 1
REMARK VINA RESULT:    -3.768      0.000      0.000
REMARK INTER + INTRA:          -5.460
REMARK INTER:                  -5.089
REMARK INTRA:                  -0.371
REMARK UNBOUND:                -0.371
REMARK SMILES CCCCCCC=CC(=O)[O-]
REMARK SMILES IDX 5 1 6 2 7 3 8 4 9 5 10 6 11 7 4 8 3 9 2 10 1 11
REMARK H PARENT
REMARK Flexibility Score: inf
ROOT
ATOM      1  C   UNL     1      56.610  27.566  50.854  1.00  0.00     0.004 C 
ENDROOT
BRANCH   1   2
ATOM      2  C   UNL     1      57.773  28.567  50.986  1.00  0.00     0.027 C 
BRANCH   2   3
ATOM      3  C   UNL     1      58.593  28.672  49.727  1.00  0.00    -0.025 C 
ATOM      4  C   UNL     1      59.558  27.821  49.338  1.00  0.00     0.020 C 
BRANCH   4   5
ATOM      5  C   UNL     1      60.053  26.647  50.086  1.00  0.00     0.064 C 
ATOM      6  O   UNL     1      60.968  26.738  50.945  1.00  0.00    -0.545 OA
ATOM      7  O   UNL     1      59.512  25.398  49.809  1.00  0.00    -0.545 OA
ENDBRANCH   4   5
ENDBRANCH   2   3
ENDBRANCH   1   2
BRANCH   1   8
ATOM      8  C   UNL     1      55.223  28.224  50.734  1.00  0.00     0.000 C 
BRANCH   8   9
ATOM      9  C   UNL     1      54.152  27.266  50.190  1.00  0.00    -0.000 C 
BRANCH   9  10
ATOM     10  C   UNL     1      54.731  25.862  49.974  1.00  0.00    -0.003 C 
ATOM     11  C   UNL     1      53.658  24.892  49.488  1.00  0.00     0.004 C 
ENDBRANCH   9  10
ENDBRANCH   8   9
ENDBRANCH   1   8
TORSDOF 6
ENDMDL
MODEL 2
REMARK VINA RESULT:    -3.619     12.183     14.113
REMARK INTER + INTRA:          -5.259
REMARK INTER:                  -4.864
REMARK INTRA:                  -0.395
REMARK UNBOUND:                -0.371
REMARK SMILES CCCCCCC=CC(=O)[O-]
REMARK SMILES IDX 5 1 6 2 7 3 8 4 9 5 10 6 11 7 4 8 3 9 2 10 1 11
REMARK H PARENT
REMARK Flexibility Score: inf
ROOT
ATOM      1  C   UNL     1      62.827  33.089  60.421  1.00  0.00     0.004 C 
ENDROOT
BRANCH   1   2
ATOM      2  C   UNL     1      61.771  32.024  60.072  1.00  0.00     0.027 C 
BRANCH   2   3
ATOM      3  C   UNL     1      61.195  31.357  61.294  1.00  0.00    -0.025 C 
ATOM      4  C   UNL     1      61.659  30.241  61.879  1.00  0.00     0.020 C 
BRANCH   4   5
ATOM      5  C   UNL     1      62.788  29.407  61.418  1.00  0.00     0.064 C 
ATOM      6  O   UNL     1      62.614  28.274  60.899  1.00  0.00    -0.545 OA
ATOM      7  O   UNL     1      64.084  29.875  61.592  1.00  0.00    -0.545 OA
ENDBRANCH   4   5
ENDBRANCH   2   3
ENDBRANCH   1   2
BRANCH   1   8
ATOM      8  C   UNL     1      62.250  34.500  60.643  1.00  0.00     0.000 C 
BRANCH   8   9
ATOM      9  C   UNL     1      63.240  35.448  61.335  1.00  0.00    -0.000 C 
BRANCH   9  10
ATOM     10  C   UNL     1      64.582  34.750  61.590  1.00  0.00    -0.003 C 
ATOM     11  C   UNL     1      65.750  35.714  61.402  1.00  0.00     0.004 C 
ENDBRANCH   9  10
ENDBRANCH   8   9
ENDBRANCH   1   8
TORSDOF 6
ENDMDL
MODEL 3
REMARK VINA RESULT:    -3.564      1.004      1.443
REMARK INTER + INTRA:          -5.185
REMARK INTER:                  -4.740
REMARK INTRA:                  -0.445
REMARK UNBOUND:                -0.371
REMARK SMILES CCCCCCC=CC(=O)[O-]
REMARK SMILES IDX 5 1 6 2 7 3 8 4 9 5 10 6 11 7 4 8 3 9 2 10 1 11
REMARK H PARENT
REMARK Flexibility Score: inf
ROOT
ATOM      1  C   UNL     1      56.892  27.819  51.806  1.00  0.00     0.004 C 
ENDROOT
BRANCH   1   2
ATOM      2  C   UNL     1      58.199  28.590  51.545  1.00  0.00     0.027 C 
BRANCH   2   3
ATOM      3  C   UNL     1      58.430  28.862  50.081  1.00  0.00    -0.025 C 
ATOM      4  C   UNL     1      59.210  28.143  49.257  1.00  0.00     0.020 C 
BRANCH   4   5
ATOM      5  C   UNL     1      60.045  26.981  49.622  1.00  0.00     0.064 C 
ATOM      6  O   UNL     1      61.294  27.067  49.750  1.00  0.00    -0.545 OA
ATOM      7  O   UNL     1      59.435  25.746  49.801  1.00  0.00    -0.545 OA
ENDBRANCH   4   5
ENDBRANCH   2   3
ENDBRANCH   1   2
BRANCH   1   8
ATOM      8  C   UNL     1      55.791  28.071  50.759  1.00  0.00     0.000 C 
BRANCH   8   9
ATOM      9  C   UNL     1      55.018  26.797  50.386  1.00  0.00    -0.000 C 
BRANCH   9  10
ATOM     10  C   UNL     1      53.561  27.123  50.035  1.00  0.00    -0.003 C 
ATOM     11  C   UNL     1      53.234  28.583  50.338  1.00  0.00     0.004 C 
ENDBRANCH   9  10
ENDBRANCH   8   9
ENDBRANCH   1   8
TORSDOF 6
ENDMDL
MODEL 4
REMARK VINA RESULT:    -3.449      1.327      2.130
REMARK INTER + INTRA:          -5.030
REMARK INTER:                  -4.533
REMARK INTRA:                  -0.496
REMARK UNBOUND:                -0.371
REMARK SMILES CCCCCCC=CC(=O)[O-]
REMARK SMILES IDX 5 1 6 2 7 3 8 4 9 5 10 6 11 7 4 8 3 9 2 10 1 11
REMARK H PARENT
REMARK Flexibility Score: inf
ROOT
ATOM      1  C   UNL     1      58.006  28.612  50.078  1.00  0.00     0.004 C 
ENDROOT
BRANCH   1   2
ATOM      2  C   UNL     1      59.320  27.941  49.638  1.00  0.00     0.027 C 
BRANCH   2   3
ATOM      3  C   UNL     1      59.270  26.439  49.746  1.00  0.00    -0.025 C 
ATOM      4  C   UNL     1      60.247  25.648  50.220  1.00  0.00     0.020 C 
BRANCH   4   5
ATOM      5  C   UNL     1      61.585  26.074  50.676  1.00  0.00     0.064 C 
ATOM      6  O   UNL     1      62.610  25.943  49.957  1.00  0.00    -0.545 OA
ATOM      7  O   UNL     1      61.722  26.609  51.950  1.00  0.00    -0.545 OA
ENDBRANCH   4   5
ENDBRANCH   2   3
ENDBRANCH   1   2
BRANCH   1   8
ATOM      8  C   UNL     1      57.021  27.665  50.789  1.00  0.00     0.000 C 
BRANCH   8   9
ATOM      9  C   UNL     1      55.559  28.114  50.657  1.00  0.00    -0.000 C 
BRANCH   9  10
ATOM     10  C   UNL     1      54.651  26.930  50.304  1.00  0.00    -0.003 C 
ATOM     11  C   UNL     1      55.454  25.638  50.178  1.00  0.00     0.004 C 
ENDBRANCH   9  10
ENDBRANCH   8   9
ENDBRANCH   1   8
TORSDOF 6
ENDMDL
MODEL 5
REMARK VINA RESULT:    -3.375      1.455      2.198
REMARK INTER + INTRA:          -4.930
REMARK INTER:                  -4.431
REMARK INTRA:                  -0.499
REMARK UNBOUND:                -0.371
REMARK SMILES CCCCCCC=CC(=O)[O-]
REMARK SMILES IDX 5 1 6 2 7 3 8 4 9 5 10 6 11 7 4 8 3 9 2 10 1 11
REMARK H PARENT
REMARK Flexibility Score: inf
ROOT
ATOM      1  C   UNL     1      58.577  28.950  50.974  1.00  0.00     0.004 C 
ENDROOT
BRANCH   1   2
ATOM      2  C   UNL     1      58.725  28.320  49.576  1.00  0.00     0.027 C 
BRANCH   2   3
ATOM      3  C   UNL     1      59.959  27.466  49.452  1.00  0.00    -0.025 C 
ATOM      4  C   UNL     1      60.149  26.263  50.019  1.00  0.00     0.020 C 
BRANCH   4   5
ATOM      5  C   UNL     1      59.218  25.557  50.922  1.00  0.00     0.064 C 
ATOM      6  O   UNL     1      59.397  25.514  52.167  1.00  0.00    -0.545 OA
ATOM      7  O   UNL     1      58.127  24.893  50.377  1.00  0.00    -0.545 OA
ENDBRANCH   4   5
ENDBRANCH   2   3
ENDBRANCH   1   2
BRANCH   1   8
ATOM      8  C   UNL     1      57.250  28.613  51.680  1.00  0.00     0.000 C 
BRANCH   8   9
ATOM      9  C   UNL     1      56.251  27.894  50.762  1.00  0.00    -0.000 C 
BRANCH   9  10
ATOM     10  C   UNL     1      54.911  28.640  50.719  1.00  0.00    -0.003 C 
ATOM     11  C   UNL     1      53.799  27.745  50.177  1.00  0.00     0.004 C 
ENDBRANCH   9  10
ENDBRANCH   8   9
ENDBRANCH   1   8
TORSDOF 6
ENDMDL
MODEL 6
REMARK VINA RESULT:    -3.316      3.225      5.508
REMARK INTER + INTRA:          -4.850
REMARK INTER:                  -4.480
REMARK INTRA:                  -0.370
REMARK UNBOUND:                -0.371
REMARK SMILES CCCCCCC=CC(=O)[O-]
REMARK SMILES IDX 5 1 6 2 7 3 8 4 9 5 10 6 11 7 4 8 3 9 2 10 1 11
REMARK H PARENT
REMARK Flexibility Score: inf
ROOT
ATOM      1  C   UNL     1      57.405  27.444  51.143  1.00  0.00     0.004 C 
ENDROOT
BRANCH   1   2
ATOM      2  C   UNL     1      56.171  26.656  50.665  1.00  0.00     0.027 C 
BRANCH   2   3
ATOM      3  C   UNL     1      54.971  27.538  50.440  1.00  0.00    -0.025 C 
ATOM      4  C   UNL     1      53.720  27.120  50.187  1.00  0.00     0.020 C 
BRANCH   4   5
ATOM      5  C   UNL     1      53.272  25.723  50.020  1.00  0.00     0.064 C 
ATOM      6  O   UNL     1      53.214  25.169  48.891  1.00  0.00    -0.545 OA
ATOM      7  O   UNL     1      52.875  25.006  51.141  1.00  0.00    -0.545 OA
ENDBRANCH   4   5
ENDBRANCH   2   3
ENDBRANCH   1   2
BRANCH   1   8
ATOM      8  C   UNL     1      57.768  28.648  50.255  1.00  0.00     0.000 C 
BRANCH   8   9
ATOM      9  C   UNL     1      59.108  28.472  49.527  1.00  0.00    -0.000 C 
BRANCH   9  10
ATOM     10  C   UNL     1      59.564  27.008  49.564  1.00  0.00    -0.003 C 
ATOM     11  C   UNL     1      61.038  26.899  49.945  1.00  0.00     0.004 C 
ENDBRANCH   9  10
ENDBRANCH   8   9
ENDBRANCH   1   8
TORSDOF 6
ENDMDL
MODEL 7
REMARK VINA RESULT:    -3.298      2.409      4.670
REMARK INTER + INTRA:          -4.825
REMARK INTER:                  -4.401
REMARK INTRA:                  -0.424
REMARK UNBOUND:                -0.371
REMARK SMILES CCCCCCC=CC(=O)[O-]
REMARK SMILES IDX 5 1 6 2 7 3 8 4 9 5 10 6 11 7 4 8 3 9 2 10 1 11
REMARK H PARENT
REMARK Flexibility Score: inf
ROOT
ATOM      1  C   UNL     1      58.438  28.504  49.780  1.00  0.00     0.004 C 
ENDROOT
BRANCH   1   2
ATOM      2  C   UNL     1      57.555  28.119  50.982  1.00  0.00     0.027 C 
BRANCH   2   3
ATOM      3  C   UNL     1      56.101  28.443  50.761  1.00  0.00    -0.025 C 
ATOM      4  C   UNL     1      55.099  27.553  50.666  1.00  0.00     0.020 C 
BRANCH   4   5
ATOM      5  C   UNL     1      55.219  26.081  50.698  1.00  0.00     0.064 C 
ATOM      6  O   UNL     1      55.250  25.389  49.647  1.00  0.00    -0.545 OA
ATOM      7  O   UNL     1      55.270  25.438  51.927  1.00  0.00    -0.545 OA
ENDBRANCH   4   5
ENDBRANCH   2   3
ENDBRANCH   1   2
BRANCH   1   8
ATOM      8  C   UNL     1      59.520  27.464  49.434  1.00  0.00     0.000 C 
BRANCH   8   9
ATOM      9  C   UNL     1      59.137  26.039  49.860  1.00  0.00    -0.000 C 
BRANCH   9  10
ATOM     10  C   UNL     1      60.376  25.246  50.295  1.00  0.00    -0.003 C 
ATOM     11  C   UNL     1      60.010  23.811  50.664  1.00  0.00     0.004 C 
ENDBRANCH   9  10
ENDBRANCH   8   9
ENDBRANCH   1   8
TORSDOF 6
ENDMDL
MODEL 8
REMARK VINA RESULT:    -3.271     11.768     12.869
REMARK INTER + INTRA:          -4.789
REMARK INTER:                  -4.145
REMARK INTRA:                  -0.643
REMARK UNBOUND:                -0.371
REMARK SMILES CCCCCCC=CC(=O)[O-]
REMARK SMILES IDX 5 1 6 2 7 3 8 4 9 5 10 6 11 7 4 8 3 9 2 10 1 11
REMARK H PARENT
REMARK Flexibility Score: inf
ROOT
ATOM      1  C   UNL     1      62.893  32.953  59.938  1.00  0.00     0.004 C 
ENDROOT
BRANCH   1   2
ATOM      2  C   UNL     1      61.931  31.762  59.770  1.00  0.00     0.027 C 
BRANCH   2   3
ATOM      3  C   UNL     1      61.234  31.393  61.054  1.00  0.00    -0.025 C 
ATOM      4  C   UNL     1      61.545  30.359  61.853  1.00  0.00     0.020 C 
BRANCH   4   5
ATOM      5  C   UNL     1      62.587  29.340  61.613  1.00  0.00     0.064 C 
ATOM      6  O   UNL     1      62.306  28.131  61.406  1.00  0.00    -0.545 OA
ATOM      7  O   UNL     1      63.921  29.723  61.647  1.00  0.00    -0.545 OA
ENDBRANCH   4   5
ENDBRANCH   2   3
ENDBRANCH   1   2
BRANCH   1   8
ATOM      8  C   UNL     1      62.309  34.126  60.747  1.00  0.00     0.000 C 
BRANCH   8   9
ATOM      9  C   UNL     1      61.362  35.009  59.921  1.00  0.00    -0.000 C 
BRANCH   9  10
ATOM     10  C   UNL     1      59.909  34.830  60.376  1.00  0.00    -0.003 C 
ATOM     11  C   UNL     1      59.078  34.127  59.305  1.00  0.00     0.004 C 
ENDBRANCH   9  10
ENDBRANCH   8   9
ENDBRANCH   1   8
TORSDOF 6
ENDMDL
MODEL 9
REMARK VINA RESULT:    -3.129      1.490      1.990
REMARK INTER + INTRA:          -4.597
REMARK INTER:                  -3.879
REMARK INTRA:                  -0.718
REMARK UNBOUND:                -0.371
REMARK SMILES CCCCCCC=CC(=O)[O-]
REMARK SMILES IDX 5 1 6 2 7 3 8 4 9 5 10 6 11 7 4 8 3 9 2 10 1 11
REMARK H PARENT
REMARK Flexibility Score: inf
ROOT
ATOM      1  C   UNL     1      54.840  28.669  51.846  1.00  0.00     0.004 C 
ENDROOT
BRANCH   1   2
ATOM      2  C   UNL     1      56.320  28.277  52.016  1.00  0.00     0.027 C 
BRANCH   2   3
ATOM      3  C   UNL     1      57.074  28.278  50.713  1.00  0.00    -0.025 C 
ATOM      4  C   UNL     1      57.885  27.304  50.267  1.00  0.00     0.020 C 
BRANCH   4   5
ATOM      5  C   UNL     1      58.250  26.064  50.982  1.00  0.00     0.064 C 
ATOM      6  O   UNL     1      57.683  24.965  50.749  1.00  0.00    -0.545 OA
ATOM      7  O   UNL     1      59.230  26.120  51.965  1.00  0.00    -0.545 OA
ENDBRANCH   4   5
ENDBRANCH   2   3
ENDBRANCH   1   2
BRANCH   1   8
ATOM      8  C   UNL     1      54.325  28.571  50.398  1.00  0.00     0.000 C 
BRANCH   8   9
ATOM      9  C   UNL     1      53.287  27.455  50.207  1.00  0.00    -0.000 C 
BRANCH   9  10
ATOM     10  C   UNL     1      53.834  26.109  50.698  1.00  0.00    -0.003 C 
ATOM     11  C   UNL     1      54.443  25.310  49.550  1.00  0.00     0.004 C 
ENDBRANCH   9  10
ENDBRANCH   8   9
ENDBRANCH   1   8
TORSDOF 6
ENDMDL
