MODEL 1
REMARK VINA RESULT:    -5.589      0.000      0.000
REMARK INTER + INTRA:         -10.061
REMARK INTER:                  -8.203
REMARK INTRA:                  -1.858
REMARK UNBOUND:                -1.858
REMARK SMILES O=c1c(O[C@H]2O[C@H](CO)[C@@H](O)[C@@H](O)[C@H]2O)c(-c2ccc(O)c(O)c2)oc2cc(O)cc(O)c12
REMARK SMILES IDX 4 1 3 2 16 3 25 4 2 5 26 6 1 7 33 8 27 9 31 10 28 11 30 12
REMARK SMILES IDX 17 13 18 14 19 15 20 16 24 17 22 18 21 19 23 21 32 23 29 25
REMARK SMILES IDX 5 27 14 28 6 29 12 30 7 31 10 32 15 33 13 35 8 37 9 38 11 40
REMARK H PARENT 21 20 23 22 32 24 29 26 15 34 13 36 9 39 11 41
REMARK Flexibility Score: inf
ROOT
ATOM      1  O   UNL     1      12.750  20.940  26.302  1.00  0.00    -0.454 OA
ENDROOT
BRANCH   1   2
ATOM      2  C   UNL     1      11.844  20.484  25.330  1.00  0.00     0.214 A 
ATOM      3  C   UNL     1      12.224  20.185  24.000  1.00  0.00     0.180 A 
ATOM      4  O   UNL     1      11.329  19.680  23.156  1.00  0.00    -0.452 OA
ATOM      5  C   UNL     1      10.500  20.330  25.691  1.00  0.00     0.239 A 
ATOM      6  C   UNL     1      10.055  19.483  23.473  1.00  0.00     0.146 A 
ATOM      7  O   UNL     1      10.138  20.648  26.856  1.00  0.00    -0.285 OA
ATOM      8  C   UNL     1       9.577  19.813  24.761  1.00  0.00     0.111 A 
ATOM      9  C   UNL     1       9.186  18.960  22.511  1.00  0.00     0.094 A 
ATOM     10  C   UNL     1       8.207  19.610  25.061  1.00  0.00     0.134 A 
ATOM     11  C   UNL     1       7.837  18.767  22.808  1.00  0.00     0.123 A 
ATOM     12  C   UNL     1       7.350  19.090  24.080  1.00  0.00     0.093 A 
BRANCH   3  13
ATOM     13  C   UNL     1      13.582  20.439  23.483  1.00  0.00     0.025 A 
ATOM     14  C   UNL     1      13.900  21.654  22.858  1.00  0.00     0.016 A 
ATOM     15  C   UNL     1      15.191  21.882  22.375  1.00  0.00     0.051 A 
ATOM     16  C   UNL     1      16.176  20.897  22.498  1.00  0.00     0.157 A 
ATOM     17  C   UNL     1      14.560  19.439  23.577  1.00  0.00     0.062 A 
ATOM     18  C   UNL     1      15.859  19.666  23.097  1.00  0.00     0.158 A 
BRANCH  16  19
ATOM     19  O   UNL     1      17.460  21.155  22.016  1.00  0.00    -0.504 OA
ATOM     20  H   UNL     1      18.286  21.005  22.581  1.00  0.00     0.293 HD
ENDBRANCH  16  19
BRANCH  18  21
ATOM     21  O   UNL     1      16.833  18.675  23.214  1.00  0.00    -0.504 OA
ATOM     22  H   UNL     1      17.275  18.267  22.399  1.00  0.00     0.293 HD
ENDBRANCH  18  21
ENDBRANCH   3  13
BRANCH  10  23
ATOM     23  O   UNL     1       7.695  19.920  26.322  1.00  0.00    -0.507 OA
ATOM     24  H   UNL     1       7.090  20.719  26.469  1.00  0.00     0.293 HD
ENDBRANCH  10  23
BRANCH  11  25
ATOM     25  O   UNL     1       6.983  18.257  21.831  1.00  0.00    -0.508 OA
ATOM     26  H   UNL     1       6.044  17.951  22.055  1.00  0.00     0.293 HD
ENDBRANCH  11  25
ENDBRANCH   1   2
BRANCH   1  27
ATOM     27  C   UNL     1      13.718  20.117  26.967  1.00  0.00     0.339 C 
ATOM     28  C   UNL     1      13.218  19.652  28.348  1.00  0.00     0.214 C 
ATOM     29  O   UNL     1      14.953  20.802  27.089  1.00  0.00    -0.332 OA
ATOM     30  C   UNL     1      13.098  20.837  29.326  1.00  0.00     0.180 C 
ATOM     31  C   UNL     1      14.827  21.980  27.873  1.00  0.00     0.179 C 
ATOM     32  C   UNL     1      14.420  21.633  29.324  1.00  0.00     0.177 C 
BRANCH  28  33
ATOM     33  O   UNL     1      12.020  18.920  28.250  1.00  0.00    -0.384 OA
ATOM     34  H   UNL     1      11.422  19.203  28.983  1.00  0.00     0.211 HD
ENDBRANCH  28  33
BRANCH  30  35
ATOM     35  O   UNL     1      12.026  21.672  28.952  1.00  0.00    -0.387 OA
ATOM     36  H   UNL     1      12.047  21.747  27.962  1.00  0.00     0.211 HD
ENDBRANCH  30  35
BRANCH  31  37
ATOM     37  C   UNL     1      16.176  22.714  27.848  1.00  0.00     0.191 C 
BRANCH  37  38
ATOM     38  O   UNL     1      16.960  22.334  28.950  1.00  0.00    -0.394 OA
ATOM     39  H   UNL     1      16.606  22.836  29.733  1.00  0.00     0.210 HD
ENDBRANCH  37  38
ENDBRANCH  31  37
BRANCH  32  40
ATOM     40  O   UNL     1      14.278  22.810  30.078  1.00  0.00    -0.387 OA
ATOM     41  H   UNL     1      13.511  22.667  30.693  1.00  0.00     0.211 HD
ENDBRANCH  32  40
ENDBRANCH   1  27
TORSDOF 12
ENDMDL
MODEL 2
REMARK VINA RESULT:    -5.151      1.907      5.135
REMARK INTER + INTRA:          -9.418
REMARK INTER:                  -7.377
REMARK INTRA:                  -2.040
REMARK UNBOUND:                -1.858
REMARK SMILES O=c1c(O[C@H]2O[C@H](CO)[C@@H](O)[C@@H](O)[C@H]2O)c(-c2ccc(O)c(O)c2)oc2cc(O)cc(O)c12
REMARK SMILES IDX 4 1 3 2 16 3 25 4 2 5 26 6 1 7 33 8 27 9 31 10 28 11 30 12
REMARK SMILES IDX 17 13 18 14 19 15 20 16 24 17 22 18 21 19 23 21 32 23 29 25
REMARK SMILES IDX 5 27 14 28 6 29 12 30 7 31 10 32 15 33 13 35 8 37 9 38 11 40
REMARK H PARENT 21 20 23 22 32 24 29 26 15 34 13 36 9 39 11 41
REMARK Flexibility Score: inf
ROOT
ATOM      1  O   UNL     1      12.773  21.089  22.933  1.00  0.00    -0.454 OA
ENDROOT
BRANCH   1   2
ATOM      2  C   UNL     1      11.885  20.667  23.938  1.00  0.00     0.214 A 
ATOM      3  C   UNL     1      12.245  20.595  25.305  1.00  0.00     0.180 A 
ATOM      4  O   UNL     1      11.330  20.264  26.211  1.00  0.00    -0.452 OA
ATOM      5  C   UNL     1      10.589  20.288  23.568  1.00  0.00     0.239 A 
ATOM      6  C   UNL     1      10.081  19.937  25.903  1.00  0.00     0.146 A 
ATOM      7  O   UNL     1      10.275  20.292  22.347  1.00  0.00    -0.285 OA
ATOM      8  C   UNL     1       9.654  19.922  24.556  1.00  0.00     0.111 A 
ATOM      9  C   UNL     1       9.194  19.591  26.926  1.00  0.00     0.094 A 
ATOM     10  C   UNL     1       8.320  19.549  24.259  1.00  0.00     0.134 A 
ATOM     11  C   UNL     1       7.883  19.217  26.630  1.00  0.00     0.123 A 
ATOM     12  C   UNL     1       7.449  19.197  25.299  1.00  0.00     0.093 A 
BRANCH   3  13
ATOM     13  C   UNL     1      13.619  20.842  25.781  1.00  0.00     0.025 A 
ATOM     14  C   UNL     1      13.884  21.839  26.731  1.00  0.00     0.016 A 
ATOM     15  C   UNL     1      15.191  22.061  27.174  1.00  0.00     0.051 A 
ATOM     16  C   UNL     1      16.249  21.300  26.666  1.00  0.00     0.157 A 
ATOM     17  C   UNL     1      14.683  20.102  25.247  1.00  0.00     0.062 A 
ATOM     18  C   UNL     1      15.996  20.319  25.693  1.00  0.00     0.158 A 
BRANCH  16  19
ATOM     19  O   UNL     1      17.542  21.535  27.133  1.00  0.00    -0.504 OA
ATOM     20  H   UNL     1      18.166  20.781  27.389  1.00  0.00     0.293 HD
ENDBRANCH  16  19
BRANCH  18  21
ATOM     21  O   UNL     1      17.046  19.563  25.173  1.00  0.00    -0.504 OA
ATOM     22  H   UNL     1      17.042  18.550  25.213  1.00  0.00     0.293 HD
ENDBRANCH  18  21
ENDBRANCH   3  13
BRANCH  10  23
ATOM     23  O   UNL     1       7.858  19.523  22.942  1.00  0.00    -0.507 OA
ATOM     24  H   UNL     1       7.386  18.713  22.559  1.00  0.00     0.293 HD
ENDBRANCH  10  23
BRANCH  11  25
ATOM     25  O   UNL     1       7.019  18.861  27.663  1.00  0.00    -0.508 OA
ATOM     26  H   UNL     1       7.259  18.137  28.331  1.00  0.00     0.293 HD
ENDBRANCH  11  25
ENDBRANCH   1   2
BRANCH   1  27
ATOM     27  C   UNL     1      13.113  22.455  22.666  1.00  0.00     0.339 C 
ATOM     28  C   UNL     1      12.799  22.847  21.209  1.00  0.00     0.214 C 
ATOM     29  O   UNL     1      14.480  22.694  22.962  1.00  0.00    -0.332 OA
ATOM     30  C   UNL     1      13.717  22.102  20.221  1.00  0.00     0.180 C 
ATOM     31  C   UNL     1      15.339  21.904  22.154  1.00  0.00     0.179 C 
ATOM     32  C   UNL     1      15.186  22.277  20.661  1.00  0.00     0.177 C 
BRANCH  28  33
ATOM     33  O   UNL     1      11.436  22.673  20.905  1.00  0.00    -0.384 OA
ATOM     34  H   UNL     1      11.366  22.052  20.141  1.00  0.00     0.211 HD
ENDBRANCH  28  33
BRANCH  30  35
ATOM     35  O   UNL     1      13.381  20.735  20.178  1.00  0.00    -0.387 OA
ATOM     36  H   UNL     1      14.203  20.226  20.403  1.00  0.00     0.211 HD
ENDBRANCH  30  35
BRANCH  31  37
ATOM     37  C   UNL     1      16.782  22.137  22.626  1.00  0.00     0.191 C 
BRANCH  37  38
ATOM     38  O   UNL     1      17.525  20.949  22.531  1.00  0.00    -0.394 OA
ATOM     39  H   UNL     1      17.692  20.798  21.562  1.00  0.00     0.210 HD
ENDBRANCH  37  38
ENDBRANCH  31  37
BRANCH  32  40
ATOM     40  O   UNL     1      16.026  21.471  19.875  1.00  0.00    -0.387 OA
ATOM     41  H   UNL     1      15.471  20.720  19.538  1.00  0.00     0.211 HD
ENDBRANCH  32  40
ENDBRANCH   1  27
TORSDOF 12
ENDMDL
MODEL 3
REMARK VINA RESULT:    -5.071      1.247      2.239
REMARK INTER + INTRA:          -9.300
REMARK INTER:                  -7.983
REMARK INTRA:                  -1.317
REMARK UNBOUND:                -1.858
REMARK SMILES O=c1c(O[C@H]2O[C@H](CO)[C@@H](O)[C@@H](O)[C@H]2O)c(-c2ccc(O)c(O)c2)oc2cc(O)cc(O)c12
REMARK SMILES IDX 4 1 3 2 16 3 25 4 2 5 26 6 1 7 33 8 27 9 31 10 28 11 30 12
REMARK SMILES IDX 17 13 18 14 19 15 20 16 24 17 22 18 21 19 23 21 32 23 29 25
REMARK SMILES IDX 5 27 14 28 6 29 12 30 7 31 10 32 15 33 13 35 8 37 9 38 11 40
REMARK H PARENT 21 20 23 22 32 24 29 26 15 34 13 36 9 39 11 41
REMARK Flexibility Score: inf
ROOT
ATOM      1  O   UNL     1      12.440  20.097  26.134  1.00  0.00    -0.454 OA
ENDROOT
BRANCH   1   2
ATOM      2  C   UNL     1      11.456  19.972  25.139  1.00  0.00     0.214 A 
ATOM      3  C   UNL     1      11.732  20.114  23.758  1.00  0.00     0.180 A 
ATOM      4  O   UNL     1      10.769  19.904  22.867  1.00  0.00    -0.452 OA
ATOM      5  C   UNL     1      10.138  19.707  25.532  1.00  0.00     0.239 A 
ATOM      6  C   UNL     1       9.517  19.611  23.199  1.00  0.00     0.146 A 
ATOM      7  O   UNL     1       9.869  19.635  26.761  1.00  0.00    -0.285 OA
ATOM      8  C   UNL     1       9.140  19.511  24.558  1.00  0.00     0.111 A 
ATOM      9  C   UNL     1       8.570  19.420  22.190  1.00  0.00     0.094 A 
ATOM     10  C   UNL     1       7.791  19.218  24.880  1.00  0.00     0.134 A 
ATOM     11  C   UNL     1       7.241  19.138  22.510  1.00  0.00     0.123 A 
ATOM     12  C   UNL     1       6.855  19.037  23.852  1.00  0.00     0.093 A 
BRANCH   3  13
ATOM     13  C   UNL     1      13.055  20.525  23.249  1.00  0.00     0.025 A 
ATOM     14  C   UNL     1      13.237  21.776  22.642  1.00  0.00     0.016 A 
ATOM     15  C   UNL     1      14.496  22.152  22.166  1.00  0.00     0.051 A 
ATOM     16  C   UNL     1      15.583  21.280  22.278  1.00  0.00     0.157 A 
ATOM     17  C   UNL     1      14.138  19.638  23.332  1.00  0.00     0.062 A 
ATOM     18  C   UNL     1      15.404  20.014  22.859  1.00  0.00     0.158 A 
BRANCH  16  19
ATOM     19  O   UNL     1      16.831  21.686  21.803  1.00  0.00    -0.504 OA
ATOM     20  H   UNL     1      17.545  22.057  22.417  1.00  0.00     0.293 HD
ENDBRANCH  16  19
BRANCH  18  21
ATOM     21  O   UNL     1      16.481  19.135  22.965  1.00  0.00    -0.504 OA
ATOM     22  H   UNL     1      16.853  18.858  23.866  1.00  0.00     0.293 HD
ENDBRANCH  18  21
ENDBRANCH   3  13
BRANCH  10  23
ATOM     23  O   UNL     1       7.378  19.108  26.208  1.00  0.00    -0.507 OA
ATOM     24  H   UNL     1       6.435  18.830  26.451  1.00  0.00     0.293 HD
ENDBRANCH  10  23
BRANCH  11  25
ATOM     25  O   UNL     1       6.309  18.965  21.489  1.00  0.00    -0.508 OA
ATOM     26  H   UNL     1       5.415  19.441  21.500  1.00  0.00     0.293 HD
ENDBRANCH  11  25
ENDBRANCH   1   2
BRANCH   1  27
ATOM     27  C   UNL     1      13.036  21.335  26.542  1.00  0.00     0.339 C 
ATOM     28  C   UNL     1      14.352  21.108  27.312  1.00  0.00     0.214 C 
ATOM     29  O   UNL     1      12.126  22.091  27.324  1.00  0.00    -0.332 OA
ATOM     30  C   UNL     1      14.093  20.428  28.670  1.00  0.00     0.180 C 
ATOM     31  C   UNL     1      11.765  21.411  28.518  1.00  0.00     0.179 C 
ATOM     32  C   UNL     1      12.999  21.208  29.429  1.00  0.00     0.177 C 
BRANCH  28  33
ATOM     33  O   UNL     1      15.295  20.408  26.538  1.00  0.00    -0.384 OA
ATOM     34  H   UNL     1      16.147  20.379  27.037  1.00  0.00     0.211 HD
ENDBRANCH  28  33
BRANCH  30  35
ATOM     35  O   UNL     1      13.694  19.091  28.479  1.00  0.00    -0.387 OA
ATOM     36  H   UNL     1      13.506  18.712  29.378  1.00  0.00     0.211 HD
ENDBRANCH  30  35
BRANCH  31  37
ATOM     37  C   UNL     1      10.692  22.244  29.233  1.00  0.00     0.191 C 
BRANCH  37  38
ATOM     38  O   UNL     1       9.409  21.821  28.849  1.00  0.00    -0.394 OA
ATOM     39  H   UNL     1       9.513  20.901  28.486  1.00  0.00     0.210 HD
ENDBRANCH  37  38
ENDBRANCH  31  37
BRANCH  32  40
ATOM     40  O   UNL     1      12.627  20.515  30.592  1.00  0.00    -0.387 OA
ATOM     41  H   UNL     1      12.696  19.546  30.384  1.00  0.00     0.211 HD
ENDBRANCH  32  40
ENDBRANCH   1  27
TORSDOF 12
ENDMDL
MODEL 4
REMARK VINA RESULT:    -5.002      2.334      7.995
REMARK INTER + INTRA:          -9.199
REMARK INTER:                  -7.313
REMARK INTRA:                  -1.887
REMARK UNBOUND:                -1.858
REMARK SMILES O=c1c(O[C@H]2O[C@H](CO)[C@@H](O)[C@@H](O)[C@H]2O)c(-c2ccc(O)c(O)c2)oc2cc(O)cc(O)c12
REMARK SMILES IDX 4 1 3 2 16 3 25 4 2 5 26 6 1 7 33 8 27 9 31 10 28 11 30 12
REMARK SMILES IDX 17 13 18 14 19 15 20 16 24 17 22 18 21 19 23 21 32 23 29 25
REMARK SMILES IDX 5 27 14 28 6 29 12 30 7 31 10 32 15 33 13 35 8 37 9 38 11 40
REMARK H PARENT 21 20 23 22 32 24 29 26 15 34 13 36 9 39 11 41
REMARK Flexibility Score: inf
ROOT
ATOM      1  O   UNL     1      13.585  21.072  24.159  1.00  0.00    -0.454 OA
ENDROOT
BRANCH   1   2
ATOM      2  C   UNL     1      14.548  21.053  25.183  1.00  0.00     0.214 A 
ATOM      3  C   UNL     1      14.212  21.035  26.558  1.00  0.00     0.180 A 
ATOM      4  O   UNL     1      15.173  20.936  27.471  1.00  0.00    -0.452 OA
ATOM      5  C   UNL     1      15.902  21.064  24.827  1.00  0.00     0.239 A 
ATOM      6  C   UNL     1      16.466  20.904  27.171  1.00  0.00     0.146 A 
ATOM      7  O   UNL     1      16.213  21.137  23.608  1.00  0.00    -0.285 OA
ATOM      8  C   UNL     1      16.892  20.979  25.825  1.00  0.00     0.111 A 
ATOM      9  C   UNL     1      17.404  20.812  28.202  1.00  0.00     0.094 A 
ATOM     10  C   UNL     1      18.280  20.963  25.539  1.00  0.00     0.134 A 
ATOM     11  C   UNL     1      18.770  20.803  27.918  1.00  0.00     0.123 A 
ATOM     12  C   UNL     1      19.205  20.877  26.589  1.00  0.00     0.093 A 
BRANCH   3  13
ATOM     13  C   UNL     1      12.823  21.157  27.040  1.00  0.00     0.025 A 
ATOM     14  C   UNL     1      12.286  22.406  27.384  1.00  0.00     0.016 A 
ATOM     15  C   UNL     1      10.968  22.506  27.838  1.00  0.00     0.051 A 
ATOM     16  C   UNL     1      10.176  21.361  27.966  1.00  0.00     0.157 A 
ATOM     17  C   UNL     1      12.039  20.005  27.200  1.00  0.00     0.062 A 
ATOM     18  C   UNL     1      10.714  20.103  27.651  1.00  0.00     0.158 A 
BRANCH  16  19
ATOM     19  O   UNL     1       8.859  21.491  28.412  1.00  0.00    -0.504 OA
ATOM     20  H   UNL     1       8.173  20.760  28.279  1.00  0.00     0.293 HD
ENDBRANCH  16  19
BRANCH  18  21
ATOM     21  O   UNL     1       9.933  18.955  27.786  1.00  0.00    -0.504 OA
ATOM     22  H   UNL     1       9.476  18.528  26.989  1.00  0.00     0.293 HD
ENDBRANCH  18  21
ENDBRANCH   3  13
BRANCH  10  23
ATOM     23  O   UNL     1      18.743  21.033  24.224  1.00  0.00    -0.507 OA
ATOM     24  H   UNL     1      18.667  20.246  23.591  1.00  0.00     0.293 HD
ENDBRANCH  10  23
BRANCH  11  25
ATOM     25  O   UNL     1      19.690  20.725  28.962  1.00  0.00    -0.508 OA
ATOM     26  H   UNL     1      19.526  20.136  29.770  1.00  0.00     0.293 HD
ENDBRANCH  11  25
ENDBRANCH   1   2
BRANCH   1  27
ATOM     27  C   UNL     1      13.222  19.939  23.359  1.00  0.00     0.339 C 
ATOM     28  C   UNL     1      13.169  20.293  21.860  1.00  0.00     0.214 C 
ATOM     29  O   UNL     1      11.980  19.406  23.789  1.00  0.00    -0.332 OA
ATOM     30  C   UNL     1      12.014  21.267  21.558  1.00  0.00     0.180 C 
ATOM     31  C   UNL     1      10.926  20.346  23.649  1.00  0.00     0.179 C 
ATOM     32  C   UNL     1      10.708  20.710  22.162  1.00  0.00     0.177 C 
BRANCH  28  33
ATOM     33  O   UNL     1      14.407  20.774  21.394  1.00  0.00    -0.384 OA
ATOM     34  H   UNL     1      14.602  20.340  20.528  1.00  0.00     0.211 HD
ENDBRANCH  28  33
BRANCH  30  35
ATOM     35  O   UNL     1      12.295  22.539  22.094  1.00  0.00    -0.387 OA
ATOM     36  H   UNL     1      11.966  23.210  21.440  1.00  0.00     0.211 HD
ENDBRANCH  30  35
BRANCH  31  37
ATOM     37  C   UNL     1       9.654  19.727  24.248  1.00  0.00     0.191 C 
BRANCH  37  38
ATOM     38  O   UNL     1       8.915  19.069  23.252  1.00  0.00    -0.394 OA
ATOM     39  H   UNL     1       9.515  18.989  22.463  1.00  0.00     0.210 HD
ENDBRANCH  37  38
ENDBRANCH  31  37
BRANCH  32  40
ATOM     40  O   UNL     1       9.678  21.658  22.045  1.00  0.00    -0.387 OA
ATOM     41  H   UNL     1       9.366  21.859  22.966  1.00  0.00     0.211 HD
ENDBRANCH  32  40
ENDBRANCH   1  27
TORSDOF 12
ENDMDL
MODEL 5
REMARK VINA RESULT:    -4.971      2.299      5.663
REMARK INTER + INTRA:          -9.154
REMARK INTER:                  -7.361
REMARK INTRA:                  -1.793
REMARK UNBOUND:                -1.858
REMARK SMILES O=c1c(O[C@H]2O[C@H](CO)[C@@H](O)[C@@H](O)[C@H]2O)c(-c2ccc(O)c(O)c2)oc2cc(O)cc(O)c12
REMARK SMILES IDX 4 1 3 2 16 3 25 4 2 5 26 6 1 7 33 8 27 9 31 10 28 11 30 12
REMARK SMILES IDX 17 13 18 14 19 15 20 16 24 17 22 18 21 19 23 21 32 23 29 25
REMARK SMILES IDX 5 27 14 28 6 29 12 30 7 31 10 32 15 33 13 35 8 37 9 38 11 40
REMARK H PARENT 21 20 23 22 32 24 29 26 15 34 13 36 9 39 11 41
REMARK Flexibility Score: inf
ROOT
ATOM      1  O   UNL     1      15.269  21.021  22.825  1.00  0.00    -0.454 OA
ENDROOT
BRANCH   1   2
ATOM      2  C   UNL     1      14.396  20.642  23.859  1.00  0.00     0.214 A 
ATOM      3  C   UNL     1      14.778  20.617  25.222  1.00  0.00     0.180 A 
ATOM      4  O   UNL     1      13.876  20.326  26.155  1.00  0.00    -0.452 OA
ATOM      5  C   UNL     1      13.091  20.261  23.525  1.00  0.00     0.239 A 
ATOM      6  C   UNL     1      12.620  19.998  25.879  1.00  0.00     0.146 A 
ATOM      7  O   UNL     1      12.756  20.225  22.310  1.00  0.00    -0.285 OA
ATOM      8  C   UNL     1      12.170  19.938  24.540  1.00  0.00     0.111 A 
ATOM      9  C   UNL     1      11.748  19.695  26.929  1.00  0.00     0.094 A 
ATOM     10  C   UNL     1      10.828  19.565  24.279  1.00  0.00     0.134 A 
ATOM     11  C   UNL     1      10.429  19.321  26.668  1.00  0.00     0.123 A 
ATOM     12  C   UNL     1       9.972  19.258  25.346  1.00  0.00     0.093 A 
BRANCH   3  13
ATOM     13  C   UNL     1      16.162  20.869  25.666  1.00  0.00     0.025 A 
ATOM     14  C   UNL     1      16.457  21.925  26.541  1.00  0.00     0.016 A 
ATOM     15  C   UNL     1      17.772  22.151  26.954  1.00  0.00     0.051 A 
ATOM     16  C   UNL     1      18.810  21.336  26.490  1.00  0.00     0.157 A 
ATOM     17  C   UNL     1      17.206  20.072  25.175  1.00  0.00     0.062 A 
ATOM     18  C   UNL     1      18.527  20.294  25.592  1.00  0.00     0.158 A 
BRANCH  16  19
ATOM     19  O   UNL     1      20.112  21.578  26.928  1.00  0.00    -0.504 OA
ATOM     20  H   UNL     1      20.629  20.903  27.476  1.00  0.00     0.293 HD
ENDBRANCH  16  19
BRANCH  18  21
ATOM     21  O   UNL     1      19.557  19.483  25.116  1.00  0.00    -0.504 OA
ATOM     22  H   UNL     1      20.164  18.972  25.747  1.00  0.00     0.293 HD
ENDBRANCH  18  21
ENDBRANCH   3  13
BRANCH  10  23
ATOM     23  O   UNL     1      10.344  19.497  22.972  1.00  0.00    -0.507 OA
ATOM     24  H   UNL     1       9.535  20.029  22.675  1.00  0.00     0.293 HD
ENDBRANCH  10  23
BRANCH  11  25
ATOM     25  O   UNL     1       9.580  19.010  27.727  1.00  0.00    -0.508 OA
ATOM     26  H   UNL     1       9.830  19.218  28.687  1.00  0.00     0.293 HD
ENDBRANCH  11  25
ENDBRANCH   1   2
BRANCH   1  27
ATOM     27  C   UNL     1      15.217  22.274  22.131  1.00  0.00     0.339 C 
ATOM     28  C   UNL     1      15.549  22.111  20.634  1.00  0.00     0.214 C 
ATOM     29  O   UNL     1      16.091  23.213  22.734  1.00  0.00    -0.332 OA
ATOM     30  C   UNL     1      17.021  21.706  20.430  1.00  0.00     0.180 C 
ATOM     31  C   UNL     1      17.444  22.785  22.680  1.00  0.00     0.179 C 
ATOM     32  C   UNL     1      17.928  22.676  21.216  1.00  0.00     0.177 C 
BRANCH  28  33
ATOM     33  O   UNL     1      14.660  21.224  19.997  1.00  0.00    -0.384 OA
ATOM     34  H   UNL     1      13.756  21.371  20.368  1.00  0.00     0.211 HD
ENDBRANCH  28  33
BRANCH  30  35
ATOM     35  O   UNL     1      17.229  20.383  20.867  1.00  0.00    -0.387 OA
ATOM     36  H   UNL     1      18.076  20.377  21.385  1.00  0.00     0.211 HD
ENDBRANCH  30  35
BRANCH  31  37
ATOM     37  C   UNL     1      18.295  23.798  23.460  1.00  0.00     0.191 C 
BRANCH  37  38
ATOM     38  O   UNL     1      19.547  23.245  23.775  1.00  0.00    -0.394 OA
ATOM     39  H   UNL     1      20.227  23.922  23.515  1.00  0.00     0.210 HD
ENDBRANCH  37  38
ENDBRANCH  31  37
BRANCH  32  40
ATOM     40  O   UNL     1      19.260  22.229  21.182  1.00  0.00    -0.387 OA
ATOM     41  H   UNL     1      19.750  22.732  21.884  1.00  0.00     0.211 HD
ENDBRANCH  32  40
ENDBRANCH   1  27
TORSDOF 12
ENDMDL
MODEL 6
REMARK VINA RESULT:    -4.928      2.119      6.455
REMARK INTER + INTRA:          -9.091
REMARK INTER:                  -7.263
REMARK INTRA:                  -1.828
REMARK UNBOUND:                -1.858
REMARK SMILES O=c1c(O[C@H]2O[C@H](CO)[C@@H](O)[C@@H](O)[C@H]2O)c(-c2ccc(O)c(O)c2)oc2cc(O)cc(O)c12
REMARK SMILES IDX 4 1 3 2 16 3 25 4 2 5 26 6 1 7 33 8 27 9 31 10 28 11 30 12
REMARK SMILES IDX 17 13 18 14 19 15 20 16 24 17 22 18 21 19 23 21 32 23 29 25
REMARK SMILES IDX 5 27 14 28 6 29 12 30 7 31 10 32 15 33 13 35 8 37 9 38 11 40
REMARK H PARENT 21 20 23 22 32 24 29 26 15 34 13 36 9 39 11 41
REMARK Flexibility Score: inf
ROOT
ATOM      1  O   UNL     1      13.333  21.297  28.364  1.00  0.00    -0.454 OA
ENDROOT
BRANCH   1   2
ATOM      2  C   UNL     1      13.827  20.879  27.117  1.00  0.00     0.214 A 
ATOM      3  C   UNL     1      13.009  20.308  26.114  1.00  0.00     0.180 A 
ATOM      4  O   UNL     1      13.529  20.010  24.927  1.00  0.00    -0.452 OA
ATOM      5  C   UNL     1      15.195  21.025  26.858  1.00  0.00     0.239 A 
ATOM      6  C   UNL     1      14.813  20.171  24.631  1.00  0.00     0.146 A 
ATOM      7  O   UNL     1      15.945  21.481  27.764  1.00  0.00    -0.285 OA
ATOM      8  C   UNL     1      15.714  20.679  25.595  1.00  0.00     0.111 A 
ATOM      9  C   UNL     1      15.269  19.816  23.359  1.00  0.00     0.094 A 
ATOM     10  C   UNL     1      17.082  20.819  25.254  1.00  0.00     0.134 A 
ATOM     11  C   UNL     1      16.618  19.949  23.028  1.00  0.00     0.123 A 
ATOM     12  C   UNL     1      17.520  20.451  23.974  1.00  0.00     0.093 A 
BRANCH   3  13
ATOM     13  C   UNL     1      11.585  19.988  26.335  1.00  0.00     0.025 A 
ATOM     14  C   UNL     1      11.205  18.939  27.185  1.00  0.00     0.016 A 
ATOM     15  C   UNL     1       9.853  18.649  27.385  1.00  0.00     0.051 A 
ATOM     16  C   UNL     1       8.866  19.392  26.731  1.00  0.00     0.157 A 
ATOM     17  C   UNL     1      10.596  20.712  25.653  1.00  0.00     0.062 A 
ATOM     18  C   UNL     1       9.238  20.426  25.856  1.00  0.00     0.158 A 
BRANCH  16  19
ATOM     19  O   UNL     1       7.523  19.087  26.957  1.00  0.00    -0.504 OA
ATOM     20  H   UNL     1       7.029  18.397  26.407  1.00  0.00     0.293 HD
ENDBRANCH  16  19
BRANCH  18  21
ATOM     21  O   UNL     1       8.259  21.165  25.192  1.00  0.00    -0.504 OA
ATOM     22  H   UNL     1       7.294  20.860  25.161  1.00  0.00     0.293 HD
ENDBRANCH  18  21
ENDBRANCH   3  13
BRANCH  10  23
ATOM     23  O   UNL     1      18.003  21.319  26.175  1.00  0.00    -0.507 OA
ATOM     24  H   UNL     1      18.920  21.642  25.890  1.00  0.00     0.293 HD
ENDBRANCH  10  23
BRANCH  11  25
ATOM     25  O   UNL     1      17.056  19.577  21.759  1.00  0.00    -0.508 OA
ATOM     26  H   UNL     1      16.549  19.845  20.923  1.00  0.00     0.293 HD
ENDBRANCH  11  25
ENDBRANCH   1   2
BRANCH   1  27
ATOM     27  C   UNL     1      13.203  22.664  28.775  1.00  0.00     0.339 C 
ATOM     28  C   UNL     1      13.508  22.840  30.275  1.00  0.00     0.214 C 
ATOM     29  O   UNL     1      11.908  23.154  28.469  1.00  0.00    -0.332 OA
ATOM     30  C   UNL     1      12.438  22.154  31.146  1.00  0.00     0.180 C 
ATOM     31  C   UNL     1      10.896  22.434  29.158  1.00  0.00     0.179 C 
ATOM     32  C   UNL     1      11.039  22.614  30.688  1.00  0.00     0.177 C 
BRANCH  28  33
ATOM     33  O   UNL     1      14.810  22.413  30.596  1.00  0.00    -0.384 OA
ATOM     34  H   UNL     1      14.872  22.316  31.577  1.00  0.00     0.211 HD
ENDBRANCH  28  33
BRANCH  30  35
ATOM     35  O   UNL     1      12.549  20.754  31.043  1.00  0.00    -0.387 OA
ATOM     36  H   UNL     1      12.970  20.432  31.883  1.00  0.00     0.211 HD
ENDBRANCH  30  35
BRANCH  31  37
ATOM     37  C   UNL     1       9.533  22.950  28.675  1.00  0.00     0.191 C 
BRANCH  37  38
ATOM     38  O   UNL     1       8.529  22.006  28.947  1.00  0.00    -0.394 OA
ATOM     39  H   UNL     1       7.966  21.950  28.129  1.00  0.00     0.210 HD
ENDBRANCH  37  38
ENDBRANCH  31  37
BRANCH  32  40
ATOM     40  O   UNL     1      10.045  21.877  31.353  1.00  0.00    -0.387 OA
ATOM     41  H   UNL     1       9.627  22.490  32.014  1.00  0.00     0.211 HD
ENDBRANCH  32  40
ENDBRANCH   1  27
TORSDOF 12
ENDMDL
MODEL 7
REMARK VINA RESULT:    -4.856      3.441      6.695
REMARK INTER + INTRA:          -8.985
REMARK INTER:                  -6.826
REMARK INTRA:                  -2.159
REMARK UNBOUND:                -1.858
REMARK SMILES O=c1c(O[C@H]2O[C@H](CO)[C@@H](O)[C@@H](O)[C@H]2O)c(-c2ccc(O)c(O)c2)oc2cc(O)cc(O)c12
REMARK SMILES IDX 4 1 3 2 16 3 25 4 2 5 26 6 1 7 33 8 27 9 31 10 28 11 30 12
REMARK SMILES IDX 17 13 18 14 19 15 20 16 24 17 22 18 21 19 23 21 32 23 29 25
REMARK SMILES IDX 5 27 14 28 6 29 12 30 7 31 10 32 15 33 13 35 8 37 9 38 11 40
REMARK H PARENT 21 20 23 22 32 24 29 26 15 34 13 36 9 39 11 41
REMARK Flexibility Score: inf
ROOT
ATOM      1  O   UNL     1       8.776  20.364  25.909  1.00  0.00    -0.454 OA
ENDROOT
BRANCH   1   2
ATOM      2  C   UNL     1       7.578  20.562  25.202  1.00  0.00     0.214 A 
ATOM      3  C   UNL     1       6.629  21.551  25.553  1.00  0.00     0.180 A 
ATOM      4  O   UNL     1       5.555  21.735  24.791  1.00  0.00    -0.452 OA
ATOM      5  C   UNL     1       7.305  19.734  24.106  1.00  0.00     0.239 A 
ATOM      6  C   UNL     1       5.282  20.997  23.722  1.00  0.00     0.146 A 
ATOM      7  O   UNL     1       8.115  18.812  23.818  1.00  0.00    -0.285 OA
ATOM      8  C   UNL     1       6.145  19.946  23.335  1.00  0.00     0.111 A 
ATOM      9  C   UNL     1       4.120  21.259  22.990  1.00  0.00     0.094 A 
ATOM     10  C   UNL     1       5.815  19.164  22.201  1.00  0.00     0.134 A 
ATOM     11  C   UNL     1       3.794  20.482  21.878  1.00  0.00     0.123 A 
ATOM     12  C   UNL     1       4.641  19.438  21.486  1.00  0.00     0.093 A 
BRANCH   3  13
ATOM     13  C   UNL     1       6.756  22.382  26.765  1.00  0.00     0.025 A 
ATOM     14  C   UNL     1       7.185  23.715  26.683  1.00  0.00     0.016 A 
ATOM     15  C   UNL     1       7.300  24.491  27.840  1.00  0.00     0.051 A 
ATOM     16  C   UNL     1       7.000  23.943  29.091  1.00  0.00     0.157 A 
ATOM     17  C   UNL     1       6.488  21.823  28.023  1.00  0.00     0.062 A 
ATOM     18  C   UNL     1       6.597  22.601  29.185  1.00  0.00     0.158 A 
BRANCH  16  19
ATOM     19  O   UNL     1       7.113  24.744  30.228  1.00  0.00    -0.504 OA
ATOM     20  H   UNL     1       6.321  25.237  30.619  1.00  0.00     0.293 HD
ENDBRANCH  16  19
BRANCH  18  21
ATOM     21  O   UNL     1       6.306  22.045  30.431  1.00  0.00    -0.504 OA
ATOM     22  H   UNL     1       6.204  21.044  30.554  1.00  0.00     0.293 HD
ENDBRANCH  18  21
ENDBRANCH   3  13
BRANCH  10  23
ATOM     23  O   UNL     1       6.641  18.119  21.785  1.00  0.00    -0.507 OA
ATOM     24  H   UNL     1       7.561  18.291  21.396  1.00  0.00     0.293 HD
ENDBRANCH  10  23
BRANCH  11  25
ATOM     25  O   UNL     1       2.624  20.750  21.171  1.00  0.00    -0.508 OA
ATOM     26  H   UNL     1       2.473  20.386  20.238  1.00  0.00     0.293 HD
ENDBRANCH  11  25
ENDBRANCH   1   2
BRANCH   1  27
ATOM     27  C   UNL     1      10.000  21.065  25.653  1.00  0.00     0.339 C 
ATOM     28  C   UNL     1      11.194  20.100  25.518  1.00  0.00     0.214 C 
ATOM     29  O   UNL     1      10.246  22.022  26.671  1.00  0.00    -0.332 OA
ATOM     30  C   UNL     1      11.508  19.410  26.860  1.00  0.00     0.180 C 
ATOM     31  C   UNL     1      10.397  21.410  27.944  1.00  0.00     0.179 C 
ATOM     32  C   UNL     1      11.633  20.481  27.964  1.00  0.00     0.177 C 
BRANCH  28  33
ATOM     33  O   UNL     1      11.000  19.174  24.476  1.00  0.00    -0.384 OA
ATOM     34  H   UNL     1      10.193  18.641  24.680  1.00  0.00     0.211 HD
ENDBRANCH  28  33
BRANCH  30  35
ATOM     35  O   UNL     1      10.492  18.490  27.186  1.00  0.00    -0.387 OA
ATOM     36  H   UNL     1      10.009  18.857  27.972  1.00  0.00     0.211 HD
ENDBRANCH  30  35
BRANCH  31  37
ATOM     37  C   UNL     1      10.536  22.522  28.993  1.00  0.00     0.191 C 
BRANCH  37  38
ATOM     38  O   UNL     1       9.927  22.136  30.199  1.00  0.00    -0.394 OA
ATOM     39  H   UNL     1      10.027  22.904  30.823  1.00  0.00     0.210 HD
ENDBRANCH  37  38
ENDBRANCH  31  37
BRANCH  32  40
ATOM     40  O   UNL     1      11.752  19.867  29.222  1.00  0.00    -0.387 OA
ATOM     41  H   UNL     1      11.014  20.220  29.786  1.00  0.00     0.211 HD
ENDBRANCH  32  40
ENDBRANCH   1  27
TORSDOF 12
ENDMDL
MODEL 8
REMARK VINA RESULT:    -4.839      3.930      7.646
REMARK INTER + INTRA:          -8.960
REMARK INTER:                  -6.769
REMARK INTRA:                  -2.190
REMARK UNBOUND:                -1.858
REMARK SMILES O=c1c(O[C@H]2O[C@H](CO)[C@@H](O)[C@@H](O)[C@H]2O)c(-c2ccc(O)c(O)c2)oc2cc(O)cc(O)c12
REMARK SMILES IDX 4 1 3 2 16 3 25 4 2 5 26 6 1 7 33 8 27 9 31 10 28 11 30 12
REMARK SMILES IDX 17 13 18 14 19 15 20 16 24 17 22 18 21 19 23 21 32 23 29 25
REMARK SMILES IDX 5 27 14 28 6 29 12 30 7 31 10 32 15 33 13 35 8 37 9 38 11 40
REMARK H PARENT 21 20 23 22 32 24 29 26 15 34 13 36 9 39 11 41
REMARK Flexibility Score: inf
ROOT
ATOM      1  O   UNL     1       7.580  20.869  24.053  1.00  0.00    -0.454 OA
ENDROOT
BRANCH   1   2
ATOM      2  C   UNL     1       6.191  20.904  23.845  1.00  0.00     0.214 A 
ATOM      3  C   UNL     1       5.313  21.691  24.627  1.00  0.00     0.180 A 
ATOM      4  O   UNL     1       4.020  21.739  24.322  1.00  0.00    -0.452 OA
ATOM      5  C   UNL     1       5.649  20.116  22.823  1.00  0.00     0.239 A 
ATOM      6  C   UNL     1       3.475  21.036  23.336  1.00  0.00     0.146 A 
ATOM      7  O   UNL     1       6.413  19.367  22.157  1.00  0.00    -0.285 OA
ATOM      8  C   UNL     1       4.270  20.176  22.544  1.00  0.00     0.111 A 
ATOM      9  C   UNL     1       2.102  21.142  23.100  1.00  0.00     0.094 A 
ATOM     10  C   UNL     1       3.655  19.424  21.513  1.00  0.00     0.134 A 
ATOM     11  C   UNL     1       1.498  20.395  22.088  1.00  0.00     0.123 A 
ATOM     12  C   UNL     1       2.274  19.540  21.297  1.00  0.00     0.093 A 
BRANCH   3  13
ATOM     13  C   UNL     1       5.763  22.452  25.809  1.00  0.00     0.025 A 
ATOM     14  C   UNL     1       5.955  23.839  25.743  1.00  0.00     0.016 A 
ATOM     15  C   UNL     1       6.380  24.546  26.871  1.00  0.00     0.051 A 
ATOM     16  C   UNL     1       6.632  23.876  28.073  1.00  0.00     0.157 A 
ATOM     17  C   UNL     1       6.047  21.775  27.004  1.00  0.00     0.062 A 
ATOM     18  C   UNL     1       6.470  22.482  28.139  1.00  0.00     0.158 A 
BRANCH  16  19
ATOM     19  O   UNL     1       7.045  24.608  29.186  1.00  0.00    -0.504 OA
ATOM     20  H   UNL     1       7.934  25.091  29.211  1.00  0.00     0.293 HD
ENDBRANCH  16  19
BRANCH  18  21
ATOM     21  O   UNL     1       6.728  21.805  29.331  1.00  0.00    -0.504 OA
ATOM     22  H   UNL     1       7.273  22.228  30.074  1.00  0.00     0.293 HD
ENDBRANCH  18  21
ENDBRANCH   3  13
BRANCH  10  23
ATOM     23  O   UNL     1       4.403  18.566  20.706  1.00  0.00    -0.507 OA
ATOM     24  H   UNL     1       4.002  17.727  20.305  1.00  0.00     0.293 HD
ENDBRANCH  10  23
BRANCH  11  25
ATOM     25  O   UNL     1       0.125  20.504  21.878  1.00  0.00    -0.508 OA
ATOM     26  H   UNL     1      -0.251  20.943  21.045  1.00  0.00     0.293 HD
ENDBRANCH  11  25
ENDBRANCH   1   2
BRANCH   1  27
ATOM     27  C   UNL     1       8.521  21.758  23.438  1.00  0.00     0.339 C 
ATOM     28  C   UNL     1       9.733  20.999  22.864  1.00  0.00     0.214 C 
ATOM     29  O   UNL     1       8.946  22.748  24.361  1.00  0.00    -0.332 OA
ATOM     30  C   UNL     1      10.585  20.378  23.987  1.00  0.00     0.180 C 
ATOM     31  C   UNL     1       9.611  22.177  25.478  1.00  0.00     0.179 C 
ATOM     32  C   UNL     1      10.909  21.461  25.037  1.00  0.00     0.177 C 
BRANCH  28  33
ATOM     33  O   UNL     1       9.344  20.047  21.903  1.00  0.00    -0.384 OA
ATOM     34  H   UNL     1      10.090  19.926  21.267  1.00  0.00     0.211 HD
ENDBRANCH  28  33
BRANCH  30  35
ATOM     35  O   UNL     1       9.895  19.307  24.589  1.00  0.00    -0.387 OA
ATOM     36  H   UNL     1       9.708  19.572  25.527  1.00  0.00     0.211 HD
ENDBRANCH  30  35
BRANCH  31  37
ATOM     37  C   UNL     1       9.922  23.304  26.473  1.00  0.00     0.191 C 
BRANCH  37  38
ATOM     38  O   UNL     1       9.990  22.796  27.781  1.00  0.00    -0.394 OA
ATOM     39  H   UNL     1      10.791  23.208  28.202  1.00  0.00     0.210 HD
ENDBRANCH  37  38
ENDBRANCH  31  37
BRANCH  32  40
ATOM     40  O   UNL     1      11.541  20.883  26.151  1.00  0.00    -0.387 OA
ATOM     41  H   UNL     1      12.465  20.651  25.870  1.00  0.00     0.211 HD
ENDBRANCH  32  40
ENDBRANCH   1  27
TORSDOF 12
ENDMDL
MODEL 9
REMARK VINA RESULT:    -4.819      2.248      5.480
REMARK INTER + INTRA:          -8.931
REMARK INTER:                  -6.882
REMARK INTRA:                  -2.049
REMARK UNBOUND:                -1.858
REMARK SMILES O=c1c(O[C@H]2O[C@H](CO)[C@@H](O)[C@@H](O)[C@H]2O)c(-c2ccc(O)c(O)c2)oc2cc(O)cc(O)c12
REMARK SMILES IDX 4 1 3 2 16 3 25 4 2 5 26 6 1 7 33 8 27 9 31 10 28 11 30 12
REMARK SMILES IDX 17 13 18 14 19 15 20 16 24 17 22 18 21 19 23 21 32 23 29 25
REMARK SMILES IDX 5 27 14 28 6 29 12 30 7 31 10 32 15 33 13 35 8 37 9 38 11 40
REMARK H PARENT 21 20 23 22 32 24 29 26 15 34 13 36 9 39 11 41
REMARK Flexibility Score: inf
ROOT
ATOM      1  O   UNL     1      14.015  21.125  27.531  1.00  0.00    -0.454 OA
ENDROOT
BRANCH   1   2
ATOM      2  C   UNL     1      12.786  20.724  26.981  1.00  0.00     0.214 A 
ATOM      3  C   UNL     1      11.569  20.760  27.703  1.00  0.00     0.180 A 
ATOM      4  O   UNL     1      10.430  20.442  27.094  1.00  0.00    -0.452 OA
ATOM      5  C   UNL     1      12.765  20.256  25.661  1.00  0.00     0.239 A 
ATOM      6  C   UNL     1      10.366  20.032  25.833  1.00  0.00     0.146 A 
ATOM      7  O   UNL     1      13.850  20.166  25.027  1.00  0.00    -0.285 OA
ATOM      8  C   UNL     1      11.541  19.908  25.057  1.00  0.00     0.111 A 
ATOM      9  C   UNL     1       9.122  19.708  25.284  1.00  0.00     0.094 A 
ATOM     10  C   UNL     1      11.440  19.449  23.721  1.00  0.00     0.134 A 
ATOM     11  C   UNL     1       9.027  19.249  23.970  1.00  0.00     0.123 A 
ATOM     12  C   UNL     1      10.184  19.122  23.192  1.00  0.00     0.093 A 
BRANCH   3  13
ATOM     13  C   UNL     1      11.503  21.107  29.135  1.00  0.00     0.025 A 
ATOM     14  C   UNL     1      10.682  22.151  29.587  1.00  0.00     0.016 A 
ATOM     15  C   UNL     1      10.629  22.467  30.947  1.00  0.00     0.051 A 
ATOM     16  C   UNL     1      11.402  21.756  31.870  1.00  0.00     0.157 A 
ATOM     17  C   UNL     1      12.303  20.415  30.056  1.00  0.00     0.062 A 
ATOM     18  C   UNL     1      12.248  20.727  31.423  1.00  0.00     0.158 A 
BRANCH  16  19
ATOM     19  O   UNL     1      11.321  22.086  33.223  1.00  0.00    -0.504 OA
ATOM     20  H   UNL     1      10.590  22.683  33.587  1.00  0.00     0.293 HD
ENDBRANCH  16  19
BRANCH  18  21
ATOM     21  O   UNL     1      13.029  20.019  32.336  1.00  0.00    -0.504 OA
ATOM     22  H   UNL     1      13.867  19.527  32.047  1.00  0.00     0.293 HD
ENDBRANCH  18  21
ENDBRANCH   3  13
BRANCH  10  23
ATOM     23  O   UNL     1      12.575  19.315  22.920  1.00  0.00    -0.507 OA
ATOM     24  H   UNL     1      12.920  18.407  22.634  1.00  0.00     0.293 HD
ENDBRANCH  10  23
BRANCH  11  25
ATOM     25  O   UNL     1       7.779  18.918  23.446  1.00  0.00    -0.508 OA
ATOM     26  H   UNL     1       7.256  19.567  22.870  1.00  0.00     0.293 HD
ENDBRANCH  11  25
ENDBRANCH   1   2
BRANCH   1  27
ATOM     27  C   UNL     1      14.527  22.463  27.497  1.00  0.00     0.339 C 
ATOM     28  C   UNL     1      15.937  22.519  26.876  1.00  0.00     0.214 C 
ATOM     29  O   UNL     1      14.534  23.026  28.798  1.00  0.00    -0.332 OA
ATOM     30  C   UNL     1      16.971  21.816  27.776  1.00  0.00     0.180 C 
ATOM     31  C   UNL     1      15.376  22.300  29.682  1.00  0.00     0.179 C 
ATOM     32  C   UNL     1      16.849  22.364  29.213  1.00  0.00     0.177 C 
BRANCH  28  33
ATOM     33  O   UNL     1      15.948  22.018  25.561  1.00  0.00    -0.384 OA
ATOM     34  H   UNL     1      16.308  22.718  24.965  1.00  0.00     0.211 HD
ENDBRANCH  28  33
BRANCH  30  35
ATOM     35  O   UNL     1      16.761  20.424  27.766  1.00  0.00    -0.387 OA
ATOM     36  H   UNL     1      17.626  19.997  28.001  1.00  0.00     0.211 HD
ENDBRANCH  30  35
BRANCH  31  37
ATOM     37  C   UNL     1      15.226  22.904  31.086  1.00  0.00     0.191 C 
BRANCH  37  38
ATOM     38  O   UNL     1      15.429  21.919  32.066  1.00  0.00    -0.394 OA
ATOM     39  H   UNL     1      15.849  22.377  32.842  1.00  0.00     0.210 HD
ENDBRANCH  37  38
ENDBRANCH  31  37
BRANCH  32  40
ATOM     40  O   UNL     1      17.663  21.623  30.085  1.00  0.00    -0.387 OA
ATOM     41  H   UNL     1      18.603  21.875  29.886  1.00  0.00     0.211 HD
ENDBRANCH  32  40
ENDBRANCH   1  27
TORSDOF 12
ENDMDL
