MODEL 1
REMARK VINA RESULT:    -6.296      0.000      0.000
REMARK INTER + INTRA:          -7.612
REMARK INTER:                  -7.768
REMARK INTRA:                   0.157
REMARK UNBOUND:                 0.157
REMARK SMILES [NH3+][C@H](Cc1ccc(O)cc1)C(=O)[O-]
REMARK SMILES IDX 3 1 2 2 1 3 11 7 12 8 13 9 4 10 5 11 10 12 6 13 9 14 7 15
REMARK SMILES IDX 8 16
REMARK H PARENT 1 4 1 5 1 6 8 17
REMARK Flexibility Score: inf
ROOT
ATOM      1  C   UNL     1      10.006   6.120  44.216  1.00  0.00     0.107 C 
ENDROOT
BRANCH   1   2
ATOM      2  C   UNL     1       9.288   7.423  43.804  1.00  0.00     0.232 C 
BRANCH   2   3
ATOM      3  N   UNL     1       9.212   7.528  42.342  1.00  0.00    -0.350 N 
ATOM      4  H   UNL     1       9.688   8.403  42.023  1.00  0.00     0.345 HD
ATOM      5  H   UNL     1       8.214   7.541  42.023  1.00  0.00     0.345 HD
ATOM      6  H   UNL     1       9.699   6.713  41.903  1.00  0.00     0.345 HD
ENDBRANCH   2   3
BRANCH   2   7
ATOM      7  C   UNL     1       7.907   7.493  44.406  1.00  0.00     0.099 C 
ATOM      8  O   UNL     1       6.886   7.467  43.667  1.00  0.00    -0.544 OA
ATOM      9  O   UNL     1       7.754   7.564  45.784  1.00  0.00    -0.544 OA
ENDBRANCH   2   7
ENDBRANCH   1   2
BRANCH   1  10
ATOM     10  C   UNL     1       9.126   4.911  44.021  1.00  0.00    -0.041 A 
ATOM     11  C   UNL     1       8.937   4.375  42.737  1.00  0.00     0.008 A 
ATOM     12  C   UNL     1       8.527   4.281  45.125  1.00  0.00     0.008 A 
ATOM     13  C   UNL     1       8.146   3.236  42.559  1.00  0.00     0.046 A 
ATOM     14  C   UNL     1       7.736   3.143  44.944  1.00  0.00     0.046 A 
ATOM     15  C   UNL     1       7.542   2.617  43.661  1.00  0.00     0.115 A 
BRANCH  15  16
ATOM     16  O   UNL     1       6.752   1.482  43.495  1.00  0.00    -0.508 OA
ATOM     17  H   UNL     1       6.317   1.265  42.607  1.00  0.00     0.293 HD
ENDBRANCH  15  16
ENDBRANCH   1  10
TORSDOF 5
ENDMDL
MODEL 2
REMARK VINA RESULT:    -6.285      1.842      2.144
REMARK INTER + INTRA:          -7.598
REMARK INTER:                  -7.480
REMARK INTRA:                  -0.118
REMARK UNBOUND:                 0.157
REMARK SMILES [NH3+][C@H](Cc1ccc(O)cc1)C(=O)[O-]
REMARK SMILES IDX 3 1 2 2 1 3 11 7 12 8 13 9 4 10 5 11 10 12 6 13 9 14 7 15
REMARK SMILES IDX 8 16
REMARK H PARENT 1 4 1 5 1 6 8 17
REMARK Flexibility Score: inf
ROOT
ATOM      1  C   UNL     1       8.857   6.491  45.106  1.00  0.00     0.107 C 
ENDROOT
BRANCH   1   2
ATOM      2  C   UNL     1       8.694   7.564  44.008  1.00  0.00     0.232 C 
BRANCH   2   3
ATOM      3  N   UNL     1       8.287   8.845  44.598  1.00  0.00    -0.350 N 
ATOM      4  H   UNL     1       7.270   9.012  44.416  1.00  0.00     0.345 HD
ATOM      5  H   UNL     1       8.844   9.633  44.192  1.00  0.00     0.345 HD
ATOM      6  H   UNL     1       8.433   8.821  45.633  1.00  0.00     0.345 HD
ENDBRANCH   2   3
BRANCH   2   7
ATOM      7  C   UNL     1       9.970   7.732  43.223  1.00  0.00     0.099 C 
ATOM      8  O   UNL     1      11.084   7.755  43.810  1.00  0.00    -0.544 OA
ATOM      9  O   UNL     1       9.923   7.841  41.839  1.00  0.00    -0.544 OA
ENDBRANCH   2   7
ENDBRANCH   1   2
BRANCH   1  10
ATOM     10  C   UNL     1       8.286   5.162  44.677  1.00  0.00    -0.041 A 
ATOM     11  C   UNL     1       8.861   4.458  43.607  1.00  0.00     0.008 A 
ATOM     12  C   UNL     1       7.206   4.594  45.373  1.00  0.00     0.008 A 
ATOM     13  C   UNL     1       8.353   3.213  43.228  1.00  0.00     0.046 A 
ATOM     14  C   UNL     1       6.699   3.348  44.992  1.00  0.00     0.046 A 
ATOM     15  C   UNL     1       7.269   2.654  43.919  1.00  0.00     0.115 A 
BRANCH  15  16
ATOM     16  O   UNL     1       6.754   1.413  43.550  1.00  0.00    -0.508 OA
ATOM     17  H   UNL     1       6.313   0.801  44.225  1.00  0.00     0.293 HD
ENDBRANCH  15  16
ENDBRANCH   1  10
TORSDOF 5
ENDMDL
MODEL 3
REMARK VINA RESULT:    -6.269      0.164      1.622
REMARK INTER + INTRA:          -7.578
REMARK INTER:                  -7.752
REMARK INTRA:                   0.174
REMARK UNBOUND:                 0.157
REMARK SMILES [NH3+][C@H](Cc1ccc(O)cc1)C(=O)[O-]
REMARK SMILES IDX 3 1 2 2 1 3 11 7 12 8 13 9 4 10 5 11 10 12 6 13 9 14 7 15
REMARK SMILES IDX 8 16
REMARK H PARENT 1 4 1 5 1 6 8 17
REMARK Flexibility Score: inf
ROOT
ATOM      1  C   UNL     1      10.092   6.240  44.242  1.00  0.00     0.107 C 
ENDROOT
BRANCH   1   2
ATOM      2  C   UNL     1       9.359   7.517  43.781  1.00  0.00     0.232 C 
BRANCH   2   3
ATOM      3  N   UNL     1       9.272   7.561  42.316  1.00  0.00    -0.350 N 
ATOM      4  H   UNL     1       8.447   7.007  41.992  1.00  0.00     0.345 HD
ATOM      5  H   UNL     1      10.142   7.171  41.882  1.00  0.00     0.345 HD
ATOM      6  H   UNL     1       9.146   8.550  41.999  1.00  0.00     0.345 HD
ENDBRANCH   2   3
BRANCH   2   7
ATOM      7  C   UNL     1       7.981   7.599  44.388  1.00  0.00     0.099 C 
ATOM      8  O   UNL     1       7.838   7.814  45.622  1.00  0.00    -0.544 OA
ATOM      9  O   UNL     1       6.859   7.462  43.582  1.00  0.00    -0.544 OA
ENDBRANCH   2   7
ENDBRANCH   1   2
BRANCH   1  10
ATOM     10  C   UNL     1       9.236   5.010  44.067  1.00  0.00    -0.041 A 
ATOM     11  C   UNL     1       8.587   4.438  45.173  1.00  0.00     0.008 A 
ATOM     12  C   UNL     1       9.043   4.452  42.792  1.00  0.00     0.008 A 
ATOM     13  C   UNL     1       7.769   3.316  45.008  1.00  0.00     0.046 A 
ATOM     14  C   UNL     1       8.225   3.330  42.629  1.00  0.00     0.046 A 
ATOM     15  C   UNL     1       7.587   2.758  43.736  1.00  0.00     0.115 A 
BRANCH  15  16
ATOM     16  O   UNL     1       6.775   1.640  43.559  1.00  0.00    -0.508 OA
ATOM     17  H   UNL     1       6.916   0.793  44.096  1.00  0.00     0.293 HD
ENDBRANCH  15  16
ENDBRANCH   1  10
TORSDOF 5
ENDMDL
MODEL 4
REMARK VINA RESULT:    -6.128      9.434     11.614
REMARK INTER + INTRA:          -7.404
REMARK INTER:                  -7.195
REMARK INTRA:                  -0.209
REMARK UNBOUND:                 0.157
REMARK SMILES [NH3+][C@H](Cc1ccc(O)cc1)C(=O)[O-]
REMARK SMILES IDX 3 1 2 2 1 3 11 7 12 8 13 9 4 10 5 11 10 12 6 13 9 14 7 15
REMARK SMILES IDX 8 16
REMARK H PARENT 1 4 1 5 1 6 8 17
REMARK Flexibility Score: inf
ROOT
ATOM      1  C   UNL     1      11.360  -4.271  39.040  1.00  0.00     0.107 C 
ENDROOT
BRANCH   1   2
ATOM      2  C   UNL     1      11.052  -5.612  38.340  1.00  0.00     0.232 C 
BRANCH   2   3
ATOM      3  N   UNL     1      11.659  -5.647  37.004  1.00  0.00    -0.350 N 
ATOM      4  H   UNL     1      12.553  -5.104  37.006  1.00  0.00     0.345 HD
ATOM      5  H   UNL     1      11.009  -5.238  36.291  1.00  0.00     0.345 HD
ATOM      6  H   UNL     1      11.877  -6.635  36.740  1.00  0.00     0.345 HD
ENDBRANCH   2   3
BRANCH   2   7
ATOM      7  C   UNL     1      11.538  -6.777  39.165  1.00  0.00     0.099 C 
ATOM      8  O   UNL     1      10.718  -7.519  39.768  1.00  0.00    -0.544 OA
ATOM      9  O   UNL     1      12.896  -7.052  39.243  1.00  0.00    -0.544 OA
ENDBRANCH   2   7
ENDBRANCH   1   2
BRANCH   1  10
ATOM     10  C   UNL     1      10.364  -3.968  40.132  1.00  0.00    -0.041 A 
ATOM     11  C   UNL     1       9.068  -3.538  39.806  1.00  0.00     0.008 A 
ATOM     12  C   UNL     1      10.707  -4.157  41.481  1.00  0.00     0.008 A 
ATOM     13  C   UNL     1       8.134  -3.286  40.816  1.00  0.00     0.046 A 
ATOM     14  C   UNL     1       9.772  -3.904  42.489  1.00  0.00     0.046 A 
ATOM     15  C   UNL     1       8.485  -3.467  42.160  1.00  0.00     0.115 A 
BRANCH  15  16
ATOM     16  O   UNL     1       7.562  -3.219  43.175  1.00  0.00    -0.508 OA
ATOM     17  H   UNL     1       6.577  -3.096  42.976  1.00  0.00     0.293 HD
ENDBRANCH  15  16
ENDBRANCH   1  10
TORSDOF 5
ENDMDL
MODEL 5
REMARK VINA RESULT:    -6.098      2.561      4.467
REMARK INTER + INTRA:          -7.368
REMARK INTER:                  -7.125
REMARK INTRA:                  -0.243
REMARK UNBOUND:                 0.157
REMARK SMILES [NH3+][C@H](Cc1ccc(O)cc1)C(=O)[O-]
REMARK SMILES IDX 3 1 2 2 1 3 11 7 12 8 13 9 4 10 5 11 10 12 6 13 9 14 7 15
REMARK SMILES IDX 8 16
REMARK H PARENT 1 4 1 5 1 6 8 17
REMARK Flexibility Score: inf
ROOT
ATOM      1  C   UNL     1       8.659   3.184  43.724  1.00  0.00     0.107 C 
ENDROOT
BRANCH   1   2
ATOM      2  C   UNL     1       7.122   3.053  43.770  1.00  0.00     0.232 C 
BRANCH   2   3
ATOM      3  N   UNL     1       6.722   1.647  43.623  1.00  0.00    -0.350 N 
ATOM      4  H   UNL     1       7.465   1.024  44.014  1.00  0.00     0.345 HD
ATOM      5  H   UNL     1       6.566   1.410  42.615  1.00  0.00     0.345 HD
ATOM      6  H   UNL     1       5.838   1.475  44.156  1.00  0.00     0.345 HD
ENDBRANCH   2   3
BRANCH   2   7
ATOM      7  C   UNL     1       6.568   3.623  45.050  1.00  0.00     0.099 C 
ATOM      8  O   UNL     1       6.637   2.968  46.125  1.00  0.00    -0.544 OA
ATOM      9  O   UNL     1       5.996   4.889  45.055  1.00  0.00    -0.544 OA
ENDBRANCH   2   7
ENDBRANCH   1   2
BRANCH   1  10
ATOM     10  C   UNL     1       9.093   4.620  43.556  1.00  0.00    -0.041 A 
ATOM     11  C   UNL     1       8.526   5.416  42.548  1.00  0.00     0.008 A 
ATOM     12  C   UNL     1      10.031   5.187  44.435  1.00  0.00     0.008 A 
ATOM     13  C   UNL     1       8.905   6.754  42.411  1.00  0.00     0.046 A 
ATOM     14  C   UNL     1      10.408   6.526  44.296  1.00  0.00     0.046 A 
ATOM     15  C   UNL     1       9.848   7.313  43.284  1.00  0.00     0.115 A 
BRANCH  15  16
ATOM     16  O   UNL     1      10.233   8.646  43.157  1.00  0.00    -0.508 OA
ATOM     17  H   UNL     1      11.127   8.903  42.757  1.00  0.00     0.293 HD
ENDBRANCH  15  16
ENDBRANCH   1  10
TORSDOF 5
ENDMDL
MODEL 6
REMARK VINA RESULT:    -6.062      9.469     11.365
REMARK INTER + INTRA:          -7.323
REMARK INTER:                  -7.107
REMARK INTRA:                  -0.216
REMARK UNBOUND:                 0.157
REMARK SMILES [NH3+][C@H](Cc1ccc(O)cc1)C(=O)[O-]
REMARK SMILES IDX 3 1 2 2 1 3 11 7 12 8 13 9 4 10 5 11 10 12 6 13 9 14 7 15
REMARK SMILES IDX 8 16
REMARK H PARENT 1 4 1 5 1 6 8 17
REMARK Flexibility Score: inf
ROOT
ATOM      1  C   UNL     1      11.394  -3.705  38.877  1.00  0.00     0.107 C 
ENDROOT
BRANCH   1   2
ATOM      2  C   UNL     1      11.811  -5.153  38.544  1.00  0.00     0.232 C 
BRANCH   2   3
ATOM      3  N   UNL     1      11.461  -5.483  37.156  1.00  0.00    -0.350 N 
ATOM      4  H   UNL     1      11.126  -4.624  36.661  1.00  0.00     0.345 HD
ATOM      5  H   UNL     1      10.712  -6.213  37.127  1.00  0.00     0.345 HD
ATOM      6  H   UNL     1      12.306  -5.840  36.654  1.00  0.00     0.345 HD
ENDBRANCH   2   3
BRANCH   2   7
ATOM      7  C   UNL     1      13.286  -5.358  38.773  1.00  0.00     0.099 C 
ATOM      8  O   UNL     1      13.817  -5.022  39.866  1.00  0.00    -0.544 OA
ATOM      9  O   UNL     1      14.067  -5.944  37.785  1.00  0.00    -0.544 OA
ENDBRANCH   2   7
ENDBRANCH   1   2
BRANCH   1  10
ATOM     10  C   UNL     1      10.409  -3.656  40.019  1.00  0.00    -0.041 A 
ATOM     11  C   UNL     1      10.844  -3.867  41.337  1.00  0.00     0.008 A 
ATOM     12  C   UNL     1       9.058  -3.353  39.780  1.00  0.00     0.008 A 
ATOM     13  C   UNL     1       9.938  -3.792  42.399  1.00  0.00     0.046 A 
ATOM     14  C   UNL     1       8.153  -3.279  40.844  1.00  0.00     0.046 A 
ATOM     15  C   UNL     1       8.590  -3.499  42.155  1.00  0.00     0.115 A 
BRANCH  15  16
ATOM     16  O   UNL     1       7.678  -3.421  43.206  1.00  0.00    -0.508 OA
ATOM     17  H   UNL     1       7.641  -4.130  43.928  1.00  0.00     0.293 HD
ENDBRANCH  15  16
ENDBRANCH   1  10
TORSDOF 5
ENDMDL
MODEL 7
REMARK VINA RESULT:    -5.973      9.413     11.822
REMARK INTER + INTRA:          -7.213
REMARK INTER:                  -7.024
REMARK INTRA:                  -0.189
REMARK UNBOUND:                 0.157
REMARK SMILES [NH3+][C@H](Cc1ccc(O)cc1)C(=O)[O-]
REMARK SMILES IDX 3 1 2 2 1 3 11 7 12 8 13 9 4 10 5 11 10 12 6 13 9 14 7 15
REMARK SMILES IDX 8 16
REMARK H PARENT 1 4 1 5 1 6 8 17
REMARK Flexibility Score: inf
ROOT
ATOM      1  C   UNL     1      11.571  -5.863  39.837  1.00  0.00     0.107 C 
ENDROOT
BRANCH   1   2
ATOM      2  C   UNL     1      12.179  -4.973  38.733  1.00  0.00     0.232 C 
BRANCH   2   3
ATOM      3  N   UNL     1      13.331  -4.224  39.252  1.00  0.00    -0.350 N 
ATOM      4  H   UNL     1      13.781  -4.759  40.030  1.00  0.00     0.345 HD
ATOM      5  H   UNL     1      13.032  -3.285  39.605  1.00  0.00     0.345 HD
ATOM      6  H   UNL     1      14.039  -4.095  38.493  1.00  0.00     0.345 HD
ENDBRANCH   2   3
BRANCH   2   7
ATOM      7  C   UNL     1      12.587  -5.796  37.537  1.00  0.00     0.099 C 
ATOM      8  O   UNL     1      11.763  -6.037  36.615  1.00  0.00    -0.544 OA
ATOM      9  O   UNL     1      13.887  -6.274  37.436  1.00  0.00    -0.544 OA
ENDBRANCH   2   7
ENDBRANCH   1   2
BRANCH   1  10
ATOM     10  C   UNL     1      10.546  -5.117  40.655  1.00  0.00    -0.041 A 
ATOM     11  C   UNL     1      10.545  -5.226  42.055  1.00  0.00     0.008 A 
ATOM     12  C   UNL     1       9.614  -4.273  40.030  1.00  0.00     0.008 A 
ATOM     13  C   UNL     1       9.616  -4.512  42.817  1.00  0.00     0.046 A 
ATOM     14  C   UNL     1       8.685  -3.560  40.794  1.00  0.00     0.046 A 
ATOM     15  C   UNL     1       8.682  -3.678  42.188  1.00  0.00     0.115 A 
BRANCH  15  16
ATOM     16  O   UNL     1       7.751  -2.961  42.937  1.00  0.00    -0.508 OA
ATOM     17  H   UNL     1       6.780  -2.899  42.656  1.00  0.00     0.293 HD
ENDBRANCH  15  16
ENDBRANCH   1  10
TORSDOF 5
ENDMDL
MODEL 8
REMARK VINA RESULT:    -5.965      9.967     11.569
REMARK INTER + INTRA:          -7.203
REMARK INTER:                  -7.002
REMARK INTRA:                  -0.201
REMARK UNBOUND:                 0.157
REMARK SMILES [NH3+][C@H](Cc1ccc(O)cc1)C(=O)[O-]
REMARK SMILES IDX 3 1 2 2 1 3 11 7 12 8 13 9 4 10 5 11 10 12 6 13 9 14 7 15
REMARK SMILES IDX 8 16
REMARK H PARENT 1 4 1 5 1 6 8 17
REMARK Flexibility Score: inf
ROOT
ATOM      1  C   UNL     1      10.343  -5.968  42.485  1.00  0.00     0.107 C 
ENDROOT
BRANCH   1   2
ATOM      2  C   UNL     1      10.209  -4.563  43.109  1.00  0.00     0.232 C 
BRANCH   2   3
ATOM      3  N   UNL     1       9.044  -4.506  44.001  1.00  0.00    -0.350 N 
ATOM      4  H   UNL     1       9.153  -3.716  44.678  1.00  0.00     0.345 HD
ATOM      5  H   UNL     1       8.939  -5.403  44.531  1.00  0.00     0.345 HD
ATOM      6  H   UNL     1       8.177  -4.337  43.440  1.00  0.00     0.345 HD
ENDBRANCH   2   3
BRANCH   2   7
ATOM      7  C   UNL     1      11.459  -4.182  43.859  1.00  0.00     0.099 C 
ATOM      8  O   UNL     1      12.488  -4.907  43.798  1.00  0.00    -0.544 OA
ATOM      9  O   UNL     1      11.491  -3.011  44.606  1.00  0.00    -0.544 OA
ENDBRANCH   2   7
ENDBRANCH   1   2
BRANCH   1  10
ATOM     10  C   UNL     1      10.583  -5.898  40.997  1.00  0.00    -0.041 A 
ATOM     11  C   UNL     1      10.659  -4.653  40.352  1.00  0.00     0.008 A 
ATOM     12  C   UNL     1      10.777  -7.073  40.251  1.00  0.00     0.008 A 
ATOM     13  C   UNL     1      10.910  -4.586  38.978  1.00  0.00     0.046 A 
ATOM     14  C   UNL     1      11.028  -7.003  38.878  1.00  0.00     0.046 A 
ATOM     15  C   UNL     1      11.094  -5.761  38.237  1.00  0.00     0.115 A 
BRANCH  15  16
ATOM     16  O   UNL     1      11.345  -5.705  36.868  1.00  0.00    -0.508 OA
ATOM     17  H   UNL     1      11.391  -4.823  36.373  1.00  0.00     0.293 HD
ENDBRANCH  15  16
ENDBRANCH   1  10
TORSDOF 5
ENDMDL
MODEL 9
REMARK VINA RESULT:    -5.877      9.617     11.432
REMARK INTER + INTRA:          -7.095
REMARK INTER:                  -6.864
REMARK INTRA:                  -0.231
REMARK UNBOUND:                 0.157
REMARK SMILES [NH3+][C@H](Cc1ccc(O)cc1)C(=O)[O-]
REMARK SMILES IDX 3 1 2 2 1 3 11 7 12 8 13 9 4 10 5 11 10 12 6 13 9 14 7 15
REMARK SMILES IDX 8 16
REMARK H PARENT 1 4 1 5 1 6 8 17
REMARK Flexibility Score: inf
ROOT
ATOM      1  C   UNL     1      11.817  -6.244  40.811  1.00  0.00     0.107 C 
ENDROOT
BRANCH   1   2
ATOM      2  C   UNL     1      13.235  -5.733  41.141  1.00  0.00     0.232 C 
BRANCH   2   3
ATOM      3  N   UNL     1      14.176  -6.855  41.243  1.00  0.00    -0.350 N 
ATOM      4  H   UNL     1      15.106  -6.510  41.577  1.00  0.00     0.345 HD
ATOM      5  H   UNL     1      14.295  -7.325  40.314  1.00  0.00     0.345 HD
ATOM      6  H   UNL     1      13.820  -7.553  41.936  1.00  0.00     0.345 HD
ENDBRANCH   2   3
BRANCH   2   7
ATOM      7  C   UNL     1      13.710  -4.746  40.104  1.00  0.00     0.099 C 
ATOM      8  O   UNL     1      13.198  -4.733  38.953  1.00  0.00    -0.544 OA
ATOM      9  O   UNL     1      14.702  -3.828  40.423  1.00  0.00    -0.544 OA
ENDBRANCH   2   7
ENDBRANCH   1   2
BRANCH   1  10
ATOM     10  C   UNL     1      10.751  -5.354  41.401  1.00  0.00    -0.041 A 
ATOM     11  C   UNL     1       9.929  -4.585  40.562  1.00  0.00     0.008 A 
ATOM     12  C   UNL     1      10.539  -5.322  42.789  1.00  0.00     0.008 A 
ATOM     13  C   UNL     1       8.921  -3.783  41.105  1.00  0.00     0.046 A 
ATOM     14  C   UNL     1       9.530  -4.519  43.331  1.00  0.00     0.046 A 
ATOM     15  C   UNL     1       8.720  -3.747  42.491  1.00  0.00     0.115 A 
BRANCH  15  16
ATOM     16  O   UNL     1       7.718  -2.951  43.044  1.00  0.00    -0.508 OA
ATOM     17  H   UNL     1       6.792  -2.908  42.637  1.00  0.00     0.293 HD
ENDBRANCH  15  16
ENDBRANCH   1  10
TORSDOF 5
ENDMDL
