MODEL 1
REMARK VINA RESULT:    -6.715      0.000      0.000
REMARK INTER + INTRA:         -10.302
REMARK INTER:                  -8.874
REMARK INTRA:                  -1.428
REMARK UNBOUND:                -1.428
REMARK SMILES CC[C@H](C=C[C@H](C)[C@H]1CC[C@@H]2[C@H]3CC=C4C[C@@H](O)CC[C@]4(C)[C@@H]3CC[C@@]21C)C(C)C
REMARK SMILES IDX 6 1 7 2 5 3 4 4 3 5 2 6 1 7 28 8 29 9 30 10 8 11 9 12 26 13
REMARK SMILES IDX 10 14 11 15 25 16 27 17 12 18 24 19 23 20 13 21 21 22 14 23
REMARK SMILES IDX 15 24 20 25 22 26 16 27 19 28 17 29 18 30
REMARK H PARENT 18 31
REMARK Flexibility Score: inf
ROOT
ATOM      1  C   UNL     1      99.775 123.285  97.063  1.00  0.00     0.012 C 
ATOM      2  C   UNL     1      99.361 122.879  98.490  1.00  0.00     0.012 C 
ENDROOT
BRANCH   1   3
ATOM      3  C   UNL     1     100.274 124.723  97.091  1.00  0.00    -0.028 C 
ATOM      4  C   UNL     1     100.212 125.609  96.077  1.00  0.00    -0.027 C 
BRANCH   4   5
ATOM      5  C   UNL     1      99.338 125.490  94.834  1.00  0.00     0.014 C 
BRANCH   5   6
ATOM      6  C   UNL     1     100.030 124.482  93.879  1.00  0.00     0.004 C 
ATOM      7  C   UNL     1     101.509 124.779  93.620  1.00  0.00     0.004 C 
ENDBRANCH   5   6
BRANCH   5   8
ATOM      8  C   UNL     1      97.867 125.096  95.191  1.00  0.00    -0.011 C 
ATOM      9  C   UNL     1      96.975 126.291  95.590  1.00  0.00     0.008 C 
ATOM     10  C   UNL     1      97.194 124.307  94.050  1.00  0.00     0.008 C 
ENDBRANCH   5   8
ENDBRANCH   4   5
ENDBRANCH   1   3
BRANCH   1  11
ATOM     11  C   UNL     1     100.874 122.372  96.407  1.00  0.00     0.002 C 
ATOM     12  C   UNL     1     101.876 121.825  97.434  1.00  0.00     0.005 C 
ATOM     13  C   UNL     1     100.441 121.104  95.593  1.00  0.00    -0.026 C 
ATOM     14  C   UNL     1     101.466 120.389  97.740  1.00  0.00     0.005 C 
ATOM     15  C   UNL     1     100.439 119.959  96.666  1.00  0.00    -0.001 C 
ATOM     16  C   UNL     1     101.501 120.865  94.444  1.00  0.00     0.007 C 
ATOM     17  C   UNL     1      99.041 121.251  94.936  1.00  0.00     0.012 C 
ATOM     18  C   UNL     1     100.696 118.489  96.178  1.00  0.00     0.000 C 
ATOM     19  C   UNL     1     102.249 119.524  94.511  1.00  0.00     0.005 C 
ATOM     20  C   UNL     1     101.250 118.379  94.750  1.00  0.00     0.003 C 
ATOM     21  C   UNL     1      99.457 117.581  96.269  1.00  0.00     0.031 C 
ATOM     22  C   UNL     1     101.802 116.934  94.453  1.00  0.00    -0.008 C 
ATOM     23  C   UNL     1      99.812 116.172  95.844  1.00  0.00    -0.027 C 
ATOM     24  C   UNL     1     100.821 115.869  94.988  1.00  0.00    -0.065 C 
ATOM     25  C   UNL     1     103.191 116.679  95.137  1.00  0.00     0.014 C 
ATOM     26  C   UNL     1     101.947 116.782  92.909  1.00  0.00     0.016 C 
ATOM     27  C   UNL     1     101.235 114.416  94.855  1.00  0.00     0.063 C 
ATOM     28  C   UNL     1     103.656 115.207  95.040  1.00  0.00     0.033 C 
ATOM     29  C   UNL     1     102.584 114.226  95.564  1.00  0.00     0.118 C 
BRANCH  29  30
ATOM     30  O   UNL     1     103.022 112.898  95.431  1.00  0.00    -0.393 OA
ATOM     31  H   UNL     1     103.988 112.875  95.655  1.00  0.00     0.210 HD
ENDBRANCH  29  30
ENDBRANCH   1  11
TORSDOF 6
ENDMDL
MODEL 2
REMARK VINA RESULT:    -6.664      0.853      1.770
REMARK INTER + INTRA:         -10.235
REMARK INTER:                  -8.444
REMARK INTRA:                  -1.791
REMARK UNBOUND:                -1.428
REMARK SMILES CC[C@H](C=C[C@H](C)[C@H]1CC[C@@H]2[C@H]3CC=C4C[C@@H](O)CC[C@]4(C)[C@@H]3CC[C@@]21C)C(C)C
REMARK SMILES IDX 6 1 7 2 5 3 4 4 3 5 2 6 1 7 28 8 29 9 30 10 8 11 9 12 26 13
REMARK SMILES IDX 10 14 11 15 25 16 27 17 12 18 24 19 23 20 13 21 21 22 14 23
REMARK SMILES IDX 15 24 20 25 22 26 16 27 19 28 17 29 18 30
REMARK H PARENT 18 31
REMARK Flexibility Score: inf
ROOT
ATOM      1  C   UNL     1      99.004 123.132  97.966  1.00  0.00     0.012 C 
ATOM      2  C   UNL     1      98.821 122.706  99.435  1.00  0.00     0.012 C 
ENDROOT
BRANCH   1   3
ATOM      3  C   UNL     1      99.198 124.642  97.918  1.00  0.00    -0.028 C 
ATOM      4  C   UNL     1      99.648 125.355  96.866  1.00  0.00    -0.027 C 
BRANCH   4   5
ATOM      5  C   UNL     1      99.723 124.873  95.422  1.00  0.00     0.014 C 
BRANCH   5   6
ATOM      6  C   UNL     1      98.542 125.526  94.656  1.00  0.00     0.004 C 
ATOM      7  C   UNL     1      97.572 124.521  94.028  1.00  0.00     0.004 C 
ENDBRANCH   5   6
BRANCH   5   8
ATOM      8  C   UNL     1     101.118 125.171  94.780  1.00  0.00    -0.011 C 
ATOM      9  C   UNL     1     102.316 124.823  95.689  1.00  0.00     0.008 C 
ATOM     10  C   UNL     1     101.281 124.465  93.418  1.00  0.00     0.008 C 
ENDBRANCH   5   8
ENDBRANCH   4   5
ENDBRANCH   1   3
BRANCH   1  11
ATOM     11  C   UNL     1     100.198 122.436  97.217  1.00  0.00     0.002 C 
ATOM     12  C   UNL     1     101.237 121.849  98.183  1.00  0.00     0.005 C 
ATOM     13  C   UNL     1      99.906 121.261  96.221  1.00  0.00    -0.026 C 
ATOM     14  C   UNL     1     100.971 120.351  98.272  1.00  0.00     0.005 C 
ATOM     15  C   UNL     1     100.006 119.980  97.122  1.00  0.00    -0.001 C 
ATOM     16  C   UNL     1     100.999 121.294  95.079  1.00  0.00     0.007 C 
ATOM     17  C   UNL     1      98.505 121.362  95.555  1.00  0.00     0.012 C 
ATOM     18  C   UNL     1     100.417 118.628  96.438  1.00  0.00     0.000 C 
ATOM     19  C   UNL     1     101.877 120.038  94.975  1.00  0.00     0.005 C 
ATOM     20  C   UNL     1     100.997 118.777  95.024  1.00  0.00     0.003 C 
ATOM     21  C   UNL     1      99.275 117.598  96.367  1.00  0.00     0.031 C 
ATOM     22  C   UNL     1     101.696 117.451  94.541  1.00  0.00    -0.008 C 
ATOM     23  C   UNL     1      99.777 116.306  95.758  1.00  0.00    -0.027 C 
ATOM     24  C   UNL     1     100.822 116.229  94.894  1.00  0.00    -0.065 C 
ATOM     25  C   UNL     1     103.095 117.240  95.219  1.00  0.00     0.014 C 
ATOM     26  C   UNL     1     101.874 117.536  92.996  1.00  0.00     0.016 C 
ATOM     27  C   UNL     1     101.382 114.858  94.568  1.00  0.00     0.063 C 
ATOM     28  C   UNL     1     103.708 115.849  94.927  1.00  0.00     0.033 C 
ATOM     29  C   UNL     1     102.735 114.703  95.280  1.00  0.00     0.118 C 
BRANCH  29  30
ATOM     30  O   UNL     1     103.307 113.457  94.972  1.00  0.00    -0.393 OA
ATOM     31  H   UNL     1     103.652 113.067  95.816  1.00  0.00     0.210 HD
ENDBRANCH  29  30
ENDBRANCH   1  11
TORSDOF 6
ENDMDL
MODEL 3
REMARK VINA RESULT:    -6.376      0.921      1.827
REMARK INTER + INTRA:          -9.854
REMARK INTER:                  -8.166
REMARK INTRA:                  -1.689
REMARK UNBOUND:                -1.428
REMARK SMILES CC[C@H](C=C[C@H](C)[C@H]1CC[C@@H]2[C@H]3CC=C4C[C@@H](O)CC[C@]4(C)[C@@H]3CC[C@@]21C)C(C)C
REMARK SMILES IDX 6 1 7 2 5 3 4 4 3 5 2 6 1 7 28 8 29 9 30 10 8 11 9 12 26 13
REMARK SMILES IDX 10 14 11 15 25 16 27 17 12 18 24 19 23 20 13 21 21 22 14 23
REMARK SMILES IDX 15 24 20 25 22 26 16 27 19 28 17 29 18 30
REMARK H PARENT 18 31
REMARK Flexibility Score: inf
ROOT
ATOM      1  C   UNL     1      99.827 123.694  98.078  1.00  0.00     0.012 C 
ATOM      2  C   UNL     1      99.821 123.419  99.594  1.00  0.00     0.012 C 
ENDROOT
BRANCH   1   3
ATOM      3  C   UNL     1     100.054 125.183  97.854  1.00  0.00    -0.028 C 
ATOM      4  C   UNL     1      99.463 125.947  96.914  1.00  0.00    -0.027 C 
BRANCH   4   5
ATOM      5  C   UNL     1      98.213 125.586  96.120  1.00  0.00     0.014 C 
BRANCH   5   6
ATOM      6  C   UNL     1      97.130 126.643  96.461  1.00  0.00     0.004 C 
ATOM      7  C   UNL     1      95.812 126.049  96.967  1.00  0.00     0.004 C 
ENDBRANCH   5   6
BRANCH   5   8
ATOM      8  C   UNL     1      98.508 125.472  94.588  1.00  0.00    -0.011 C 
ATOM      9  C   UNL     1      99.969 125.104  94.254  1.00  0.00     0.008 C 
ATOM     10  C   UNL     1      97.554 124.476  93.897  1.00  0.00     0.008 C 
ENDBRANCH   5   8
ENDBRANCH   4   5
ENDBRANCH   1   3
BRANCH   1  11
ATOM     11  C   UNL     1     100.899 122.882  97.262  1.00  0.00     0.002 C 
ATOM     12  C   UNL     1     101.954 122.226  98.164  1.00  0.00     0.005 C 
ATOM     13  C   UNL     1     100.434 121.717  96.321  1.00  0.00    -0.026 C 
ATOM     14  C   UNL     1     101.569 120.759  98.311  1.00  0.00     0.005 C 
ATOM     15  C   UNL     1     100.493 120.450  97.245  1.00  0.00    -0.001 C 
ATOM     16  C   UNL     1     101.436 121.634  95.101  1.00  0.00     0.007 C 
ATOM     17  C   UNL     1      99.001 121.926  95.757  1.00  0.00     0.012 C 
ATOM     18  C   UNL     1     100.735 119.055  96.568  1.00  0.00     0.000 C 
ATOM     19  C   UNL     1     102.195 120.305  94.966  1.00  0.00     0.005 C 
ATOM     20  C   UNL     1     101.217 119.126  95.112  1.00  0.00     0.003 C 
ATOM     21  C   UNL     1      99.508 118.126  96.608  1.00  0.00     0.031 C 
ATOM     22  C   UNL     1     101.763 117.735  94.614  1.00  0.00    -0.008 C 
ATOM     23  C   UNL     1      99.851 116.784  95.997  1.00  0.00    -0.027 C 
ATOM     24  C   UNL     1     100.817 116.600  95.062  1.00  0.00    -0.065 C 
ATOM     25  C   UNL     1     103.186 117.417  95.192  1.00  0.00     0.014 C 
ATOM     26  C   UNL     1     101.831 117.774  93.058  1.00  0.00     0.016 C 
ATOM     27  C   UNL     1     101.233 115.180  94.731  1.00  0.00     0.063 C 
ATOM     28  C   UNL     1     103.655 115.973  94.893  1.00  0.00     0.033 C 
ATOM     29  C   UNL     1     102.618 114.922  95.345  1.00  0.00     0.118 C 
BRANCH  29  30
ATOM     30  O   UNL     1     103.057 113.625  95.029  1.00  0.00    -0.393 OA
ATOM     31  H   UNL     1     104.036 113.592  95.187  1.00  0.00     0.210 HD
ENDBRANCH  29  30
ENDBRANCH   1  11
TORSDOF 6
ENDMDL
MODEL 4
REMARK VINA RESULT:    -6.293      3.242      8.443
REMARK INTER + INTRA:          -9.745
REMARK INTER:                  -8.251
REMARK INTRA:                  -1.493
REMARK UNBOUND:                -1.428
REMARK SMILES CC[C@H](C=C[C@H](C)[C@H]1CC[C@@H]2[C@H]3CC=C4C[C@@H](O)CC[C@]4(C)[C@@H]3CC[C@@]21C)C(C)C
REMARK SMILES IDX 6 1 7 2 5 3 4 4 3 5 2 6 1 7 28 8 29 9 30 10 8 11 9 12 26 13
REMARK SMILES IDX 10 14 11 15 25 16 27 17 12 18 24 19 23 20 13 21 21 22 14 23
REMARK SMILES IDX 15 24 20 25 22 26 16 27 19 28 17 29 18 30
REMARK H PARENT 18 31
REMARK Flexibility Score: inf
ROOT
ATOM      1  C   UNL     1     100.317 117.046  95.851  1.00  0.00     0.012 C 
ATOM      2  C   UNL     1      99.210 116.571  96.810  1.00  0.00     0.012 C 
ENDROOT
BRANCH   1   3
ATOM      3  C   UNL     1     100.385 116.086  94.671  1.00  0.00    -0.028 C 
ATOM      4  C   UNL     1     101.488 115.762  93.967  1.00  0.00    -0.027 C 
BRANCH   4   5
ATOM      5  C   UNL     1     102.930 116.001  94.401  1.00  0.00     0.014 C 
BRANCH   5   6
ATOM      6  C   UNL     1     103.402 114.730  95.153  1.00  0.00     0.004 C 
ATOM      7  C   UNL     1     102.620 113.463  94.794  1.00  0.00     0.004 C 
ENDBRANCH   5   6
BRANCH   5   8
ATOM      8  C   UNL     1     103.846 116.382  93.191  1.00  0.00    -0.011 C 
ATOM      9  C   UNL     1     103.626 115.513  91.936  1.00  0.00     0.008 C 
ATOM     10  C   UNL     1     103.708 117.872  92.819  1.00  0.00     0.008 C 
ENDBRANCH   5   8
ENDBRANCH   4   5
ENDBRANCH   1   3
BRANCH   1  11
ATOM     11  C   UNL     1     100.142 118.513  95.310  1.00  0.00     0.002 C 
ATOM     12  C   UNL     1      98.784 119.121  95.687  1.00  0.00     0.005 C 
ATOM     13  C   UNL     1     101.175 119.617  95.722  1.00  0.00    -0.026 C 
ATOM     14  C   UNL     1      99.020 120.039  96.880  1.00  0.00     0.005 C 
ATOM     15  C   UNL     1     100.546 120.248  97.013  1.00  0.00    -0.001 C 
ATOM     16  C   UNL     1     101.299 120.651  94.532  1.00  0.00     0.007 C 
ATOM     17  C   UNL     1     102.591 119.046  96.017  1.00  0.00     0.012 C 
ATOM     18  C   UNL     1     100.896 121.741  97.350  1.00  0.00     0.000 C 
ATOM     19  C   UNL     1     100.899 122.094  94.873  1.00  0.00     0.005 C 
ATOM     20  C   UNL     1     101.552 122.519  96.200  1.00  0.00     0.003 C 
ATOM     21  C   UNL     1     101.792 121.902  98.592  1.00  0.00     0.031 C 
ATOM     22  C   UNL     1     101.560 124.069  96.479  1.00  0.00    -0.008 C 
ATOM     23  C   UNL     1     102.022 123.369  98.882  1.00  0.00    -0.027 C 
ATOM     24  C   UNL     1     101.978 124.345  97.939  1.00  0.00    -0.065 C 
ATOM     25  C   UNL     1     100.146 124.715  96.266  1.00  0.00     0.014 C 
ATOM     26  C   UNL     1     102.585 124.727  95.508  1.00  0.00     0.016 C 
ATOM     27  C   UNL     1     101.965 125.789  98.403  1.00  0.00     0.063 C 
ATOM     28  C   UNL     1     100.074 126.188  96.734  1.00  0.00     0.033 C 
ATOM     29  C   UNL     1     100.552 126.355  98.193  1.00  0.00     0.118 C 
BRANCH  29  30
ATOM     30  O   UNL     1     100.507 127.706  98.577  1.00  0.00    -0.393 OA
ATOM     31  H   UNL     1      99.563 127.929  98.783  1.00  0.00     0.210 HD
ENDBRANCH  29  30
ENDBRANCH   1  11
TORSDOF 6
ENDMDL
MODEL 5
REMARK VINA RESULT:    -6.257      3.251      8.807
REMARK INTER + INTRA:          -9.697
REMARK INTER:                  -8.704
REMARK INTRA:                  -0.993
REMARK UNBOUND:                -1.428
REMARK SMILES CC[C@H](C=C[C@H](C)[C@H]1CC[C@@H]2[C@H]3CC=C4C[C@@H](O)CC[C@]4(C)[C@@H]3CC[C@@]21C)C(C)C
REMARK SMILES IDX 6 1 7 2 5 3 4 4 3 5 2 6 1 7 28 8 29 9 30 10 8 11 9 12 26 13
REMARK SMILES IDX 10 14 11 15 25 16 27 17 12 18 24 19 23 20 13 21 21 22 14 23
REMARK SMILES IDX 15 24 20 25 22 26 16 27 19 28 17 29 18 30
REMARK H PARENT 18 31
REMARK Flexibility Score: inf
ROOT
ATOM      1  C   UNL     1     102.243 118.070  94.694  1.00  0.00     0.012 C 
ATOM      2  C   UNL     1     102.628 118.765  93.375  1.00  0.00     0.012 C 
ENDROOT
BRANCH   1   3
ATOM      3  C   UNL     1     103.401 117.186  95.136  1.00  0.00    -0.028 C 
ATOM      4  C   UNL     1     103.471 115.845  95.020  1.00  0.00    -0.027 C 
BRANCH   4   5
ATOM      5  C   UNL     1     102.592 114.975  94.128  1.00  0.00     0.014 C 
BRANCH   5   6
ATOM      6  C   UNL     1     103.500 114.391  93.015  1.00  0.00     0.004 C 
ATOM      7  C   UNL     1     103.781 115.360  91.863  1.00  0.00     0.004 C 
ENDBRANCH   5   6
BRANCH   5   8
ATOM      8  C   UNL     1     101.834 113.880  94.948  1.00  0.00    -0.011 C 
ATOM      9  C   UNL     1     102.679 113.230  96.063  1.00  0.00     0.008 C 
ATOM     10  C   UNL     1     100.520 114.424  95.547  1.00  0.00     0.008 C 
ENDBRANCH   5   8
ENDBRANCH   4   5
ENDBRANCH   1   3
BRANCH   1  11
ATOM     11  C   UNL     1     101.862 119.044  95.870  1.00  0.00     0.002 C 
ATOM     12  C   UNL     1     102.988 120.032  96.204  1.00  0.00     0.005 C 
ATOM     13  C   UNL     1     100.591 119.952  95.740  1.00  0.00    -0.026 C 
ATOM     14  C   UNL     1     102.628 121.360  95.548  1.00  0.00     0.005 C 
ATOM     15  C   UNL     1     101.147 121.277  95.110  1.00  0.00    -0.001 C 
ATOM     16  C   UNL     1      99.985 120.167  97.185  1.00  0.00     0.007 C 
ATOM     17  C   UNL     1      99.488 119.330  94.840  1.00  0.00     0.012 C 
ATOM     18  C   UNL     1     100.381 122.614  95.410  1.00  0.00     0.000 C 
ATOM     19  C   UNL     1      99.938 121.625  97.666  1.00  0.00     0.005 C 
ATOM     20  C   UNL     1      99.364 122.525  96.557  1.00  0.00     0.003 C 
ATOM     21  C   UNL     1      99.653 123.199  94.186  1.00  0.00     0.031 C 
ATOM     22  C   UNL     1      98.893 123.952  97.027  1.00  0.00    -0.008 C 
ATOM     23  C   UNL     1      99.002 124.516  94.548  1.00  0.00    -0.027 C 
ATOM     24  C   UNL     1      98.603 124.847  95.803  1.00  0.00    -0.065 C 
ATOM     25  C   UNL     1      99.981 124.678  97.893  1.00  0.00     0.014 C 
ATOM     26  C   UNL     1      97.592 123.777  97.866  1.00  0.00     0.016 C 
ATOM     27  C   UNL     1      98.211 126.286  96.074  1.00  0.00     0.063 C 
ATOM     28  C   UNL     1      99.635 126.157  98.190  1.00  0.00     0.033 C 
ATOM     29  C   UNL     1      99.324 126.948  96.900  1.00  0.00     0.118 C 
BRANCH  29  30
ATOM     30  O   UNL     1      98.981 128.276  97.205  1.00  0.00    -0.393 OA
ATOM     31  H   UNL     1      99.789 128.720  97.571  1.00  0.00     0.210 HD
ENDBRANCH  29  30
ENDBRANCH   1  11
TORSDOF 6
ENDMDL
MODEL 6
REMARK VINA RESULT:    -6.246      3.034      8.725
REMARK INTER + INTRA:          -9.683
REMARK INTER:                  -8.134
REMARK INTRA:                  -1.549
REMARK UNBOUND:                -1.428
REMARK SMILES CC[C@H](C=C[C@H](C)[C@H]1CC[C@@H]2[C@H]3CC=C4C[C@@H](O)CC[C@]4(C)[C@@H]3CC[C@@]21C)C(C)C
REMARK SMILES IDX 6 1 7 2 5 3 4 4 3 5 2 6 1 7 28 8 29 9 30 10 8 11 9 12 26 13
REMARK SMILES IDX 10 14 11 15 25 16 27 17 12 18 24 19 23 20 13 21 21 22 14 23
REMARK SMILES IDX 15 24 20 25 22 26 16 27 19 28 17 29 18 30
REMARK H PARENT 18 31
REMARK Flexibility Score: inf
ROOT
ATOM      1  C   UNL     1     102.439 115.531  93.659  1.00  0.00     0.012 C 
ATOM      2  C   UNL     1     102.672 115.388  92.144  1.00  0.00     0.012 C 
ENDROOT
BRANCH   1   3
ATOM      3  C   UNL     1     103.049 114.325  94.362  1.00  0.00    -0.028 C 
ATOM      4  C   UNL     1     102.445 113.546  95.281  1.00  0.00    -0.027 C 
BRANCH   4   5
ATOM      5  C   UNL     1     100.947 113.479  95.554  1.00  0.00     0.014 C 
BRANCH   5   6
ATOM      6  C   UNL     1     100.289 112.759  94.348  1.00  0.00     0.004 C 
ATOM      7  C   UNL     1      99.249 113.602  93.606  1.00  0.00     0.004 C 
ENDBRANCH   5   6
BRANCH   5   8
ATOM      8  C   UNL     1     100.635 112.799  96.928  1.00  0.00    -0.011 C 
ATOM      9  C   UNL     1      99.620 113.571  97.796  1.00  0.00     0.008 C 
ATOM     10  C   UNL     1     100.160 111.343  96.749  1.00  0.00     0.008 C 
ENDBRANCH   5   8
ENDBRANCH   4   5
ENDBRANCH   1   3
BRANCH   1  11
ATOM     11  C   UNL     1     103.018 116.846  94.299  1.00  0.00     0.002 C 
ATOM     12  C   UNL     1     103.716 117.744  93.268  1.00  0.00     0.005 C 
ATOM     13  C   UNL     1     102.056 117.823  95.059  1.00  0.00    -0.026 C 
ATOM     14  C   UNL     1     102.736 118.853  92.904  1.00  0.00     0.005 C 
ATOM     15  C   UNL     1     101.593 118.826  93.945  1.00  0.00    -0.001 C 
ATOM     16  C   UNL     1     102.875 118.527  96.215  1.00  0.00     0.007 C 
ATOM     17  C   UNL     1     100.837 117.103  95.699  1.00  0.00     0.012 C 
ATOM     18  C   UNL     1     101.177 120.275  94.383  1.00  0.00     0.000 C 
ATOM     19  C   UNL     1     102.974 120.056  96.111  1.00  0.00     0.005 C 
ATOM     20  C   UNL     1     101.586 120.652  95.814  1.00  0.00     0.003 C 
ATOM     21  C   UNL     1      99.671 120.557  94.240  1.00  0.00     0.031 C 
ATOM     22  C   UNL     1     101.453 122.201  96.066  1.00  0.00    -0.008 C 
ATOM     23  C   UNL     1      99.371 121.991  94.618  1.00  0.00    -0.027 C 
ATOM     24  C   UNL     1     100.125 122.723  95.477  1.00  0.00    -0.065 C 
ATOM     25  C   UNL     1     102.616 123.012  95.395  1.00  0.00     0.014 C 
ATOM     26  C   UNL     1     101.472 122.441  97.606  1.00  0.00     0.016 C 
ATOM     27  C   UNL     1      99.868 124.215  95.564  1.00  0.00     0.063 C 
ATOM     28  C   UNL     1     102.398 124.543  95.446  1.00  0.00     0.033 C 
ATOM     29  C   UNL     1     101.024 124.950  94.869  1.00  0.00     0.118 C 
BRANCH  29  30
ATOM     30  O   UNL     1     100.843 126.341  94.960  1.00  0.00    -0.393 OA
ATOM     31  H   UNL     1     101.617 126.775  94.519  1.00  0.00     0.210 HD
ENDBRANCH  29  30
ENDBRANCH   1  11
TORSDOF 6
ENDMDL
MODEL 7
REMARK VINA RESULT:    -6.198      3.060      8.497
REMARK INTER + INTRA:          -9.619
REMARK INTER:                  -7.987
REMARK INTRA:                  -1.633
REMARK UNBOUND:                -1.428
REMARK SMILES CC[C@H](C=C[C@H](C)[C@H]1CC[C@@H]2[C@H]3CC=C4C[C@@H](O)CC[C@]4(C)[C@@H]3CC[C@@]21C)C(C)C
REMARK SMILES IDX 6 1 7 2 5 3 4 4 3 5 2 6 1 7 28 8 29 9 30 10 8 11 9 12 26 13
REMARK SMILES IDX 10 14 11 15 25 16 27 17 12 18 24 19 23 20 13 21 21 22 14 23
REMARK SMILES IDX 15 24 20 25 22 26 16 27 19 28 17 29 18 30
REMARK H PARENT 18 31
REMARK Flexibility Score: inf
ROOT
ATOM      1  C   UNL     1      99.194 116.687  96.610  1.00  0.00     0.012 C 
ATOM      2  C   UNL     1      98.541 116.385  97.971  1.00  0.00     0.012 C 
ENDROOT
BRANCH   1   3
ATOM      3  C   UNL     1      98.862 115.555  95.647  1.00  0.00    -0.028 C 
ATOM      4  C   UNL     1      99.746 114.738  95.040  1.00  0.00    -0.027 C 
BRANCH   4   5
ATOM      5  C   UNL     1     101.203 114.538  95.440  1.00  0.00     0.014 C 
BRANCH   5   6
ATOM      6  C   UNL     1     101.332 113.100  96.007  1.00  0.00     0.004 C 
ATOM      7  C   UNL     1     100.600 112.883  97.335  1.00  0.00     0.004 C 
ENDBRANCH   5   6
BRANCH   5   8
ATOM      8  C   UNL     1     102.178 114.825  94.251  1.00  0.00    -0.011 C 
ATOM      9  C   UNL     1     101.534 115.598  93.081  1.00  0.00     0.008 C 
ATOM     10  C   UNL     1     103.447 115.564  94.721  1.00  0.00     0.008 C 
ENDBRANCH   5   8
ENDBRANCH   4   5
ENDBRANCH   1   3
BRANCH   1  11
ATOM     11  C   UNL     1      98.770 118.055  95.960  1.00  0.00     0.002 C 
ATOM     12  C   UNL     1      97.770 118.834  96.827  1.00  0.00     0.005 C 
ATOM     13  C   UNL     1      99.868 119.117  95.608  1.00  0.00    -0.026 C 
ATOM     14  C   UNL     1      98.559 119.910  97.564  1.00  0.00     0.005 C 
ATOM     15  C   UNL     1      99.953 120.003  96.899  1.00  0.00    -0.001 C 
ATOM     16  C   UNL     1      99.386 119.927  94.338  1.00  0.00     0.007 C 
ATOM     17  C   UNL     1     101.247 118.480  95.280  1.00  0.00     0.012 C 
ATOM     18  C   UNL     1     100.417 121.495  96.741  1.00  0.00     0.000 C 
ATOM     19  C   UNL     1      99.200 121.437  94.556  1.00  0.00     0.005 C 
ATOM     20  C   UNL     1     100.419 122.014  95.296  1.00  0.00     0.003 C 
ATOM     21  C   UNL     1     101.807 121.777  97.340  1.00  0.00     0.031 C 
ATOM     22  C   UNL     1     100.557 123.582  95.243  1.00  0.00    -0.008 C 
ATOM     23  C   UNL     1     102.144 123.246  97.204  1.00  0.00    -0.027 C 
ATOM     24  C   UNL     1     101.638 124.055  96.238  1.00  0.00    -0.065 C 
ATOM     25  C   UNL     1      99.219 124.306  95.625  1.00  0.00     0.014 C 
ATOM     26  C   UNL     1     100.969 123.980  93.795  1.00  0.00     0.016 C 
ATOM     27  C   UNL     1     101.849 125.551  96.373  1.00  0.00     0.063 C 
ATOM     28  C   UNL     1      99.380 125.836  95.788  1.00  0.00     0.033 C 
ATOM     29  C   UNL     1     100.514 126.196  96.773  1.00  0.00     0.118 C 
BRANCH  29  30
ATOM     30  O   UNL     1     100.657 127.591  96.872  1.00  0.00    -0.393 OA
ATOM     31  H   UNL     1     100.501 127.843  97.818  1.00  0.00     0.210 HD
ENDBRANCH  29  30
ENDBRANCH   1  11
TORSDOF 6
ENDMDL
MODEL 8
REMARK VINA RESULT:    -6.078      3.300      8.332
REMARK INTER + INTRA:          -9.460
REMARK INTER:                  -7.866
REMARK INTRA:                  -1.594
REMARK UNBOUND:                -1.428
REMARK SMILES CC[C@H](C=C[C@H](C)[C@H]1CC[C@@H]2[C@H]3CC=C4C[C@@H](O)CC[C@]4(C)[C@@H]3CC[C@@]21C)C(C)C
REMARK SMILES IDX 6 1 7 2 5 3 4 4 3 5 2 6 1 7 28 8 29 9 30 10 8 11 9 12 26 13
REMARK SMILES IDX 10 14 11 15 25 16 27 17 12 18 24 19 23 20 13 21 21 22 14 23
REMARK SMILES IDX 15 24 20 25 22 26 16 27 19 28 17 29 18 30
REMARK H PARENT 18 31
REMARK Flexibility Score: inf
ROOT
ATOM      1  C   UNL     1     101.491 117.860  94.310  1.00  0.00     0.012 C 
ATOM      2  C   UNL     1     102.608 118.158  93.292  1.00  0.00     0.012 C 
ENDROOT
BRANCH   1   3
ATOM      3  C   UNL     1     101.604 116.406  94.745  1.00  0.00    -0.028 C 
ATOM      4  C   UNL     1     100.678 115.703  95.427  1.00  0.00    -0.027 C 
BRANCH   4   5
ATOM      5  C   UNL     1      99.211 116.082  95.600  1.00  0.00     0.014 C 
BRANCH   5   6
ATOM      6  C   UNL     1      98.366 114.830  95.250  1.00  0.00     0.004 C 
ATOM      7  C   UNL     1      98.999 113.924  94.190  1.00  0.00     0.004 C 
ENDBRANCH   5   6
BRANCH   5   8
ATOM      8  C   UNL     1      98.921 116.648  97.029  1.00  0.00    -0.011 C 
ATOM      9  C   UNL     1      97.757 117.660  97.081  1.00  0.00     0.008 C 
ATOM     10  C   UNL     1      98.668 115.518  98.049  1.00  0.00     0.008 C 
ENDBRANCH   5   8
ENDBRANCH   4   5
ENDBRANCH   1   3
BRANCH   1  11
ATOM     11  C   UNL     1     101.493 118.781  95.585  1.00  0.00     0.002 C 
ATOM     12  C   UNL     1     102.908 119.214  95.996  1.00  0.00     0.005 C 
ATOM     13  C   UNL     1     100.679 120.120  95.573  1.00  0.00    -0.026 C 
ATOM     14  C   UNL     1     103.107 120.636  95.486  1.00  0.00     0.005 C 
ATOM     15  C   UNL     1     101.721 121.181  95.071  1.00  0.00    -0.001 C 
ATOM     16  C   UNL     1     100.173 120.407  97.043  1.00  0.00     0.007 C 
ATOM     17  C   UNL     1      99.441 120.072  94.635  1.00  0.00     0.012 C 
ATOM     18  C   UNL     1     101.530 122.673  95.520  1.00  0.00     0.000 C 
ATOM     19  C   UNL     1     100.687 121.712  97.671  1.00  0.00     0.005 C 
ATOM     20  C   UNL     1     100.533 122.871  96.671  1.00  0.00     0.003 C 
ATOM     21  C   UNL     1     101.114 123.615  94.376  1.00  0.00     0.031 C 
ATOM     22  C   UNL     1     100.644 124.313  97.293  1.00  0.00    -0.008 C 
ATOM     23  C   UNL     1     101.019 125.038  94.882  1.00  0.00    -0.027 C 
ATOM     24  C   UNL     1     100.753 125.369  96.172  1.00  0.00    -0.065 C 
ATOM     25  C   UNL     1     101.910 124.467  98.207  1.00  0.00     0.014 C 
ATOM     26  C   UNL     1      99.360 124.575  98.134  1.00  0.00     0.016 C 
ATOM     27  C   UNL     1     100.946 126.813  96.595  1.00  0.00     0.063 C 
ATOM     28  C   UNL     1     102.160 125.925  98.659  1.00  0.00     0.033 C 
ATOM     29  C   UNL     1     102.210 126.901  97.463  1.00  0.00     0.118 C 
BRANCH  29  30
ATOM     30  O   UNL     1     102.405 128.220  97.908  1.00  0.00    -0.393 OA
ATOM     31  H   UNL     1     101.571 128.725  97.726  1.00  0.00     0.210 HD
ENDBRANCH  29  30
ENDBRANCH   1  11
TORSDOF 6
ENDMDL
MODEL 9
REMARK VINA RESULT:    -5.901      1.961      4.306
REMARK INTER + INTRA:          -9.227
REMARK INTER:                  -7.424
REMARK INTRA:                  -1.803
REMARK UNBOUND:                -1.428
REMARK SMILES CC[C@H](C=C[C@H](C)[C@H]1CC[C@@H]2[C@H]3CC=C4C[C@@H](O)CC[C@]4(C)[C@@H]3CC[C@@]21C)C(C)C
REMARK SMILES IDX 6 1 7 2 5 3 4 4 3 5 2 6 1 7 28 8 29 9 30 10 8 11 9 12 26 13
REMARK SMILES IDX 10 14 11 15 25 16 27 17 12 18 24 19 23 20 13 21 21 22 14 23
REMARK SMILES IDX 15 24 20 25 22 26 16 27 19 28 17 29 18 30
REMARK H PARENT 18 31
REMARK Flexibility Score: inf
ROOT
ATOM      1  C   UNL     1     100.965 122.626  95.725  1.00  0.00     0.012 C 
ATOM      2  C   UNL     1     100.704 123.317  94.374  1.00  0.00     0.012 C 
ENDROOT
BRANCH   1   3
ATOM      3  C   UNL     1     100.293 123.436  96.826  1.00  0.00    -0.028 C 
ATOM      4  C   UNL     1     100.626 123.439  98.132  1.00  0.00    -0.027 C 
BRANCH   4   5
ATOM      5  C   UNL     1     101.932 122.923  98.726  1.00  0.00     0.014 C 
BRANCH   5   6
ATOM      6  C   UNL     1     102.401 123.960  99.779  1.00  0.00     0.004 C 
ATOM      7  C   UNL     1     101.323 124.969 100.188  1.00  0.00     0.004 C 
ENDBRANCH   5   6
BRANCH   5   8
ATOM      8  C   UNL     1     101.778 121.478  99.303  1.00  0.00    -0.011 C 
ATOM      9  C   UNL     1     102.675 121.189 100.526  1.00  0.00     0.008 C 
ATOM     10  C   UNL     1     100.311 121.156  99.652  1.00  0.00     0.008 C 
ENDBRANCH   5   8
ENDBRANCH   4   5
ENDBRANCH   1   3
BRANCH   1  11
ATOM     11  C   UNL     1     100.475 121.134  95.813  1.00  0.00     0.002 C 
ATOM     12  C   UNL     1      99.409 120.801  94.759  1.00  0.00     0.005 C 
ATOM     13  C   UNL     1     101.515 119.969  95.676  1.00  0.00    -0.026 C 
ATOM     14  C   UNL     1     100.113 120.062  93.628  1.00  0.00     0.005 C 
ATOM     15  C   UNL     1     101.514 119.653  94.140  1.00  0.00    -0.001 C 
ATOM     16  C   UNL     1     101.015 118.752  96.553  1.00  0.00     0.007 C 
ATOM     17  C   UNL     1     102.938 120.363  96.161  1.00  0.00     0.012 C 
ATOM     18  C   UNL     1     101.891 118.198  93.686  1.00  0.00     0.000 C 
ATOM     19  C   UNL     1     100.733 117.457  95.776  1.00  0.00     0.005 C 
ATOM     20  C   UNL     1     101.897 117.158  94.815  1.00  0.00     0.003 C 
ATOM     21  C   UNL     1     103.246 118.107  92.962  1.00  0.00     0.031 C 
ATOM     22  C   UNL     1     101.940 115.688  94.250  1.00  0.00    -0.008 C 
ATOM     23  C   UNL     1     103.497 116.687  92.502  1.00  0.00    -0.027 C 
ATOM     24  C   UNL     1     102.967 115.590  93.101  1.00  0.00    -0.065 C 
ATOM     25  C   UNL     1     100.552 115.233  93.680  1.00  0.00     0.014 C 
ATOM     26  C   UNL     1     102.363 114.739  95.410  1.00  0.00     0.016 C 
ATOM     27  C   UNL     1     103.083 114.257  92.388  1.00  0.00     0.063 C 
ATOM     28  C   UNL     1     100.616 113.881  92.930  1.00  0.00     0.033 C 
ATOM     29  C   UNL     1     101.702 113.880  91.831  1.00  0.00     0.118 C 
BRANCH  29  30
ATOM     30  O   UNL     1     101.758 112.630  91.193  1.00  0.00    -0.393 OA
ATOM     31  H   UNL     1     102.173 112.765  90.302  1.00  0.00     0.210 HD
ENDBRANCH  29  30
ENDBRANCH   1  11
TORSDOF 6
ENDMDL
