MODEL 1
REMARK VINA RESULT:    -5.976      0.000      0.000
REMARK INTER + INTRA:          -7.163
REMARK INTER:                  -7.025
REMARK INTRA:                  -0.139
REMARK UNBOUND:                -0.139
REMARK SMILES O=C([O-])C=Cc1ccc(O)c(O)c1
REMARK SMILES IDX 6 1 13 2 7 3 11 4 8 5 9 6 5 7 4 8 2 9 1 10 3 11 12 12 10 14
REMARK H PARENT 12 13 10 15
REMARK Flexibility Score: inf
ROOT
ATOM      1  C   UNL     1      -9.110 -65.653 -32.759  1.00  0.00    -0.022 A 
ATOM      2  C   UNL     1      -8.305 -66.230 -31.760  1.00  0.00     0.058 A 
ATOM      3  C   UNL     1     -10.461 -66.044 -32.852  1.00  0.00     0.012 A 
ATOM      4  C   UNL     1      -8.824 -67.192 -30.887  1.00  0.00     0.157 A 
ATOM      5  C   UNL     1     -10.981 -67.005 -31.981  1.00  0.00     0.051 A 
ATOM      6  C   UNL     1     -10.168 -67.585 -30.999  1.00  0.00     0.157 A 
ENDROOT
BRANCH   1   7
ATOM      7  C   UNL     1      -8.510 -64.629 -33.650  1.00  0.00     0.010 C 
ATOM      8  C   UNL     1      -9.112 -64.156 -34.751  1.00  0.00     0.025 C 
BRANCH   8   9
ATOM      9  C   UNL     1      -8.482 -63.147 -35.619  1.00  0.00     0.064 C 
ATOM     10  O   UNL     1      -7.967 -62.103 -35.137  1.00  0.00    -0.545 OA
ATOM     11  O   UNL     1      -8.456 -63.349 -36.992  1.00  0.00    -0.545 OA
ENDBRANCH   8   9
ENDBRANCH   1   7
BRANCH   4  12
ATOM     12  O   UNL     1      -7.991 -67.746 -29.917  1.00  0.00    -0.504 OA
ATOM     13  H   UNL     1      -8.356 -68.194 -29.085  1.00  0.00     0.293 HD
ENDBRANCH   4  12
BRANCH   6  14
ATOM     14  O   UNL     1     -10.690 -68.546 -30.134  1.00  0.00    -0.504 OA
ATOM     15  H   UNL     1     -11.128 -68.287 -29.256  1.00  0.00     0.293 HD
ENDBRANCH   6  14
TORSDOF 4
ENDMDL
MODEL 2
REMARK VINA RESULT:    -5.923      7.179      9.392
REMARK INTER + INTRA:          -7.100
REMARK INTER:                  -6.969
REMARK INTRA:                  -0.131
REMARK UNBOUND:                -0.139
REMARK SMILES O=C([O-])C=Cc1ccc(O)c(O)c1
REMARK SMILES IDX 6 1 13 2 7 3 11 4 8 5 9 6 5 7 4 8 2 9 1 10 3 11 12 12 10 14
REMARK H PARENT 12 13 10 15
REMARK Flexibility Score: inf
ROOT
ATOM      1  C   UNL     1     -11.497 -66.210 -24.380  1.00  0.00    -0.022 A 
ATOM      2  C   UNL     1     -12.791 -66.032 -24.899  1.00  0.00     0.058 A 
ATOM      3  C   UNL     1     -11.314 -66.173 -22.983  1.00  0.00     0.012 A 
ATOM      4  C   UNL     1     -13.878 -65.797 -24.051  1.00  0.00     0.157 A 
ATOM      5  C   UNL     1     -12.399 -65.938 -22.134  1.00  0.00     0.051 A 
ATOM      6  C   UNL     1     -13.682 -65.746 -22.661  1.00  0.00     0.157 A 
ENDROOT
BRANCH   1   7
ATOM      7  C   UNL     1     -10.382 -66.467 -25.326  1.00  0.00     0.010 C 
ATOM      8  C   UNL     1      -9.239 -65.767 -25.337  1.00  0.00     0.025 C 
BRANCH   8   9
ATOM      9  C   UNL     1      -8.157 -66.042 -26.297  1.00  0.00     0.064 C 
ATOM     10  O   UNL     1      -7.693 -67.205 -26.441  1.00  0.00    -0.545 OA
ATOM     11  O   UNL     1      -7.638 -65.003 -27.058  1.00  0.00    -0.545 OA
ENDBRANCH   8   9
ENDBRANCH   1   7
BRANCH   4  12
ATOM     12  O   UNL     1     -15.144 -65.616 -24.607  1.00  0.00    -0.504 OA
ATOM     13  H   UNL     1     -15.273 -65.276 -25.553  1.00  0.00     0.293 HD
ENDBRANCH   4  12
BRANCH   6  14
ATOM     14  O   UNL     1     -14.761 -65.511 -21.810  1.00  0.00    -0.504 OA
ATOM     15  H   UNL     1     -15.414 -66.247 -21.565  1.00  0.00     0.293 HD
ENDBRANCH   6  14
TORSDOF 4
ENDMDL
MODEL 3
REMARK VINA RESULT:    -5.906      2.965      5.229
REMARK INTER + INTRA:          -7.080
REMARK INTER:                  -6.953
REMARK INTRA:                  -0.127
REMARK UNBOUND:                -0.139
REMARK SMILES O=C([O-])C=Cc1ccc(O)c(O)c1
REMARK SMILES IDX 6 1 13 2 7 3 11 4 8 5 9 6 5 7 4 8 2 9 1 10 3 11 12 12 10 14
REMARK H PARENT 12 13 10 15
REMARK Flexibility Score: inf
ROOT
ATOM      1  C   UNL     1     -10.874 -66.292 -32.590  1.00  0.00    -0.022 A 
ATOM      2  C   UNL     1     -10.231 -65.245 -33.272  1.00  0.00     0.058 A 
ATOM      3  C   UNL     1     -10.126 -67.077 -31.690  1.00  0.00     0.012 A 
ATOM      4  C   UNL     1      -8.867 -64.997 -33.084  1.00  0.00     0.157 A 
ATOM      5  C   UNL     1      -8.763 -66.831 -31.500  1.00  0.00     0.051 A 
ATOM      6  C   UNL     1      -8.127 -65.796 -32.196  1.00  0.00     0.157 A 
ENDROOT
BRANCH   1   7
ATOM      7  C   UNL     1     -12.325 -66.503 -32.820  1.00  0.00     0.010 C 
ATOM      8  C   UNL     1     -13.285 -65.759 -32.252  1.00  0.00     0.025 C 
BRANCH   8   9
ATOM      9  C   UNL     1     -14.716 -66.004 -32.494  1.00  0.00     0.064 C 
ATOM     10  O   UNL     1     -15.169 -66.125 -33.664  1.00  0.00    -0.545 OA
ATOM     11  O   UNL     1     -15.584 -66.103 -31.415  1.00  0.00    -0.545 OA
ENDBRANCH   8   9
ENDBRANCH   1   7
BRANCH   4  12
ATOM     12  O   UNL     1      -8.264 -63.955 -33.786  1.00  0.00    -0.504 OA
ATOM     13  H   UNL     1      -8.800 -63.184 -34.171  1.00  0.00     0.293 HD
ENDBRANCH   4  12
BRANCH   6  14
ATOM     14  O   UNL     1      -6.767 -65.555 -32.005  1.00  0.00    -0.504 OA
ATOM     15  H   UNL     1      -6.409 -64.617 -31.866  1.00  0.00     0.293 HD
ENDBRANCH   6  14
TORSDOF 4
ENDMDL
MODEL 4
REMARK VINA RESULT:    -5.860      2.917      4.928
REMARK INTER + INTRA:          -7.026
REMARK INTER:                  -6.899
REMARK INTRA:                  -0.127
REMARK UNBOUND:                -0.139
REMARK SMILES O=C([O-])C=Cc1ccc(O)c(O)c1
REMARK SMILES IDX 6 1 13 2 7 3 11 4 8 5 9 6 5 7 4 8 2 9 1 10 3 11 12 12 10 14
REMARK H PARENT 12 13 10 15
REMARK Flexibility Score: inf
ROOT
ATOM      1  C   UNL     1     -11.007 -66.348 -32.610  1.00  0.00    -0.022 A 
ATOM      2  C   UNL     1     -10.419 -67.250 -31.707  1.00  0.00     0.058 A 
ATOM      3  C   UNL     1     -10.197 -65.363 -33.211  1.00  0.00     0.012 A 
ATOM      4  C   UNL     1      -9.060 -67.161 -31.386  1.00  0.00     0.157 A 
ATOM      5  C   UNL     1      -8.839 -65.273 -32.892  1.00  0.00     0.051 A 
ATOM      6  C   UNL     1      -8.266 -66.166 -31.978  1.00  0.00     0.157 A 
ENDROOT
BRANCH   1   7
ATOM      7  C   UNL     1     -12.450 -66.495 -32.923  1.00  0.00     0.010 C 
ATOM      8  C   UNL     1     -13.424 -65.855 -32.261  1.00  0.00     0.025 C 
BRANCH   8   9
ATOM      9  C   UNL     1     -14.848 -66.034 -32.590  1.00  0.00     0.064 C 
ATOM     10  O   UNL     1     -15.238 -66.094 -33.787  1.00  0.00    -0.545 OA
ATOM     11  O   UNL     1     -15.779 -66.137 -31.565  1.00  0.00    -0.545 OA
ENDBRANCH   8   9
ENDBRANCH   1   7
BRANCH   4  12
ATOM     12  O   UNL     1      -8.518 -68.069 -30.478  1.00  0.00    -0.504 OA
ATOM     13  H   UNL     1      -8.880 -68.170 -29.536  1.00  0.00     0.293 HD
ENDBRANCH   4  12
BRANCH   6  14
ATOM     14  O   UNL     1      -6.911 -66.070 -31.662  1.00  0.00    -0.504 OA
ATOM     15  H   UNL     1      -6.242 -65.669 -32.309  1.00  0.00     0.293 HD
ENDBRANCH   6  14
TORSDOF 4
ENDMDL
MODEL 5
REMARK VINA RESULT:    -5.850      2.869      4.206
REMARK INTER + INTRA:          -7.015
REMARK INTER:                  -6.886
REMARK INTRA:                  -0.129
REMARK UNBOUND:                -0.139
REMARK SMILES O=C([O-])C=Cc1ccc(O)c(O)c1
REMARK SMILES IDX 6 1 13 2 7 3 11 4 8 5 9 6 5 7 4 8 2 9 1 10 3 11 12 12 10 14
REMARK H PARENT 12 13 10 15
REMARK Flexibility Score: inf
ROOT
ATOM      1  C   UNL     1     -10.329 -66.417 -32.880  1.00  0.00    -0.022 A 
ATOM      2  C   UNL     1     -10.009 -67.344 -31.873  1.00  0.00     0.058 A 
ATOM      3  C   UNL     1      -9.406 -65.395 -33.181  1.00  0.00     0.012 A 
ATOM      4  C   UNL     1      -8.808 -67.245 -31.162  1.00  0.00     0.157 A 
ATOM      5  C   UNL     1      -8.206 -65.294 -32.471  1.00  0.00     0.051 A 
ATOM      6  C   UNL     1      -7.903 -66.213 -31.459  1.00  0.00     0.157 A 
ENDROOT
BRANCH   1   7
ATOM      7  C   UNL     1     -11.611 -66.576 -33.611  1.00  0.00     0.010 C 
ATOM      8  C   UNL     1     -11.737 -67.271 -34.750  1.00  0.00     0.025 C 
BRANCH   8   9
ATOM      9  C   UNL     1     -13.023 -67.399 -35.455  1.00  0.00     0.064 C 
ATOM     10  O   UNL     1     -13.069 -67.606 -36.697  1.00  0.00    -0.545 OA
ATOM     11  O   UNL     1     -14.208 -67.287 -34.739  1.00  0.00    -0.545 OA
ENDBRANCH   8   9
ENDBRANCH   1   7
BRANCH   4  12
ATOM     12  O   UNL     1      -8.534 -68.179 -30.164  1.00  0.00    -0.504 OA
ATOM     13  H   UNL     1      -7.597 -68.531 -29.999  1.00  0.00     0.293 HD
ENDBRANCH   4  12
BRANCH   6  14
ATOM     14  O   UNL     1      -6.706 -66.108 -30.752  1.00  0.00    -0.504 OA
ATOM     15  H   UNL     1      -6.103 -65.298 -30.847  1.00  0.00     0.293 HD
ENDBRANCH   6  14
TORSDOF 4
ENDMDL
MODEL 6
REMARK VINA RESULT:    -5.800      3.280      4.726
REMARK INTER + INTRA:          -6.956
REMARK INTER:                  -6.829
REMARK INTRA:                  -0.127
REMARK UNBOUND:                -0.139
REMARK SMILES O=C([O-])C=Cc1ccc(O)c(O)c1
REMARK SMILES IDX 6 1 13 2 7 3 11 4 8 5 9 6 5 7 4 8 2 9 1 10 3 11 12 12 10 14
REMARK H PARENT 12 13 10 15
REMARK Flexibility Score: inf
ROOT
ATOM      1  C   UNL     1     -10.808 -66.491 -33.403  1.00  0.00    -0.022 A 
ATOM      2  C   UNL     1     -10.094 -65.359 -33.833  1.00  0.00     0.058 A 
ATOM      3  C   UNL     1     -10.304 -67.241 -32.321  1.00  0.00     0.012 A 
ATOM      4  C   UNL     1      -8.892 -64.992 -33.218  1.00  0.00     0.157 A 
ATOM      5  C   UNL     1      -9.103 -66.877 -31.706  1.00  0.00     0.051 A 
ATOM      6  C   UNL     1      -8.391 -65.757 -32.151  1.00  0.00     0.157 A 
ENDROOT
BRANCH   1   7
ATOM      7  C   UNL     1     -12.083 -66.827 -34.083  1.00  0.00     0.010 C 
ATOM      8  C   UNL     1     -12.158 -67.285 -35.341  1.00  0.00     0.025 C 
BRANCH   8   9
ATOM      9  C   UNL     1     -13.443 -67.597 -35.989  1.00  0.00     0.064 C 
ATOM     10  O   UNL     1     -14.449 -67.939 -35.311  1.00  0.00    -0.545 OA
ATOM     11  O   UNL     1     -13.548 -67.515 -37.371  1.00  0.00    -0.545 OA
ENDBRANCH   8   9
ENDBRANCH   1   7
BRANCH   4  12
ATOM     12  O   UNL     1      -8.210 -63.868 -33.681  1.00  0.00    -0.504 OA
ATOM     13  H   UNL     1      -8.251 -62.977 -33.199  1.00  0.00     0.293 HD
ENDBRANCH   4  12
BRANCH   6  14
ATOM     14  O   UNL     1      -7.192 -65.398 -31.536  1.00  0.00    -0.504 OA
ATOM     15  H   UNL     1      -6.619 -66.080 -31.052  1.00  0.00     0.293 HD
ENDBRANCH   6  14
TORSDOF 4
ENDMDL
MODEL 7
REMARK VINA RESULT:    -5.720      8.447      9.420
REMARK INTER + INTRA:          -6.862
REMARK INTER:                  -6.727
REMARK INTRA:                  -0.135
REMARK UNBOUND:                -0.139
REMARK SMILES O=C([O-])C=Cc1ccc(O)c(O)c1
REMARK SMILES IDX 6 1 13 2 7 3 11 4 8 5 9 6 5 7 4 8 2 9 1 10 3 11 12 12 10 14
REMARK H PARENT 12 13 10 15
REMARK Flexibility Score: inf
ROOT
ATOM      1  C   UNL     1     -11.653 -65.788 -24.712  1.00  0.00    -0.022 A 
ATOM      2  C   UNL     1     -12.301 -64.634 -25.183  1.00  0.00     0.058 A 
ATOM      3  C   UNL     1     -12.431 -66.909 -24.360  1.00  0.00     0.012 A 
ATOM      4  C   UNL     1     -13.696 -64.584 -25.281  1.00  0.00     0.157 A 
ATOM      5  C   UNL     1     -13.824 -66.862 -24.457  1.00  0.00     0.051 A 
ATOM      6  C   UNL     1     -14.463 -65.702 -24.913  1.00  0.00     0.157 A 
ENDROOT
BRANCH   1   7
ATOM      7  C   UNL     1     -10.170 -65.790 -24.639  1.00  0.00     0.010 C 
ATOM      8  C   UNL     1      -9.420 -66.893 -24.768  1.00  0.00     0.025 C 
BRANCH   8   9
ATOM      9  C   UNL     1      -7.950 -66.859 -24.679  1.00  0.00     0.064 C 
ATOM     10  O   UNL     1      -7.368 -66.625 -23.586  1.00  0.00    -0.545 OA
ATOM     11  O   UNL     1      -7.192 -67.088 -25.820  1.00  0.00    -0.545 OA
ENDBRANCH   8   9
ENDBRANCH   1   7
BRANCH   4  12
ATOM     12  O   UNL     1     -14.301 -63.417 -25.745  1.00  0.00    -0.504 OA
ATOM     13  H   UNL     1     -15.169 -63.431 -26.269  1.00  0.00     0.293 HD
ENDBRANCH   4  12
BRANCH   6  14
ATOM     14  O   UNL     1     -15.853 -65.658 -25.007  1.00  0.00    -0.504 OA
ATOM     15  H   UNL     1     -16.357 -64.777 -25.021  1.00  0.00     0.293 HD
ENDBRANCH   6  14
TORSDOF 4
ENDMDL
MODEL 8
REMARK VINA RESULT:    -5.590      7.216      9.541
REMARK INTER + INTRA:          -6.708
REMARK INTER:                  -6.580
REMARK INTRA:                  -0.128
REMARK UNBOUND:                -0.139
REMARK SMILES O=C([O-])C=Cc1ccc(O)c(O)c1
REMARK SMILES IDX 6 1 13 2 7 3 11 4 8 5 9 6 5 7 4 8 2 9 1 10 3 11 12 12 10 14
REMARK H PARENT 12 13 10 15
REMARK Flexibility Score: inf
ROOT
ATOM      1  C   UNL     1     -11.723 -66.518 -24.538  1.00  0.00    -0.022 A 
ATOM      2  C   UNL     1     -11.434 -66.464 -23.164  1.00  0.00     0.058 A 
ATOM      3  C   UNL     1     -13.023 -66.189 -24.972  1.00  0.00     0.012 A 
ATOM      4  C   UNL     1     -12.421 -66.114 -22.236  1.00  0.00     0.157 A 
ATOM      5  C   UNL     1     -14.010 -65.839 -24.047  1.00  0.00     0.051 A 
ATOM      6  C   UNL     1     -13.717 -65.803 -22.678  1.00  0.00     0.157 A 
ENDROOT
BRANCH   1   7
ATOM      7  C   UNL     1     -10.636 -66.885 -25.479  1.00  0.00     0.010 C 
ATOM      8  C   UNL     1     -10.406 -68.137 -25.900  1.00  0.00     0.025 C 
BRANCH   8   9
ATOM      9  C   UNL     1      -9.309 -68.466 -26.825  1.00  0.00     0.064 C 
ATOM     10  O   UNL     1      -8.949 -67.658 -27.724  1.00  0.00    -0.545 OA
ATOM     11  O   UNL     1      -8.660 -69.688 -26.708  1.00  0.00    -0.545 OA
ENDBRANCH   8   9
ENDBRANCH   1   7
BRANCH   4  12
ATOM     12  O   UNL     1     -12.095 -66.081 -20.881  1.00  0.00    -0.504 OA
ATOM     13  H   UNL     1     -12.777 -66.281 -20.158  1.00  0.00     0.293 HD
ENDBRANCH   4  12
BRANCH   6  14
ATOM     14  O   UNL     1     -14.705 -65.455 -21.758  1.00  0.00    -0.504 OA
ATOM     15  H   UNL     1     -15.690 -65.494 -21.997  1.00  0.00     0.293 HD
ENDBRANCH   6  14
TORSDOF 4
ENDMDL
MODEL 9
REMARK VINA RESULT:    -5.589      3.811      5.763
REMARK INTER + INTRA:          -6.708
REMARK INTER:                  -6.579
REMARK INTRA:                  -0.129
REMARK UNBOUND:                -0.139
REMARK SMILES O=C([O-])C=Cc1ccc(O)c(O)c1
REMARK SMILES IDX 6 1 13 2 7 3 11 4 8 5 9 6 5 7 4 8 2 9 1 10 3 11 12 12 10 14
REMARK H PARENT 12 13 10 15
REMARK Flexibility Score: inf
ROOT
ATOM      1  C   UNL     1     -12.203 -66.703 -33.676  1.00  0.00    -0.022 A 
ATOM      2  C   UNL     1     -13.455 -66.313 -33.169  1.00  0.00     0.058 A 
ATOM      3  C   UNL     1     -12.150 -67.376 -34.913  1.00  0.00     0.012 A 
ATOM      4  C   UNL     1     -14.633 -66.606 -33.865  1.00  0.00     0.157 A 
ATOM      5  C   UNL     1     -13.326 -67.669 -35.609  1.00  0.00     0.051 A 
ATOM      6  C   UNL     1     -14.570 -67.291 -35.089  1.00  0.00     0.157 A 
ENDROOT
BRANCH   1   7
ATOM      7  C   UNL     1     -10.985 -66.357 -32.902  1.00  0.00     0.010 C 
ATOM      8  C   UNL     1     -10.328 -67.224 -32.119  1.00  0.00     0.025 C 
BRANCH   8   9
ATOM      9  C   UNL     1      -9.128 -66.842 -31.356  1.00  0.00     0.064 C 
ATOM     10  O   UNL     1      -8.261 -66.071 -31.847  1.00  0.00    -0.545 OA
ATOM     11  O   UNL     1      -8.948 -67.341 -30.072  1.00  0.00    -0.545 OA
ENDBRANCH   8   9
ENDBRANCH   1   7
BRANCH   4  12
ATOM     12  O   UNL     1     -15.855 -66.210 -33.324  1.00  0.00    -0.504 OA
ATOM     13  H   UNL     1     -16.370 -66.792 -32.673  1.00  0.00     0.293 HD
ENDBRANCH   4  12
BRANCH   6  14
ATOM     14  O   UNL     1     -15.741 -67.587 -35.786  1.00  0.00    -0.504 OA
ATOM     15  H   UNL     1     -16.419 -68.251 -35.427  1.00  0.00     0.293 HD
ENDBRANCH   6  14
TORSDOF 4
ENDMDL
