MODEL 1
REMARK VINA RESULT:    -2.637      0.000      0.000
REMARK INTER + INTRA:          -3.311
REMARK INTER:                  -3.099
REMARK INTRA:                  -0.212
REMARK UNBOUND:                -0.212
REMARK SMILES [NH3+][C@H](CO)C(=O)[O-]
REMARK SMILES IDX 3 1 2 2 1 3 5 7 6 8 7 9 4 10
REMARK H PARENT 1 4 1 5 1 6 4 11
REMARK Flexibility Score: inf
ROOT
ATOM      1  C   UNL     1       9.191  -2.537   0.216  1.00  0.00     0.227 C 
ENDROOT
BRANCH   1   2
ATOM      2  C   UNL     1      10.124  -1.375   0.598  1.00  0.00     0.253 C 
BRANCH   2   3
ATOM      3  N   UNL     1      10.030  -0.276  -0.372  1.00  0.00    -0.348 N 
ATOM      4  H   UNL     1       9.026  -0.110  -0.618  1.00  0.00     0.345 HD
ATOM      5  H   UNL     1      10.563  -0.497  -1.244  1.00  0.00     0.345 HD
ATOM      6  H   UNL     1      10.412   0.601   0.049  1.00  0.00     0.345 HD
ENDBRANCH   2   3
BRANCH   2   7
ATOM      7  C   UNL     1       9.833  -0.891   1.994  1.00  0.00     0.102 C 
ATOM      8  O   UNL     1       9.367  -1.676   2.862  1.00  0.00    -0.544 OA
ATOM      9  O   UNL     1      10.117   0.423   2.343  1.00  0.00    -0.544 OA
ENDBRANCH   2   7
ENDBRANCH   1   2
BRANCH   1  10
ATOM     10  O   UNL     1       7.877  -2.274   0.626  1.00  0.00    -0.390 OA
ATOM     11  H   UNL     1       7.654  -1.373   0.275  1.00  0.00     0.210 HD
ENDBRANCH   1  10
TORSDOF 4
ENDMDL
MODEL 2
REMARK VINA RESULT:    -2.535     10.265     10.724
REMARK INTER + INTRA:          -3.191
REMARK INTER:                  -2.983
REMARK INTRA:                  -0.208
REMARK UNBOUND:                -0.212
REMARK SMILES [NH3+][C@H](CO)C(=O)[O-]
REMARK SMILES IDX 3 1 2 2 1 3 5 7 6 8 7 9 4 10
REMARK H PARENT 1 4 1 5 1 6 4 11
REMARK Flexibility Score: inf
ROOT
ATOM      1  C   UNL     1       5.734   3.936  -5.872  1.00  0.00     0.227 C 
ENDROOT
BRANCH   1   2
ATOM      2  C   UNL     1       4.258   4.179  -5.513  1.00  0.00     0.253 C 
BRANCH   2   3
ATOM      3  N   UNL     1       4.013   3.941  -4.084  1.00  0.00    -0.348 N 
ATOM      4  H   UNL     1       4.844   4.248  -3.529  1.00  0.00     0.345 HD
ATOM      5  H   UNL     1       3.832   2.929  -3.897  1.00  0.00     0.345 HD
ATOM      6  H   UNL     1       3.187   4.500  -3.770  1.00  0.00     0.345 HD
ENDBRANCH   2   3
BRANCH   2   7
ATOM      7  C   UNL     1       3.831   5.567  -5.912  1.00  0.00     0.102 C 
ATOM      8  O   UNL     1       4.684   6.481  -6.068  1.00  0.00    -0.544 OA
ATOM      9  O   UNL     1       2.490   5.836  -6.149  1.00  0.00    -0.544 OA
ENDBRANCH   2   7
ENDBRANCH   1   2
BRANCH   1  10
ATOM     10  O   UNL     1       6.575   4.373  -4.840  1.00  0.00    -0.390 OA
ATOM     11  H   UNL     1       6.097   4.173  -3.993  1.00  0.00     0.210 HD
ENDBRANCH   1  10
TORSDOF 4
ENDMDL
MODEL 3
REMARK VINA RESULT:    -2.501     12.260     12.561
REMARK INTER + INTRA:          -3.151
REMARK INTER:                  -2.914
REMARK INTRA:                  -0.237
REMARK UNBOUND:                -0.212
REMARK SMILES [NH3+][C@H](CO)C(=O)[O-]
REMARK SMILES IDX 3 1 2 2 1 3 5 7 6 8 7 9 4 10
REMARK H PARENT 1 4 1 5 1 6 4 11
REMARK Flexibility Score: inf
ROOT
ATOM      1  C   UNL     1      -0.487   4.538   6.763  1.00  0.00     0.227 C 
ENDROOT
BRANCH   1   2
ATOM      2  C   UNL     1      -0.622   3.535   7.922  1.00  0.00     0.253 C 
BRANCH   2   3
ATOM      3  N   UNL     1      -1.182   2.259   7.458  1.00  0.00    -0.348 N 
ATOM      4  H   UNL     1      -0.597   1.468   7.815  1.00  0.00     0.345 HD
ATOM      5  H   UNL     1      -1.211   2.218   6.414  1.00  0.00     0.345 HD
ATOM      6  H   UNL     1      -2.151   2.142   7.832  1.00  0.00     0.345 HD
ENDBRANCH   2   3
BRANCH   2   7
ATOM      7  C   UNL     1       0.703   3.327   8.607  1.00  0.00     0.102 C 
ATOM      8  O   UNL     1       1.548   4.259   8.669  1.00  0.00    -0.544 OA
ATOM      9  O   UNL     1       0.984   2.109   9.213  1.00  0.00    -0.544 OA
ENDBRANCH   2   7
ENDBRANCH   1   2
BRANCH   1  10
ATOM     10  O   UNL     1       0.550   4.161   5.898  1.00  0.00    -0.390 OA
ATOM     11  H   UNL     1       0.520   4.799   5.138  1.00  0.00     0.210 HD
ENDBRANCH   1  10
TORSDOF 4
ENDMDL
MODEL 4
REMARK VINA RESULT:    -2.472      1.385      2.233
REMARK INTER + INTRA:          -3.118
REMARK INTER:                  -2.891
REMARK INTRA:                  -0.227
REMARK UNBOUND:                -0.212
REMARK SMILES [NH3+][C@H](CO)C(=O)[O-]
REMARK SMILES IDX 3 1 2 2 1 3 5 7 6 8 7 9 4 10
REMARK H PARENT 1 4 1 5 1 6 4 11
REMARK Flexibility Score: inf
ROOT
ATOM      1  C   UNL     1       9.074  -1.832  -1.496  1.00  0.00     0.227 C 
ENDROOT
BRANCH   1   2
ATOM      2  C   UNL     1       9.718  -1.639  -0.112  1.00  0.00     0.253 C 
BRANCH   2   3
ATOM      3  N   UNL     1      10.036  -0.226   0.134  1.00  0.00    -0.348 N 
ATOM      4  H   UNL     1      10.971   0.001  -0.277  1.00  0.00     0.345 HD
ATOM      5  H   UNL     1      10.055  -0.018   1.159  1.00  0.00     0.345 HD
ATOM      6  H   UNL     1       9.322   0.383  -0.325  1.00  0.00     0.345 HD
ENDBRANCH   2   3
BRANCH   2   7
ATOM      7  C   UNL     1       8.832  -2.191   0.973  1.00  0.00     0.102 C 
ATOM      8  O   UNL     1       9.088  -1.970   2.186  1.00  0.00    -0.544 OA
ATOM      9  O   UNL     1       7.696  -2.917   0.636  1.00  0.00    -0.544 OA
ENDBRANCH   2   7
ENDBRANCH   1   2
BRANCH   1  10
ATOM     10  O   UNL     1       7.864  -1.130  -1.582  1.00  0.00    -0.390 OA
ATOM     11  H   UNL     1       7.338  -1.577  -2.296  1.00  0.00     0.210 HD
ENDBRANCH   1  10
TORSDOF 4
ENDMDL
MODEL 5
REMARK VINA RESULT:    -2.436      1.432      2.159
REMARK INTER + INTRA:          -3.075
REMARK INTER:                  -2.849
REMARK INTRA:                  -0.226
REMARK UNBOUND:                -0.212
REMARK SMILES [NH3+][C@H](CO)C(=O)[O-]
REMARK SMILES IDX 3 1 2 2 1 3 5 7 6 8 7 9 4 10
REMARK H PARENT 1 4 1 5 1 6 4 11
REMARK Flexibility Score: inf
ROOT
ATOM      1  C   UNL     1       8.819  -1.830  -1.676  1.00  0.00     0.227 C 
ENDROOT
BRANCH   1   2
ATOM      2  C   UNL     1       9.585  -1.660  -0.353  1.00  0.00     0.253 C 
BRANCH   2   3
ATOM      3  N   UNL     1       9.966  -0.258  -0.135  1.00  0.00    -0.348 N 
ATOM      4  H   UNL     1       9.689   0.315  -0.966  1.00  0.00     0.345 HD
ATOM      5  H   UNL     1      10.996  -0.166   0.014  1.00  0.00     0.345 HD
ATOM      6  H   UNL     1       9.464   0.119   0.701  1.00  0.00     0.345 HD
ENDBRANCH   2   3
BRANCH   2   7
ATOM      7  C   UNL     1       8.778  -2.187   0.804  1.00  0.00     0.102 C 
ATOM      8  O   UNL     1       7.737  -2.867   0.604  1.00  0.00    -0.544 OA
ATOM      9  O   UNL     1       9.205  -1.958   2.106  1.00  0.00    -0.544 OA
ENDBRANCH   2   7
ENDBRANCH   1   2
BRANCH   1  10
ATOM     10  O   UNL     1       7.697  -0.993  -1.712  1.00  0.00    -0.390 OA
ATOM     11  H   UNL     1       7.128  -1.326  -2.454  1.00  0.00     0.210 HD
ENDBRANCH   1  10
TORSDOF 4
ENDMDL
MODEL 6
REMARK VINA RESULT:    -2.302     11.837     12.134
REMARK INTER + INTRA:          -2.918
REMARK INTER:                  -2.683
REMARK INTRA:                  -0.235
REMARK UNBOUND:                -0.212
REMARK SMILES [NH3+][C@H](CO)C(=O)[O-]
REMARK SMILES IDX 3 1 2 2 1 3 5 7 6 8 7 9 4 10
REMARK H PARENT 1 4 1 5 1 6 4 11
REMARK Flexibility Score: inf
ROOT
ATOM      1  C   UNL     1       1.343   6.278   6.403  1.00  0.00     0.227 C 
ENDROOT
BRANCH   1   2
ATOM      2  C   UNL     1       0.547   5.151   7.082  1.00  0.00     0.253 C 
BRANCH   2   3
ATOM      3  N   UNL     1       0.160   4.115   6.115  1.00  0.00    -0.348 N 
ATOM      4  H   UNL     1       1.018   3.660   5.725  1.00  0.00     0.345 HD
ATOM      5  H   UNL     1      -0.396   4.523   5.329  1.00  0.00     0.345 HD
ATOM      6  H   UNL     1      -0.410   3.381   6.592  1.00  0.00     0.345 HD
ENDBRANCH   2   3
BRANCH   2   7
ATOM      7  C   UNL     1       1.329   4.558   8.225  1.00  0.00     0.102 C 
ATOM      8  O   UNL     1       1.142   3.363   8.580  1.00  0.00    -0.544 OA
ATOM      9  O   UNL     1       2.295   5.319   8.871  1.00  0.00    -0.544 OA
ENDBRANCH   2   7
ENDBRANCH   1   2
BRANCH   1  10
ATOM     10  O   UNL     1       2.647   5.858   6.108  1.00  0.00    -0.390 OA
ATOM     11  H   UNL     1       2.880   6.277   5.238  1.00  0.00     0.210 HD
ENDBRANCH   1  10
TORSDOF 4
ENDMDL
MODEL 7
REMARK VINA RESULT:    -2.293     11.889     12.182
REMARK INTER + INTRA:          -2.908
REMARK INTER:                  -2.697
REMARK INTRA:                  -0.211
REMARK UNBOUND:                -0.212
REMARK SMILES [NH3+][C@H](CO)C(=O)[O-]
REMARK SMILES IDX 3 1 2 2 1 3 5 7 6 8 7 9 4 10
REMARK H PARENT 1 4 1 5 1 6 4 11
REMARK Flexibility Score: inf
ROOT
ATOM      1  C   UNL     1      -0.238   4.800   6.605  1.00  0.00     0.227 C 
ENDROOT
BRANCH   1   2
ATOM      2  C   UNL     1       0.528   4.561   7.918  1.00  0.00     0.253 C 
BRANCH   2   3
ATOM      3  N   UNL     1       0.653   3.126   8.207  1.00  0.00    -0.348 N 
ATOM      4  H   UNL     1       0.803   2.986   9.233  1.00  0.00     0.345 HD
ATOM      5  H   UNL     1       1.455   2.706   7.685  1.00  0.00     0.345 HD
ATOM      6  H   UNL     1      -0.228   2.632   7.936  1.00  0.00     0.345 HD
ENDBRANCH   2   3
BRANCH   2   7
ATOM      7  C   UNL     1       1.879   5.224   7.877  1.00  0.00     0.102 C 
ATOM      8  O   UNL     1       2.388   5.578   6.781  1.00  0.00    -0.544 OA
ATOM      9  O   UNL     1       2.557   5.486   9.061  1.00  0.00    -0.544 OA
ENDBRANCH   2   7
ENDBRANCH   1   2
BRANCH   1  10
ATOM     10  O   UNL     1       0.362   4.104   5.547  1.00  0.00    -0.390 OA
ATOM     11  H   UNL     1       0.002   3.180   5.586  1.00  0.00     0.210 HD
ENDBRANCH   1  10
TORSDOF 4
ENDMDL
MODEL 8
REMARK VINA RESULT:    -2.256      3.415      4.684
REMARK INTER + INTRA:          -2.864
REMARK INTER:                  -2.468
REMARK INTRA:                  -0.396
REMARK UNBOUND:                -0.212
REMARK SMILES [NH3+][C@H](CO)C(=O)[O-]
REMARK SMILES IDX 3 1 2 2 1 3 5 7 6 8 7 9 4 10
REMARK H PARENT 1 4 1 5 1 6 4 11
REMARK Flexibility Score: inf
ROOT
ATOM      1  C   UNL     1       8.448  -3.590   0.927  1.00  0.00     0.227 C 
ENDROOT
BRANCH   1   2
ATOM      2  C   UNL     1       8.172  -4.609  -0.191  1.00  0.00     0.253 C 
BRANCH   2   3
ATOM      3  N   UNL     1       7.453  -5.782   0.324  1.00  0.00    -0.348 N 
ATOM      4  H   UNL     1       7.131  -6.376  -0.475  1.00  0.00     0.345 HD
ATOM      5  H   UNL     1       6.624  -5.496   0.892  1.00  0.00     0.345 HD
ATOM      6  H   UNL     1       8.093  -6.356   0.919  1.00  0.00     0.345 HD
ENDBRANCH   2   3
BRANCH   2   7
ATOM      7  C   UNL     1       7.418  -3.969  -1.326  1.00  0.00     0.102 C 
ATOM      8  O   UNL     1       6.170  -4.104  -1.425  1.00  0.00    -0.544 OA
ATOM      9  O   UNL     1       8.096  -3.187  -2.253  1.00  0.00    -0.544 OA
ENDBRANCH   2   7
ENDBRANCH   1   2
BRANCH   1  10
ATOM     10  O   UNL     1       7.795  -2.378   0.666  1.00  0.00    -0.390 OA
ATOM     11  H   UNL     1       7.009  -2.353   1.273  1.00  0.00     0.210 HD
ENDBRANCH   1  10
TORSDOF 4
ENDMDL
MODEL 9
REMARK VINA RESULT:    -2.221      4.588      5.584
REMARK INTER + INTRA:          -2.823
REMARK INTER:                  -2.597
REMARK INTRA:                  -0.226
REMARK UNBOUND:                -0.212
REMARK SMILES [NH3+][C@H](CO)C(=O)[O-]
REMARK SMILES IDX 3 1 2 2 1 3 5 7 6 8 7 9 4 10
REMARK H PARENT 1 4 1 5 1 6 4 11
REMARK Flexibility Score: inf
ROOT
ATOM      1  C   UNL     1       9.072   1.232  -3.925  1.00  0.00     0.227 C 
ENDROOT
BRANCH   1   2
ATOM      2  C   UNL     1       8.723   0.117  -2.925  1.00  0.00     0.253 C 
BRANCH   2   3
ATOM      3  N   UNL     1       8.979   0.542  -1.543  1.00  0.00    -0.348 N 
ATOM      4  H   UNL     1      10.006   0.685  -1.403  1.00  0.00     0.345 HD
ATOM      5  H   UNL     1       8.639  -0.173  -0.860  1.00  0.00     0.345 HD
ATOM      6  H   UNL     1       8.495   1.450  -1.357  1.00  0.00     0.345 HD
ENDBRANCH   2   3
BRANCH   2   7
ATOM      7  C   UNL     1       7.295  -0.329  -3.098  1.00  0.00     0.102 C 
ATOM      8  O   UNL     1       6.506   0.316  -3.838  1.00  0.00    -0.544 OA
ATOM      9  O   UNL     1       6.851  -1.486  -2.469  1.00  0.00    -0.544 OA
ENDBRANCH   2   7
ENDBRANCH   1   2
BRANCH   1  10
ATOM     10  O   UNL     1       8.494   2.447  -3.535  1.00  0.00    -0.390 OA
ATOM     11  H   UNL     1       9.033   2.776  -2.770  1.00  0.00     0.210 HD
ENDBRANCH   1  10
TORSDOF 4
ENDMDL
