MODEL 1
REMARK VINA RESULT:    -3.450      0.000      0.000
REMARK INTER + INTRA:          -5.558
REMARK INTER:                  -5.265
REMARK INTRA:                  -0.293
REMARK UNBOUND:                -0.293
REMARK SMILES CC1=CCC[C@H](C)C(=O)C[C@H](C(C)C)C(=O)C1
REMARK SMILES IDX 8 1 9 2 6 3 7 4 5 5 4 6 3 7 2 8 1 9 10 11 11 12 15 13 16 14
REMARK SMILES IDX 17 15 12 17 13 18 14 19
REMARK H PARENT
REMARK Flexibility Score: 70.00
ROOT
ATOM      1  C   UNL     1       5.300  20.100  14.677  1.00  0.00     0.136 C 
ATOM      2  O   UNL     1       5.251  21.297  14.923  1.00  0.00    -0.299 OA
ENDROOT
BRANCH   1   3
ATOM      3  C   UNL     1       4.079  19.259  15.034  1.00  0.00     0.053 C 
ATOM      4  C   UNL     1       2.848  20.177  15.107  1.00  0.00     0.016 C 
BRANCH   3   5
ATOM      5  C   UNL     1       3.759  18.064  14.104  1.00  0.00     0.015 C 
BRANCH   5   6
ATOM      6  C   UNL     1       4.156  16.666  14.607  1.00  0.00     0.028 C 
BRANCH   6   7
ATOM      7  C   UNL     1       5.292  16.013  13.852  1.00  0.00    -0.028 C 
ATOM      8  C   UNL     1       6.629  16.121  14.087  1.00  0.00    -0.070 CG0
ATOM      9  C   UNL     1       7.542  15.412  13.115  1.00  0.00     0.039 C 
ATOM     10  G   UNL     1       7.287  16.775  15.303  1.00  0.00     0.000 G0
ENDBRANCH   6   7
ENDBRANCH   5   6
ENDBRANCH   3   5
ENDBRANCH   1   3
BRANCH   1  11
ATOM     11  C   UNL     1       6.576  19.578  14.048  1.00  0.00     0.087 C 
BRANCH  11  12
ATOM     12  C   UNL     1       7.695  19.361  15.109  1.00  0.00     0.066 C 
BRANCH  12  13
ATOM     13  C   UNL     1       8.225  17.927  15.042  1.00  0.00     0.140 C 
ATOM     14  O   UNL     1       9.407  17.714  14.803  1.00  0.00    -0.299 OA
BRANCH  13  15
ATOM     15  C   UNL     1       7.318  16.754  15.310  1.00  0.00     0.106 CG0
ATOM     16  G   UNL     1       6.647  16.128  14.087  1.00  0.00     0.000 G0
ENDBRANCH  13  15
ENDBRANCH  12  13
BRANCH  12  17
ATOM     17  C   UNL     1       8.856  20.409  15.004  1.00  0.00    -0.006 C 
ATOM     18  C   UNL     1       8.508  21.607  14.100  1.00  0.00     0.008 C 
ATOM     19  C   UNL     1       9.238  20.949  16.397  1.00  0.00     0.008 C 
ENDBRANCH  12  17
ENDBRANCH  11  12
ENDBRANCH   1  11
TORSDOF 1
ENDMDL
MODEL 2
REMARK VINA RESULT:    -3.231      1.673      4.075
REMARK INTER + INTRA:          -5.224
REMARK INTER:                  -4.576
REMARK INTRA:                  -0.649
REMARK UNBOUND:                -0.293
REMARK SMILES CC1=CCC[C@H](C)C(=O)C[C@H](C(C)C)C(=O)C1
REMARK SMILES IDX 8 1 9 2 6 3 7 4 5 5 4 6 3 7 2 8 1 9 10 11 11 12 15 13 16 14
REMARK SMILES IDX 17 15 12 17 13 18 14 19
REMARK H PARENT
REMARK Flexibility Score: 70.00
ROOT
ATOM      1  C   UNL     1       4.811  19.324  15.611  1.00  0.00     0.136 C 
ATOM      2  O   UNL     1       4.150  19.868  16.484  1.00  0.00    -0.299 OA
ENDROOT
BRANCH   1   3
ATOM      3  C   UNL     1       5.700  20.212  14.747  1.00  0.00     0.053 C 
ATOM      4  C   UNL     1       4.896  21.448  14.312  1.00  0.00     0.016 C 
BRANCH   3   5
ATOM      5  C   UNL     1       7.037  20.679  15.374  1.00  0.00     0.015 C 
BRANCH   5   6
ATOM      6  C   UNL     1       7.980  19.582  15.896  1.00  0.00     0.028 C 
BRANCH   6   7
ATOM      7  C   UNL     1       8.670  18.769  14.823  1.00  0.00    -0.028 C 
ATOM      8  C   UNL     1       8.461  17.465  14.493  1.00  0.00    -0.070 CG0
ATOM      9  C   UNL     1       9.357  16.891  13.421  1.00  0.00     0.039 C 
ATOM     10  G   UNL     1       7.332  16.569  15.004  1.00  0.00     0.000 G0
ENDBRANCH   6   7
ENDBRANCH   5   6
ENDBRANCH   3   5
ENDBRANCH   1   3
BRANCH   1  11
ATOM     11  C   UNL     1       4.669  17.822  15.475  1.00  0.00     0.087 C 
BRANCH  11  12
ATOM     12  C   UNL     1       4.998  17.340  14.031  1.00  0.00     0.066 C 
BRANCH  12  13
ATOM     13  C   UNL     1       6.173  16.359  14.049  1.00  0.00     0.140 C 
ATOM     14  O   UNL     1       6.209  15.420  13.265  1.00  0.00    -0.299 OA
BRANCH  13  15
ATOM     15  C   UNL     1       7.327  16.554  14.998  1.00  0.00     0.106 CG0
ATOM     16  G   UNL     1       8.469  17.440  14.499  1.00  0.00     0.000 G0
ENDBRANCH  13  15
ENDBRANCH  12  13
BRANCH  12  17
ATOM     17  C   UNL     1       3.759  16.737  13.283  1.00  0.00    -0.006 C 
ATOM     18  C   UNL     1       2.881  15.851  14.188  1.00  0.00     0.008 C 
ATOM     19  C   UNL     1       2.875  17.854  12.695  1.00  0.00     0.008 C 
ENDBRANCH  12  17
ENDBRANCH  11  12
ENDBRANCH   1  11
TORSDOF 1
ENDMDL
MODEL 3
REMARK VINA RESULT:    -3.152      5.568      7.942
REMARK INTER + INTRA:          -5.104
REMARK INTER:                  -4.530
REMARK INTRA:                  -0.574
REMARK UNBOUND:                -0.293
REMARK SMILES CC1=CCC[C@H](C)C(=O)C[C@H](C(C)C)C(=O)C1
REMARK SMILES IDX 8 1 9 2 6 3 7 4 5 5 4 6 3 7 2 8 1 9 10 11 11 12 15 13 16 14
REMARK SMILES IDX 17 15 12 17 13 18 14 19
REMARK H PARENT
REMARK Flexibility Score: 70.00
ROOT
ATOM      1  C   UNL     1      14.828  17.394  13.866  1.00  0.00     0.136 C 
ATOM      2  O   UNL     1      15.359  17.780  12.834  1.00  0.00    -0.299 OA
ENDROOT
BRANCH   1   3
ATOM      3  C   UNL     1      14.554  18.435  14.946  1.00  0.00     0.053 C 
ATOM      4  C   UNL     1      15.649  19.512  14.886  1.00  0.00     0.016 C 
BRANCH   3   5
ATOM      5  C   UNL     1      13.169  19.125  14.915  1.00  0.00     0.015 C 
BRANCH   5   6
ATOM      6  C   UNL     1      12.243  18.770  13.739  1.00  0.00     0.028 C 
BRANCH   6   7
ATOM      7  C   UNL     1      10.939  18.111  14.129  1.00  0.00    -0.028 C 
ATOM      8  C   UNL     1      10.636  16.784  14.130  1.00  0.00    -0.070 CG0
ATOM      9  C   UNL     1       9.218  16.418  14.499  1.00  0.00     0.039 C 
ATOM     10  G   UNL     1      11.617  15.629  13.923  1.00  0.00     0.000 G0
ENDBRANCH   6   7
ENDBRANCH   5   6
ENDBRANCH   3   5
ENDBRANCH   1   3
BRANCH   1  11
ATOM     11  C   UNL     1      14.505  15.917  13.963  1.00  0.00     0.087 C 
BRANCH  11  12
ATOM     12  C   UNL     1      13.846  15.560  15.329  1.00  0.00     0.066 C 
BRANCH  12  13
ATOM     13  C   UNL     1      12.386  15.149  15.128  1.00  0.00     0.140 C 
ATOM     14  O   UNL     1      11.812  14.468  15.968  1.00  0.00    -0.299 OA
BRANCH  13  15
ATOM     15  C   UNL     1      11.614  15.608  13.918  1.00  0.00     0.106 CG0
ATOM     16  G   UNL     1      10.664  16.787  14.132  1.00  0.00     0.000 G0
ENDBRANCH  13  15
ENDBRANCH  12  13
BRANCH  12  17
ATOM     17  C   UNL     1      14.643  14.474  16.133  1.00  0.00    -0.006 C 
ATOM     18  C   UNL     1      15.900  13.978  15.394  1.00  0.00     0.008 C 
ATOM     19  C   UNL     1      15.074  15.017  17.510  1.00  0.00     0.008 C 
ENDBRANCH  12  17
ENDBRANCH  11  12
ENDBRANCH   1  11
TORSDOF 1
ENDMDL
MODEL 4
REMARK VINA RESULT:    -3.141      1.740      4.135
REMARK INTER + INTRA:          -5.086
REMARK INTER:                  -4.566
REMARK INTRA:                  -0.520
REMARK UNBOUND:                -0.293
REMARK SMILES CC1=CCC[C@H](C)C(=O)C[C@H](C(C)C)C(=O)C1
REMARK SMILES IDX 8 1 9 2 6 3 7 4 5 5 4 6 3 7 2 8 1 9 10 11 11 12 15 13 16 14
REMARK SMILES IDX 17 15 12 17 13 18 14 19
REMARK H PARENT
REMARK Flexibility Score: 70.00
ROOT
ATOM      1  C   UNL     1       7.084  20.663  15.181  1.00  0.00     0.136 C 
ATOM      2  O   UNL     1       6.254  21.500  14.856  1.00  0.00    -0.299 OA
ENDROOT
BRANCH   1   3
ATOM      3  C   UNL     1       8.554  21.021  14.990  1.00  0.00     0.053 C 
ATOM      4  C   UNL     1       9.411  20.080  15.852  1.00  0.00     0.016 C 
BRANCH   3   5
ATOM      5  C   UNL     1       9.094  21.002  13.539  1.00  0.00     0.015 C 
BRANCH   5   6
ATOM      6  C   UNL     1       8.468  19.977  12.578  1.00  0.00     0.028 C 
BRANCH   6   7
ATOM      7  C   UNL     1       9.108  18.607  12.601  1.00  0.00    -0.028 C 
ATOM      8  C   UNL     1       8.512  17.405  12.831  1.00  0.00    -0.070 CG0
ATOM      9  C   UNL     1       9.420  16.200  12.867  1.00  0.00     0.039 C 
ATOM     10  G   UNL     1       7.008  17.141  12.927  1.00  0.00     0.000 G0
ENDBRANCH   6   7
ENDBRANCH   5   6
ENDBRANCH   3   5
ENDBRANCH   1   3
BRANCH   1  11
ATOM     11  C   UNL     1       6.561  19.352  15.733  1.00  0.00     0.087 C 
BRANCH  11  12
ATOM     12  C   UNL     1       5.691  18.593  14.688  1.00  0.00     0.066 C 
BRANCH  12  13
ATOM     13  C   UNL     1       6.368  17.284  14.277  1.00  0.00     0.140 C 
ATOM     14  O   UNL     1       6.374  16.324  15.037  1.00  0.00    -0.299 OA
BRANCH  13  15
ATOM     15  C   UNL     1       7.002  17.135  12.918  1.00  0.00     0.106 CG0
ATOM     16  G   UNL     1       8.506  17.405  12.843  1.00  0.00     0.000 G0
ENDBRANCH  13  15
ENDBRANCH  12  13
BRANCH  12  17
ATOM     17  C   UNL     1       4.218  18.351  15.171  1.00  0.00    -0.006 C 
ATOM     18  C   UNL     1       3.667  19.508  16.026  1.00  0.00     0.008 C 
ATOM     19  C   UNL     1       3.274  18.143  13.971  1.00  0.00     0.008 C 
ENDBRANCH  12  17
ENDBRANCH  11  12
ENDBRANCH   1  11
TORSDOF 1
ENDMDL
MODEL 5
REMARK VINA RESULT:    -3.029     10.395     12.716
REMARK INTER + INTRA:          -4.916
REMARK INTER:                  -4.499
REMARK INTRA:                  -0.417
REMARK UNBOUND:                -0.293
REMARK SMILES CC1=CCC[C@H](C)C(=O)C[C@H](C(C)C)C(=O)C1
REMARK SMILES IDX 8 1 9 2 6 3 7 4 5 5 4 6 3 7 2 8 1 9 10 11 11 12 15 13 16 14
REMARK SMILES IDX 17 15 12 17 13 18 14 19
REMARK H PARENT
REMARK Flexibility Score: 70.00
ROOT
ATOM      1  C   UNL     1       5.554  31.576  15.564  1.00  0.00     0.136 C 
ATOM      2  O   UNL     1       5.959  32.404  16.367  1.00  0.00    -0.299 OA
ENDROOT
BRANCH   1   3
ATOM      3  C   UNL     1       6.597  30.724  14.848  1.00  0.00     0.053 C 
ATOM      4  C   UNL     1       7.935  31.479  14.841  1.00  0.00     0.016 C 
BRANCH   3   5
ATOM      5  C   UNL     1       6.829  29.296  15.400  1.00  0.00     0.015 C 
BRANCH   5   6
ATOM      6  C   UNL     1       5.592  28.391  15.527  1.00  0.00     0.028 C 
BRANCH   6   7
ATOM      7  C   UNL     1       5.027  27.893  14.215  1.00  0.00    -0.028 C 
ATOM      8  C   UNL     1       3.775  28.081  13.715  1.00  0.00    -0.070 CG0
ATOM      9  C   UNL     1       3.466  27.398  12.404  1.00  0.00     0.039 C 
ATOM     10  G   UNL     1       2.703  29.013  14.279  1.00  0.00     0.000 G0
ENDBRANCH   6   7
ENDBRANCH   5   6
ENDBRANCH   3   5
ENDBRANCH   1   3
BRANCH   1  11
ATOM     11  C   UNL     1       4.055  31.490  15.360  1.00  0.00     0.087 C 
BRANCH  11  12
ATOM     12  C   UNL     1       3.681  31.437  13.849  1.00  0.00     0.066 C 
BRANCH  12  13
ATOM     13  C   UNL     1       2.608  30.374  13.600  1.00  0.00     0.140 C 
ATOM     14  O   UNL     1       1.681  30.597  12.832  1.00  0.00    -0.299 OA
BRANCH  13  15
ATOM     15  C   UNL     1       2.693  29.022  14.259  1.00  0.00     0.106 CG0
ATOM     16  G   UNL     1       3.770  28.077  13.724  1.00  0.00     0.000 G0
ENDBRANCH  13  15
ENDBRANCH  12  13
BRANCH  12  17
ATOM     17  C   UNL     1       3.255  32.830  13.269  1.00  0.00    -0.006 C 
ATOM     18  C   UNL     1       3.344  33.967  14.305  1.00  0.00     0.008 C 
ATOM     19  C   UNL     1       4.127  33.211  12.056  1.00  0.00     0.008 C 
ENDBRANCH  12  17
ENDBRANCH  11  12
ENDBRANCH   1  11
TORSDOF 1
ENDMDL
MODEL 6
REMARK VINA RESULT:    -2.971      2.202      3.954
REMARK INTER + INTRA:          -4.827
REMARK INTER:                  -4.819
REMARK INTRA:                  -0.008
REMARK UNBOUND:                -0.293
REMARK SMILES CC1=CCC[C@H](C)C(=O)C[C@H](C(C)C)C(=O)C1
REMARK SMILES IDX 8 1 9 2 6 3 7 4 5 5 4 6 3 7 2 8 1 9 10 11 11 12 15 13 16 14
REMARK SMILES IDX 17 15 12 17 13 18 14 19
REMARK H PARENT
REMARK Flexibility Score: 70.00
ROOT
ATOM      1  C   UNL     1       9.675  19.805  14.254  1.00  0.00     0.136 C 
ATOM      2  O   UNL     1       9.574  20.833  13.599  1.00  0.00    -0.299 OA
ENDROOT
BRANCH   1   3
ATOM      3  C   UNL     1       9.017  19.781  15.630  1.00  0.00     0.053 C 
ATOM      4  C   UNL     1       9.311  21.110  16.344  1.00  0.00     0.016 C 
BRANCH   3   5
ATOM      5  C   UNL     1       7.492  19.517  15.669  1.00  0.00     0.015 C 
BRANCH   5   6
ATOM      6  C   UNL     1       6.767  19.430  14.315  1.00  0.00     0.028 C 
BRANCH   6   7
ATOM      7  C   UNL     1       5.895  18.209  14.134  1.00  0.00    -0.028 C 
ATOM      8  C   UNL     1       6.271  16.901  14.133  1.00  0.00    -0.070 CG0
ATOM      9  C   UNL     1       5.186  15.889  13.852  1.00  0.00     0.039 C 
ATOM     10  G   UNL     1       7.647  16.351  14.515  1.00  0.00     0.000 G0
ENDBRANCH   6   7
ENDBRANCH   5   6
ENDBRANCH   3   5
ENDBRANCH   1   3
BRANCH   1  11
ATOM     11  C   UNL     1      10.453  18.665  13.630  1.00  0.00     0.087 C 
BRANCH  11  12
ATOM     12  C   UNL     1      10.095  17.297  14.283  1.00  0.00     0.066 C 
BRANCH  12  13
ATOM     13  C   UNL     1       8.817  16.725  13.664  1.00  0.00     0.140 C 
ATOM     14  O   UNL     1       8.740  16.546  12.456  1.00  0.00    -0.299 OA
BRANCH  13  15
ATOM     15  C   UNL     1       7.647  16.334  14.529  1.00  0.00     0.106 CG0
ATOM     16  G   UNL     1       6.288  16.906  14.124  1.00  0.00     0.000 G0
ENDBRANCH  13  15
ENDBRANCH  12  13
BRANCH  12  17
ATOM     17  C   UNL     1      11.271  16.261  14.231  1.00  0.00    -0.006 C 
ATOM     18  C   UNL     1      12.639  16.886  14.566  1.00  0.00     0.008 C 
ATOM     19  C   UNL     1      11.020  15.094  15.206  1.00  0.00     0.008 C 
ENDBRANCH  12  17
ENDBRANCH  11  12
ENDBRANCH   1  11
TORSDOF 1
ENDMDL
MODEL 7
REMARK VINA RESULT:    -2.961      2.042      4.544
REMARK INTER + INTRA:          -4.811
REMARK INTER:                  -4.115
REMARK INTRA:                  -0.696
REMARK UNBOUND:                -0.293
REMARK SMILES CC1=CCC[C@H](C)C(=O)C[C@H](C(C)C)C(=O)C1
REMARK SMILES IDX 8 1 9 2 6 3 7 4 5 5 4 6 3 7 2 8 1 9 10 11 11 12 15 13 16 14
REMARK SMILES IDX 17 15 12 17 13 18 14 19
REMARK H PARENT
REMARK Flexibility Score: 70.00
ROOT
ATOM      1  C   UNL     1       4.883  17.834  12.973  1.00  0.00     0.136 C 
ATOM      2  O   UNL     1       4.596  17.128  12.016  1.00  0.00    -0.299 OA
ENDROOT
BRANCH   1   3
ATOM      3  C   UNL     1       5.245  17.133  14.278  1.00  0.00     0.053 C 
ATOM      4  C   UNL     1       4.260  15.976  14.510  1.00  0.00     0.016 C 
BRANCH   3   5
ATOM      5  C   UNL     1       6.691  16.593  14.402  1.00  0.00     0.015 C 
BRANCH   5   6
ATOM      6  C   UNL     1       7.822  17.519  13.921  1.00  0.00     0.028 C 
BRANCH   6   7
ATOM      7  C   UNL     1       8.270  18.556  14.926  1.00  0.00    -0.028 C 
ATOM      8  C   UNL     1       8.101  19.905  14.873  1.00  0.00    -0.070 CG0
ATOM      9  C   UNL     1       8.725  20.706  15.991  1.00  0.00     0.039 C 
ATOM     10  G   UNL     1       7.237  20.673  13.871  1.00  0.00     0.000 G0
ENDBRANCH   6   7
ENDBRANCH   5   6
ENDBRANCH   3   5
ENDBRANCH   1   3
BRANCH   1  11
ATOM     11  C   UNL     1       4.841  19.333  12.760  1.00  0.00     0.087 C 
BRANCH  11  12
ATOM     12  C   UNL     1       4.677  20.102  14.105  1.00  0.00     0.066 C 
BRANCH  12  13
ATOM     13  C   UNL     1       5.847  21.066  14.317  1.00  0.00     0.140 C 
ATOM     14  O   UNL     1       5.673  22.136  14.885  1.00  0.00    -0.299 OA
BRANCH  13  15
ATOM     15  C   UNL     1       7.239  20.701  13.871  1.00  0.00     0.106 CG0
ATOM     16  G   UNL     1       8.088  19.924  14.878  1.00  0.00     0.000 G0
ENDBRANCH  13  15
ENDBRANCH  12  13
BRANCH  12  17
ATOM     17  C   UNL     1       3.297  20.835  14.233  1.00  0.00    -0.006 C 
ATOM     18  C   UNL     1       2.439  20.731  12.958  1.00  0.00     0.008 C 
ATOM     19  C   UNL     1       2.482  20.272  15.413  1.00  0.00     0.008 C 
ENDBRANCH  12  17
ENDBRANCH  11  12
ENDBRANCH   1  11
TORSDOF 1
ENDMDL
MODEL 8
REMARK VINA RESULT:    -2.929      1.763      3.924
REMARK INTER + INTRA:          -4.763
REMARK INTER:                  -4.546
REMARK INTRA:                  -0.217
REMARK UNBOUND:                -0.293
REMARK SMILES CC1=CCC[C@H](C)C(=O)C[C@H](C(C)C)C(=O)C1
REMARK SMILES IDX 8 1 9 2 6 3 7 4 5 5 4 6 3 7 2 8 1 9 10 11 11 12 15 13 16 14
REMARK SMILES IDX 17 15 12 17 13 18 14 19
REMARK H PARENT
REMARK Flexibility Score: 70.00
ROOT
ATOM      1  C   UNL     1       8.134  19.272  15.538  1.00  0.00     0.136 C 
ATOM      2  O   UNL     1       8.808  19.951  16.300  1.00  0.00    -0.299 OA
ENDROOT
BRANCH   1   3
ATOM      3  C   UNL     1       8.838  18.667  14.327  1.00  0.00     0.053 C 
ATOM      4  C   UNL     1       9.738  19.738  13.691  1.00  0.00     0.016 C 
BRANCH   3   5
ATOM      5  C   UNL     1       9.677  17.390  14.575  1.00  0.00     0.015 C 
BRANCH   5   6
ATOM      6  C   UNL     1       8.991  16.043  14.290  1.00  0.00     0.028 C 
BRANCH   6   7
ATOM      7  C   UNL     1       7.983  16.065  13.163  1.00  0.00    -0.028 C 
ATOM      8  C   UNL     1       6.625  16.059  13.250  1.00  0.00    -0.070 CG0
ATOM      9  C   UNL     1       5.866  16.008  11.945  1.00  0.00     0.039 C 
ATOM     10  G   UNL     1       5.797  16.231  14.525  1.00  0.00     0.000 G0
ENDBRANCH   6   7
ENDBRANCH   5   6
ENDBRANCH   3   5
ENDBRANCH   1   3
BRANCH   1  11
ATOM     11  C   UNL     1       6.666  19.109  15.875  1.00  0.00     0.087 C 
BRANCH  11  12
ATOM     12  C   UNL     1       5.806  18.857  14.601  1.00  0.00     0.066 C 
BRANCH  12  13
ATOM     13  C   UNL     1       5.061  17.525  14.713  1.00  0.00     0.140 C 
ATOM     14  O   UNL     1       3.854  17.505  14.918  1.00  0.00    -0.299 OA
BRANCH  13  15
ATOM     15  C   UNL     1       5.785  16.216  14.533  1.00  0.00     0.106 CG0
ATOM     16  G   UNL     1       6.613  16.075  13.255  1.00  0.00     0.000 G0
ENDBRANCH  13  15
ENDBRANCH  12  13
BRANCH  12  17
ATOM     17  C   UNL     1       4.827  20.037  14.273  1.00  0.00    -0.006 C 
ATOM     18  C   UNL     1       5.520  21.413  14.276  1.00  0.00     0.008 C 
ATOM     19  C   UNL     1       4.162  19.833  12.897  1.00  0.00     0.008 C 
ENDBRANCH  12  17
ENDBRANCH  11  12
ENDBRANCH   1  11
TORSDOF 1
ENDMDL
MODEL 9
REMARK VINA RESULT:    -2.905      2.150      4.155
REMARK INTER + INTRA:          -4.727
REMARK INTER:                  -4.171
REMARK INTRA:                  -0.555
REMARK UNBOUND:                -0.293
REMARK SMILES CC1=CCC[C@H](C)C(=O)C[C@H](C(C)C)C(=O)C1
REMARK SMILES IDX 8 1 9 2 6 3 7 4 5 5 4 6 3 7 2 8 1 9 10 11 11 12 15 13 16 14
REMARK SMILES IDX 17 15 12 17 13 18 14 19
REMARK H PARENT
REMARK Flexibility Score: 70.00
ROOT
ATOM      1  C   UNL     1       6.767  18.025  15.057  1.00  0.00     0.136 C 
ATOM      2  O   UNL     1       7.468  17.216  15.648  1.00  0.00    -0.299 OA
ENDROOT
BRANCH   1   3
ATOM      3  C   UNL     1       6.111  17.569  13.758  1.00  0.00     0.053 C 
ATOM      4  C   UNL     1       7.072  16.622  13.023  1.00  0.00     0.016 C 
BRANCH   3   5
ATOM      5  C   UNL     1       4.728  16.885  13.879  1.00  0.00     0.015 C 
BRANCH   5   6
ATOM      6  C   UNL     1       3.545  17.777  14.294  1.00  0.00     0.028 C 
BRANCH   6   7
ATOM      7  C   UNL     1       3.281  18.953  13.380  1.00  0.00    -0.028 C 
ATOM      8  C   UNL     1       3.490  20.275  13.630  1.00  0.00    -0.070 CG0
ATOM      9  C   UNL     1       3.059  21.240  12.552  1.00  0.00     0.039 C 
ATOM     10  G   UNL     1       4.231  20.865  14.831  1.00  0.00     0.000 G0
ENDBRANCH   6   7
ENDBRANCH   5   6
ENDBRANCH   3   5
ENDBRANCH   1   3
BRANCH   1  11
ATOM     11  C   UNL     1       6.632  19.401  15.677  1.00  0.00     0.087 C 
BRANCH  11  12
ATOM     12  C   UNL     1       6.835  20.531  14.624  1.00  0.00     0.066 C 
BRANCH  12  13
ATOM     13  C   UNL     1       5.603  21.435  14.563  1.00  0.00     0.140 C 
ATOM     14  O   UNL     1       5.713  22.615  14.258  1.00  0.00    -0.299 OA
BRANCH  13  15
ATOM     15  C   UNL     1       4.226  20.884  14.834  1.00  0.00     0.106 CG0
ATOM     16  G   UNL     1       3.491  20.287  13.633  1.00  0.00     0.000 G0
ENDBRANCH  13  15
ENDBRANCH  12  13
BRANCH  12  17
ATOM     17  C   UNL     1       8.146  21.361  14.855  1.00  0.00    -0.006 C 
ATOM     18  C   UNL     1       9.028  20.793  15.984  1.00  0.00     0.008 C 
ATOM     19  C   UNL     1       8.990  21.426  13.567  1.00  0.00     0.008 C 
ENDBRANCH  12  17
ENDBRANCH  11  12
ENDBRANCH   1  11
TORSDOF 1
ENDMDL
