MODEL 1
REMARK VINA RESULT:    -6.558      0.000      0.000
REMARK INTER + INTRA:          -7.170
REMARK INTER:                  -6.941
REMARK INTRA:                  -0.229
REMARK UNBOUND:                -0.229
REMARK SMILES O=c1cc(-c2ccccc2)oc2ccccc12
REMARK SMILES IDX 4 1 3 2 2 3 1 4 17 5 16 6 15 7 14 8 13 9 12 10 11 11 5 12
REMARK SMILES IDX 8 13 7 14 9 15 6 16 10 17
REMARK H PARENT
REMARK Flexibility Score: inf
ROOT
ATOM      1  C   UNL     1     127.710 133.631 129.451  1.00  0.00     0.138 A 
ATOM      2  C   UNL     1     126.863 133.747 130.574  1.00  0.00     0.100 A 
ATOM      3  C   UNL     1     125.651 134.431 130.453  1.00  0.00     0.193 A 
ATOM      4  O   UNL     1     124.893 134.535 131.456  1.00  0.00    -0.289 OA
ATOM      5  C   UNL     1     125.295 134.993 129.220  1.00  0.00     0.065 A 
ATOM      6  C   UNL     1     124.090 135.694 129.032  1.00  0.00     0.016 A 
ATOM      7  C   UNL     1     123.783 136.235 127.778  1.00  0.00     0.001 A 
ATOM      8  C   UNL     1     124.673 136.082 126.711  1.00  0.00     0.004 A 
ATOM      9  C   UNL     1     125.872 135.386 126.889  1.00  0.00     0.048 A 
ATOM     10  C   UNL     1     126.188 134.840 128.138  1.00  0.00     0.138 A 
ATOM     11  O   UNL     1     127.331 134.181 128.297  1.00  0.00    -0.456 OA
ENDROOT
BRANCH   1  12
ATOM     12  C   UNL     1     129.024 132.917 129.494  1.00  0.00     0.017 A 
ATOM     13  C   UNL     1     131.536 131.639 129.635  1.00  0.00     0.000 A 
ATOM     14  C   UNL     1     130.520 131.097 128.847  1.00  0.00     0.001 A 
ATOM     15  C   UNL     1     131.308 132.812 130.353  1.00  0.00     0.001 A 
ATOM     16  C   UNL     1     129.274 131.727 128.774  1.00  0.00     0.012 A 
ATOM     17  C   UNL     1     130.066 133.447 130.284  1.00  0.00     0.012 A 
ENDBRANCH   1  12
TORSDOF 1
ENDMDL
MODEL 2
REMARK VINA RESULT:    -6.504      9.296     12.174
REMARK INTER + INTRA:          -7.114
REMARK INTER:                  -6.868
REMARK INTRA:                  -0.246
REMARK UNBOUND:                -0.229
REMARK SMILES O=c1cc(-c2ccccc2)oc2ccccc12
REMARK SMILES IDX 4 1 3 2 2 3 1 4 17 5 16 6 15 7 14 8 13 9 12 10 11 11 5 12
REMARK SMILES IDX 8 13 7 14 9 15 6 16 10 17
REMARK H PARENT
REMARK Flexibility Score: inf
ROOT
ATOM      1  C   UNL     1     125.561 138.139 118.034  1.00  0.00     0.138 A 
ATOM      2  C   UNL     1     124.319 138.806 117.986  1.00  0.00     0.100 A 
ATOM      3  C   UNL     1     123.345 138.516 118.945  1.00  0.00     0.193 A 
ATOM      4  O   UNL     1     122.234 139.111 118.902  1.00  0.00    -0.289 OA
ATOM      5  C   UNL     1     123.616 137.567 119.939  1.00  0.00     0.065 A 
ATOM      6  C   UNL     1     122.680 137.228 120.933  1.00  0.00     0.016 A 
ATOM      7  C   UNL     1     123.003 136.274 121.903  1.00  0.00     0.001 A 
ATOM      8  C   UNL     1     124.255 135.652 121.888  1.00  0.00     0.004 A 
ATOM      9  C   UNL     1     125.192 135.983 120.904  1.00  0.00     0.048 A 
ATOM     10  C   UNL     1     124.879 136.937 119.929  1.00  0.00     0.138 A 
ATOM     11  O   UNL     1     125.776 137.244 118.998  1.00  0.00    -0.456 OA
ENDROOT
BRANCH   1  12
ATOM     12  C   UNL     1     126.657 138.390 117.047  1.00  0.00     0.017 A 
ATOM     13  C   UNL     1     128.658 138.861 115.113  1.00  0.00     0.000 A 
ATOM     14  C   UNL     1     129.001 138.755 116.461  1.00  0.00     0.001 A 
ATOM     15  C   UNL     1     127.325 138.734 114.723  1.00  0.00     0.001 A 
ATOM     16  C   UNL     1     128.013 138.521 117.423  1.00  0.00     0.012 A 
ATOM     17  C   UNL     1     126.333 138.501 115.678  1.00  0.00     0.012 A 
ENDBRANCH   1  12
TORSDOF 1
ENDMDL
MODEL 3
REMARK VINA RESULT:    -6.490      5.501      9.733
REMARK INTER + INTRA:          -7.099
REMARK INTER:                  -6.873
REMARK INTRA:                  -0.225
REMARK UNBOUND:                -0.229
REMARK SMILES O=c1cc(-c2ccccc2)oc2ccccc12
REMARK SMILES IDX 4 1 3 2 2 3 1 4 17 5 16 6 15 7 14 8 13 9 12 10 11 11 5 12
REMARK SMILES IDX 8 13 7 14 9 15 6 16 10 17
REMARK H PARENT
REMARK Flexibility Score: inf
ROOT
ATOM      1  C   UNL     1     131.435 128.310 130.783  1.00  0.00     0.138 A 
ATOM      2  C   UNL     1     132.224 128.650 131.902  1.00  0.00     0.100 A 
ATOM      3  C   UNL     1     133.430 127.979 132.124  1.00  0.00     0.193 A 
ATOM      4  O   UNL     1     134.135 128.282 133.124  1.00  0.00    -0.289 OA
ATOM      5  C   UNL     1     133.837 126.978 131.231  1.00  0.00     0.065 A 
ATOM      6  C   UNL     1     135.037 126.264 131.397  1.00  0.00     0.016 A 
ATOM      7  C   UNL     1     135.397 125.275 130.475  1.00  0.00     0.001 A 
ATOM      8  C   UNL     1     134.564 124.991 129.389  1.00  0.00     0.004 A 
ATOM      9  C   UNL     1     133.369 125.695 129.217  1.00  0.00     0.048 A 
ATOM     10  C   UNL     1     133.000 126.688 130.133  1.00  0.00     0.138 A 
ATOM     11  O   UNL     1     131.862 127.351 129.960  1.00  0.00    -0.456 OA
ENDROOT
BRANCH   1  12
ATOM     12  C   UNL     1     130.133 128.977 130.473  1.00  0.00     0.017 A 
ATOM     13  C   UNL     1     127.722 130.290 129.818  1.00  0.00     0.000 A 
ATOM     14  C   UNL     1     127.749 129.354 130.852  1.00  0.00     0.001 A 
ATOM     15  C   UNL     1     128.887 130.576 129.109  1.00  0.00     0.001 A 
ATOM     16  C   UNL     1     128.941 128.701 131.181  1.00  0.00     0.012 A 
ATOM     17  C   UNL     1     130.082 129.928 129.431  1.00  0.00     0.012 A 
ENDBRANCH   1  12
TORSDOF 1
ENDMDL
MODEL 4
REMARK VINA RESULT:    -6.417      5.492      7.899
REMARK INTER + INTRA:          -7.022
REMARK INTER:                  -6.772
REMARK INTRA:                  -0.250
REMARK UNBOUND:                -0.229
REMARK SMILES O=c1cc(-c2ccccc2)oc2ccccc12
REMARK SMILES IDX 4 1 3 2 2 3 1 4 17 5 16 6 15 7 14 8 13 9 12 10 11 11 5 12
REMARK SMILES IDX 8 13 7 14 9 15 6 16 10 17
REMARK H PARENT
REMARK Flexibility Score: inf
ROOT
ATOM      1  C   UNL     1     132.774 128.294 131.461  1.00  0.00     0.138 A 
ATOM      2  C   UNL     1     133.053 129.575 131.981  1.00  0.00     0.100 A 
ATOM      3  C   UNL     1     132.016 130.501 132.121  1.00  0.00     0.193 A 
ATOM      4  O   UNL     1     132.265 131.648 132.585  1.00  0.00    -0.289 OA
ATOM      5  C   UNL     1     130.715 130.145 131.741  1.00  0.00     0.065 A 
ATOM      6  C   UNL     1     129.628 131.029 131.855  1.00  0.00     0.016 A 
ATOM      7  C   UNL     1     128.349 130.621 131.462  1.00  0.00     0.001 A 
ATOM      8  C   UNL     1     128.148 129.334 130.953  1.00  0.00     0.004 A 
ATOM      9  C   UNL     1     129.222 128.449 130.837  1.00  0.00     0.048 A 
ATOM     10  C   UNL     1     130.506 128.847 131.228  1.00  0.00     0.138 A 
ATOM     11  O   UNL     1     131.521 127.997 131.113  1.00  0.00    -0.456 OA
ENDROOT
BRANCH   1  12
ATOM     12  C   UNL     1     133.824 127.244 131.279  1.00  0.00     0.017 A 
ATOM     13  C   UNL     1     135.848 125.294 131.019  1.00  0.00     0.000 A 
ATOM     14  C   UNL     1     134.851 125.398 130.050  1.00  0.00     0.001 A 
ATOM     15  C   UNL     1     135.844 126.155 132.116  1.00  0.00     0.001 A 
ATOM     16  C   UNL     1     133.846 126.363 130.174  1.00  0.00     0.012 A 
ATOM     17  C   UNL     1     134.843 127.121 132.247  1.00  0.00     0.012 A 
ENDBRANCH   1  12
TORSDOF 1
ENDMDL
MODEL 5
REMARK VINA RESULT:    -6.404      1.529      5.881
REMARK INTER + INTRA:          -7.008
REMARK INTER:                  -6.758
REMARK INTRA:                  -0.250
REMARK UNBOUND:                -0.229
REMARK SMILES O=c1cc(-c2ccccc2)oc2ccccc12
REMARK SMILES IDX 4 1 3 2 2 3 1 4 17 5 16 6 15 7 14 8 13 9 12 10 11 11 5 12
REMARK SMILES IDX 8 13 7 14 9 15 6 16 10 17
REMARK H PARENT
REMARK Flexibility Score: inf
ROOT
ATOM      1  C   UNL     1     126.087 133.884 129.618  1.00  0.00     0.138 A 
ATOM      2  C   UNL     1     125.569 132.914 130.502  1.00  0.00     0.100 A 
ATOM      3  C   UNL     1     126.447 132.116 131.239  1.00  0.00     0.193 A 
ATOM      4  O   UNL     1     125.984 131.248 132.029  1.00  0.00    -0.289 OA
ATOM      5  C   UNL     1     127.830 132.290 131.090  1.00  0.00     0.065 A 
ATOM      6  C   UNL     1     128.767 131.519 131.800  1.00  0.00     0.016 A 
ATOM      7  C   UNL     1     130.137 131.735 131.614  1.00  0.00     0.001 A 
ATOM      8  C   UNL     1     130.578 132.715 130.720  1.00  0.00     0.004 A 
ATOM      9  C   UNL     1     129.653 133.485 130.009  1.00  0.00     0.048 A 
ATOM     10  C   UNL     1     128.281 133.278 130.189  1.00  0.00     0.138 A 
ATOM     11  O   UNL     1     127.410 134.015 129.508  1.00  0.00    -0.456 OA
ENDROOT
BRANCH   1  12
ATOM     12  C   UNL     1     125.218 134.779 128.793  1.00  0.00     0.017 A 
ATOM     13  C   UNL     1     123.515 136.472 127.311  1.00  0.00     0.000 A 
ATOM     14  C   UNL     1     124.693 135.993 126.738  1.00  0.00     0.001 A 
ATOM     15  C   UNL     1     123.180 136.114 128.616  1.00  0.00     0.001 A 
ATOM     16  C   UNL     1     125.540 135.153 127.468  1.00  0.00     0.012 A 
ATOM     17  C   UNL     1     124.021 135.276 129.352  1.00  0.00     0.012 A 
ENDBRANCH   1  12
TORSDOF 1
ENDMDL
MODEL 6
REMARK VINA RESULT:    -6.371      5.948     10.494
REMARK INTER + INTRA:          -6.973
REMARK INTER:                  -6.741
REMARK INTRA:                  -0.232
REMARK UNBOUND:                -0.229
REMARK SMILES O=c1cc(-c2ccccc2)oc2ccccc12
REMARK SMILES IDX 4 1 3 2 2 3 1 4 17 5 16 6 15 7 14 8 13 9 12 10 11 11 5 12
REMARK SMILES IDX 8 13 7 14 9 15 6 16 10 17
REMARK H PARENT
REMARK Flexibility Score: inf
ROOT
ATOM      1  C   UNL     1     131.931 127.540 129.883  1.00  0.00     0.138 A 
ATOM      2  C   UNL     1     132.260 126.721 128.782  1.00  0.00     0.100 A 
ATOM      3  C   UNL     1     133.420 125.945 128.825  1.00  0.00     0.193 A 
ATOM      4  O   UNL     1     133.715 125.213 127.841  1.00  0.00    -0.289 OA
ATOM      5  C   UNL     1     134.242 125.992 129.959  1.00  0.00     0.065 A 
ATOM      6  C   UNL     1     135.423 125.237 130.066  1.00  0.00     0.016 A 
ATOM      7  C   UNL     1     136.206 125.321 131.222  1.00  0.00     0.001 A 
ATOM      8  C   UNL     1     135.818 126.156 132.274  1.00  0.00     0.004 A 
ATOM      9  C   UNL     1     134.645 126.909 132.177  1.00  0.00     0.048 A 
ATOM     10  C   UNL     1     133.854 126.833 131.025  1.00  0.00     0.138 A 
ATOM     11  O   UNL     1     132.741 127.553 130.942  1.00  0.00    -0.456 OA
ENDROOT
BRANCH   1  12
ATOM     12  C   UNL     1     130.708 128.402 129.919  1.00  0.00     0.017 A 
ATOM     13  C   UNL     1     128.436 130.076 129.910  1.00  0.00     0.000 A 
ATOM     14  C   UNL     1     128.568 129.084 130.881  1.00  0.00     0.001 A 
ATOM     15  C   UNL     1     129.428 130.239 128.944  1.00  0.00     0.001 A 
ATOM     16  C   UNL     1     129.692 128.252 130.891  1.00  0.00     0.012 A 
ATOM     17  C   UNL     1     130.554 129.412 128.946  1.00  0.00     0.012 A 
ENDBRANCH   1  12
TORSDOF 1
ENDMDL
MODEL 7
REMARK VINA RESULT:    -6.310      4.087      6.477
REMARK INTER + INTRA:          -6.909
REMARK INTER:                  -6.672
REMARK INTRA:                  -0.236
REMARK UNBOUND:                -0.229
REMARK SMILES O=c1cc(-c2ccccc2)oc2ccccc12
REMARK SMILES IDX 4 1 3 2 2 3 1 4 17 5 16 6 15 7 14 8 13 9 12 10 11 11 5 12
REMARK SMILES IDX 8 13 7 14 9 15 6 16 10 17
REMARK H PARENT
REMARK Flexibility Score: inf
ROOT
ATOM      1  C   UNL     1     131.232 128.744 130.445  1.00  0.00     0.138 A 
ATOM      2  C   UNL     1     129.853 128.478 130.576  1.00  0.00     0.100 A 
ATOM      3  C   UNL     1     128.944 129.539 130.573  1.00  0.00     0.193 A 
ATOM      4  O   UNL     1     127.711 129.302 130.691  1.00  0.00    -0.289 OA
ATOM      5  C   UNL     1     129.416 130.852 130.440  1.00  0.00     0.065 A 
ATOM      6  C   UNL     1     128.556 131.964 130.430  1.00  0.00     0.016 A 
ATOM      7  C   UNL     1     129.080 133.254 130.294  1.00  0.00     0.001 A 
ATOM      8  C   UNL     1     130.460 133.442 130.169  1.00  0.00     0.004 A 
ATOM      9  C   UNL     1     131.322 132.342 130.178  1.00  0.00     0.048 A 
ATOM     10  C   UNL     1     130.808 131.047 130.313  1.00  0.00     0.138 A 
ATOM     11  O   UNL     1     131.636 130.009 130.321  1.00  0.00    -0.456 OA
ENDROOT
BRANCH   1  12
ATOM     12  C   UNL     1     132.270 127.667 130.439  1.00  0.00     0.017 A 
ATOM     13  C   UNL     1     134.181 125.591 130.355  1.00  0.00     0.000 A 
ATOM     14  C   UNL     1     134.313 126.624 131.283  1.00  0.00     0.001 A 
ATOM     15  C   UNL     1     133.104 125.586 129.469  1.00  0.00     0.001 A 
ATOM     16  C   UNL     1     133.368 127.655 131.329  1.00  0.00     0.012 A 
ATOM     17  C   UNL     1     132.157 126.612 129.509  1.00  0.00     0.012 A 
ENDBRANCH   1  12
TORSDOF 1
ENDMDL
MODEL 8
REMARK VINA RESULT:    -6.287      1.383      2.674
REMARK INTER + INTRA:          -6.884
REMARK INTER:                  -6.628
REMARK INTRA:                  -0.255
REMARK UNBOUND:                -0.229
REMARK SMILES O=c1cc(-c2ccccc2)oc2ccccc12
REMARK SMILES IDX 4 1 3 2 2 3 1 4 17 5 16 6 15 7 14 8 13 9 12 10 11 11 5 12
REMARK SMILES IDX 8 13 7 14 9 15 6 16 10 17
REMARK H PARENT
REMARK Flexibility Score: inf
ROOT
ATOM      1  C   UNL     1     127.496 133.910 129.177  1.00  0.00     0.138 A 
ATOM      2  C   UNL     1     127.751 133.946 127.790  1.00  0.00     0.100 A 
ATOM      3  C   UNL     1     126.825 134.548 126.935  1.00  0.00     0.193 A 
ATOM      4  O   UNL     1     127.052 134.580 125.695  1.00  0.00    -0.289 OA
ATOM      5  C   UNL     1     125.655 135.107 127.468  1.00  0.00     0.065 A 
ATOM      6  C   UNL     1     124.682 135.726 126.663  1.00  0.00     0.016 A 
ATOM      7  C   UNL     1     123.532 136.269 127.247  1.00  0.00     0.001 A 
ATOM      8  C   UNL     1     123.346 136.195 128.631  1.00  0.00     0.004 A 
ATOM      9  C   UNL     1     124.308 135.581 129.438  1.00  0.00     0.048 A 
ATOM     10  C   UNL     1     125.462 135.036 128.864  1.00  0.00     0.138 A 
ATOM     11  O   UNL     1     126.370 134.454 129.640  1.00  0.00    -0.456 OA
ENDROOT
BRANCH   1  12
ATOM     12  C   UNL     1     128.434 133.285 130.160  1.00  0.00     0.017 A 
ATOM     13  C   UNL     1     130.279 132.130 131.956  1.00  0.00     0.000 A 
ATOM     14  C   UNL     1     128.915 132.106 132.245  1.00  0.00     0.001 A 
ATOM     15  C   UNL     1     130.730 132.726 130.779  1.00  0.00     0.001 A 
ATOM     16  C   UNL     1     127.996 132.676 131.358  1.00  0.00     0.012 A 
ATOM     17  C   UNL     1     129.819 133.298 129.888  1.00  0.00     0.012 A 
ENDBRANCH   1  12
TORSDOF 1
ENDMDL
MODEL 9
REMARK VINA RESULT:    -6.210      6.308     10.083
REMARK INTER + INTRA:          -6.802
REMARK INTER:                  -6.556
REMARK INTRA:                  -0.246
REMARK UNBOUND:                -0.229
REMARK SMILES O=c1cc(-c2ccccc2)oc2ccccc12
REMARK SMILES IDX 4 1 3 2 2 3 1 4 17 5 16 6 15 7 14 8 13 9 12 10 11 11 5 12
REMARK SMILES IDX 8 13 7 14 9 15 6 16 10 17
REMARK H PARENT
REMARK Flexibility Score: inf
ROOT
ATOM      1  C   UNL     1     131.875 128.350 131.088  1.00  0.00     0.138 A 
ATOM      2  C   UNL     1     131.755 127.792 129.797  1.00  0.00     0.100 A 
ATOM      3  C   UNL     1     132.706 126.868 129.356  1.00  0.00     0.193 A 
ATOM      4  O   UNL     1     132.600 126.371 128.202  1.00  0.00    -0.289 OA
ATOM      5  C   UNL     1     133.764 126.509 130.201  1.00  0.00     0.065 A 
ATOM      6  C   UNL     1     134.755 125.587 129.818  1.00  0.00     0.016 A 
ATOM      7  C   UNL     1     135.790 125.263 130.702  1.00  0.00     0.001 A 
ATOM      8  C   UNL     1     135.844 125.857 131.967  1.00  0.00     0.004 A 
ATOM      9  C   UNL     1     134.865 126.775 132.355  1.00  0.00     0.048 A 
ATOM     10  C   UNL     1     133.824 127.105 131.479  1.00  0.00     0.138 A 
ATOM     11  O   UNL     1     132.899 127.979 131.858  1.00  0.00    -0.456 OA
ENDROOT
BRANCH   1  12
ATOM     12  C   UNL     1     130.902 129.345 131.637  1.00  0.00     0.017 A 
ATOM     13  C   UNL     1     129.143 131.274 132.709  1.00  0.00     0.000 A 
ATOM     14  C   UNL     1     128.635 130.159 132.043  1.00  0.00     0.001 A 
ATOM     15  C   UNL     1     130.521 131.434 132.845  1.00  0.00     0.001 A 
ATOM     16  C   UNL     1     129.502 129.200 131.510  1.00  0.00     0.012 A 
ATOM     17  C   UNL     1     131.395 130.480 132.315  1.00  0.00     0.012 A 
ENDBRANCH   1  12
TORSDOF 1
ENDMDL
