MODEL 1
REMARK VINA RESULT:    -4.852      0.000      0.000
REMARK INTER + INTRA:          -6.162
REMARK INTER:                  -6.838
REMARK INTRA:                   0.676
REMARK UNBOUND:                 0.676
REMARK SMILES CC1=CCC(=C(C)C)C(=O)CC(C)=CCC1
REMARK SMILES IDX 12 1 14 2 13 3 15 4 16 5 2 6 1 7 3 8 11 10 9 11 10 12 5 13
REMARK SMILES IDX 6 14 7 15 8 16 4 17
REMARK H PARENT
REMARK Flexibility Score: 60.00
ROOT
ATOM      1  C   UNL     1      17.171 -31.060  21.741  1.00  0.00    -0.070 C 
ATOM      2  C   UNL     1      17.765 -31.499  20.609  1.00  0.00    -0.027 C 
ATOM      3  C   UNL     1      16.603 -29.663  21.742  1.00  0.00     0.039 C 
ENDROOT
BRANCH   2   4
ATOM      4  C   UNL     1      18.306 -32.894  20.379  1.00  0.00     0.032 C 
BRANCH   4   5
ATOM      5  C   UNL     1      17.480 -33.754  19.399  1.00  0.00     0.034 C 
BRANCH   5   6
ATOM      6  C   UNL     1      16.567 -34.745  20.097  1.00  0.00    -0.077 C 
ATOM      7  C   UNL     1      17.065 -36.157  20.270  1.00  0.00     0.039 C 
ATOM      8  C   UNL     1      15.364 -34.426  20.637  1.00  0.00    -0.023 CG0
ATOM      9  G   UNL     1      14.658 -33.085  20.569  1.00  0.00     0.000 G0
ENDBRANCH   5   6
ENDBRANCH   4   5
ENDBRANCH   2   4
BRANCH   1  10
ATOM     10  C   UNL     1      16.968 -31.930  22.964  1.00  0.00     0.111 C 
BRANCH  10  11
ATOM     11  C   UNL     1      15.678 -32.705  22.887  1.00  0.00     0.163 C 
ATOM     12  O   UNL     1      15.490 -33.628  23.726  1.00  0.00    -0.294 OA
BRANCH  11  13
ATOM     13  C   UNL     1      14.604 -32.378  21.903  1.00  0.00    -0.002 C 
ATOM     14  C   UNL     1      13.668 -31.421  22.184  1.00  0.00    -0.069 C 
ATOM     15  C   UNL     1      12.665 -30.955  21.152  1.00  0.00     0.039 C 
ATOM     16  C   UNL     1      13.591 -30.776  23.551  1.00  0.00     0.039 C 
BRANCH  13  17
ATOM     17  C   UNL     1      14.656 -33.081  20.557  1.00  0.00     0.066 CG0
ATOM     18  G   UNL     1      15.374 -34.414  20.630  1.00  0.00     0.000 G0
ENDBRANCH  13  17
ENDBRANCH  11  13
ENDBRANCH  10  11
ENDBRANCH   1  10
TORSDOF 0
ENDMDL
MODEL 2
REMARK VINA RESULT:    -4.757      1.562      4.056
REMARK INTER + INTRA:          -6.027
REMARK INTER:                  -6.148
REMARK INTRA:                   0.121
REMARK UNBOUND:                 0.676
REMARK SMILES CC1=CCC(=C(C)C)C(=O)CC(C)=CCC1
REMARK SMILES IDX 12 1 14 2 13 3 15 4 16 5 2 6 1 7 3 8 11 10 9 11 10 12 5 13
REMARK SMILES IDX 6 14 7 15 8 16 4 17
REMARK H PARENT
REMARK Flexibility Score: 60.00
ROOT
ATOM      1  C   UNL     1      18.276 -30.116  21.169  1.00  0.00    -0.070 C 
ATOM      2  C   UNL     1      17.288 -29.367  21.706  1.00  0.00    -0.027 C 
ATOM      3  C   UNL     1      19.700 -29.756  21.513  1.00  0.00     0.039 C 
ENDROOT
BRANCH   2   4
ATOM      4  C   UNL     1      15.804 -29.627  21.560  1.00  0.00     0.032 C 
BRANCH   4   5
ATOM      5  C   UNL     1      15.205 -30.571  22.625  1.00  0.00     0.034 C 
BRANCH   5   6
ATOM      6  C   UNL     1      14.278 -31.620  22.040  1.00  0.00    -0.077 C 
ATOM      7  C   UNL     1      12.909 -31.174  21.591  1.00  0.00     0.039 C 
ATOM      8  C   UNL     1      14.623 -32.914  21.831  1.00  0.00    -0.023 CG0
ATOM      9  G   UNL     1      15.927 -33.586  22.216  1.00  0.00     0.000 G0
ENDBRANCH   5   6
ENDBRANCH   4   5
ENDBRANCH   2   4
BRANCH   1  10
ATOM     10  C   UNL     1      18.021 -31.345  20.321  1.00  0.00     0.111 C 
BRANCH  10  11
ATOM     11  C   UNL     1      18.039 -32.604  21.147  1.00  0.00     0.163 C 
ATOM     12  O   UNL     1      18.993 -32.769  21.956  1.00  0.00    -0.294 OA
BRANCH  11  13
ATOM     13  C   UNL     1      16.945 -33.619  21.087  1.00  0.00    -0.002 C 
ATOM     14  C   UNL     1      16.920 -34.560  20.095  1.00  0.00    -0.069 C 
ATOM     15  C   UNL     1      15.920 -35.694  20.094  1.00  0.00     0.039 C 
ATOM     16  C   UNL     1      17.901 -34.513  18.944  1.00  0.00     0.039 C 
BRANCH  13  17
ATOM     17  C   UNL     1      15.929 -33.614  22.217  1.00  0.00     0.066 CG0
ATOM     18  G   UNL     1      14.644 -32.907  21.833  1.00  0.00     0.000 G0
ENDBRANCH  13  17
ENDBRANCH  11  13
ENDBRANCH  10  11
ENDBRANCH   1  10
TORSDOF 0
ENDMDL
MODEL 3
REMARK VINA RESULT:    -4.702      2.173      4.892
REMARK INTER + INTRA:          -5.950
REMARK INTER:                  -6.117
REMARK INTRA:                   0.167
REMARK UNBOUND:                 0.676
REMARK SMILES CC1=CCC(=C(C)C)C(=O)CC(C)=CCC1
REMARK SMILES IDX 12 1 14 2 13 3 15 4 16 5 2 6 1 7 3 8 11 10 9 11 10 12 5 13
REMARK SMILES IDX 6 14 7 15 8 16 4 17
REMARK H PARENT
REMARK Flexibility Score: 60.00
ROOT
ATOM      1  C   UNL     1      15.167 -33.839  20.944  1.00  0.00    -0.070 C 
ATOM      2  C   UNL     1      14.255 -32.943  20.505  1.00  0.00    -0.027 C 
ATOM      3  C   UNL     1      15.680 -34.860  19.960  1.00  0.00     0.039 C 
ENDROOT
BRANCH   2   4
ATOM      4  C   UNL     1      13.695 -31.788  21.308  1.00  0.00     0.032 C 
BRANCH   4   5
ATOM      5  C   UNL     1      14.477 -30.465  21.169  1.00  0.00     0.034 C 
BRANCH   5   6
ATOM      6  C   UNL     1      14.807 -29.822  22.504  1.00  0.00    -0.077 C 
ATOM      7  C   UNL     1      13.709 -29.069  23.210  1.00  0.00     0.039 C 
ATOM      8  C   UNL     1      16.002 -29.941  23.134  1.00  0.00    -0.023 CG0
ATOM      9  G   UNL     1      17.248 -30.629  22.610  1.00  0.00     0.000 G0
ENDBRANCH   5   6
ENDBRANCH   4   5
ENDBRANCH   2   4
BRANCH   1  10
ATOM     10  C   UNL     1      15.759 -33.808  22.337  1.00  0.00     0.111 C 
BRANCH  10  11
ATOM     11  C   UNL     1      17.132 -33.186  22.343  1.00  0.00     0.163 C 
ATOM     12  O   UNL     1      17.998 -33.653  21.554  1.00  0.00    -0.294 OA
BRANCH  11  13
ATOM     13  C   UNL     1      17.475 -32.009  23.195  1.00  0.00    -0.002 C 
ATOM     14  C   UNL     1      18.041 -32.181  24.428  1.00  0.00    -0.069 C 
ATOM     15  C   UNL     1      18.544 -31.013  25.247  1.00  0.00     0.039 C 
ATOM     16  C   UNL     1      18.197 -33.559  25.035  1.00  0.00     0.039 C 
BRANCH  13  17
ATOM     17  C   UNL     1      17.254 -30.630  22.597  1.00  0.00     0.066 CG0
ATOM     18  G   UNL     1      16.006 -29.960  23.139  1.00  0.00     0.000 G0
ENDBRANCH  13  17
ENDBRANCH  11  13
ENDBRANCH  10  11
ENDBRANCH   1  10
TORSDOF 0
ENDMDL
MODEL 4
REMARK VINA RESULT:    -4.632      1.518      4.082
REMARK INTER + INTRA:          -5.851
REMARK INTER:                  -6.086
REMARK INTRA:                   0.235
REMARK UNBOUND:                 0.676
REMARK SMILES CC1=CCC(=C(C)C)C(=O)CC(C)=CCC1
REMARK SMILES IDX 12 1 14 2 13 3 15 4 16 5 2 6 1 7 3 8 11 10 9 11 10 12 5 13
REMARK SMILES IDX 6 14 7 15 8 16 4 17
REMARK H PARENT
REMARK Flexibility Score: 60.00
ROOT
ATOM      1  C   UNL     1      16.743 -29.931  22.212  1.00  0.00    -0.070 C 
ATOM      2  C   UNL     1      15.616 -29.245  21.917  1.00  0.00    -0.027 C 
ATOM      3  C   UNL     1      17.820 -30.003  21.158  1.00  0.00     0.039 C 
ENDROOT
BRANCH   2   4
ATOM      4  C   UNL     1      14.470 -28.979  22.869  1.00  0.00     0.032 C 
BRANCH   4   5
ATOM      5  C   UNL     1      13.798 -30.244  23.443  1.00  0.00     0.034 C 
BRANCH   5   6
ATOM      6  C   UNL     1      13.415 -31.253  22.377  1.00  0.00    -0.077 C 
ATOM      7  C   UNL     1      12.394 -30.834  21.349  1.00  0.00     0.039 C 
ATOM      8  C   UNL     1      13.980 -32.479  22.247  1.00  0.00    -0.023 CG0
ATOM      9  G   UNL     1      15.004 -33.116  23.166  1.00  0.00     0.000 G0
ENDBRANCH   5   6
ENDBRANCH   4   5
ENDBRANCH   2   4
BRANCH   1  10
ATOM     10  C   UNL     1      17.010 -30.547  23.569  1.00  0.00     0.111 C 
BRANCH  10  11
ATOM     11  C   UNL     1      17.301 -32.021  23.463  1.00  0.00     0.163 C 
ATOM     12  O   UNL     1      18.294 -32.477  24.093  1.00  0.00    -0.294 OA
BRANCH  11  13
ATOM     13  C   UNL     1      16.425 -32.958  22.699  1.00  0.00    -0.002 C 
ATOM     14  C   UNL     1      16.928 -33.699  21.666  1.00  0.00    -0.069 C 
ATOM     15  C   UNL     1      16.111 -34.769  20.976  1.00  0.00     0.039 C 
ATOM     16  C   UNL     1      18.339 -33.485  21.161  1.00  0.00     0.039 C 
BRANCH  13  17
ATOM     17  C   UNL     1      14.991 -33.116  23.178  1.00  0.00     0.066 CG0
ATOM     18  G   UNL     1      13.994 -32.476  22.231  1.00  0.00     0.000 G0
ENDBRANCH  13  17
ENDBRANCH  11  13
ENDBRANCH  10  11
ENDBRANCH   1  10
TORSDOF 0
ENDMDL
MODEL 5
REMARK VINA RESULT:    -4.607      2.190      3.856
REMARK INTER + INTRA:          -5.816
REMARK INTER:                  -6.161
REMARK INTRA:                   0.345
REMARK UNBOUND:                 0.676
REMARK SMILES CC1=CCC(=C(C)C)C(=O)CC(C)=CCC1
REMARK SMILES IDX 12 1 14 2 13 3 15 4 16 5 2 6 1 7 3 8 11 10 9 11 10 12 5 13
REMARK SMILES IDX 6 14 7 15 8 16 4 17
REMARK H PARENT
REMARK Flexibility Score: 60.00
ROOT
ATOM      1  C   UNL     1      14.585 -33.038  21.064  1.00  0.00    -0.070 C 
ATOM      2  C   UNL     1      14.772 -33.770  19.943  1.00  0.00    -0.027 C 
ATOM      3  C   UNL     1      13.793 -31.760  20.947  1.00  0.00     0.039 C 
ENDROOT
BRANCH   2   4
ATOM      4  C   UNL     1      15.450 -35.121  19.873  1.00  0.00     0.032 C 
BRANCH   4   5
ATOM      5  C   UNL     1      16.931 -35.079  19.440  1.00  0.00     0.034 C 
BRANCH   5   6
ATOM      6  C   UNL     1      17.834 -35.926  20.318  1.00  0.00    -0.077 C 
ATOM      7  C   UNL     1      17.983 -37.386  19.970  1.00  0.00     0.039 C 
ATOM      8  C   UNL     1      18.569 -35.442  21.350  1.00  0.00    -0.023 CG0
ATOM      9  G   UNL     1      18.566 -34.024  21.889  1.00  0.00     0.000 G0
ENDBRANCH   5   6
ENDBRANCH   4   5
ENDBRANCH   2   4
BRANCH   1  10
ATOM     10  C   UNL     1      15.051 -33.483  22.435  1.00  0.00     0.111 C 
BRANCH  10  11
ATOM     11  C   UNL     1      16.411 -32.929  22.766  1.00  0.00     0.163 C 
ATOM     12  O   UNL     1      16.533 -31.678  22.871  1.00  0.00    -0.294 OA
BRANCH  11  13
ATOM     13  C   UNL     1      17.590 -33.805  23.035  1.00  0.00    -0.002 C 
ATOM     14  C   UNL     1      17.721 -34.451  24.232  1.00  0.00    -0.069 C 
ATOM     15  C   UNL     1      18.817 -35.465  24.478  1.00  0.00     0.039 C 
ATOM     16  C   UNL     1      16.769 -34.184  25.377  1.00  0.00     0.039 C 
BRANCH  13  17
ATOM     17  C   UNL     1      18.574 -34.015  21.896  1.00  0.00     0.066 CG0
ATOM     18  G   UNL     1      18.536 -35.431  21.355  1.00  0.00     0.000 G0
ENDBRANCH  13  17
ENDBRANCH  11  13
ENDBRANCH  10  11
ENDBRANCH   1  10
TORSDOF 0
ENDMDL
MODEL 6
REMARK VINA RESULT:    -4.533      1.376      1.845
REMARK INTER + INTRA:          -5.712
REMARK INTER:                  -6.468
REMARK INTRA:                   0.755
REMARK UNBOUND:                 0.676
REMARK SMILES CC1=CCC(=C(C)C)C(=O)CC(C)=CCC1
REMARK SMILES IDX 12 1 14 2 13 3 15 4 16 5 2 6 1 7 3 8 11 10 9 11 10 12 5 13
REMARK SMILES IDX 6 14 7 15 8 16 4 17
REMARK H PARENT
REMARK Flexibility Score: 60.00
ROOT
ATOM      1  C   UNL     1      18.443 -31.845  20.783  1.00  0.00    -0.070 C 
ATOM      2  C   UNL     1      18.411 -32.952  20.008  1.00  0.00    -0.027 C 
ATOM      3  C   UNL     1      19.724 -31.535  21.516  1.00  0.00     0.039 C 
ENDROOT
BRANCH   2   4
ATOM      4  C   UNL     1      17.259 -33.377  19.123  1.00  0.00     0.032 C 
BRANCH   4   5
ATOM      5  C   UNL     1      16.402 -34.530  19.686  1.00  0.00     0.034 C 
BRANCH   5   6
ATOM      6  C   UNL     1      16.452 -34.628  21.199  1.00  0.00    -0.077 C 
ATOM      7  C   UNL     1      17.473 -35.556  21.808  1.00  0.00     0.039 C 
ATOM      8  C   UNL     1      15.689 -33.886  22.039  1.00  0.00    -0.023 CG0
ATOM      9  G   UNL     1      14.592 -32.911  21.657  1.00  0.00     0.000 G0
ENDBRANCH   5   6
ENDBRANCH   4   5
ENDBRANCH   2   4
BRANCH   1  10
ATOM     10  C   UNL     1      17.295 -30.862  20.875  1.00  0.00     0.111 C 
BRANCH  10  11
ATOM     11  C   UNL     1      16.411 -31.149  22.061  1.00  0.00     0.163 C 
ATOM     12  O   UNL     1      16.917 -31.060  23.213  1.00  0.00    -0.294 OA
BRANCH  11  13
ATOM     13  C   UNL     1      14.960 -31.470  21.920  1.00  0.00    -0.002 C 
ATOM     14  C   UNL     1      14.020 -30.477  21.936  1.00  0.00    -0.069 C 
ATOM     15  C   UNL     1      12.562 -30.750  21.639  1.00  0.00     0.039 C 
ATOM     16  C   UNL     1      14.397 -29.045  22.250  1.00  0.00     0.039 C 
BRANCH  13  17
ATOM     17  C   UNL     1      14.590 -32.923  21.668  1.00  0.00     0.066 CG0
ATOM     18  G   UNL     1      15.709 -33.876  22.042  1.00  0.00     0.000 G0
ENDBRANCH  13  17
ENDBRANCH  11  13
ENDBRANCH  10  11
ENDBRANCH   1  10
TORSDOF 0
ENDMDL
MODEL 7
REMARK VINA RESULT:    -4.496      2.069      3.742
REMARK INTER + INTRA:          -5.659
REMARK INTER:                  -6.161
REMARK INTRA:                   0.501
REMARK UNBOUND:                 0.676
REMARK SMILES CC1=CCC(=C(C)C)C(=O)CC(C)=CCC1
REMARK SMILES IDX 12 1 14 2 13 3 15 4 16 5 2 6 1 7 3 8 11 10 9 11 10 12 5 13
REMARK SMILES IDX 6 14 7 15 8 16 4 17
REMARK H PARENT
REMARK Flexibility Score: 60.00
ROOT
ATOM      1  C   UNL     1      16.234 -34.414  21.240  1.00  0.00    -0.070 C 
ATOM      2  C   UNL     1      17.561 -34.470  21.493  1.00  0.00    -0.027 C 
ATOM      3  C   UNL     1      15.697 -35.254  20.108  1.00  0.00     0.039 C 
ENDROOT
BRANCH   2   4
ATOM      4  C   UNL     1      18.271 -33.782  22.639  1.00  0.00     0.032 C 
BRANCH   4   5
ATOM      5  C   UNL     1      18.657 -32.312  22.371  1.00  0.00     0.034 C 
BRANCH   5   6
ATOM      6  C   UNL     1      17.984 -31.336  23.318  1.00  0.00    -0.077 C 
ATOM      7  C   UNL     1      18.540 -31.217  24.715  1.00  0.00     0.039 C 
ATOM      8  C   UNL     1      16.964 -30.514  22.969  1.00  0.00    -0.023 CG0
ATOM      9  G   UNL     1      16.238 -30.471  21.638  1.00  0.00     0.000 G0
ENDBRANCH   5   6
ENDBRANCH   4   5
ENDBRANCH   2   4
BRANCH   1  10
ATOM     10  C   UNL     1      15.259 -33.627  22.090  1.00  0.00     0.111 C 
BRANCH  10  11
ATOM     11  C   UNL     1      14.644 -32.488  21.319  1.00  0.00     0.163 C 
ATOM     12  O   UNL     1      13.910 -32.768  20.331  1.00  0.00    -0.294 OA
BRANCH  11  13
ATOM     13  C   UNL     1      14.821 -31.061  21.719  1.00  0.00    -0.002 C 
ATOM     14  C   UNL     1      13.772 -30.341  22.221  1.00  0.00    -0.069 C 
ATOM     15  C   UNL     1      13.953 -28.948  22.782  1.00  0.00     0.039 C 
ATOM     16  C   UNL     1      12.370 -30.909  22.242  1.00  0.00     0.039 C 
BRANCH  13  17
ATOM     17  C   UNL     1      16.224 -30.483  21.633  1.00  0.00     0.066 CG0
ATOM     18  G   UNL     1      16.940 -30.507  22.970  1.00  0.00     0.000 G0
ENDBRANCH  13  17
ENDBRANCH  11  13
ENDBRANCH  10  11
ENDBRANCH   1  10
TORSDOF 0
ENDMDL
MODEL 8
REMARK VINA RESULT:    -4.492      1.673      3.163
REMARK INTER + INTRA:          -5.653
REMARK INTER:                  -6.181
REMARK INTRA:                   0.528
REMARK UNBOUND:                 0.676
REMARK SMILES CC1=CCC(=C(C)C)C(=O)CC(C)=CCC1
REMARK SMILES IDX 12 1 14 2 13 3 15 4 16 5 2 6 1 7 3 8 11 10 9 11 10 12 5 13
REMARK SMILES IDX 6 14 7 15 8 16 4 17
REMARK H PARENT
REMARK Flexibility Score: 60.00
ROOT
ATOM      1  C   UNL     1      14.694 -33.075  21.270  1.00  0.00    -0.070 C 
ATOM      2  C   UNL     1      14.755 -33.923  20.219  1.00  0.00    -0.027 C 
ATOM      3  C   UNL     1      13.970 -31.766  21.077  1.00  0.00     0.039 C 
ENDROOT
BRANCH   2   4
ATOM      4  C   UNL     1      15.349 -35.314  20.241  1.00  0.00     0.032 C 
BRANCH   4   5
ATOM      5  C   UNL     1      16.721 -35.444  19.545  1.00  0.00     0.034 C 
BRANCH   5   6
ATOM      6  C   UNL     1      17.886 -35.456  20.518  1.00  0.00    -0.077 C 
ATOM      7  C   UNL     1      18.409 -36.796  20.969  1.00  0.00     0.039 C 
ATOM      8  C   UNL     1      18.530 -34.345  20.951  1.00  0.00    -0.023 CG0
ATOM      9  G   UNL     1      18.172 -32.903  20.648  1.00  0.00     0.000 G0
ENDBRANCH   5   6
ENDBRANCH   4   5
ENDBRANCH   2   4
BRANCH   1  10
ATOM     10  C   UNL     1      15.234 -33.413  22.644  1.00  0.00     0.111 C 
BRANCH  10  11
ATOM     11  C   UNL     1      16.704 -33.102  22.755  1.00  0.00     0.163 C 
ATOM     12  O   UNL     1      17.361 -33.661  23.675  1.00  0.00    -0.294 OA
BRANCH  11  13
ATOM     13  C   UNL     1      17.412 -32.216  21.784  1.00  0.00    -0.002 C 
ATOM     14  C   UNL     1      17.433 -30.860  21.963  1.00  0.00    -0.069 C 
ATOM     15  C   UNL     1      18.269 -29.951  21.090  1.00  0.00     0.039 C 
ATOM     16  C   UNL     1      16.618 -30.200  23.054  1.00  0.00     0.039 C 
BRANCH  13  17
ATOM     17  C   UNL     1      18.175 -32.889  20.655  1.00  0.00     0.066 CG0
ATOM     18  G   UNL     1      18.510 -34.335  20.969  1.00  0.00     0.000 G0
ENDBRANCH  13  17
ENDBRANCH  11  13
ENDBRANCH  10  11
ENDBRANCH   1  10
TORSDOF 0
ENDMDL
MODEL 9
REMARK VINA RESULT:    -4.478      1.836      4.028
REMARK INTER + INTRA:          -5.634
REMARK INTER:                  -5.924
REMARK INTRA:                   0.289
REMARK UNBOUND:                 0.676
REMARK SMILES CC1=CCC(=C(C)C)C(=O)CC(C)=CCC1
REMARK SMILES IDX 12 1 14 2 13 3 15 4 16 5 2 6 1 7 3 8 11 10 9 11 10 12 5 13
REMARK SMILES IDX 6 14 7 15 8 16 4 17
REMARK H PARENT
REMARK Flexibility Score: 60.00
ROOT
ATOM      1  C   UNL     1      13.597 -29.455  22.251  1.00  0.00    -0.070 C 
ATOM      2  C   UNL     1      12.886 -30.573  21.985  1.00  0.00    -0.027 C 
ATOM      3  C   UNL     1      13.014 -28.467  23.232  1.00  0.00     0.039 C 
ENDROOT
BRANCH   2   4
ATOM      4  C   UNL     1      13.342 -31.721  21.110  1.00  0.00     0.032 C 
BRANCH   4   5
ATOM      5  C   UNL     1      14.214 -32.773  21.826  1.00  0.00     0.034 C 
BRANCH   5   6
ATOM      6  C   UNL     1      15.353 -33.290  20.967  1.00  0.00    -0.077 C 
ATOM      7  C   UNL     1      15.004 -34.177  19.798  1.00  0.00     0.039 C 
ATOM      8  C   UNL     1      16.655 -32.951  21.139  1.00  0.00    -0.023 CG0
ATOM      9  G   UNL     1      17.238 -32.096  22.248  1.00  0.00     0.000 G0
ENDBRANCH   5   6
ENDBRANCH   4   5
ENDBRANCH   2   4
BRANCH   1  10
ATOM     10  C   UNL     1      14.978 -29.193  21.688  1.00  0.00     0.111 C 
BRANCH  10  11
ATOM     11  C   UNL     1      16.051 -29.835  22.529  1.00  0.00     0.163 C 
ATOM     12  O   UNL     1      15.949 -29.756  23.783  1.00  0.00    -0.294 OA
BRANCH  11  13
ATOM     13  C   UNL     1      17.182 -30.607  21.933  1.00  0.00    -0.002 C 
ATOM     14  C   UNL     1      18.154 -29.974  21.209  1.00  0.00    -0.069 C 
ATOM     15  C   UNL     1      19.391 -30.698  20.726  1.00  0.00     0.039 C 
ATOM     16  C   UNL     1      18.039 -28.507  20.854  1.00  0.00     0.039 C 
BRANCH  13  17
ATOM     17  C   UNL     1      17.250 -32.093  22.244  1.00  0.00     0.066 CG0
ATOM     18  G   UNL     1      16.656 -32.942  21.137  1.00  0.00     0.000 G0
ENDBRANCH  13  17
ENDBRANCH  11  13
ENDBRANCH  10  11
ENDBRANCH   1  10
TORSDOF 0
ENDMDL
