MODEL 1
REMARK VINA RESULT:    -3.716      0.000      0.000
REMARK INTER + INTRA:          -4.478
REMARK INTER:                  -4.476
REMARK INTRA:                  -0.003
REMARK UNBOUND:                -0.003
REMARK SMILES OCC(O)CO
REMARK SMILES IDX 3 1 5 2 6 3 2 5 1 6 4 8
REMARK H PARENT 6 4 1 7 4 9
REMARK Flexibility Score: inf
ROOT
ATOM      1  C   UNL     1      40.641 -23.642   6.340  1.00  0.00     0.165 C 
ENDROOT
BRANCH   1   2
ATOM      2  C   UNL     1      41.112 -24.690   7.353  1.00  0.00     0.190 C 
BRANCH   2   3
ATOM      3  O   UNL     1      41.862 -24.080   8.367  1.00  0.00    -0.394 OA
ATOM      4  H   UNL     1      41.441 -24.353   9.224  1.00  0.00     0.210 HD
ENDBRANCH   2   3
ENDBRANCH   1   2
BRANCH   1   5
ATOM      5  C   UNL     1      39.875 -24.299   5.179  1.00  0.00     0.190 C 
BRANCH   5   6
ATOM      6  O   UNL     1      40.770 -24.773   4.207  1.00  0.00    -0.394 OA
ATOM      7  H   UNL     1      40.294 -25.483   3.702  1.00  0.00     0.210 HD
ENDBRANCH   5   6
ENDBRANCH   1   5
BRANCH   1   8
ATOM      8  O   UNL     1      41.763 -22.959   5.844  1.00  0.00    -0.388 OA
ATOM      9  H   UNL     1      42.537 -23.225   6.406  1.00  0.00     0.211 HD
ENDBRANCH   1   8
TORSDOF 5
ENDMDL
MODEL 2
REMARK VINA RESULT:    -3.655      1.389      2.173
REMARK INTER + INTRA:          -4.405
REMARK INTER:                  -4.240
REMARK INTRA:                  -0.165
REMARK UNBOUND:                -0.003
REMARK SMILES OCC(O)CO
REMARK SMILES IDX 3 1 5 2 6 3 2 5 1 6 4 8
REMARK H PARENT 6 4 1 7 4 9
REMARK Flexibility Score: inf
ROOT
ATOM      1  C   UNL     1      41.014 -24.715   7.299  1.00  0.00     0.165 C 
ENDROOT
BRANCH   1   2
ATOM      2  C   UNL     1      42.171 -24.074   8.073  1.00  0.00     0.190 C 
BRANCH   2   3
ATOM      3  O   UNL     1      43.382 -24.690   7.731  1.00  0.00    -0.394 OA
ATOM      4  H   UNL     1      43.229 -25.667   7.821  1.00  0.00     0.210 HD
ENDBRANCH   2   3
ENDBRANCH   1   2
BRANCH   1   5
ATOM      5  C   UNL     1      40.558 -23.814   6.139  1.00  0.00     0.190 C 
BRANCH   5   6
ATOM      6  O   UNL     1      41.563 -22.892   5.810  1.00  0.00    -0.394 OA
ATOM      7  H   UNL     1      42.026 -23.246   5.007  1.00  0.00     0.210 HD
ENDBRANCH   5   6
ENDBRANCH   1   5
BRANCH   1   8
ATOM      8  O   UNL     1      39.945 -24.930   8.184  1.00  0.00    -0.388 OA
ATOM      9  H   UNL     1      39.901 -24.140   8.784  1.00  0.00     0.211 HD
ENDBRANCH   1   8
TORSDOF 5
ENDMDL
MODEL 3
REMARK VINA RESULT:    -3.476      0.478      3.043
REMARK INTER + INTRA:          -4.190
REMARK INTER:                  -4.187
REMARK INTRA:                  -0.003
REMARK UNBOUND:                -0.003
REMARK SMILES OCC(O)CO
REMARK SMILES IDX 3 1 5 2 6 3 2 5 1 6 4 8
REMARK H PARENT 6 4 1 7 4 9
REMARK Flexibility Score: inf
ROOT
ATOM      1  C   UNL     1      41.083 -24.254   6.018  1.00  0.00     0.165 C 
ENDROOT
BRANCH   1   2
ATOM      2  C   UNL     1      39.878 -24.366   5.078  1.00  0.00     0.190 C 
BRANCH   2   3
ATOM      3  O   UNL     1      40.290 -24.810   3.814  1.00  0.00    -0.394 OA
ATOM      4  H   UNL     1      40.405 -23.995   3.259  1.00  0.00     0.210 HD
ENDBRANCH   2   3
ENDBRANCH   1   2
BRANCH   1   5
ATOM      5  C   UNL     1      40.674 -24.525   7.476  1.00  0.00     0.190 C 
BRANCH   5   6
ATOM      6  O   UNL     1      41.733 -24.227   8.346  1.00  0.00    -0.394 OA
ATOM      7  H   UNL     1      41.463 -24.548   9.246  1.00  0.00     0.210 HD
ENDBRANCH   5   6
ENDBRANCH   1   5
BRANCH   1   8
ATOM      8  O   UNL     1      41.622 -22.963   5.906  1.00  0.00    -0.388 OA
ATOM      9  H   UNL     1      40.980 -22.425   5.373  1.00  0.00     0.211 HD
ENDBRANCH   1   8
TORSDOF 5
ENDMDL
MODEL 4
REMARK VINA RESULT:    -3.277      1.614      2.627
REMARK INTER + INTRA:          -3.951
REMARK INTER:                  -3.923
REMARK INTRA:                  -0.027
REMARK UNBOUND:                -0.003
REMARK SMILES OCC(O)CO
REMARK SMILES IDX 3 1 5 2 6 3 2 5 1 6 4 8
REMARK H PARENT 6 4 1 7 4 9
REMARK Flexibility Score: inf
ROOT
ATOM      1  C   UNL     1      41.500 -24.149   6.630  1.00  0.00     0.165 C 
ENDROOT
BRANCH   1   2
ATOM      2  C   UNL     1      40.037 -24.503   6.918  1.00  0.00     0.190 C 
BRANCH   2   3
ATOM      3  O   UNL     1      39.901 -24.965   8.234  1.00  0.00    -0.394 OA
ATOM      4  H   UNL     1      40.753 -24.743   8.693  1.00  0.00     0.210 HD
ENDBRANCH   2   3
ENDBRANCH   1   2
BRANCH   1   5
ATOM      5  C   UNL     1      42.307 -24.028   7.933  1.00  0.00     0.190 C 
BRANCH   5   6
ATOM      6  O   UNL     1      43.540 -24.686   7.811  1.00  0.00    -0.394 OA
ATOM      7  H   UNL     1      44.147 -24.070   7.323  1.00  0.00     0.210 HD
ENDBRANCH   5   6
ENDBRANCH   1   5
BRANCH   1   8
ATOM      8  O   UNL     1      41.539 -22.933   5.930  1.00  0.00    -0.388 OA
ATOM      9  H   UNL     1      41.817 -22.233   6.578  1.00  0.00     0.211 HD
ENDBRANCH   1   8
TORSDOF 5
ENDMDL
MODEL 5
REMARK VINA RESULT:    -2.864     24.440     25.186
REMARK INTER + INTRA:          -3.452
REMARK INTER:                  -3.251
REMARK INTRA:                  -0.201
REMARK UNBOUND:                -0.003
REMARK SMILES OCC(O)CO
REMARK SMILES IDX 3 1 5 2 6 3 2 5 1 6 4 8
REMARK H PARENT 6 4 1 7 4 9
REMARK Flexibility Score: inf
ROOT
ATOM      1  C   UNL     1      59.863  -8.658  14.337  1.00  0.00     0.165 C 
ENDROOT
BRANCH   1   2
ATOM      2  C   UNL     1      59.578 -10.136  14.052  1.00  0.00     0.190 C 
BRANCH   2   3
ATOM      3  O   UNL     1      58.259 -10.298  13.608  1.00  0.00    -0.394 OA
ATOM      4  H   UNL     1      58.306 -10.891  12.813  1.00  0.00     0.210 HD
ENDBRANCH   2   3
ENDBRANCH   1   2
BRANCH   1   5
ATOM      5  C   UNL     1      59.687  -8.339  15.831  1.00  0.00     0.190 C 
BRANCH   5   6
ATOM      6  O   UNL     1      58.985  -9.369  16.473  1.00  0.00    -0.394 OA
ATOM      7  H   UNL     1      58.941 -10.128  15.835  1.00  0.00     0.210 HD
ENDBRANCH   5   6
ENDBRANCH   1   5
BRANCH   1   8
ATOM      8  O   UNL     1      58.981  -7.875  13.575  1.00  0.00    -0.388 OA
ATOM      9  H   UNL     1      58.661  -8.443  12.826  1.00  0.00     0.211 HD
ENDBRANCH   1   8
TORSDOF 5
ENDMDL
MODEL 6
REMARK VINA RESULT:    -2.525     16.767     17.833
REMARK INTER + INTRA:          -3.044
REMARK INTER:                  -3.041
REMARK INTRA:                  -0.003
REMARK UNBOUND:                -0.003
REMARK SMILES OCC(O)CO
REMARK SMILES IDX 3 1 5 2 6 3 2 5 1 6 4 8
REMARK H PARENT 6 4 1 7 4 9
REMARK Flexibility Score: inf
ROOT
ATOM      1  C   UNL     1      54.377 -27.000  17.274  1.00  0.00     0.165 C 
ENDROOT
BRANCH   1   2
ATOM      2  C   UNL     1      55.682 -27.263  18.032  1.00  0.00     0.190 C 
BRANCH   2   3
ATOM      3  O   UNL     1      56.750 -26.620  17.394  1.00  0.00    -0.394 OA
ATOM      4  H   UNL     1      56.774 -25.697  17.759  1.00  0.00     0.210 HD
ENDBRANCH   2   3
ENDBRANCH   1   2
BRANCH   1   5
ATOM      5  C   UNL     1      53.155 -27.384  18.125  1.00  0.00     0.190 C 
BRANCH   5   6
ATOM      6  O   UNL     1      51.991 -27.381  17.342  1.00  0.00    -0.394 OA
ATOM      7  H   UNL     1      51.944 -26.493  16.900  1.00  0.00     0.210 HD
ENDBRANCH   5   6
ENDBRANCH   1   5
BRANCH   1   8
ATOM      8  O   UNL     1      54.387 -27.751  16.088  1.00  0.00    -0.388 OA
ATOM      9  H   UNL     1      53.456 -28.058  15.930  1.00  0.00     0.211 HD
ENDBRANCH   1   8
TORSDOF 5
ENDMDL
MODEL 7
REMARK VINA RESULT:    -2.233      1.421      3.074
REMARK INTER + INTRA:          -2.692
REMARK INTER:                  -2.470
REMARK INTRA:                  -0.222
REMARK UNBOUND:                -0.003
REMARK SMILES OCC(O)CO
REMARK SMILES IDX 3 1 5 2 6 3 2 5 1 6 4 8
REMARK H PARENT 6 4 1 7 4 9
REMARK Flexibility Score: inf
ROOT
ATOM      1  C   UNL     1      40.798 -23.987   7.694  1.00  0.00     0.165 C 
ENDROOT
BRANCH   1   2
ATOM      2  C   UNL     1      40.896 -24.008   6.165  1.00  0.00     0.190 C 
BRANCH   2   3
ATOM      3  O   UNL     1      41.758 -22.996   5.722  1.00  0.00    -0.394 OA
ATOM      4  H   UNL     1      42.487 -22.941   6.393  1.00  0.00     0.210 HD
ENDBRANCH   2   3
ENDBRANCH   1   2
BRANCH   1   5
ATOM      5  C   UNL     1      42.193 -24.028   8.338  1.00  0.00     0.190 C 
BRANCH   5   6
ATOM      6  O   UNL     1      43.072 -24.794   7.558  1.00  0.00    -0.394 OA
ATOM      7  H   UNL     1      43.908 -24.897   8.085  1.00  0.00     0.210 HD
ENDBRANCH   5   6
ENDBRANCH   1   5
BRANCH   1   8
ATOM      8  O   UNL     1      40.048 -25.098   8.111  1.00  0.00    -0.388 OA
ATOM      9  H   UNL     1      39.527 -25.409   7.325  1.00  0.00     0.211 HD
ENDBRANCH   1   8
TORSDOF 5
ENDMDL
MODEL 8
REMARK VINA RESULT:    -2.042     24.515     25.191
REMARK INTER + INTRA:          -2.463
REMARK INTER:                  -2.239
REMARK INTRA:                  -0.224
REMARK UNBOUND:                -0.003
REMARK SMILES OCC(O)CO
REMARK SMILES IDX 3 1 5 2 6 3 2 5 1 6 4 8
REMARK H PARENT 6 4 1 7 4 9
REMARK Flexibility Score: inf
ROOT
ATOM      1  C   UNL     1      59.617  -9.740  14.661  1.00  0.00     0.165 C 
ENDROOT
BRANCH   1   2
ATOM      2  C   UNL     1      58.998  -9.370  16.013  1.00  0.00     0.190 C 
BRANCH   2   3
ATOM      3  O   UNL     1      58.990  -7.979  16.178  1.00  0.00    -0.394 OA
ATOM      4  H   UNL     1      58.070  -7.680  15.953  1.00  0.00     0.210 HD
ENDBRANCH   2   3
ENDBRANCH   1   2
BRANCH   1   5
ATOM      5  C   UNL     1      60.081  -8.484  13.904  1.00  0.00     0.190 C 
BRANCH   5   6
ATOM      6  O   UNL     1      58.998  -7.875  13.253  1.00  0.00    -0.394 OA
ATOM      7  H   UNL     1      59.206  -6.906  13.195  1.00  0.00     0.210 HD
ENDBRANCH   5   6
ENDBRANCH   1   5
BRANCH   1   8
ATOM      8  O   UNL     1      58.658 -10.428  13.901  1.00  0.00    -0.388 OA
ATOM      9  H   UNL     1      58.343  -9.804  13.196  1.00  0.00     0.211 HD
ENDBRANCH   1   8
TORSDOF 5
ENDMDL
