MODEL 1
REMARK VINA RESULT:    -5.426      0.000      0.000
REMARK INTER + INTRA:          -6.267
REMARK INTER:                  -6.061
REMARK INTRA:                  -0.206
REMARK UNBOUND:                -0.206
REMARK SMILES CC(C)c1ccc(C(=O)[O-])cc1
REMARK SMILES IDX 7 1 6 2 11 3 5 4 12 5 4 6 8 7 9 8 10 9 2 10 1 11 3 12
REMARK H PARENT
REMARK Flexibility Score: inf
ROOT
ATOM      1  C   UNL     1      20.725 -47.354  67.710  1.00  0.00    -0.003 A 
ATOM      2  C   UNL     1      19.911 -48.413  68.147  1.00  0.00     0.010 A 
ATOM      3  C   UNL     1      20.683 -46.133  68.404  1.00  0.00     0.010 A 
ATOM      4  C   UNL     1      19.072 -48.253  69.254  1.00  0.00     0.004 A 
ATOM      5  C   UNL     1      19.844 -45.974  69.511  1.00  0.00     0.004 A 
ATOM      6  C   UNL     1      19.030 -47.031  69.949  1.00  0.00    -0.045 A 
ENDROOT
BRANCH   1   7
ATOM      7  C   UNL     1      21.615 -47.518  66.540  1.00  0.00     0.071 C 
ATOM      8  O   UNL     1      22.371 -48.521  66.446  1.00  0.00    -0.545 OA
ATOM      9  O   UNL     1      21.628 -46.566  65.526  1.00  0.00    -0.545 OA
ENDBRANCH   1   7
BRANCH   6  10
ATOM     10  C   UNL     1      18.124 -46.845  71.152  1.00  0.00     0.013 C 
ATOM     11  C   UNL     1      17.808 -48.189  71.819  1.00  0.00     0.012 C 
ATOM     12  C   UNL     1      16.838 -46.104  70.766  1.00  0.00     0.012 C 
ENDBRANCH   6  10
TORSDOF 2
ENDMDL
MODEL 2
REMARK VINA RESULT:    -5.425      0.047      1.397
REMARK INTER + INTRA:          -6.266
REMARK INTER:                  -6.059
REMARK INTRA:                  -0.207
REMARK UNBOUND:                -0.206
REMARK SMILES CC(C)c1ccc(C(=O)[O-])cc1
REMARK SMILES IDX 7 1 6 2 11 3 5 4 12 5 4 6 8 7 9 8 10 9 2 10 1 11 3 12
REMARK H PARENT
REMARK Flexibility Score: inf
ROOT
ATOM      1  C   UNL     1      20.734 -47.317  67.714  1.00  0.00    -0.003 A 
ATOM      2  C   UNL     1      20.734 -46.116  68.443  1.00  0.00     0.010 A 
ATOM      3  C   UNL     1      19.876 -48.356  68.113  1.00  0.00     0.010 A 
ATOM      4  C   UNL     1      19.893 -45.957  69.549  1.00  0.00     0.004 A 
ATOM      5  C   UNL     1      19.035 -48.196  69.219  1.00  0.00     0.004 A 
ATOM      6  C   UNL     1      19.034 -46.996  69.949  1.00  0.00    -0.045 A 
ENDROOT
BRANCH   1   7
ATOM      7  C   UNL     1      21.621 -47.490  66.543  1.00  0.00     0.071 C 
ATOM      8  O   UNL     1      22.364 -48.503  66.447  1.00  0.00    -0.545 OA
ATOM      9  O   UNL     1      21.648 -46.537  65.531  1.00  0.00    -0.545 OA
ENDBRANCH   1   7
BRANCH   6  10
ATOM     10  C   UNL     1      18.116 -46.836  71.147  1.00  0.00     0.013 C 
ATOM     11  C   UNL     1      17.795 -48.195  71.782  1.00  0.00     0.012 C 
ATOM     12  C   UNL     1      16.834 -46.088  70.765  1.00  0.00     0.012 C 
ENDBRANCH   6  10
TORSDOF 2
ENDMDL
MODEL 3
REMARK VINA RESULT:    -5.341      3.994      5.726
REMARK INTER + INTRA:          -6.172
REMARK INTER:                  -5.960
REMARK INTRA:                  -0.212
REMARK UNBOUND:                -0.206
REMARK SMILES CC(C)c1ccc(C(=O)[O-])cc1
REMARK SMILES IDX 7 1 6 2 11 3 5 4 12 5 4 6 8 7 9 8 10 9 2 10 1 11 3 12
REMARK H PARENT
REMARK Flexibility Score: inf
ROOT
ATOM      1  C   UNL     1      16.946 -48.348  71.438  1.00  0.00    -0.003 A 
ATOM      2  C   UNL     1      15.839 -47.865  70.720  1.00  0.00     0.010 A 
ATOM      3  C   UNL     1      16.732 -48.976  72.677  1.00  0.00     0.010 A 
ATOM      4  C   UNL     1      14.545 -48.006  71.232  1.00  0.00     0.004 A 
ATOM      5  C   UNL     1      15.439 -49.118  73.187  1.00  0.00     0.004 A 
ATOM      6  C   UNL     1      14.331 -48.635  72.471  1.00  0.00    -0.045 A 
ENDROOT
BRANCH   1   7
ATOM      7  C   UNL     1      18.316 -48.202  70.901  1.00  0.00     0.071 C 
ATOM      8  O   UNL     1      19.044 -47.237  71.258  1.00  0.00    -0.545 OA
ATOM      9  O   UNL     1      18.822 -49.128  69.996  1.00  0.00    -0.545 OA
ENDBRANCH   1   7
BRANCH   6  10
ATOM     10  C   UNL     1      12.932 -48.795  73.037  1.00  0.00     0.013 C 
ATOM     11  C   UNL     1      12.805 -50.096  73.838  1.00  0.00     0.012 C 
ATOM     12  C   UNL     1      11.876 -48.723  71.929  1.00  0.00     0.012 C 
ENDBRANCH   6  10
TORSDOF 2
ENDMDL
MODEL 4
REMARK VINA RESULT:    -5.128      5.398      7.344
REMARK INTER + INTRA:          -5.934
REMARK INTER:                  -5.726
REMARK INTRA:                  -0.208
REMARK UNBOUND:                -0.206
REMARK SMILES CC(C)c1ccc(C(=O)[O-])cc1
REMARK SMILES IDX 7 1 6 2 11 3 5 4 12 5 4 6 8 7 9 8 10 9 2 10 1 11 3 12
REMARK H PARENT
REMARK Flexibility Score: inf
ROOT
ATOM      1  C   UNL     1      14.661 -48.742  72.764  1.00  0.00    -0.003 A 
ATOM      2  C   UNL     1      14.747 -48.004  71.571  1.00  0.00     0.010 A 
ATOM      3  C   UNL     1      15.846 -49.136  73.407  1.00  0.00     0.010 A 
ATOM      4  C   UNL     1      15.993 -47.669  71.033  1.00  0.00     0.004 A 
ATOM      5  C   UNL     1      17.092 -48.799  72.869  1.00  0.00     0.004 A 
ATOM      6  C   UNL     1      17.180 -48.062  71.676  1.00  0.00    -0.045 A 
ENDROOT
BRANCH   1   7
ATOM      7  C   UNL     1      13.345 -49.099  73.338  1.00  0.00     0.071 C 
ATOM      8  O   UNL     1      12.345 -48.356  73.157  1.00  0.00    -0.545 OA
ATOM      9  O   UNL     1      13.194 -50.262  74.085  1.00  0.00    -0.545 OA
ENDBRANCH   1   7
BRANCH   6  10
ATOM     10  C   UNL     1      18.538 -47.704  71.103  1.00  0.00     0.013 C 
ATOM     11  C   UNL     1      18.521 -46.306  70.473  1.00  0.00     0.012 C 
ATOM     12  C   UNL     1      19.008 -48.759  70.094  1.00  0.00     0.012 C 
ENDBRANCH   6  10
TORSDOF 2
ENDMDL
MODEL 5
REMARK VINA RESULT:    -4.972      3.502      5.298
REMARK INTER + INTRA:          -5.760
REMARK INTER:                  -5.545
REMARK INTRA:                  -0.215
REMARK UNBOUND:                -0.206
REMARK SMILES CC(C)c1ccc(C(=O)[O-])cc1
REMARK SMILES IDX 7 1 6 2 11 3 5 4 12 5 4 6 8 7 9 8 10 9 2 10 1 11 3 12
REMARK H PARENT
REMARK Flexibility Score: inf
ROOT
ATOM      1  C   UNL     1      18.389 -47.497  70.921  1.00  0.00    -0.003 A 
ATOM      2  C   UNL     1      19.120 -46.500  70.253  1.00  0.00     0.010 A 
ATOM      3  C   UNL     1      18.388 -48.802  70.403  1.00  0.00     0.010 A 
ATOM      4  C   UNL     1      19.834 -46.803  69.089  1.00  0.00     0.004 A 
ATOM      5  C   UNL     1      19.103 -49.105  69.240  1.00  0.00     0.004 A 
ATOM      6  C   UNL     1      19.833 -48.110  68.570  1.00  0.00    -0.045 A 
ENDROOT
BRANCH   1   7
ATOM      7  C   UNL     1      17.632 -47.181  72.152  1.00  0.00     0.071 C 
ATOM      8  O   UNL     1      17.806 -47.856  73.201  1.00  0.00    -0.545 OA
ATOM      9  O   UNL     1      16.718 -46.133  72.169  1.00  0.00    -0.545 OA
ENDBRANCH   1   7
BRANCH   6  10
ATOM     10  C   UNL     1      20.604 -48.452  67.309  1.00  0.00     0.013 C 
ATOM     11  C   UNL     1      21.305 -49.810  67.440  1.00  0.00     0.012 C 
ATOM     12  C   UNL     1      21.605 -47.346  66.956  1.00  0.00     0.012 C 
ENDBRANCH   6  10
TORSDOF 2
ENDMDL
MODEL 6
REMARK VINA RESULT:    -4.964      2.523      3.654
REMARK INTER + INTRA:          -5.751
REMARK INTER:                  -5.551
REMARK INTRA:                  -0.200
REMARK UNBOUND:                -0.206
REMARK SMILES CC(C)c1ccc(C(=O)[O-])cc1
REMARK SMILES IDX 7 1 6 2 11 3 5 4 12 5 4 6 8 7 9 8 10 9 2 10 1 11 3 12
REMARK H PARENT
REMARK Flexibility Score: inf
ROOT
ATOM      1  C   UNL     1      19.823 -49.496  68.589  1.00  0.00    -0.003 A 
ATOM      2  C   UNL     1      20.356 -48.536  67.712  1.00  0.00     0.010 A 
ATOM      3  C   UNL     1      19.285 -49.072  69.816  1.00  0.00     0.010 A 
ATOM      4  C   UNL     1      20.350 -47.181  68.055  1.00  0.00     0.004 A 
ATOM      5  C   UNL     1      19.279 -47.716  70.158  1.00  0.00     0.004 A 
ATOM      6  C   UNL     1      19.811 -46.756  69.282  1.00  0.00    -0.045 A 
ENDROOT
BRANCH   1   7
ATOM      7  C   UNL     1      19.827 -50.931  68.231  1.00  0.00     0.071 C 
ATOM      8  O   UNL     1      18.796 -51.474  67.753  1.00  0.00    -0.545 OA
ATOM      9  O   UNL     1      20.969 -51.701  68.417  1.00  0.00    -0.545 OA
ENDBRANCH   1   7
BRANCH   6  10
ATOM     10  C   UNL     1      19.798 -45.288  69.666  1.00  0.00     0.013 C 
ATOM     11  C   UNL     1      19.359 -44.412  68.487  1.00  0.00     0.012 C 
ATOM     12  C   UNL     1      21.164 -44.845  70.204  1.00  0.00     0.012 C 
ENDBRANCH   6  10
TORSDOF 2
ENDMDL
MODEL 7
REMARK VINA RESULT:    -4.891      4.425      6.343
REMARK INTER + INTRA:          -5.669
REMARK INTER:                  -5.449
REMARK INTRA:                  -0.220
REMARK UNBOUND:                -0.206
REMARK SMILES CC(C)c1ccc(C(=O)[O-])cc1
REMARK SMILES IDX 7 1 6 2 11 3 5 4 12 5 4 6 8 7 9 8 10 9 2 10 1 11 3 12
REMARK H PARENT
REMARK Flexibility Score: inf
ROOT
ATOM      1  C   UNL     1      15.769 -46.645  70.878  1.00  0.00    -0.003 A 
ATOM      2  C   UNL     1      14.540 -46.093  70.479  1.00  0.00     0.010 A 
ATOM      3  C   UNL     1      15.767 -47.793  71.688  1.00  0.00     0.010 A 
ATOM      4  C   UNL     1      13.335 -46.676  70.882  1.00  0.00     0.004 A 
ATOM      5  C   UNL     1      14.562 -48.376  72.091  1.00  0.00     0.004 A 
ATOM      6  C   UNL     1      13.333 -47.825  71.693  1.00  0.00    -0.045 A 
ENDROOT
BRANCH   1   7
ATOM      7  C   UNL     1      17.046 -46.032  70.454  1.00  0.00     0.071 C 
ATOM      8  O   UNL     1      17.099 -44.813  70.142  1.00  0.00    -0.545 OA
ATOM      9  O   UNL     1      18.208 -46.794  70.393  1.00  0.00    -0.545 OA
ENDBRANCH   1   7
BRANCH   6  10
ATOM     10  C   UNL     1      12.032 -48.467  72.138  1.00  0.00     0.013 C 
ATOM     11  C   UNL     1      10.996 -47.406  72.526  1.00  0.00     0.012 C 
ATOM     12  C   UNL     1      12.268 -49.456  73.286  1.00  0.00     0.012 C 
ENDBRANCH   6  10
TORSDOF 2
ENDMDL
MODEL 8
REMARK VINA RESULT:    -4.884      4.033      5.701
REMARK INTER + INTRA:          -5.662
REMARK INTER:                  -5.456
REMARK INTRA:                  -0.206
REMARK UNBOUND:                -0.206
REMARK SMILES CC(C)c1ccc(C(=O)[O-])cc1
REMARK SMILES IDX 7 1 6 2 11 3 5 4 12 5 4 6 8 7 9 8 10 9 2 10 1 11 3 12
REMARK H PARENT
REMARK Flexibility Score: inf
ROOT
ATOM      1  C   UNL     1      17.085 -47.576  71.662  1.00  0.00    -0.003 A 
ATOM      2  C   UNL     1      16.717 -46.440  70.921  1.00  0.00     0.010 A 
ATOM      3  C   UNL     1      18.424 -48.000  71.634  1.00  0.00     0.010 A 
ATOM      4  C   UNL     1      17.667 -45.745  70.167  1.00  0.00     0.004 A 
ATOM      5  C   UNL     1      19.375 -47.304  70.881  1.00  0.00     0.004 A 
ATOM      6  C   UNL     1      19.007 -46.169  70.140  1.00  0.00    -0.045 A 
ENDROOT
BRANCH   1   7
ATOM      7  C   UNL     1      16.084 -48.315  72.460  1.00  0.00     0.071 C 
ATOM      8  O   UNL     1      14.944 -48.564  71.986  1.00  0.00    -0.545 OA
ATOM      9  O   UNL     1      16.387 -48.747  73.747  1.00  0.00    -0.545 OA
ENDBRANCH   1   7
BRANCH   6  10
ATOM     10  C   UNL     1      20.049 -45.423  69.327  1.00  0.00     0.013 C 
ATOM     11  C   UNL     1      20.523 -46.261  68.133  1.00  0.00     0.012 C 
ATOM     12  C   UNL     1      21.230 -44.992  70.204  1.00  0.00     0.012 C 
ENDBRANCH   6  10
TORSDOF 2
ENDMDL
MODEL 9
REMARK VINA RESULT:    -4.871      2.511      3.689
REMARK INTER + INTRA:          -5.647
REMARK INTER:                  -5.440
REMARK INTRA:                  -0.207
REMARK UNBOUND:                -0.206
REMARK SMILES CC(C)c1ccc(C(=O)[O-])cc1
REMARK SMILES IDX 7 1 6 2 11 3 5 4 12 5 4 6 8 7 9 8 10 9 2 10 1 11 3 12
REMARK H PARENT
REMARK Flexibility Score: inf
ROOT
ATOM      1  C   UNL     1      20.680 -45.623  69.399  1.00  0.00    -0.003 A 
ATOM      2  C   UNL     1      20.820 -46.275  68.162  1.00  0.00     0.010 A 
ATOM      3  C   UNL     1      19.973 -46.264  70.430  1.00  0.00     0.010 A 
ATOM      4  C   UNL     1      20.264 -47.542  67.961  1.00  0.00     0.004 A 
ATOM      5  C   UNL     1      19.418 -47.532  70.228  1.00  0.00     0.004 A 
ATOM      6  C   UNL     1      19.557 -48.185  68.992  1.00  0.00    -0.045 A 
ENDROOT
BRANCH   1   7
ATOM      7  C   UNL     1      21.266 -44.282  69.616  1.00  0.00     0.071 C 
ATOM      8  O   UNL     1      21.678 -43.941  70.757  1.00  0.00    -0.545 OA
ATOM      9  O   UNL     1      21.371 -43.379  68.564  1.00  0.00    -0.545 OA
ENDBRANCH   1   7
BRANCH   6  10
ATOM     10  C   UNL     1      18.949 -49.560  68.787  1.00  0.00     0.013 C 
ATOM     11  C   UNL     1      19.992 -50.663  69.005  1.00  0.00     0.012 C 
ATOM     12  C   UNL     1      18.301 -49.677  67.403  1.00  0.00     0.012 C 
ENDBRANCH   6  10
TORSDOF 2
ENDMDL
