MODEL 1
REMARK VINA RESULT:    -4.457      0.000      0.000
REMARK INTER + INTRA:          -5.807
REMARK INTER:                  -5.499
REMARK INTRA:                  -0.308
REMARK UNBOUND:                -0.308
REMARK SMILES C=CC[C@@H](C)C(=O)CC
REMARK SMILES IDX 4 1 5 2 6 3 7 4 8 5 9 6 3 7 2 8 1 9
REMARK H PARENT
REMARK Flexibility Score: inf
ROOT
ATOM      1  C   UNL     1      -5.932  -5.974  13.299  1.00  0.00     0.057 C 
ATOM      2  C   UNL     1      -5.940  -5.624  11.803  1.00  0.00     0.016 C 
ENDROOT
BRANCH   1   3
ATOM      3  C   UNL     1      -4.990  -5.061  14.056  1.00  0.00     0.135 C 
ATOM      4  O   UNL     1      -3.800  -5.071  13.773  1.00  0.00    -0.299 OA
BRANCH   3   5
ATOM      5  C   UNL     1      -5.468  -4.160  15.167  1.00  0.00     0.072 C 
ATOM      6  C   UNL     1      -4.808  -4.529  16.491  1.00  0.00     0.012 C 
ENDBRANCH   3   5
ENDBRANCH   1   3
BRANCH   1   7
ATOM      7  C   UNL     1      -7.348  -5.925  13.911  1.00  0.00     0.038 C 
BRANCH   7   8
ATOM      8  C   UNL     1      -7.820  -7.280  14.369  1.00  0.00    -0.034 C 
ATOM      9  C   UNL     1      -7.258  -8.409  13.926  1.00  0.00     0.004 C 
ENDBRANCH   7   8
ENDBRANCH   1   7
TORSDOF 4
ENDMDL
MODEL 2
REMARK VINA RESULT:    -4.352      1.343      3.674
REMARK INTER + INTRA:          -5.678
REMARK INTER:                  -5.515
REMARK INTRA:                  -0.162
REMARK UNBOUND:                -0.308
REMARK SMILES C=CC[C@@H](C)C(=O)CC
REMARK SMILES IDX 4 1 5 2 6 3 7 4 8 5 9 6 3 7 2 8 1 9
REMARK H PARENT
REMARK Flexibility Score: inf
ROOT
ATOM      1  C   UNL     1      -6.165  -5.401  13.381  1.00  0.00     0.057 C 
ATOM      2  C   UNL     1      -5.858  -4.939  11.949  1.00  0.00     0.016 C 
ENDROOT
BRANCH   1   3
ATOM      3  C   UNL     1      -6.565  -6.862  13.397  1.00  0.00     0.135 C 
ATOM      4  O   UNL     1      -5.992  -7.642  12.649  1.00  0.00    -0.299 OA
BRANCH   3   5
ATOM      5  C   UNL     1      -7.666  -7.382  14.287  1.00  0.00     0.072 C 
ATOM      6  C   UNL     1      -7.811  -8.893  14.149  1.00  0.00     0.012 C 
ENDBRANCH   3   5
ENDBRANCH   1   3
BRANCH   1   7
ATOM      7  C   UNL     1      -4.977  -5.151  14.335  1.00  0.00     0.038 C 
BRANCH   7   8
ATOM      8  C   UNL     1      -5.362  -4.294  15.513  1.00  0.00    -0.034 C 
ATOM      9  C   UNL     1      -4.789  -4.444  16.711  1.00  0.00     0.004 C 
ENDBRANCH   7   8
ENDBRANCH   1   7
TORSDOF 4
ENDMDL
MODEL 3
REMARK VINA RESULT:    -4.257      1.365      3.642
REMARK INTER + INTRA:          -5.560
REMARK INTER:                  -5.309
REMARK INTRA:                  -0.250
REMARK UNBOUND:                -0.308
REMARK SMILES C=CC[C@@H](C)C(=O)CC
REMARK SMILES IDX 4 1 5 2 6 3 7 4 8 5 9 6 3 7 2 8 1 9
REMARK H PARENT
REMARK Flexibility Score: inf
ROOT
ATOM      1  C   UNL     1      -5.510  -5.146  13.415  1.00  0.00     0.057 C 
ATOM      2  C   UNL     1      -4.000  -5.267  13.165  1.00  0.00     0.016 C 
ENDROOT
BRANCH   1   3
ATOM      3  C   UNL     1      -6.188  -6.491  13.252  1.00  0.00     0.135 C 
ATOM      4  O   UNL     1      -5.763  -7.271  12.413  1.00  0.00    -0.299 OA
BRANCH   3   5
ATOM      5  C   UNL     1      -7.389  -6.887  14.075  1.00  0.00     0.072 C 
ATOM      6  C   UNL     1      -7.575  -8.401  14.073  1.00  0.00     0.012 C 
ENDBRANCH   3   5
ENDBRANCH   1   3
BRANCH   1   7
ATOM      7  C   UNL     1      -5.820  -4.544  14.802  1.00  0.00     0.038 C 
BRANCH   7   8
ATOM      8  C   UNL     1      -4.649  -4.651  15.745  1.00  0.00    -0.034 C 
ATOM      9  C   UNL     1      -4.724  -4.234  17.012  1.00  0.00     0.004 C 
ENDBRANCH   7   8
ENDBRANCH   1   7
TORSDOF 4
ENDMDL
MODEL 4
REMARK VINA RESULT:    -4.180      1.155      1.601
REMARK INTER + INTRA:          -5.465
REMARK INTER:                  -5.148
REMARK INTRA:                  -0.317
REMARK UNBOUND:                -0.308
REMARK SMILES C=CC[C@@H](C)C(=O)CC
REMARK SMILES IDX 4 1 5 2 6 3 7 4 8 5 9 6 3 7 2 8 1 9
REMARK H PARENT
REMARK Flexibility Score: inf
ROOT
ATOM      1  C   UNL     1      -4.917  -5.322  14.032  1.00  0.00     0.057 C 
ATOM      2  C   UNL     1      -3.951  -5.420  12.842  1.00  0.00     0.016 C 
ENDROOT
BRANCH   1   3
ATOM      3  C   UNL     1      -4.388  -4.355  15.072  1.00  0.00     0.135 C 
ATOM      4  O   UNL     1      -3.590  -3.495  14.729  1.00  0.00    -0.299 OA
BRANCH   3   5
ATOM      5  C   UNL     1      -4.794  -4.437  16.522  1.00  0.00     0.072 C 
ATOM      6  C   UNL     1      -5.194  -3.066  17.054  1.00  0.00     0.012 C 
ENDBRANCH   3   5
ENDBRANCH   1   3
BRANCH   1   7
ATOM      7  C   UNL     1      -6.340  -4.921  13.590  1.00  0.00     0.038 C 
BRANCH   7   8
ATOM      8  C   UNL     1      -7.376  -5.927  14.020  1.00  0.00    -0.034 C 
ATOM      9  C   UNL     1      -7.113  -7.236  14.060  1.00  0.00     0.004 C 
ENDBRANCH   7   8
ENDBRANCH   1   7
TORSDOF 4
ENDMDL
MODEL 5
REMARK VINA RESULT:    -4.141      1.846      4.019
REMARK INTER + INTRA:          -5.416
REMARK INTER:                  -5.181
REMARK INTRA:                  -0.235
REMARK UNBOUND:                -0.308
REMARK SMILES C=CC[C@@H](C)C(=O)CC
REMARK SMILES IDX 4 1 5 2 6 3 7 4 8 5 9 6 3 7 2 8 1 9
REMARK H PARENT
REMARK Flexibility Score: inf
ROOT
ATOM      1  C   UNL     1      -5.779  -5.653  13.735  1.00  0.00     0.057 C 
ATOM      2  C   UNL     1      -5.668  -4.733  14.960  1.00  0.00     0.016 C 
ENDROOT
BRANCH   1   3
ATOM      3  C   UNL     1      -6.924  -6.630  13.903  1.00  0.00     0.135 C 
ATOM      4  O   UNL     1      -7.991  -6.223  14.342  1.00  0.00    -0.299 OA
BRANCH   3   5
ATOM      5  C   UNL     1      -6.783  -8.095  13.572  1.00  0.00     0.072 C 
ATOM      6  C   UNL     1      -7.930  -8.902  14.169  1.00  0.00     0.012 C 
ENDBRANCH   3   5
ENDBRANCH   1   3
BRANCH   1   7
ATOM      7  C   UNL     1      -5.934  -4.853  12.424  1.00  0.00     0.038 C 
BRANCH   7   8
ATOM      8  C   UNL     1      -4.629  -4.711  11.684  1.00  0.00    -0.034 C 
ATOM      9  C   UNL     1      -3.635  -5.591  11.835  1.00  0.00     0.004 C 
ENDBRANCH   7   8
ENDBRANCH   1   7
TORSDOF 4
ENDMDL
MODEL 6
REMARK VINA RESULT:    -4.114      7.731      9.075
REMARK INTER + INTRA:          -5.384
REMARK INTER:                  -5.174
REMARK INTRA:                  -0.210
REMARK UNBOUND:                -0.308
REMARK SMILES C=CC[C@@H](C)C(=O)CC
REMARK SMILES IDX 4 1 5 2 6 3 7 4 8 5 9 6 3 7 2 8 1 9
REMARK H PARENT
REMARK Flexibility Score: inf
ROOT
ATOM      1  C   UNL     1       1.340  -6.940   9.103  1.00  0.00     0.057 C 
ATOM      2  C   UNL     1       2.824  -7.329   9.178  1.00  0.00     0.016 C 
ENDROOT
BRANCH   1   3
ATOM      3  C   UNL     1       0.767  -6.748  10.493  1.00  0.00     0.135 C 
ATOM      4  O   UNL     1      -0.445  -6.667  10.628  1.00  0.00    -0.299 OA
BRANCH   3   5
ATOM      5  C   UNL     1       1.647  -6.627  11.712  1.00  0.00     0.072 C 
ATOM      6  C   UNL     1       1.316  -5.365  12.500  1.00  0.00     0.012 C 
ENDBRANCH   3   5
ENDBRANCH   1   3
BRANCH   1   7
ATOM      7  C   UNL     1       1.115  -5.678   8.243  1.00  0.00     0.038 C 
BRANCH   7   8
ATOM      8  C   UNL     1       0.845  -6.012   6.799  1.00  0.00    -0.034 C 
ATOM      9  C   UNL     1       1.378  -5.303   5.800  1.00  0.00     0.004 C 
ENDBRANCH   7   8
ENDBRANCH   1   7
TORSDOF 4
ENDMDL
MODEL 7
REMARK VINA RESULT:    -4.106      1.640      3.571
REMARK INTER + INTRA:          -5.374
REMARK INTER:                  -4.977
REMARK INTRA:                  -0.397
REMARK UNBOUND:                -0.308
REMARK SMILES C=CC[C@@H](C)C(=O)CC
REMARK SMILES IDX 4 1 5 2 6 3 7 4 8 5 9 6 3 7 2 8 1 9
REMARK H PARENT
REMARK Flexibility Score: inf
ROOT
ATOM      1  C   UNL     1      -6.481  -6.386  13.993  1.00  0.00     0.057 C 
ATOM      2  C   UNL     1      -7.851  -7.027  14.260  1.00  0.00     0.016 C 
ENDROOT
BRANCH   1   3
ATOM      3  C   UNL     1      -5.931  -6.836  12.655  1.00  0.00     0.135 C 
ATOM      4  O   UNL     1      -5.806  -8.033  12.438  1.00  0.00    -0.299 OA
BRANCH   3   5
ATOM      5  C   UNL     1      -5.508  -5.854  11.591  1.00  0.00     0.072 C 
ATOM      6  C   UNL     1      -4.002  -5.619  11.634  1.00  0.00     0.012 C 
ENDBRANCH   3   5
ENDBRANCH   1   3
BRANCH   1   7
ATOM      7  C   UNL     1      -6.539  -4.846  14.067  1.00  0.00     0.038 C 
BRANCH   7   8
ATOM      8  C   UNL     1      -5.638  -4.291  15.139  1.00  0.00    -0.034 C 
ATOM      9  C   UNL     1      -4.350  -4.637  15.225  1.00  0.00     0.004 C 
ENDBRANCH   7   8
ENDBRANCH   1   7
TORSDOF 4
ENDMDL
MODEL 8
REMARK VINA RESULT:    -4.096      1.714      2.628
REMARK INTER + INTRA:          -5.362
REMARK INTER:                  -5.144
REMARK INTRA:                  -0.218
REMARK UNBOUND:                -0.308
REMARK SMILES C=CC[C@@H](C)C(=O)CC
REMARK SMILES IDX 4 1 5 2 6 3 7 4 8 5 9 6 3 7 2 8 1 9
REMARK H PARENT
REMARK Flexibility Score: inf
ROOT
ATOM      1  C   UNL     1      -6.135  -4.839  13.787  1.00  0.00     0.057 C 
ATOM      2  C   UNL     1      -5.188  -4.872  14.996  1.00  0.00     0.016 C 
ENDROOT
BRANCH   1   3
ATOM      3  C   UNL     1      -5.400  -5.236  12.522  1.00  0.00     0.135 C 
ATOM      4  O   UNL     1      -5.916  -5.001  11.439  1.00  0.00    -0.299 OA
BRANCH   3   5
ATOM      5  C   UNL     1      -4.065  -5.936  12.558  1.00  0.00     0.072 C 
ATOM      6  C   UNL     1      -2.955  -5.019  12.058  1.00  0.00     0.012 C 
ENDBRANCH   3   5
ENDBRANCH   1   3
BRANCH   1   7
ATOM      7  C   UNL     1      -7.374  -5.734  14.000  1.00  0.00     0.038 C 
BRANCH   7   8
ATOM      8  C   UNL     1      -7.026  -7.200  14.001  1.00  0.00    -0.034 C 
ATOM      9  C   UNL     1      -7.910  -8.134  14.365  1.00  0.00     0.004 C 
ENDBRANCH   7   8
ENDBRANCH   1   7
TORSDOF 4
ENDMDL
MODEL 9
REMARK VINA RESULT:    -3.991      9.160     10.342
REMARK INTER + INTRA:          -5.232
REMARK INTER:                  -5.044
REMARK INTRA:                  -0.188
REMARK UNBOUND:                -0.308
REMARK SMILES C=CC[C@@H](C)C(=O)CC
REMARK SMILES IDX 4 1 5 2 6 3 7 4 8 5 9 6 3 7 2 8 1 9
REMARK H PARENT
REMARK Flexibility Score: inf
ROOT
ATOM      1  C   UNL     1       1.324  -5.683   6.781  1.00  0.00     0.057 C 
ATOM      2  C   UNL     1       0.293  -5.974   5.681  1.00  0.00     0.016 C 
ENDROOT
BRANCH   1   3
ATOM      3  C   UNL     1       1.520  -4.190   6.949  1.00  0.00     0.135 C 
ATOM      4  O   UNL     1       0.637  -3.532   7.480  1.00  0.00    -0.299 OA
BRANCH   3   5
ATOM      5  C   UNL     1       2.759  -3.484   6.456  1.00  0.00     0.072 C 
ATOM      6  C   UNL     1       2.645  -1.977   6.659  1.00  0.00     0.012 C 
ENDBRANCH   3   5
ENDBRANCH   1   3
BRANCH   1   7
ATOM      7  C   UNL     1       0.934  -6.334   8.125  1.00  0.00     0.038 C 
BRANCH   7   8
ATOM      8  C   UNL     1       2.133  -6.613   8.993  1.00  0.00    -0.034 C 
ATOM      9  C   UNL     1       2.036  -6.698  10.323  1.00  0.00     0.004 C 
ENDBRANCH   7   8
ENDBRANCH   1   7
TORSDOF 4
ENDMDL
