MODEL 1
REMARK VINA RESULT:    12.958      0.000      0.000
REMARK INTER + INTRA:          32.079
REMARK INTER:                  32.654
REMARK INTRA:                  -0.575
REMARK UNBOUND:                -0.575
REMARK SMILES CCCCCCCCCCCCCCCCCCCCCCCCCCCC(=O)[O-]
REMARK SMILES IDX 15 1 16 2 17 3 18 4 19 5 20 6 21 7 22 8 23 9 24 10 25 11
REMARK SMILES IDX 26 12 27 13 28 14 29 15 30 16 14 17 13 18 12 19 11 20 10 21
REMARK SMILES IDX 9 22 8 23 7 24 6 25 5 26 4 27 3 28 2 29 1 30
REMARK H PARENT
REMARK Flexibility Score: inf
ROOT
ATOM      1  C   UNL     1      83.128  14.351 107.991  1.00  0.00     0.000 C 
ENDROOT
BRANCH   1   2
ATOM      2  C   UNL     1      83.548  15.296 106.854  1.00  0.00     0.000 C 
BRANCH   2   3
ATOM      3  C   UNL     1      84.508  16.402 107.320  1.00  0.00     0.000 C 
BRANCH   3   4
ATOM      4  C   UNL     1      83.859  17.784 107.173  1.00  0.00     0.000 C 
BRANCH   4   5
ATOM      5  C   UNL     1      84.823  18.899 107.610  1.00  0.00     0.000 C 
BRANCH   5   6
ATOM      6  C   UNL     1      85.615  18.528 108.873  1.00  0.00     0.000 C 
BRANCH   6   7
ATOM      7  C   UNL     1      86.896  19.364 109.036  1.00  0.00     0.000 C 
BRANCH   7   8
ATOM      8  C   UNL     1      86.612  20.805 109.497  1.00  0.00     0.000 C 
BRANCH   8   9
ATOM      9  C   UNL     1      87.861  21.629 109.881  1.00  0.00     0.000 C 
BRANCH   9  10
ATOM     10  C   UNL     1      88.189  21.672 111.385  1.00  0.00     0.000 C 
BRANCH  10  11
ATOM     11  C   UNL     1      89.579  22.261 111.679  1.00  0.00     0.000 C 
BRANCH  11  12
ATOM     12  C   UNL     1      89.927  22.242 113.179  1.00  0.00     0.006 C 
BRANCH  12  13
ATOM     13  C   UNL     1      91.247  21.534 113.519  1.00  0.00     0.053 C 
BRANCH  13  14
ATOM     14  C   UNL     1      91.459  20.307 112.686  1.00  0.00     0.041 C 
ATOM     15  O   UNL     1      92.278  20.324 111.730  1.00  0.00    -0.550 OA
ATOM     16  O   UNL     1      90.732  19.152 112.951  1.00  0.00    -0.550 OA
ENDBRANCH  13  14
ENDBRANCH  12  13
ENDBRANCH  11  12
ENDBRANCH  10  11
ENDBRANCH   9  10
ENDBRANCH   8   9
ENDBRANCH   7   8
ENDBRANCH   6   7
ENDBRANCH   5   6
ENDBRANCH   4   5
ENDBRANCH   3   4
ENDBRANCH   2   3
ENDBRANCH   1   2
BRANCH   1  17
ATOM     17  C   UNL     1      84.146  13.220 108.225  1.00  0.00     0.000 C 
BRANCH  17  18
ATOM     18  C   UNL     1      85.483  13.727 108.800  1.00  0.00     0.000 C 
BRANCH  18  19
ATOM     19  C   UNL     1      86.553  14.083 107.751  1.00  0.00     0.000 C 
BRANCH  19  20
ATOM     20  C   UNL     1      87.176  12.843 107.087  1.00  0.00     0.000 C 
BRANCH  20  21
ATOM     21  C   UNL     1      88.599  13.105 106.569  1.00  0.00     0.000 C 
BRANCH  21  22
ATOM     22  C   UNL     1      89.111  11.976 105.660  1.00  0.00    -0.000 C 
BRANCH  22  23
ATOM     23  C   UNL     1      89.442  10.688 106.434  1.00  0.00    -0.000 C 
BRANCH  23  24
ATOM     24  C   UNL     1      90.188   9.633 105.589  1.00  0.00    -0.000 C 
BRANCH  24  25
ATOM     25  C   UNL     1      90.574   8.392 106.413  1.00  0.00    -0.000 C 
BRANCH  25  26
ATOM     26  C   UNL     1      90.215   8.536 107.901  1.00  0.00    -0.000 C 
BRANCH  26  27
ATOM     27  C   UNL     1      89.555   7.270 108.476  1.00  0.00    -0.000 C 
BRANCH  27  28
ATOM     28  C   UNL     1      89.164   7.422 109.958  1.00  0.00    -0.000 C 
BRANCH  28  29
ATOM     29  C   UNL     1      87.668   7.218 110.254  1.00  0.00    -0.003 C 
ATOM     30  C   UNL     1      87.328   7.345 111.738  1.00  0.00     0.004 C 
ENDBRANCH  28  29
ENDBRANCH  27  28
ENDBRANCH  26  27
ENDBRANCH  25  26
ENDBRANCH  24  25
ENDBRANCH  23  24
ENDBRANCH  22  23
ENDBRANCH  21  22
ENDBRANCH  20  21
ENDBRANCH  19  20
ENDBRANCH  18  19
ENDBRANCH  17  18
ENDBRANCH   1  17
TORSDOF 26
ENDMDL
MODEL 2
REMARK VINA RESULT:    13.087      0.897      1.323
REMARK INTER + INTRA:          32.403
REMARK INTER:                  33.972
REMARK INTRA:                  -1.569
REMARK UNBOUND:                -0.575
REMARK SMILES CCCCCCCCCCCCCCCCCCCCCCCCCCCC(=O)[O-]
REMARK SMILES IDX 15 1 16 2 17 3 18 4 19 5 20 6 21 7 22 8 23 9 24 10 25 11
REMARK SMILES IDX 26 12 27 13 28 14 29 15 30 16 14 17 13 18 12 19 11 20 10 21
REMARK SMILES IDX 9 22 8 23 7 24 6 25 5 26 4 27 3 28 2 29 1 30
REMARK H PARENT
REMARK Flexibility Score: inf
ROOT
ATOM      1  C   UNL     1      82.902  14.340 107.006  1.00  0.00     0.000 C 
ENDROOT
BRANCH   1   2
ATOM      2  C   UNL     1      83.619  15.655 106.658  1.00  0.00     0.000 C 
BRANCH   2   3
ATOM      3  C   UNL     1      84.166  16.382 107.896  1.00  0.00     0.000 C 
BRANCH   3   4
ATOM      4  C   UNL     1      85.219  17.423 107.496  1.00  0.00     0.000 C 
BRANCH   4   5
ATOM      5  C   UNL     1      84.927  18.786 108.142  1.00  0.00     0.000 C 
BRANCH   5   6
ATOM      6  C   UNL     1      86.193  19.451 108.705  1.00  0.00     0.000 C 
BRANCH   6   7
ATOM      7  C   UNL     1      86.182  20.981 108.539  1.00  0.00     0.000 C 
BRANCH   7   8
ATOM      8  C   UNL     1      87.191  21.688 109.461  1.00  0.00     0.000 C 
BRANCH   8   9
ATOM      9  C   UNL     1      87.667  20.858 110.673  1.00  0.00     0.000 C 
BRANCH   9  10
ATOM     10  C   UNL     1      88.221  21.672 111.857  1.00  0.00     0.000 C 
BRANCH  10  11
ATOM     11  C   UNL     1      89.238  22.743 111.425  1.00  0.00     0.000 C 
BRANCH  11  12
ATOM     12  C   UNL     1      90.512  22.735 112.290  1.00  0.00     0.006 C 
BRANCH  12  13
ATOM     13  C   UNL     1      90.575  21.600 113.323  1.00  0.00     0.053 C 
BRANCH  13  14
ATOM     14  C   UNL     1      91.188  20.356 112.756  1.00  0.00     0.041 C 
ATOM     15  O   UNL     1      92.307  20.407 112.182  1.00  0.00    -0.550 OA
ATOM     16  O   UNL     1      90.511  19.145 112.840  1.00  0.00    -0.550 OA
ENDBRANCH  13  14
ENDBRANCH  12  13
ENDBRANCH  11  12
ENDBRANCH  10  11
ENDBRANCH   9  10
ENDBRANCH   8   9
ENDBRANCH   7   8
ENDBRANCH   6   7
ENDBRANCH   5   6
ENDBRANCH   4   5
ENDBRANCH   3   4
ENDBRANCH   2   3
ENDBRANCH   1   2
BRANCH   1  17
ATOM     17  C   UNL     1      83.492  13.658 108.254  1.00  0.00     0.000 C 
BRANCH  17  18
ATOM     18  C   UNL     1      84.780  12.870 107.953  1.00  0.00     0.000 C 
BRANCH  18  19
ATOM     19  C   UNL     1      86.088  13.669 108.109  1.00  0.00     0.000 C 
BRANCH  19  20
ATOM     20  C   UNL     1      86.938  13.681 106.827  1.00  0.00     0.000 C 
BRANCH  20  21
ATOM     21  C   UNL     1      88.446  13.698 107.122  1.00  0.00     0.000 C 
BRANCH  21  22
ATOM     22  C   UNL     1      89.291  13.365 105.881  1.00  0.00    -0.000 C 
BRANCH  22  23
ATOM     23  C   UNL     1      89.155  11.896 105.442  1.00  0.00    -0.000 C 
BRANCH  23  24
ATOM     24  C   UNL     1      89.498  10.883 106.555  1.00  0.00    -0.000 C 
BRANCH  24  25
ATOM     25  C   UNL     1      89.325   9.426 106.092  1.00  0.00    -0.000 C 
BRANCH  25  26
ATOM     26  C   UNL     1      90.602   8.591 106.281  1.00  0.00    -0.000 C 
BRANCH  26  27
ATOM     27  C   UNL     1      91.049   8.520 107.752  1.00  0.00    -0.000 C 
BRANCH  27  28
ATOM     28  C   UNL     1      90.792   7.142 108.387  1.00  0.00    -0.000 C 
BRANCH  28  29
ATOM     29  C   UNL     1      89.328   6.876 108.781  1.00  0.00    -0.003 C 
ATOM     30  C   UNL     1      88.756   7.940 109.716  1.00  0.00     0.004 C 
ENDBRANCH  28  29
ENDBRANCH  27  28
ENDBRANCH  26  27
ENDBRANCH  25  26
ENDBRANCH  24  25
ENDBRANCH  23  24
ENDBRANCH  22  23
ENDBRANCH  21  22
ENDBRANCH  20  21
ENDBRANCH  19  20
ENDBRANCH  18  19
ENDBRANCH  17  18
ENDBRANCH   1  17
TORSDOF 26
ENDMDL
MODEL 3
REMARK VINA RESULT:    13.890      1.421      2.463
REMARK INTER + INTRA:          34.427
REMARK INTER:                  33.549
REMARK INTRA:                   0.878
REMARK UNBOUND:                -0.575
REMARK SMILES CCCCCCCCCCCCCCCCCCCCCCCCCCCC(=O)[O-]
REMARK SMILES IDX 15 1 16 2 17 3 18 4 19 5 20 6 21 7 22 8 23 9 24 10 25 11
REMARK SMILES IDX 26 12 27 13 28 14 29 15 30 16 14 17 13 18 12 19 11 20 10 21
REMARK SMILES IDX 9 22 8 23 7 24 6 25 5 26 4 27 3 28 2 29 1 30
REMARK H PARENT
REMARK Flexibility Score: inf
ROOT
ATOM      1  C   UNL     1      82.920  14.985 107.169  1.00  0.00     0.000 C 
ENDROOT
BRANCH   1   2
ATOM      2  C   UNL     1      84.178  15.869 107.182  1.00  0.00     0.000 C 
BRANCH   2   3
ATOM      3  C   UNL     1      83.901  17.294 107.685  1.00  0.00     0.000 C 
BRANCH   3   4
ATOM      4  C   UNL     1      85.150  18.174 107.545  1.00  0.00     0.000 C 
BRANCH   4   5
ATOM      5  C   UNL     1      85.503  18.853 108.877  1.00  0.00     0.000 C 
BRANCH   5   6
ATOM      6  C   UNL     1      86.832  19.621 108.809  1.00  0.00     0.000 C 
BRANCH   6   7
ATOM      7  C   UNL     1      86.878  20.814 109.781  1.00  0.00     0.000 C 
BRANCH   7   8
ATOM      8  C   UNL     1      88.283  21.057 110.361  1.00  0.00     0.000 C 
BRANCH   8   9
ATOM      9  C   UNL     1      88.316  21.828 111.699  1.00  0.00     0.000 C 
BRANCH   9  10
ATOM     10  C   UNL     1      89.162  23.114 111.701  1.00  0.00     0.000 C 
BRANCH  10  11
ATOM     11  C   UNL     1      90.608  22.880 112.171  1.00  0.00     0.000 C 
BRANCH  11  12
ATOM     12  C   UNL     1      90.693  22.502 113.662  1.00  0.00     0.006 C 
BRANCH  12  13
ATOM     13  C   UNL     1      91.332  21.131 113.936  1.00  0.00     0.053 C 
BRANCH  13  14
ATOM     14  C   UNL     1      91.274  20.233 112.739  1.00  0.00     0.041 C 
ATOM     15  O   UNL     1      92.072  20.405 111.780  1.00  0.00    -0.550 OA
ATOM     16  O   UNL     1      90.322  19.223 112.671  1.00  0.00    -0.550 OA
ENDBRANCH  13  14
ENDBRANCH  12  13
ENDBRANCH  11  12
ENDBRANCH  10  11
ENDBRANCH   9  10
ENDBRANCH   8   9
ENDBRANCH   7   8
ENDBRANCH   6   7
ENDBRANCH   5   6
ENDBRANCH   4   5
ENDBRANCH   3   4
ENDBRANCH   2   3
ENDBRANCH   1   2
BRANCH   1  17
ATOM     17  C   UNL     1      83.254  13.483 107.120  1.00  0.00     0.000 C 
BRANCH  17  18
ATOM     18  C   UNL     1      83.692  12.922 108.486  1.00  0.00     0.000 C 
BRANCH  18  19
ATOM     19  C   UNL     1      84.306  13.954 109.451  1.00  0.00     0.000 C 
BRANCH  19  20
ATOM     20  C   UNL     1      85.765  14.300 109.107  1.00  0.00     0.000 C 
BRANCH  20  21
ATOM     21  C   UNL     1      86.180  13.785 107.719  1.00  0.00     0.000 C 
BRANCH  21  22
ATOM     22  C   UNL     1      87.682  13.467 107.637  1.00  0.00    -0.000 C 
BRANCH  22  23
ATOM     23  C   UNL     1      88.302  13.852 106.282  1.00  0.00    -0.000 C 
BRANCH  23  24
ATOM     24  C   UNL     1      89.358  12.847 105.776  1.00  0.00    -0.000 C 
BRANCH  24  25
ATOM     25  C   UNL     1      89.058  11.407 106.229  1.00  0.00    -0.000 C 
BRANCH  25  26
ATOM     26  C   UNL     1      89.637  10.355 105.269  1.00  0.00    -0.000 C 
BRANCH  26  27
ATOM     27  C   UNL     1      90.045   9.058 105.990  1.00  0.00    -0.000 C 
BRANCH  27  28
ATOM     28  C   UNL     1      89.984   9.183 107.524  1.00  0.00    -0.000 C 
BRANCH  28  29
ATOM     29  C   UNL     1      90.802   8.129 108.290  1.00  0.00    -0.003 C 
ATOM     30  C   UNL     1      91.961   7.561 107.474  1.00  0.00     0.004 C 
ENDBRANCH  28  29
ENDBRANCH  27  28
ENDBRANCH  26  27
ENDBRANCH  25  26
ENDBRANCH  24  25
ENDBRANCH  23  24
ENDBRANCH  22  23
ENDBRANCH  21  22
ENDBRANCH  20  21
ENDBRANCH  19  20
ENDBRANCH  18  19
ENDBRANCH  17  18
ENDBRANCH   1  17
TORSDOF 26
ENDMDL
MODEL 4
REMARK VINA RESULT:    13.969      3.558     10.508
REMARK INTER + INTRA:          34.625
REMARK INTER:                  35.482
REMARK INTRA:                  -0.856
REMARK UNBOUND:                -0.575
REMARK SMILES CCCCCCCCCCCCCCCCCCCCCCCCCCCC(=O)[O-]
REMARK SMILES IDX 15 1 16 2 17 3 18 4 19 5 20 6 21 7 22 8 23 9 24 10 25 11
REMARK SMILES IDX 26 12 27 13 28 14 29 15 30 16 14 17 13 18 12 19 11 20 10 21
REMARK SMILES IDX 9 22 8 23 7 24 6 25 5 26 4 27 3 28 2 29 1 30
REMARK H PARENT
REMARK Flexibility Score: inf
ROOT
ATOM      1  C   UNL     1      82.735  14.599 106.700  1.00  0.00     0.000 C 
ENDROOT
BRANCH   1   2
ATOM      2  C   UNL     1      83.132  13.523 107.724  1.00  0.00     0.000 C 
BRANCH   2   3
ATOM      3  C   UNL     1      83.109  14.040 109.171  1.00  0.00     0.000 C 
BRANCH   3   4
ATOM      4  C   UNL     1      84.472  13.834 109.845  1.00  0.00     0.000 C 
BRANCH   4   5
ATOM      5  C   UNL     1      85.491  13.232 108.864  1.00  0.00     0.000 C 
BRANCH   5   6
ATOM      6  C   UNL     1      86.531  14.262 108.394  1.00  0.00     0.000 C 
BRANCH   6   7
ATOM      7  C   UNL     1      87.059  13.966 106.980  1.00  0.00     0.000 C 
BRANCH   7   8
ATOM      8  C   UNL     1      88.578  13.717 106.951  1.00  0.00     0.000 C 
BRANCH   8   9
ATOM      9  C   UNL     1      89.055  12.694 105.898  1.00  0.00     0.000 C 
BRANCH   9  10
ATOM     10  C   UNL     1      88.778  11.218 106.236  1.00  0.00     0.000 C 
BRANCH  10  11
ATOM     11  C   UNL     1      89.657  10.243 105.433  1.00  0.00     0.000 C 
BRANCH  11  12
ATOM     12  C   UNL     1      90.710   9.536 106.306  1.00  0.00     0.006 C 
BRANCH  12  13
ATOM     13  C   UNL     1      90.486   8.026 106.479  1.00  0.00     0.053 C 
BRANCH  13  14
ATOM     14  C   UNL     1      90.757   7.572 107.880  1.00  0.00     0.041 C 
ATOM     15  O   UNL     1      91.782   6.888 108.138  1.00  0.00    -0.550 OA
ATOM     16  O   UNL     1      89.863   7.885 108.898  1.00  0.00    -0.550 OA
ENDBRANCH  13  14
ENDBRANCH  12  13
ENDBRANCH  11  12
ENDBRANCH  10  11
ENDBRANCH   9  10
ENDBRANCH   8   9
ENDBRANCH   7   8
ENDBRANCH   6   7
ENDBRANCH   5   6
ENDBRANCH   4   5
ENDBRANCH   3   4
ENDBRANCH   2   3
ENDBRANCH   1   2
BRANCH   1  17
ATOM     17  C   UNL     1      83.901  15.539 106.348  1.00  0.00     0.000 C 
BRANCH  17  18
ATOM     18  C   UNL     1      84.421  16.331 107.564  1.00  0.00     0.000 C 
BRANCH  18  19
ATOM     19  C   UNL     1      84.240  17.858 107.474  1.00  0.00     0.000 C 
BRANCH  19  20
ATOM     20  C   UNL     1      84.863  18.605 108.667  1.00  0.00     0.000 C 
BRANCH  20  21
ATOM     21  C   UNL     1      86.261  19.158 108.348  1.00  0.00     0.000 C 
BRANCH  21  22
ATOM     22  C   UNL     1      86.523  20.516 109.021  1.00  0.00    -0.000 C 
BRANCH  22  23
ATOM     23  C   UNL     1      87.791  20.517 109.893  1.00  0.00    -0.000 C 
BRANCH  23  24
ATOM     24  C   UNL     1      87.995  21.826 110.685  1.00  0.00    -0.000 C 
BRANCH  24  25
ATOM     25  C   UNL     1      88.657  21.583 112.054  1.00  0.00    -0.000 C 
BRANCH  25  26
ATOM     26  C   UNL     1      89.554  22.753 112.490  1.00  0.00    -0.000 C 
BRANCH  26  27
ATOM     27  C   UNL     1      91.008  22.319 112.748  1.00  0.00    -0.000 C 
BRANCH  27  28
ATOM     28  C   UNL     1      91.196  20.792 112.678  1.00  0.00    -0.000 C 
BRANCH  28  29
ATOM     29  C   UNL     1      92.221  20.315 111.634  1.00  0.00    -0.003 C 
ATOM     30  C   UNL     1      93.071  19.143 112.121  1.00  0.00     0.004 C 
ENDBRANCH  28  29
ENDBRANCH  27  28
ENDBRANCH  26  27
ENDBRANCH  25  26
ENDBRANCH  24  25
ENDBRANCH  23  24
ENDBRANCH  22  23
ENDBRANCH  21  22
ENDBRANCH  20  21
ENDBRANCH  19  20
ENDBRANCH  18  19
ENDBRANCH  17  18
ENDBRANCH   1  17
TORSDOF 26
ENDMDL
MODEL 5
REMARK VINA RESULT:    14.495      3.373     10.902
REMARK INTER + INTRA:          35.951
REMARK INTER:                  37.429
REMARK INTRA:                  -1.478
REMARK UNBOUND:                -0.575
REMARK SMILES CCCCCCCCCCCCCCCCCCCCCCCCCCCC(=O)[O-]
REMARK SMILES IDX 15 1 16 2 17 3 18 4 19 5 20 6 21 7 22 8 23 9 24 10 25 11
REMARK SMILES IDX 26 12 27 13 28 14 29 15 30 16 14 17 13 18 12 19 11 20 10 21
REMARK SMILES IDX 9 22 8 23 7 24 6 25 5 26 4 27 3 28 2 29 1 30
REMARK H PARENT
REMARK Flexibility Score: inf
ROOT
ATOM      1  C   UNL     1      82.979  14.530 106.988  1.00  0.00     0.000 C 
ENDROOT
BRANCH   1   2
ATOM      2  C   UNL     1      83.531  13.686 108.148  1.00  0.00     0.000 C 
BRANCH   2   3
ATOM      3  C   UNL     1      84.672  12.751 107.716  1.00  0.00     0.000 C 
BRANCH   3   4
ATOM      4  C   UNL     1      86.017  13.245 108.263  1.00  0.00     0.000 C 
BRANCH   4   5
ATOM      5  C   UNL     1      87.028  13.473 107.128  1.00  0.00     0.000 C 
BRANCH   5   6
ATOM      6  C   UNL     1      88.078  12.354 107.045  1.00  0.00     0.000 C 
BRANCH   6   7
ATOM      7  C   UNL     1      88.775  12.296 105.675  1.00  0.00     0.000 C 
BRANCH   7   8
ATOM      8  C   UNL     1      89.646  11.038 105.501  1.00  0.00     0.000 C 
BRANCH   8   9
ATOM      9  C   UNL     1      89.567  10.020 106.660  1.00  0.00     0.000 C 
BRANCH   9  10
ATOM     10  C   UNL     1      90.664   8.939 106.667  1.00  0.00     0.000 C 
BRANCH  10  11
ATOM     11  C   UNL     1      90.459   7.884 107.767  1.00  0.00     0.000 C 
BRANCH  11  12
ATOM     12  C   UNL     1      89.390   8.298 108.795  1.00  0.00     0.006 C 
BRANCH  12  13
ATOM     13  C   UNL     1      89.025   7.204 109.811  1.00  0.00     0.053 C 
BRANCH  13  14
ATOM     14  C   UNL     1      87.812   7.563 110.613  1.00  0.00     0.041 C 
ATOM     15  O   UNL     1      87.725   7.211 111.819  1.00  0.00    -0.550 OA
ATOM     16  O   UNL     1      86.767   8.264 110.022  1.00  0.00    -0.550 OA
ENDBRANCH  13  14
ENDBRANCH  12  13
ENDBRANCH  11  12
ENDBRANCH  10  11
ENDBRANCH   9  10
ENDBRANCH   8   9
ENDBRANCH   7   8
ENDBRANCH   6   7
ENDBRANCH   5   6
ENDBRANCH   4   5
ENDBRANCH   3   4
ENDBRANCH   2   3
ENDBRANCH   1   2
BRANCH   1  17
ATOM     17  C   UNL     1      83.929  15.672 106.584  1.00  0.00     0.000 C 
BRANCH  17  18
ATOM     18  C   UNL     1      84.546  16.396 107.796  1.00  0.00     0.000 C 
BRANCH  18  19
ATOM     19  C   UNL     1      84.674  17.924 107.649  1.00  0.00     0.000 C 
BRANCH  19  20
ATOM     20  C   UNL     1      85.925  18.489 108.346  1.00  0.00     0.000 C 
BRANCH  20  21
ATOM     21  C   UNL     1      85.732  19.940 108.814  1.00  0.00     0.000 C 
BRANCH  21  22
ATOM     22  C   UNL     1      86.751  20.350 109.890  1.00  0.00    -0.000 C 
BRANCH  22  23
ATOM     23  C   UNL     1      87.530  21.625 109.522  1.00  0.00    -0.000 C 
BRANCH  23  24
ATOM     24  C   UNL     1      88.786  21.855 110.389  1.00  0.00    -0.000 C 
BRANCH  24  25
ATOM     25  C   UNL     1      88.437  22.121 111.864  1.00  0.00    -0.000 C 
BRANCH  25  26
ATOM     26  C   UNL     1      89.672  22.477 112.707  1.00  0.00    -0.000 C 
BRANCH  26  27
ATOM     27  C   UNL     1      90.921  21.681 112.291  1.00  0.00    -0.000 C 
BRANCH  27  28
ATOM     28  C   UNL     1      91.156  20.437 113.168  1.00  0.00    -0.000 C 
BRANCH  28  29
ATOM     29  C   UNL     1      91.957  19.311 112.489  1.00  0.00    -0.003 C 
ATOM     30  C   UNL     1      93.014  19.831 111.516  1.00  0.00     0.004 C 
ENDBRANCH  28  29
ENDBRANCH  27  28
ENDBRANCH  26  27
ENDBRANCH  25  26
ENDBRANCH  24  25
ENDBRANCH  23  24
ENDBRANCH  22  23
ENDBRANCH  21  22
ENDBRANCH  20  21
ENDBRANCH  19  20
ENDBRANCH  18  19
ENDBRANCH  17  18
ENDBRANCH   1  17
TORSDOF 26
ENDMDL
MODEL 6
REMARK VINA RESULT:    14.853      3.766     10.713
REMARK INTER + INTRA:          36.853
REMARK INTER:                  37.966
REMARK INTRA:                  -1.113
REMARK UNBOUND:                -0.575
REMARK SMILES CCCCCCCCCCCCCCCCCCCCCCCCCCCC(=O)[O-]
REMARK SMILES IDX 15 1 16 2 17 3 18 4 19 5 20 6 21 7 22 8 23 9 24 10 25 11
REMARK SMILES IDX 26 12 27 13 28 14 29 15 30 16 14 17 13 18 12 19 11 20 10 21
REMARK SMILES IDX 9 22 8 23 7 24 6 25 5 26 4 27 3 28 2 29 1 30
REMARK H PARENT
REMARK Flexibility Score: inf
ROOT
ATOM      1  C   UNL     1      83.586  15.874 106.863  1.00  0.00     0.000 C 
ENDROOT
BRANCH   1   2
ATOM      2  C   UNL     1      82.950  14.731 107.670  1.00  0.00     0.000 C 
BRANCH   2   3
ATOM      3  C   UNL     1      83.561  14.577 109.072  1.00  0.00     0.000 C 
BRANCH   3   4
ATOM      4  C   UNL     1      84.610  13.459 109.089  1.00  0.00     0.000 C 
BRANCH   4   5
ATOM      5  C   UNL     1      84.682  12.743 107.731  1.00  0.00     0.000 C 
BRANCH   5   6
ATOM      6  C   UNL     1      86.123  12.388 107.331  1.00  0.00     0.000 C 
BRANCH   6   7
ATOM      7  C   UNL     1      87.062  13.607 107.358  1.00  0.00     0.000 C 
BRANCH   7   8
ATOM      8  C   UNL     1      88.336  13.397 106.519  1.00  0.00     0.000 C 
BRANCH   8   9
ATOM      9  C   UNL     1      89.011  12.018 106.685  1.00  0.00     0.000 C 
BRANCH   9  10
ATOM     10  C   UNL     1      89.471  11.345 105.379  1.00  0.00     0.000 C 
BRANCH  10  11
ATOM     11  C   UNL     1      89.772   9.846 105.550  1.00  0.00     0.000 C 
BRANCH  11  12
ATOM     12  C   UNL     1      89.566   9.360 106.997  1.00  0.00     0.006 C 
BRANCH  12  13
ATOM     13  C   UNL     1      90.866   9.102 107.773  1.00  0.00     0.053 C 
BRANCH  13  14
ATOM     14  C   UNL     1      91.012   7.663 108.164  1.00  0.00     0.041 C 
ATOM     15  O   UNL     1      92.070   7.037 107.891  1.00  0.00    -0.550 OA
ATOM     16  O   UNL     1      89.969   7.006 108.808  1.00  0.00    -0.550 OA
ENDBRANCH  13  14
ENDBRANCH  12  13
ENDBRANCH  11  12
ENDBRANCH  10  11
ENDBRANCH   9  10
ENDBRANCH   8   9
ENDBRANCH   7   8
ENDBRANCH   6   7
ENDBRANCH   5   6
ENDBRANCH   4   5
ENDBRANCH   3   4
ENDBRANCH   2   3
ENDBRANCH   1   2
BRANCH   1  17
ATOM     17  C   UNL     1      84.818  16.476 107.563  1.00  0.00     0.000 C 
BRANCH  17  18
ATOM     18  C   UNL     1      84.554  17.881 108.137  1.00  0.00     0.000 C 
BRANCH  18  19
ATOM     19  C   UNL     1      85.682  18.904 107.906  1.00  0.00     0.000 C 
BRANCH  19  20
ATOM     20  C   UNL     1      86.455  19.244 109.191  1.00  0.00     0.000 C 
BRANCH  20  21
ATOM     21  C   UNL     1      86.750  20.747 109.320  1.00  0.00     0.000 C 
BRANCH  21  22
ATOM     22  C   UNL     1      87.167  21.143 110.746  1.00  0.00    -0.000 C 
BRANCH  22  23
ATOM     23  C   UNL     1      88.642  21.572 110.842  1.00  0.00    -0.000 C 
BRANCH  23  24
ATOM     24  C   UNL     1      88.870  22.806 111.740  1.00  0.00    -0.000 C 
BRANCH  24  25
ATOM     25  C   UNL     1      90.342  22.953 112.167  1.00  0.00    -0.000 C 
BRANCH  25  26
ATOM     26  C   UNL     1      90.626  22.313 113.535  1.00  0.00    -0.000 C 
BRANCH  26  27
ATOM     27  C   UNL     1      90.288  20.812 113.567  1.00  0.00    -0.000 C 
BRANCH  27  28
ATOM     28  C   UNL     1      91.013  20.015 112.467  1.00  0.00    -0.000 C 
BRANCH  28  29
ATOM     29  C   UNL     1      92.541  20.198 112.438  1.00  0.00    -0.003 C 
ATOM     30  C   UNL     1      93.216  19.421 111.309  1.00  0.00     0.004 C 
ENDBRANCH  28  29
ENDBRANCH  27  28
ENDBRANCH  26  27
ENDBRANCH  25  26
ENDBRANCH  24  25
ENDBRANCH  23  24
ENDBRANCH  22  23
ENDBRANCH  21  22
ENDBRANCH  20  21
ENDBRANCH  19  20
ENDBRANCH  18  19
ENDBRANCH  17  18
ENDBRANCH   1  17
TORSDOF 26
ENDMDL
