MODEL 1
REMARK VINA RESULT:    -3.929      0.000      0.000
REMARK INTER + INTRA:          -6.263
REMARK INTER:                  -5.996
REMARK INTRA:                  -0.267
REMARK UNBOUND:                -0.267
REMARK SMILES CC1=CCC[C@H](C)C(=O)C[C@@H](C(C)C)C(=O)C1
REMARK SMILES IDX 8 1 9 2 6 3 7 4 5 5 4 6 3 7 2 8 1 9 10 11 11 12 15 13 16 14
REMARK SMILES IDX 17 15 12 17 13 18 14 19
REMARK H PARENT
REMARK Flexibility Score: 70.00
ROOT
ATOM      1  C   UNL     1      12.779  19.121  56.968  1.00  0.00     0.136 C 
ATOM      2  O   UNL     1      13.061  19.020  58.154  1.00  0.00    -0.299 OA
ENDROOT
BRANCH   1   3
ATOM      3  C   UNL     1      13.880  18.905  55.943  1.00  0.00     0.053 C 
ATOM      4  C   UNL     1      15.265  19.099  56.572  1.00  0.00     0.016 C 
BRANCH   3   5
ATOM      5  C   UNL     1      13.778  17.532  55.246  1.00  0.00     0.015 C 
BRANCH   5   6
ATOM      6  C   UNL     1      13.143  17.618  53.838  1.00  0.00     0.028 C 
BRANCH   6   7
ATOM      7  C   UNL     1      12.163  16.489  53.618  1.00  0.00    -0.028 C 
ATOM      8  C   UNL     1      10.842  16.527  53.920  1.00  0.00    -0.070 CG0
ATOM      9  C   UNL     1      10.041  15.262  53.753  1.00  0.00     0.039 C 
ATOM     10  G   UNL     1      10.135  17.783  54.408  1.00  0.00     0.000 G0
ENDBRANCH   6   7
ENDBRANCH   5   6
ENDBRANCH   3   5
ENDBRANCH   1   3
BRANCH   1  11
ATOM     11  C   UNL     1      11.347  19.457  56.596  1.00  0.00     0.087 C 
BRANCH  11  12
ATOM     12  C   UNL     1      10.332  18.356  57.007  1.00  0.00     0.066 C 
BRANCH  12  13
ATOM     13  C   UNL     1       9.589  17.783  55.804  1.00  0.00     0.140 C 
ATOM     14  O   UNL     1       8.488  17.283  55.977  1.00  0.00    -0.299 OA
BRANCH  13  15
ATOM     15  C   UNL     1      10.133  17.798  54.386  1.00  0.00     0.106 CG0
ATOM     16  G   UNL     1      10.836  16.526  53.936  1.00  0.00     0.000 G0
ENDBRANCH  13  15
ENDBRANCH  12  13
BRANCH  12  17
ATOM     17  C   UNL     1       9.335  18.797  58.124  1.00  0.00    -0.006 C 
ATOM     18  C   UNL     1       9.777  18.300  59.510  1.00  0.00     0.008 C 
ATOM     19  C   UNL     1       9.061  20.311  58.176  1.00  0.00     0.008 C 
ENDBRANCH  12  17
ENDBRANCH  11  12
ENDBRANCH   1  11
TORSDOF 1
ENDMDL
MODEL 2
REMARK VINA RESULT:    -3.827      1.899      4.402
REMARK INTER + INTRA:          -6.107
REMARK INTER:                  -6.067
REMARK INTRA:                  -0.040
REMARK UNBOUND:                -0.267
REMARK SMILES CC1=CCC[C@H](C)C(=O)C[C@@H](C(C)C)C(=O)C1
REMARK SMILES IDX 8 1 9 2 6 3 7 4 5 5 4 6 3 7 2 8 1 9 10 11 11 12 15 13 16 14
REMARK SMILES IDX 17 15 12 17 13 18 14 19
REMARK H PARENT
REMARK Flexibility Score: 70.00
ROOT
ATOM      1  C   UNL     1      14.391  18.639  54.891  1.00  0.00     0.136 C 
ATOM      2  O   UNL     1      14.716  19.458  54.042  1.00  0.00    -0.299 OA
ENDROOT
BRANCH   1   3
ATOM      3  C   UNL     1      15.123  18.652  56.223  1.00  0.00     0.053 C 
ATOM      4  C   UNL     1      16.581  19.093  56.047  1.00  0.00     0.016 C 
BRANCH   3   5
ATOM      5  C   UNL     1      14.408  19.515  57.283  1.00  0.00     0.015 C 
BRANCH   5   6
ATOM      6  C   UNL     1      13.251  18.769  57.987  1.00  0.00     0.028 C 
BRANCH   6   7
ATOM      7  C   UNL     1      11.981  19.587  57.953  1.00  0.00    -0.028 C 
ATOM      8  C   UNL     1      10.934  19.376  57.118  1.00  0.00    -0.070 CG0
ATOM      9  C   UNL     1       9.803  20.372  57.135  1.00  0.00     0.039 C 
ATOM     10  G   UNL     1      10.846  18.183  56.178  1.00  0.00     0.000 G0
ENDBRANCH   6   7
ENDBRANCH   5   6
ENDBRANCH   3   5
ENDBRANCH   1   3
BRANCH   1  11
ATOM     11  C   UNL     1      13.278  17.664  54.561  1.00  0.00     0.087 C 
BRANCH  11  12
ATOM     12  C   UNL     1      12.088  18.321  53.808  1.00  0.00     0.066 C 
BRANCH  12  13
ATOM     13  C   UNL     1      10.866  18.490  54.704  1.00  0.00     0.140 C 
ATOM     14  O   UNL     1       9.828  18.903  54.210  1.00  0.00    -0.299 OA
BRANCH  13  15
ATOM     15  C   UNL     1      10.854  18.174  56.189  1.00  0.00     0.106 CG0
ATOM     16  G   UNL     1      10.926  19.375  57.121  1.00  0.00     0.000 G0
ENDBRANCH  13  15
ENDBRANCH  12  13
BRANCH  12  17
ATOM     17  C   UNL     1      11.710  17.605  52.473  1.00  0.00    -0.006 C 
ATOM     18  C   UNL     1      12.906  17.528  51.510  1.00  0.00     0.008 C 
ATOM     19  C   UNL     1      11.091  16.207  52.649  1.00  0.00     0.008 C 
ENDBRANCH  12  17
ENDBRANCH  11  12
ENDBRANCH   1  11
TORSDOF 1
ENDMDL
MODEL 3
REMARK VINA RESULT:    -3.818      2.321      4.786
REMARK INTER + INTRA:          -6.093
REMARK INTER:                  -5.773
REMARK INTRA:                  -0.320
REMARK UNBOUND:                -0.267
REMARK SMILES CC1=CCC[C@H](C)C(=O)C[C@@H](C(C)C)C(=O)C1
REMARK SMILES IDX 8 1 9 2 6 3 7 4 5 5 4 6 3 7 2 8 1 9 10 11 11 12 15 13 16 14
REMARK SMILES IDX 17 15 12 17 13 18 14 19
REMARK H PARENT
REMARK Flexibility Score: 70.00
ROOT
ATOM      1  C   UNL     1      11.371  19.270  57.284  1.00  0.00     0.136 C 
ATOM      2  O   UNL     1      12.427  19.717  57.710  1.00  0.00    -0.299 OA
ENDROOT
BRANCH   1   3
ATOM      3  C   UNL     1      10.088  19.632  58.013  1.00  0.00     0.053 C 
ATOM      4  C   UNL     1       9.998  18.910  59.364  1.00  0.00     0.016 C 
BRANCH   3   5
ATOM      5  C   UNL     1       9.915  21.155  58.189  1.00  0.00     0.015 C 
BRANCH   5   6
ATOM      6  C   UNL     1       9.736  21.899  56.845  1.00  0.00     0.028 C 
BRANCH   6   7
ATOM      7  C   UNL     1       8.634  21.272  56.023  1.00  0.00    -0.028 C 
ATOM      8  C   UNL     1       8.749  20.872  54.734  1.00  0.00    -0.070 CG0
ATOM      9  C   UNL     1       7.507  20.386  54.031  1.00  0.00     0.039 C 
ATOM     10  G   UNL     1      10.065  20.883  53.972  1.00  0.00     0.000 G0
ENDBRANCH   6   7
ENDBRANCH   5   6
ENDBRANCH   3   5
ENDBRANCH   1   3
BRANCH   1  11
ATOM     11  C   UNL     1      11.409  18.383  56.054  1.00  0.00     0.087 C 
BRANCH  11  12
ATOM     12  C   UNL     1      11.929  19.114  54.786  1.00  0.00     0.066 C 
BRANCH  12  13
ATOM     13  C   UNL     1      10.792  19.536  53.861  1.00  0.00     0.140 C 
ATOM     14  O   UNL     1      10.429  18.765  52.986  1.00  0.00    -0.299 OA
BRANCH  13  15
ATOM     15  C   UNL     1      10.071  20.869  53.959  1.00  0.00     0.106 CG0
ATOM     16  G   UNL     1       8.756  20.854  54.726  1.00  0.00     0.000 G0
ENDBRANCH  13  15
ENDBRANCH  12  13
BRANCH  12  17
ATOM     17  C   UNL     1      13.025  18.324  54.003  1.00  0.00    -0.006 C 
ATOM     18  C   UNL     1      14.255  19.198  53.708  1.00  0.00     0.008 C 
ATOM     19  C   UNL     1      13.468  17.010  54.671  1.00  0.00     0.008 C 
ENDBRANCH  12  17
ENDBRANCH  11  12
ENDBRANCH   1  11
TORSDOF 1
ENDMDL
MODEL 4
REMARK VINA RESULT:    -3.815      1.830      4.305
REMARK INTER + INTRA:          -6.090
REMARK INTER:                  -5.854
REMARK INTRA:                  -0.236
REMARK UNBOUND:                -0.267
REMARK SMILES CC1=CCC[C@H](C)C(=O)C[C@@H](C(C)C)C(=O)C1
REMARK SMILES IDX 8 1 9 2 6 3 7 4 5 5 4 6 3 7 2 8 1 9 10 11 11 12 15 13 16 14
REMARK SMILES IDX 17 15 12 17 13 18 14 19
REMARK H PARENT
REMARK Flexibility Score: 70.00
ROOT
ATOM      1  C   UNL     1      12.364  19.332  57.338  1.00  0.00     0.136 C 
ATOM      2  O   UNL     1      12.395  20.388  57.954  1.00  0.00    -0.299 OA
ENDROOT
BRANCH   1   3
ATOM      3  C   UNL     1      11.010  18.770  56.937  1.00  0.00     0.053 C 
ATOM      4  C   UNL     1      10.224  18.293  58.164  1.00  0.00     0.016 C 
BRANCH   3   5
ATOM      5  C   UNL     1      10.179  19.768  56.104  1.00  0.00     0.015 C 
BRANCH   5   6
ATOM      6  C   UNL     1      10.647  19.861  54.633  1.00  0.00     0.028 C 
BRANCH   6   7
ATOM      7  C   UNL     1      10.449  18.544  53.919  1.00  0.00    -0.028 C 
ATOM      8  C   UNL     1      11.421  17.838  53.291  1.00  0.00    -0.070 CG0
ATOM      9  C   UNL     1      11.017  16.608  52.520  1.00  0.00     0.039 C 
ATOM     10  G   UNL     1      12.892  18.223  53.338  1.00  0.00     0.000 G0
ENDBRANCH   6   7
ENDBRANCH   5   6
ENDBRANCH   3   5
ENDBRANCH   1   3
BRANCH   1  11
ATOM     11  C   UNL     1      13.679  18.649  57.013  1.00  0.00     0.087 C 
BRANCH  11  12
ATOM     12  C   UNL     1      14.173  18.925  55.567  1.00  0.00     0.066 C 
BRANCH  12  13
ATOM     13  C   UNL     1      13.663  17.882  54.578  1.00  0.00     0.140 C 
ATOM     14  O   UNL     1      13.872  16.701  54.809  1.00  0.00    -0.299 OA
BRANCH  13  15
ATOM     15  C   UNL     1      12.899  18.220  53.310  1.00  0.00     0.106 CG0
ATOM     16  G   UNL     1      11.426  17.842  53.305  1.00  0.00     0.000 G0
ENDBRANCH  13  15
ENDBRANCH  12  13
BRANCH  12  17
ATOM     17  C   UNL     1      15.720  19.101  55.448  1.00  0.00    -0.006 C 
ATOM     18  C   UNL     1      16.091  20.238  54.482  1.00  0.00     0.008 C 
ATOM     19  C   UNL     1      16.447  19.299  56.791  1.00  0.00     0.008 C 
ENDBRANCH  12  17
ENDBRANCH  11  12
ENDBRANCH   1  11
TORSDOF 1
ENDMDL
MODEL 5
REMARK VINA RESULT:    -3.533      3.015      5.309
REMARK INTER + INTRA:          -5.659
REMARK INTER:                  -5.416
REMARK INTRA:                  -0.244
REMARK UNBOUND:                -0.267
REMARK SMILES CC1=CCC[C@H](C)C(=O)C[C@@H](C(C)C)C(=O)C1
REMARK SMILES IDX 8 1 9 2 6 3 7 4 5 5 4 6 3 7 2 8 1 9 10 11 11 12 15 13 16 14
REMARK SMILES IDX 17 15 12 17 13 18 14 19
REMARK H PARENT
REMARK Flexibility Score: 70.00
ROOT
ATOM      1  C   UNL     1       5.991  21.070  56.286  1.00  0.00     0.136 C 
ATOM      2  O   UNL     1       5.051  21.780  56.614  1.00  0.00    -0.299 OA
ENDROOT
BRANCH   1   3
ATOM      3  C   UNL     1       7.141  21.704  55.521  1.00  0.00     0.053 C 
ATOM      4  C   UNL     1       6.628  22.519  54.327  1.00  0.00     0.016 C 
BRANCH   3   5
ATOM      5  C   UNL     1       8.050  22.563  56.425  1.00  0.00     0.015 C 
BRANCH   5   6
ATOM      6  C   UNL     1       9.290  21.793  56.936  1.00  0.00     0.028 C 
BRANCH   6   7
ATOM      7  C   UNL     1       9.951  21.027  55.814  1.00  0.00    -0.028 C 
ATOM      8  C   UNL     1      10.178  19.691  55.804  1.00  0.00    -0.070 CG0
ATOM      9  C   UNL     1      10.967  19.115  54.656  1.00  0.00     0.039 C 
ATOM     10  G   UNL     1       9.669  18.751  56.887  1.00  0.00     0.000 G0
ENDBRANCH   6   7
ENDBRANCH   5   6
ENDBRANCH   3   5
ENDBRANCH   1   3
BRANCH   1  11
ATOM     11  C   UNL     1       5.949  19.601  56.663  1.00  0.00     0.087 C 
BRANCH  11  12
ATOM     12  C   UNL     1       7.114  19.174  57.596  1.00  0.00     0.066 C 
BRANCH  12  13
ATOM     13  C   UNL     1       8.189  18.390  56.850  1.00  0.00     0.140 C 
ATOM     14  O   UNL     1       7.854  17.424  56.181  1.00  0.00    -0.299 OA
BRANCH  13  15
ATOM     15  C   UNL     1       9.667  18.737  56.882  1.00  0.00     0.106 CG0
ATOM     16  G   UNL     1      10.148  19.678  55.788  1.00  0.00     0.000 G0
ENDBRANCH  13  15
ENDBRANCH  12  13
BRANCH  12  17
ATOM     17  C   UNL     1       6.653  18.412  58.878  1.00  0.00    -0.006 C 
ATOM     18  C   UNL     1       7.657  18.577  60.031  1.00  0.00     0.008 C 
ATOM     19  C   UNL     1       5.238  18.775  59.364  1.00  0.00     0.008 C 
ENDBRANCH  12  17
ENDBRANCH  11  12
ENDBRANCH   1  11
TORSDOF 1
ENDMDL
MODEL 6
REMARK VINA RESULT:    -3.497      6.692      8.569
REMARK INTER + INTRA:          -5.604
REMARK INTER:                  -5.179
REMARK INTRA:                  -0.425
REMARK UNBOUND:                -0.267
REMARK SMILES CC1=CCC[C@H](C)C(=O)C[C@@H](C(C)C)C(=O)C1
REMARK SMILES IDX 8 1 9 2 6 3 7 4 5 5 4 6 3 7 2 8 1 9 10 11 11 12 15 13 16 14
REMARK SMILES IDX 17 15 12 17 13 18 14 19
REMARK H PARENT
REMARK Flexibility Score: 70.00
ROOT
ATOM      1  C   UNL     1       6.499  25.117  55.150  1.00  0.00     0.136 C 
ATOM      2  O   UNL     1       7.359  25.983  55.234  1.00  0.00    -0.299 OA
ENDROOT
BRANCH   1   3
ATOM      3  C   UNL     1       5.106  25.525  54.702  1.00  0.00     0.053 C 
ATOM      4  C   UNL     1       4.513  26.584  55.640  1.00  0.00     0.016 C 
BRANCH   3   5
ATOM      5  C   UNL     1       5.071  26.004  53.236  1.00  0.00     0.015 C 
BRANCH   5   6
ATOM      6  C   UNL     1       5.038  24.836  52.222  1.00  0.00     0.028 C 
BRANCH   6   7
ATOM      7  C   UNL     1       4.056  23.772  52.656  1.00  0.00    -0.028 C 
ATOM      8  C   UNL     1       4.331  22.449  52.762  1.00  0.00    -0.070 CG0
ATOM      9  C   UNL     1       3.193  21.514  53.084  1.00  0.00     0.039 C 
ATOM     10  G   UNL     1       5.726  21.870  52.581  1.00  0.00     0.000 G0
ENDBRANCH   6   7
ENDBRANCH   5   6
ENDBRANCH   3   5
ENDBRANCH   1   3
BRANCH   1  11
ATOM     11  C   UNL     1       6.879  23.690  55.497  1.00  0.00     0.087 C 
BRANCH  11  12
ATOM     12  C   UNL     1       7.493  22.910  54.302  1.00  0.00     0.066 C 
BRANCH  12  13
ATOM     13  C   UNL     1       6.589  21.774  53.834  1.00  0.00     0.140 C 
ATOM     14  O   UNL     1       6.547  20.746  54.493  1.00  0.00    -0.299 OA
BRANCH  13  15
ATOM     15  C   UNL     1       5.724  21.838  52.588  1.00  0.00     0.106 CG0
ATOM     16  G   UNL     1       4.346  22.455  52.771  1.00  0.00     0.000 G0
ENDBRANCH  13  15
ENDBRANCH  12  13
BRANCH  12  17
ATOM     17  C   UNL     1       8.947  22.401  54.556  1.00  0.00    -0.006 C 
ATOM     18  C   UNL     1       9.836  22.576  53.315  1.00  0.00     0.008 C 
ATOM     19  C   UNL     1       9.637  23.022  55.784  1.00  0.00     0.008 C 
ENDBRANCH  12  17
ENDBRANCH  11  12
ENDBRANCH   1  11
TORSDOF 1
ENDMDL
MODEL 7
REMARK VINA RESULT:    -3.420      3.288      4.674
REMARK INTER + INTRA:          -5.486
REMARK INTER:                  -5.141
REMARK INTRA:                  -0.345
REMARK UNBOUND:                -0.267
REMARK SMILES CC1=CCC[C@H](C)C(=O)C[C@@H](C(C)C)C(=O)C1
REMARK SMILES IDX 8 1 9 2 6 3 7 4 5 5 4 6 3 7 2 8 1 9 10 11 11 12 15 13 16 14
REMARK SMILES IDX 17 15 12 17 13 18 14 19
REMARK H PARENT
REMARK Flexibility Score: 70.00
ROOT
ATOM      1  C   UNL     1      10.277  20.298  56.954  1.00  0.00     0.136 C 
ATOM      2  O   UNL     1      10.845  21.228  57.509  1.00  0.00    -0.299 OA
ENDROOT
BRANCH   1   3
ATOM      3  C   UNL     1       9.872  19.096  57.790  1.00  0.00     0.053 C 
ATOM      4  C   UNL     1      11.065  18.548  58.583  1.00  0.00     0.016 C 
BRANCH   3   5
ATOM      5  C   UNL     1       8.682  19.398  58.724  1.00  0.00     0.015 C 
BRANCH   5   6
ATOM      6  C   UNL     1       7.333  18.888  58.163  1.00  0.00     0.028 C 
BRANCH   6   7
ATOM      7  C   UNL     1       7.553  17.836  57.101  1.00  0.00    -0.028 C 
ATOM      8  C   UNL     1       7.223  17.963  55.792  1.00  0.00    -0.070 CG0
ATOM      9  C   UNL     1       7.396  16.761  54.900  1.00  0.00     0.039 C 
ATOM     10  G   UNL     1       6.697  19.256  55.187  1.00  0.00     0.000 G0
ENDBRANCH   6   7
ENDBRANCH   5   6
ENDBRANCH   3   5
ENDBRANCH   1   3
BRANCH   1  11
ATOM     11  C   UNL     1      10.013  20.404  55.464  1.00  0.00     0.087 C 
BRANCH  11  12
ATOM     12  C   UNL     1       8.656  21.080  55.127  1.00  0.00     0.066 C 
BRANCH  12  13
ATOM     13  C   UNL     1       7.694  20.121  54.432  1.00  0.00     0.140 C 
ATOM     14  O   UNL     1       7.728  20.036  53.214  1.00  0.00    -0.299 OA
BRANCH  13  15
ATOM     15  C   UNL     1       6.686  19.254  55.164  1.00  0.00     0.106 CG0
ATOM     16  G   UNL     1       7.238  17.977  55.781  1.00  0.00     0.000 G0
ENDBRANCH  13  15
ENDBRANCH  12  13
BRANCH  12  17
ATOM     17  C   UNL     1       8.792  22.414  54.329  1.00  0.00    -0.006 C 
ATOM     18  C   UNL     1       8.581  23.642  55.231  1.00  0.00     0.008 C 
ATOM     19  C   UNL     1      10.112  22.562  53.549  1.00  0.00     0.008 C 
ENDBRANCH  12  17
ENDBRANCH  11  12
ENDBRANCH   1  11
TORSDOF 1
ENDMDL
MODEL 8
REMARK VINA RESULT:    -3.303      5.873      7.230
REMARK INTER + INTRA:          -5.308
REMARK INTER:                  -5.062
REMARK INTRA:                  -0.246
REMARK UNBOUND:                -0.267
REMARK SMILES CC1=CCC[C@H](C)C(=O)C[C@@H](C(C)C)C(=O)C1
REMARK SMILES IDX 8 1 9 2 6 3 7 4 5 5 4 6 3 7 2 8 1 9 10 11 11 12 15 13 16 14
REMARK SMILES IDX 17 15 12 17 13 18 14 19
REMARK H PARENT
REMARK Flexibility Score: 70.00
ROOT
ATOM      1  C   UNL     1       8.258  23.501  54.011  1.00  0.00     0.136 C 
ATOM      2  O   UNL     1       8.811  23.742  55.075  1.00  0.00    -0.299 OA
ENDROOT
BRANCH   1   3
ATOM      3  C   UNL     1       8.968  22.599  53.016  1.00  0.00     0.053 C 
ATOM      4  C   UNL     1      10.440  23.001  52.860  1.00  0.00     0.016 C 
BRANCH   3   5
ATOM      5  C   UNL     1       8.839  21.104  53.374  1.00  0.00     0.015 C 
BRANCH   5   6
ATOM      6  C   UNL     1       7.470  20.506  52.973  1.00  0.00     0.028 C 
BRANCH   6   7
ATOM      7  C   UNL     1       6.714  20.024  54.190  1.00  0.00    -0.028 C 
ATOM      8  C   UNL     1       5.646  20.646  54.746  1.00  0.00    -0.070 CG0
ATOM      9  C   UNL     1       5.098  20.091  56.036  1.00  0.00     0.039 C 
ATOM     10  G   UNL     1       4.976  21.863  54.128  1.00  0.00     0.000 G0
ENDBRANCH   6   7
ENDBRANCH   5   6
ENDBRANCH   3   5
ENDBRANCH   1   3
BRANCH   1  11
ATOM     11  C   UNL     1       6.896  24.117  53.753  1.00  0.00     0.087 C 
BRANCH  11  12
ATOM     12  C   UNL     1       5.998  24.175  55.019  1.00  0.00     0.066 C 
BRANCH  12  13
ATOM     13  C   UNL     1       4.911  23.105  55.000  1.00  0.00     0.140 C 
ATOM     14  O   UNL     1       3.939  23.242  55.727  1.00  0.00    -0.299 OA
BRANCH  13  15
ATOM     15  C   UNL     1       4.958  21.866  54.124  1.00  0.00     0.106 CG0
ATOM     16  G   UNL     1       5.644  20.652  54.733  1.00  0.00     0.000 G0
ENDBRANCH  13  15
ENDBRANCH  12  13
BRANCH  12  17
ATOM     17  C   UNL     1       5.391  25.585  55.303  1.00  0.00    -0.006 C 
ATOM     18  C   UNL     1       6.332  26.446  56.162  1.00  0.00     0.008 C 
ATOM     19  C   UNL     1       4.973  26.367  54.045  1.00  0.00     0.008 C 
ENDBRANCH  12  17
ENDBRANCH  11  12
ENDBRANCH   1  11
TORSDOF 1
ENDMDL
MODEL 9
REMARK VINA RESULT:    -3.204      5.628      7.610
REMARK INTER + INTRA:          -5.157
REMARK INTER:                  -5.054
REMARK INTRA:                  -0.102
REMARK UNBOUND:                -0.267
REMARK SMILES CC1=CCC[C@H](C)C(=O)C[C@@H](C(C)C)C(=O)C1
REMARK SMILES IDX 8 1 9 2 6 3 7 4 5 5 4 6 3 7 2 8 1 9 10 11 11 12 15 13 16 14
REMARK SMILES IDX 17 15 12 17 13 18 14 19
REMARK H PARENT
REMARK Flexibility Score: 70.00
ROOT
ATOM      1  C   UNL     1       5.618  24.338  54.270  1.00  0.00     0.136 C 
ATOM      2  O   UNL     1       4.603  24.619  54.892  1.00  0.00    -0.299 OA
ENDROOT
BRANCH   1   3
ATOM      3  C   UNL     1       6.844  25.216  54.454  1.00  0.00     0.053 C 
ATOM      4  C   UNL     1       6.637  26.222  55.593  1.00  0.00     0.016 C 
BRANCH   3   5
ATOM      5  C   UNL     1       8.133  24.396  54.670  1.00  0.00     0.015 C 
BRANCH   5   6
ATOM      6  C   UNL     1       8.205  23.746  56.072  1.00  0.00     0.028 C 
BRANCH   6   7
ATOM      7  C   UNL     1       8.953  22.434  56.021  1.00  0.00    -0.028 C 
ATOM      8  C   UNL     1       8.381  21.206  56.009  1.00  0.00    -0.070 CG0
ATOM      9  C   UNL     1       9.287  20.003  56.088  1.00  0.00     0.039 C 
ATOM     10  G   UNL     1       6.879  20.987  55.912  1.00  0.00     0.000 G0
ENDBRANCH   6   7
ENDBRANCH   5   6
ENDBRANCH   3   5
ENDBRANCH   1   3
BRANCH   1  11
ATOM     11  C   UNL     1       5.588  23.129  53.353  1.00  0.00     0.087 C 
BRANCH  11  12
ATOM     12  C   UNL     1       5.119  21.831  54.064  1.00  0.00     0.066 C 
BRANCH  12  13
ATOM     13  C   UNL     1       6.292  20.964  54.508  1.00  0.00     0.140 C 
ATOM     14  O   UNL     1       6.803  20.206  53.697  1.00  0.00    -0.299 OA
BRANCH  13  15
ATOM     15  C   UNL     1       6.876  20.982  55.910  1.00  0.00     0.106 CG0
ATOM     16  G   UNL     1       8.379  21.204  55.996  1.00  0.00     0.000 G0
ENDBRANCH  13  15
ENDBRANCH  12  13
BRANCH  12  17
ATOM     17  C   UNL     1       4.085  20.997  53.244  1.00  0.00    -0.006 C 
ATOM     18  C   UNL     1       3.236  20.092  54.152  1.00  0.00     0.008 C 
ATOM     19  C   UNL     1       3.165  21.833  52.336  1.00  0.00     0.008 C 
ENDBRANCH  12  17
ENDBRANCH  11  12
ENDBRANCH   1  11
TORSDOF 1
ENDMDL
