MODEL 1
REMARK VINA RESULT:    -6.137      0.000      0.000
REMARK INTER + INTRA:         -11.658
REMARK INTER:                  -9.365
REMARK INTRA:                  -2.293
REMARK UNBOUND:                -2.293
REMARK SMILES CC(=O)CCC=C(C)CCC=C(C)CCC=C(C)C
REMARK SMILES IDX 10 1 11 2 12 3 13 4 14 5 15 6 16 7 18 8 17 9 19 10 9 11 7 12
REMARK SMILES IDX 6 13 8 14 5 15 4 16 2 17 3 18 1 19
REMARK H PARENT
REMARK Flexibility Score: inf
ROOT
ATOM      1  C   UNL     1     121.480 175.895 124.235  1.00  0.00     0.032 C 
ENDROOT
BRANCH   1   2
ATOM      2  C   UNL     1     120.435 175.849 125.322  1.00  0.00    -0.028 C 
ATOM      3  C   UNL     1     119.519 176.816 125.559  1.00  0.00    -0.077 C 
ATOM      4  C   UNL     1     118.523 176.600 126.668  1.00  0.00     0.039 C 
BRANCH   3   5
ATOM      5  C   UNL     1     119.496 178.133 124.810  1.00  0.00     0.034 C 
BRANCH   5   6
ATOM      6  C   UNL     1     119.886 179.287 125.740  1.00  0.00     0.032 C 
BRANCH   6   7
ATOM      7  C   UNL     1     121.375 179.305 125.976  1.00  0.00    -0.028 C 
ATOM      8  C   UNL     1     123.465 179.139 127.258  1.00  0.00     0.039 C 
ATOM      9  C   UNL     1     121.964 179.042 127.164  1.00  0.00    -0.080 C 
ATOM     10  C   UNL     1     121.165 178.641 128.381  1.00  0.00     0.039 C 
ENDBRANCH   6   7
ENDBRANCH   5   6
ENDBRANCH   3   5
ENDBRANCH   1   2
BRANCH   1  11
ATOM     11  C   UNL     1     122.879 176.191 124.796  1.00  0.00     0.034 C 
BRANCH  11  12
ATOM     12  C   UNL     1     123.734 176.946 123.798  1.00  0.00    -0.077 C 
ATOM     13  C   UNL     1     123.242 177.198 122.563  1.00  0.00    -0.028 C 
ATOM     14  C   UNL     1     125.140 177.330 124.192  1.00  0.00     0.039 C 
BRANCH  13  15
ATOM     15  C   UNL     1     123.987 177.943 121.484  1.00  0.00     0.035 C 
BRANCH  15  16
ATOM     16  C   UNL     1     124.116 177.087 120.221  1.00  0.00     0.079 C 
BRANCH  16  17
ATOM     17  C   UNL     1     125.550 176.690 119.990  1.00  0.00     0.130 C 
ATOM     18  O   UNL     1     126.196 177.250 119.118  1.00  0.00    -0.300 OA
ATOM     19  C   UNL     1     126.202 175.611 120.802  1.00  0.00     0.087 C 
ENDBRANCH  16  17
ENDBRANCH  15  16
ENDBRANCH  13  15
ENDBRANCH  11  12
ENDBRANCH   1  11
TORSDOF 9
ENDMDL
MODEL 2
REMARK VINA RESULT:    -6.058      2.958      6.258
REMARK INTER + INTRA:         -11.538
REMARK INTER:                  -9.082
REMARK INTRA:                  -2.456
REMARK UNBOUND:                -2.293
REMARK SMILES CC(=O)CCC=C(C)CCC=C(C)CCC=C(C)C
REMARK SMILES IDX 10 1 11 2 12 3 13 4 14 5 15 6 16 7 18 8 17 9 19 10 9 11 7 12
REMARK SMILES IDX 6 13 8 14 5 15 4 16 2 17 3 18 1 19
REMARK H PARENT
REMARK Flexibility Score: inf
ROOT
ATOM      1  C   UNL     1     123.269 177.733 126.461  1.00  0.00     0.032 C 
ENDROOT
BRANCH   1   2
ATOM      2  C   UNL     1     123.965 177.579 125.131  1.00  0.00    -0.028 C 
ATOM      3  C   UNL     1     123.361 177.211 123.978  1.00  0.00    -0.077 C 
ATOM      4  C   UNL     1     124.197 177.134 122.727  1.00  0.00     0.039 C 
BRANCH   3   5
ATOM      5  C   UNL     1     121.904 176.803 123.902  1.00  0.00     0.034 C 
BRANCH   5   6
ATOM      6  C   UNL     1     121.675 175.482 124.646  1.00  0.00     0.032 C 
BRANCH   6   7
ATOM      7  C   UNL     1     120.414 175.544 125.469  1.00  0.00    -0.028 C 
ATOM      8  C   UNL     1     118.995 175.278 127.458  1.00  0.00     0.039 C 
ATOM      9  C   UNL     1     120.336 175.205 126.776  1.00  0.00    -0.080 C 
ATOM     10  C   UNL     1     121.552 174.778 127.564  1.00  0.00     0.039 C 
ENDBRANCH   6   7
ENDBRANCH   5   6
ENDBRANCH   3   5
ENDBRANCH   1   2
BRANCH   1  11
ATOM     11  C   UNL     1     122.701 179.147 126.652  1.00  0.00     0.034 C 
BRANCH  11  12
ATOM     12  C   UNL     1     121.186 179.144 126.666  1.00  0.00    -0.077 C 
ATOM     13  C   UNL     1     120.514 179.621 125.593  1.00  0.00    -0.028 C 
ATOM     14  C   UNL     1     120.474 178.674 127.911  1.00  0.00     0.039 C 
BRANCH  13  15
ATOM     15  C   UNL     1     119.011 179.666 125.480  1.00  0.00     0.035 C 
BRANCH  15  16
ATOM     16  C   UNL     1     118.490 178.483 124.659  1.00  0.00     0.079 C 
BRANCH  16  17
ATOM     17  C   UNL     1     117.000 178.337 124.821  1.00  0.00     0.130 C 
ATOM     18  O   UNL     1     116.272 178.510 123.856  1.00  0.00    -0.300 OA
ATOM     19  C   UNL     1     116.388 177.993 126.146  1.00  0.00     0.087 C 
ENDBRANCH  16  17
ENDBRANCH  15  16
ENDBRANCH  13  15
ENDBRANCH  11  12
ENDBRANCH   1  11
TORSDOF 9
ENDMDL
MODEL 3
REMARK VINA RESULT:    -6.014      0.770      1.393
REMARK INTER + INTRA:         -11.471
REMARK INTER:                  -9.000
REMARK INTRA:                  -2.471
REMARK UNBOUND:                -2.293
REMARK SMILES CC(=O)CCC=C(C)CCC=C(C)CCC=C(C)C
REMARK SMILES IDX 10 1 11 2 12 3 13 4 14 5 15 6 16 7 18 8 17 9 19 10 9 11 7 12
REMARK SMILES IDX 6 13 8 14 5 15 4 16 2 17 3 18 1 19
REMARK H PARENT
REMARK Flexibility Score: inf
ROOT
ATOM      1  C   UNL     1     121.062 175.732 124.597  1.00  0.00     0.032 C 
ENDROOT
BRANCH   1   2
ATOM      2  C   UNL     1     119.993 175.891 125.651  1.00  0.00    -0.028 C 
ATOM      3  C   UNL     1     119.203 176.979 125.796  1.00  0.00    -0.077 C 
ATOM      4  C   UNL     1     118.160 176.965 126.884  1.00  0.00     0.039 C 
BRANCH   3   5
ATOM      5  C   UNL     1     119.367 178.236 124.965  1.00  0.00     0.034 C 
BRANCH   5   6
ATOM      6  C   UNL     1     119.788 179.415 125.850  1.00  0.00     0.032 C 
BRANCH   6   7
ATOM      7  C   UNL     1     121.283 179.424 126.052  1.00  0.00    -0.028 C 
ATOM      8  C   UNL     1     123.402 179.199 127.276  1.00  0.00     0.039 C 
ATOM      9  C   UNL     1     121.899 179.104 127.211  1.00  0.00    -0.080 C 
ATOM     10  C   UNL     1     121.129 178.641 128.425  1.00  0.00     0.039 C 
ENDBRANCH   6   7
ENDBRANCH   5   6
ENDBRANCH   3   5
ENDBRANCH   1   2
BRANCH   1  11
ATOM     11  C   UNL     1     122.459 176.059 125.144  1.00  0.00     0.034 C 
BRANCH  11  12
ATOM     12  C   UNL     1     123.299 176.801 124.124  1.00  0.00    -0.077 C 
ATOM     13  C   UNL     1     124.647 176.678 124.162  1.00  0.00    -0.028 C 
ATOM     14  C   UNL     1     122.607 177.713 123.141  1.00  0.00     0.039 C 
BRANCH  13  15
ATOM     15  C   UNL     1     125.592 177.356 123.203  1.00  0.00     0.035 C 
BRANCH  15  16
ATOM     16  C   UNL     1     125.909 176.443 122.015  1.00  0.00     0.079 C 
BRANCH  16  17
ATOM     17  C   UNL     1     125.854 177.214 120.721  1.00  0.00     0.130 C 
ATOM     18  O   UNL     1     126.895 177.553 120.180  1.00  0.00    -0.300 OA
ATOM     19  C   UNL     1     124.546 177.584 120.087  1.00  0.00     0.087 C 
ENDBRANCH  16  17
ENDBRANCH  15  16
ENDBRANCH  13  15
ENDBRANCH  11  12
ENDBRANCH   1  11
TORSDOF 9
ENDMDL
MODEL 4
REMARK VINA RESULT:    -5.927      2.876      6.124
REMARK INTER + INTRA:         -11.338
REMARK INTER:                  -9.142
REMARK INTRA:                  -2.196
REMARK UNBOUND:                -2.293
REMARK SMILES CC(=O)CCC=C(C)CCC=C(C)CCC=C(C)C
REMARK SMILES IDX 10 1 11 2 12 3 13 4 14 5 15 6 16 7 18 8 17 9 19 10 9 11 7 12
REMARK SMILES IDX 6 13 8 14 5 15 4 16 2 17 3 18 1 19
REMARK H PARENT
REMARK Flexibility Score: inf
ROOT
ATOM      1  C   UNL     1     123.715 178.138 126.118  1.00  0.00     0.032 C 
ENDROOT
BRANCH   1   2
ATOM      2  C   UNL     1     122.821 176.985 125.731  1.00  0.00    -0.028 C 
ATOM      3  C   UNL     1     122.390 176.726 124.475  1.00  0.00    -0.077 C 
ATOM      4  C   UNL     1     121.525 175.512 124.253  1.00  0.00     0.039 C 
BRANCH   3   5
ATOM      5  C   UNL     1     122.676 177.637 123.298  1.00  0.00     0.034 C 
BRANCH   5   6
ATOM      6  C   UNL     1     123.776 177.043 122.412  1.00  0.00     0.032 C 
BRANCH   6   7
ATOM      7  C   UNL     1     125.130 177.573 122.812  1.00  0.00    -0.028 C 
ATOM      8  C   UNL     1     127.359 177.534 123.845  1.00  0.00     0.039 C 
ATOM      9  C   UNL     1     126.065 176.857 123.475  1.00  0.00    -0.080 C 
ATOM     10  C   UNL     1     125.854 175.405 123.835  1.00  0.00     0.039 C 
ENDBRANCH   6   7
ENDBRANCH   5   6
ENDBRANCH   3   5
ENDBRANCH   1   2
BRANCH   1  11
ATOM     11  C   UNL     1     123.091 179.001 127.225  1.00  0.00     0.034 C 
BRANCH  11  12
ATOM     12  C   UNL     1     121.583 179.073 127.095  1.00  0.00    -0.077 C 
ATOM     13  C   UNL     1     121.040 179.631 125.988  1.00  0.00    -0.028 C 
ATOM     14  C   UNL     1     120.733 178.583 128.242  1.00  0.00     0.039 C 
BRANCH  13  15
ATOM     15  C   UNL     1     119.559 179.756 125.735  1.00  0.00     0.035 C 
BRANCH  15  16
ATOM     16  C   UNL     1     119.099 178.743 124.682  1.00  0.00     0.079 C 
BRANCH  16  17
ATOM     17  C   UNL     1     118.089 177.790 125.266  1.00  0.00     0.130 C 
ATOM     18  O   UNL     1     116.898 177.991 125.082  1.00  0.00    -0.300 OA
ATOM     19  C   UNL     1     118.513 176.604 126.079  1.00  0.00     0.087 C 
ENDBRANCH  16  17
ENDBRANCH  15  16
ENDBRANCH  13  15
ENDBRANCH  11  12
ENDBRANCH   1  11
TORSDOF 9
ENDMDL
MODEL 5
REMARK VINA RESULT:    -5.912      2.873      7.358
REMARK INTER + INTRA:         -11.316
REMARK INTER:                  -8.718
REMARK INTRA:                  -2.597
REMARK UNBOUND:                -2.293
REMARK SMILES CC(=O)CCC=C(C)CCC=C(C)CCC=C(C)C
REMARK SMILES IDX 10 1 11 2 12 3 13 4 14 5 15 6 16 7 18 8 17 9 19 10 9 11 7 12
REMARK SMILES IDX 6 13 8 14 5 15 4 16 2 17 3 18 1 19
REMARK H PARENT
REMARK Flexibility Score: inf
ROOT
ATOM      1  C   UNL     1     127.676 177.445 123.795  1.00  0.00     0.032 C 
ENDROOT
BRANCH   1   2
ATOM      2  C   UNL     1     128.421 178.045 122.627  1.00  0.00    -0.028 C 
ATOM      3  C   UNL     1     128.494 177.501 121.391  1.00  0.00    -0.077 C 
ATOM      4  C   UNL     1     129.256 178.246 120.326  1.00  0.00     0.039 C 
BRANCH   3   5
ATOM      5  C   UNL     1     127.909 176.145 121.049  1.00  0.00     0.034 C 
BRANCH   5   6
ATOM      6  C   UNL     1     126.860 176.276 119.940  1.00  0.00     0.032 C 
BRANCH   6   7
ATOM      7  C   UNL     1     125.506 176.598 120.520  1.00  0.00    -0.028 C 
ATOM      8  C   UNL     1     123.520 177.961 121.008  1.00  0.00     0.039 C 
ATOM      9  C   UNL     1     124.851 177.765 120.329  1.00  0.00    -0.080 C 
ATOM     10  C   UNL     1     125.406 178.859 119.447  1.00  0.00     0.039 C 
ENDBRANCH   6   7
ENDBRANCH   5   6
ENDBRANCH   3   5
ENDBRANCH   1   2
BRANCH   1  11
ATOM     11  C   UNL     1     126.256 178.014 123.922  1.00  0.00     0.034 C 
BRANCH  11  12
ATOM     12  C   UNL     1     125.235 176.921 124.167  1.00  0.00    -0.077 C 
ATOM     13  C   UNL     1     124.016 177.251 124.654  1.00  0.00    -0.028 C 
ATOM     14  C   UNL     1     125.638 175.486 123.926  1.00  0.00     0.039 C 
BRANCH  13  15
ATOM     15  C   UNL     1     122.913 176.262 124.933  1.00  0.00     0.035 C 
BRANCH  15  16
ATOM     16  C   UNL     1     121.816 176.355 123.869  1.00  0.00     0.079 C 
BRANCH  16  17
ATOM     17  C   UNL     1     120.773 177.366 124.266  1.00  0.00     0.130 C 
ATOM     18  O   UNL     1     119.891 177.044 125.047  1.00  0.00    -0.300 OA
ATOM     19  C   UNL     1     120.786 178.760 123.714  1.00  0.00     0.087 C 
ENDBRANCH  16  17
ENDBRANCH  15  16
ENDBRANCH  13  15
ENDBRANCH  11  12
ENDBRANCH   1  11
TORSDOF 9
ENDMDL
MODEL 6
REMARK VINA RESULT:    -5.912      3.727      7.039
REMARK INTER + INTRA:         -11.316
REMARK INTER:                  -8.711
REMARK INTRA:                  -2.605
REMARK UNBOUND:                -2.293
REMARK SMILES CC(=O)CCC=C(C)CCC=C(C)CCC=C(C)C
REMARK SMILES IDX 10 1 11 2 12 3 13 4 14 5 15 6 16 7 18 8 17 9 19 10 9 11 7 12
REMARK SMILES IDX 6 13 8 14 5 15 4 16 2 17 3 18 1 19
REMARK H PARENT
REMARK Flexibility Score: inf
ROOT
ATOM      1  C   UNL     1     120.986 178.788 127.290  1.00  0.00     0.032 C 
ENDROOT
BRANCH   1   2
ATOM      2  C   UNL     1     122.383 178.390 126.881  1.00  0.00    -0.028 C 
ATOM      3  C   UNL     1     122.764 178.083 125.619  1.00  0.00    -0.077 C 
ATOM      4  C   UNL     1     124.209 177.735 125.374  1.00  0.00     0.039 C 
BRANCH   3   5
ATOM      5  C   UNL     1     121.791 178.002 124.460  1.00  0.00     0.034 C 
BRANCH   5   6
ATOM      6  C   UNL     1     121.742 176.578 123.897  1.00  0.00     0.032 C 
BRANCH   6   7
ATOM      7  C   UNL     1     120.731 175.743 124.642  1.00  0.00    -0.028 C 
ATOM      8  C   UNL     1     119.920 173.942 126.103  1.00  0.00     0.039 C 
ATOM      9  C   UNL     1     121.043 174.712 125.458  1.00  0.00    -0.080 C 
ATOM     10  C   UNL     1     122.475 174.327 125.749  1.00  0.00     0.039 C 
ENDBRANCH   6   7
ENDBRANCH   5   6
ENDBRANCH   3   5
ENDBRANCH   1   2
BRANCH   1  11
ATOM     11  C   UNL     1     120.330 177.731 128.192  1.00  0.00     0.034 C 
BRANCH  11  12
ATOM     12  C   UNL     1     119.008 177.256 127.626  1.00  0.00    -0.077 C 
ATOM     13  C   UNL     1     118.581 177.747 126.439  1.00  0.00    -0.028 C 
ATOM     14  C   UNL     1     118.171 176.301 128.443  1.00  0.00     0.039 C 
BRANCH  13  15
ATOM     15  C   UNL     1     117.291 177.351 125.767  1.00  0.00     0.035 C 
BRANCH  15  16
ATOM     16  C   UNL     1     116.878 178.393 124.724  1.00  0.00     0.079 C 
BRANCH  16  17
ATOM     17  C   UNL     1     116.149 179.539 125.375  1.00  0.00     0.130 C 
ATOM     18  O   UNL     1     116.636 180.658 125.338  1.00  0.00    -0.300 OA
ATOM     19  C   UNL     1     114.841 179.334 126.078  1.00  0.00     0.087 C 
ENDBRANCH  16  17
ENDBRANCH  15  16
ENDBRANCH  13  15
ENDBRANCH  11  12
ENDBRANCH   1  11
TORSDOF 9
ENDMDL
MODEL 7
REMARK VINA RESULT:    -5.873      3.103      6.207
REMARK INTER + INTRA:         -11.256
REMARK INTER:                  -8.710
REMARK INTRA:                  -2.546
REMARK UNBOUND:                -2.293
REMARK SMILES CC(=O)CCC=C(C)CCC=C(C)CCC=C(C)C
REMARK SMILES IDX 10 1 11 2 12 3 13 4 14 5 15 6 16 7 18 8 17 9 19 10 9 11 7 12
REMARK SMILES IDX 6 13 8 14 5 15 4 16 2 17 3 18 1 19
REMARK H PARENT
REMARK Flexibility Score: inf
ROOT
ATOM      1  C   UNL     1     120.141 174.865 125.516  1.00  0.00     0.032 C 
ENDROOT
BRANCH   1   2
ATOM      2  C   UNL     1     121.490 175.290 124.988  1.00  0.00    -0.028 C 
ATOM      3  C   UNL     1     121.752 176.479 124.398  1.00  0.00    -0.077 C 
ATOM      4  C   UNL     1     123.164 176.759 123.953  1.00  0.00     0.039 C 
BRANCH   3   5
ATOM      5  C   UNL     1     120.680 177.508 124.101  1.00  0.00     0.034 C 
BRANCH   5   6
ATOM      6  C   UNL     1     121.047 178.861 124.720  1.00  0.00     0.032 C 
BRANCH   6   7
ATOM      7  C   UNL     1     120.662 178.904 126.177  1.00  0.00    -0.028 C 
ATOM      8  C   UNL     1     121.010 178.890 128.610  1.00  0.00     0.039 C 
ATOM      9  C   UNL     1     121.544 178.883 127.201  1.00  0.00    -0.080 C 
ATOM     10  C   UNL     1     123.037 178.872 126.971  1.00  0.00     0.039 C 
ENDBRANCH   6   7
ENDBRANCH   5   6
ENDBRANCH   3   5
ENDBRANCH   1   2
BRANCH   1  11
ATOM     11  C   UNL     1     120.056 174.997 127.044  1.00  0.00     0.034 C 
BRANCH  11  12
ATOM     12  C   UNL     1     118.928 175.918 127.464  1.00  0.00    -0.077 C 
ATOM     13  C   UNL     1     118.286 176.649 126.524  1.00  0.00    -0.028 C 
ATOM     14  C   UNL     1     118.605 176.044 128.933  1.00  0.00     0.039 C 
BRANCH  13  15
ATOM     15  C   UNL     1     117.146 177.593 126.810  1.00  0.00     0.035 C 
BRANCH  15  16
ATOM     16  C   UNL     1     116.225 177.721 125.593  1.00  0.00     0.079 C 
BRANCH  16  17
ATOM     17  C   UNL     1     116.665 178.858 124.709  1.00  0.00     0.130 C 
ATOM     18  O   UNL     1     117.356 178.625 123.730  1.00  0.00    -0.300 OA
ATOM     19  C   UNL     1     116.280 180.276 125.011  1.00  0.00     0.087 C 
ENDBRANCH  16  17
ENDBRANCH  15  16
ENDBRANCH  13  15
ENDBRANCH  11  12
ENDBRANCH   1  11
TORSDOF 9
ENDMDL
MODEL 8
REMARK VINA RESULT:    -5.828      2.726      6.538
REMARK INTER + INTRA:         -11.186
REMARK INTER:                  -9.594
REMARK INTRA:                  -1.592
REMARK UNBOUND:                -2.293
REMARK SMILES CC(=O)CCC=C(C)CCC=C(C)CCC=C(C)C
REMARK SMILES IDX 10 1 11 2 12 3 13 4 14 5 15 6 16 7 18 8 17 9 19 10 9 11 7 12
REMARK SMILES IDX 6 13 8 14 5 15 4 16 2 17 3 18 1 19
REMARK H PARENT
REMARK Flexibility Score: inf
ROOT
ATOM      1  C   UNL     1     123.701 178.148 126.108  1.00  0.00     0.032 C 
ENDROOT
BRANCH   1   2
ATOM      2  C   UNL     1     122.900 176.885 125.903  1.00  0.00    -0.028 C 
ATOM      3  C   UNL     1     122.379 176.481 124.721  1.00  0.00    -0.077 C 
ATOM      4  C   UNL     1     121.629 175.175 124.681  1.00  0.00     0.039 C 
BRANCH   3   5
ATOM      5  C   UNL     1     122.452 177.314 123.458  1.00  0.00     0.034 C 
BRANCH   5   6
ATOM      6  C   UNL     1     123.827 177.169 122.796  1.00  0.00     0.032 C 
BRANCH   6   7
ATOM      7  C   UNL     1     123.777 177.612 121.356  1.00  0.00    -0.028 C 
ATOM      8  C   UNL     1     124.477 177.746 119.004  1.00  0.00     0.039 C 
ATOM      9  C   UNL     1     124.623 177.182 120.394  1.00  0.00    -0.080 C 
ATOM     10  C   UNL     1     125.687 176.146 120.670  1.00  0.00     0.039 C 
ENDBRANCH   6   7
ENDBRANCH   5   6
ENDBRANCH   3   5
ENDBRANCH   1   2
BRANCH   1  11
ATOM     11  C   UNL     1     123.069 179.061 127.169  1.00  0.00     0.034 C 
BRANCH  11  12
ATOM     12  C   UNL     1     121.560 179.103 127.045  1.00  0.00    -0.077 C 
ATOM     13  C   UNL     1     121.002 179.643 125.936  1.00  0.00    -0.028 C 
ATOM     14  C   UNL     1     120.724 178.605 128.198  1.00  0.00     0.039 C 
BRANCH  13  15
ATOM     15  C   UNL     1     119.518 179.738 125.688  1.00  0.00     0.035 C 
BRANCH  15  16
ATOM     16  C   UNL     1     119.055 178.638 124.728  1.00  0.00     0.079 C 
BRANCH  16  17
ATOM     17  C   UNL     1     118.079 177.714 125.407  1.00  0.00     0.130 C 
ATOM     18  O   UNL     1     116.889 177.989 125.403  1.00  0.00    -0.300 OA
ATOM     19  C   UNL     1     118.537 176.465 126.101  1.00  0.00     0.087 C 
ENDBRANCH  16  17
ENDBRANCH  15  16
ENDBRANCH  13  15
ENDBRANCH  11  12
ENDBRANCH   1  11
TORSDOF 9
ENDMDL
MODEL 9
REMARK VINA RESULT:    -5.787      1.107      1.808
REMARK INTER + INTRA:         -11.125
REMARK INTER:                  -9.072
REMARK INTRA:                  -2.053
REMARK UNBOUND:                -2.293
REMARK SMILES CC(=O)CCC=C(C)CCC=C(C)CCC=C(C)C
REMARK SMILES IDX 10 1 11 2 12 3 13 4 14 5 15 6 16 7 18 8 17 9 19 10 9 11 7 12
REMARK SMILES IDX 6 13 8 14 5 15 4 16 2 17 3 18 1 19
REMARK H PARENT
REMARK Flexibility Score: inf
ROOT
ATOM      1  C   UNL     1     121.803 176.445 123.937  1.00  0.00     0.032 C 
ENDROOT
BRANCH   1   2
ATOM      2  C   UNL     1     120.658 176.175 124.882  1.00  0.00    -0.028 C 
ATOM      3  C   UNL     1     119.656 177.042 125.153  1.00  0.00    -0.077 C 
ATOM      4  C   UNL     1     118.569 176.604 126.100  1.00  0.00     0.039 C 
BRANCH   3   5
ATOM      5  C   UNL     1     119.615 178.455 124.607  1.00  0.00     0.034 C 
BRANCH   5   6
ATOM      6  C   UNL     1     119.892 179.471 125.720  1.00  0.00     0.032 C 
BRANCH   6   7
ATOM      7  C   UNL     1     121.360 179.505 126.060  1.00  0.00    -0.028 C 
ATOM      8  C   UNL     1     123.367 179.240 127.454  1.00  0.00     0.039 C 
ATOM      9  C   UNL     1     121.880 179.109 127.243  1.00  0.00    -0.080 C 
ATOM     10  C   UNL     1     121.020 178.528 128.340  1.00  0.00     0.039 C 
ENDBRANCH   6   7
ENDBRANCH   5   6
ENDBRANCH   3   5
ENDBRANCH   1   2
BRANCH   1  11
ATOM     11  C   UNL     1     123.146 176.541 124.676  1.00  0.00     0.034 C 
BRANCH  11  12
ATOM     12  C   UNL     1     124.243 177.074 123.777  1.00  0.00    -0.077 C 
ATOM     13  C   UNL     1     125.466 177.323 124.301  1.00  0.00    -0.028 C 
ATOM     14  C   UNL     1     123.915 177.378 122.335  1.00  0.00     0.039 C 
BRANCH  13  15
ATOM     15  C   UNL     1     126.640 177.846 123.514  1.00  0.00     0.035 C 
BRANCH  15  16
ATOM     16  C   UNL     1     127.635 176.723 123.209  1.00  0.00     0.079 C 
BRANCH  16  17
ATOM     17  C   UNL     1     127.316 176.072 121.889  1.00  0.00     0.130 C 
ATOM     18  O   UNL     1     127.235 176.761 120.884  1.00  0.00    -0.300 OA
ATOM     19  C   UNL     1     127.083 174.594 121.783  1.00  0.00     0.087 C 
ENDBRANCH  16  17
ENDBRANCH  15  16
ENDBRANCH  13  15
ENDBRANCH  11  12
ENDBRANCH   1  11
TORSDOF 9
ENDMDL
