MODEL 1
REMARK VINA RESULT:    -3.204      0.000      0.000
REMARK INTER + INTRA:         -13.726
REMARK INTER:                  -8.447
REMARK INTRA:                  -5.278
REMARK UNBOUND:                -5.278
REMARK SMILES CCCCCCCCCCCCCCCCCCCCCCCCCCCCCC(=O)[O-]
REMARK SMILES IDX 16 1 17 2 18 3 19 4 20 5 21 6 22 7 23 8 24 9 25 10 26 11
REMARK SMILES IDX 27 12 28 13 29 14 30 15 31 16 32 17 15 18 14 19 13 20 12 21
REMARK SMILES IDX 11 22 10 23 9 24 8 25 7 26 6 27 5 28 4 29 3 30 2 31 1 32
REMARK H PARENT
REMARK Flexibility Score: inf
ROOT
ATOM      1  C   UNL     1    -103.709 -30.906 -13.688  1.00  0.00     0.000 C 
ENDROOT
BRANCH   1   2
ATOM      2  C   UNL     1    -102.534 -31.033 -14.670  1.00  0.00     0.000 C 
BRANCH   2   3
ATOM      3  C   UNL     1    -102.807 -30.260 -15.968  1.00  0.00     0.000 C 
BRANCH   3   4
ATOM      4  C   UNL     1    -101.605 -29.376 -16.345  1.00  0.00     0.000 C 
BRANCH   4   5
ATOM      5  C   UNL     1    -101.953 -27.870 -16.377  1.00  0.00     0.000 C 
BRANCH   5   6
ATOM      6  C   UNL     1    -103.430 -27.582 -16.723  1.00  0.00     0.000 C 
BRANCH   6   7
ATOM      7  C   UNL     1    -103.807 -26.099 -16.565  1.00  0.00     0.000 C 
BRANCH   7   8
ATOM      8  C   UNL     1    -105.310 -25.845 -16.829  1.00  0.00     0.000 C 
BRANCH   8   9
ATOM      9  C   UNL     1    -105.906 -24.805 -15.861  1.00  0.00     0.000 C 
BRANCH   9  10
ATOM     10  C   UNL     1    -104.834 -23.954 -15.145  1.00  0.00     0.000 C 
BRANCH  10  11
ATOM     11  C   UNL     1    -105.392 -22.657 -14.513  1.00  0.00     0.000 C 
BRANCH  11  12
ATOM     12  C   UNL     1    -105.139 -22.582 -12.997  1.00  0.00     0.000 C 
BRANCH  12  13
ATOM     13  C   UNL     1    -104.547 -23.884 -12.429  1.00  0.00     0.006 C 
BRANCH  13  14
ATOM     14  C   UNL     1    -105.095 -24.273 -11.045  1.00  0.00     0.053 C 
BRANCH  14  15
ATOM     15  C   UNL     1    -104.165 -23.902  -9.928  1.00  0.00     0.041 C 
ATOM     16  O   UNL     1    -103.552 -24.798  -9.290  1.00  0.00    -0.550 OA
ATOM     17  O   UNL     1    -103.976 -22.566  -9.593  1.00  0.00    -0.550 OA
ENDBRANCH  14  15
ENDBRANCH  13  14
ENDBRANCH  12  13
ENDBRANCH  11  12
ENDBRANCH  10  11
ENDBRANCH   9  10
ENDBRANCH   8   9
ENDBRANCH   7   8
ENDBRANCH   6   7
ENDBRANCH   5   6
ENDBRANCH   4   5
ENDBRANCH   3   4
ENDBRANCH   2   3
ENDBRANCH   1   2
BRANCH   1  18
ATOM     18  C   UNL     1    -104.697 -29.806 -14.112  1.00  0.00     0.000 C 
BRANCH  18  19
ATOM     19  C   UNL     1    -105.147 -28.941 -12.921  1.00  0.00     0.000 C 
BRANCH  19  20
ATOM     20  C   UNL     1    -104.791 -27.454 -13.110  1.00  0.00     0.000 C 
BRANCH  20  21
ATOM     21  C   UNL     1    -103.275 -27.158 -13.089  1.00  0.00     0.000 C 
BRANCH  21  22
ATOM     22  C   UNL     1    -102.599 -27.257 -11.704  1.00  0.00     0.000 C 
BRANCH  22  23
ATOM     23  C   UNL     1    -101.330 -28.130 -11.649  1.00  0.00     0.000 C 
BRANCH  23  24
ATOM     24  C   UNL     1    -100.795 -28.477 -13.047  1.00  0.00    -0.000 C 
BRANCH  24  25
ATOM     25  C   UNL     1     -99.297 -28.816 -12.987  1.00  0.00    -0.000 C 
BRANCH  25  26
ATOM     26  C   UNL     1     -98.941 -30.091 -13.773  1.00  0.00    -0.000 C 
BRANCH  26  27
ATOM     27  C   UNL     1     -97.505 -30.615 -13.555  1.00  0.00    -0.000 C 
BRANCH  27  28
ATOM     28  C   UNL     1     -96.613 -29.710 -12.685  1.00  0.00    -0.000 C 
BRANCH  28  29
ATOM     29  C   UNL     1     -96.049 -30.438 -11.451  1.00  0.00    -0.000 C 
BRANCH  29  30
ATOM     30  C   UNL     1     -97.139 -31.117 -10.609  1.00  0.00    -0.000 C 
BRANCH  30  31
ATOM     31  C   UNL     1     -98.026 -30.157  -9.798  1.00  0.00    -0.003 C 
ATOM     32  C   UNL     1     -99.483 -30.613  -9.714  1.00  0.00     0.004 C 
ENDBRANCH  30  31
ENDBRANCH  29  30
ENDBRANCH  28  29
ENDBRANCH  27  28
ENDBRANCH  26  27
ENDBRANCH  25  26
ENDBRANCH  24  25
ENDBRANCH  23  24
ENDBRANCH  22  23
ENDBRANCH  21  22
ENDBRANCH  20  21
ENDBRANCH  19  20
ENDBRANCH  18  19
ENDBRANCH   1  18
TORSDOF 28
ENDMDL
MODEL 2
REMARK VINA RESULT:    -3.152      2.209      6.446
REMARK INTER + INTRA:         -13.589
REMARK INTER:                  -8.474
REMARK INTRA:                  -5.115
REMARK UNBOUND:                -5.278
REMARK SMILES CCCCCCCCCCCCCCCCCCCCCCCCCCCCCC(=O)[O-]
REMARK SMILES IDX 16 1 17 2 18 3 19 4 20 5 21 6 22 7 23 8 24 9 25 10 26 11
REMARK SMILES IDX 27 12 28 13 29 14 30 15 31 16 32 17 15 18 14 19 13 20 12 21
REMARK SMILES IDX 11 22 10 23 9 24 8 25 7 26 6 27 5 28 4 29 3 30 2 31 1 32
REMARK H PARENT
REMARK Flexibility Score: inf
ROOT
ATOM      1  C   UNL     1    -102.286 -31.219 -15.220  1.00  0.00     0.000 C 
ENDROOT
BRANCH   1   2
ATOM      2  C   UNL     1    -101.054 -31.554 -14.364  1.00  0.00     0.000 C 
BRANCH   2   3
ATOM      3  C   UNL     1     -99.770 -31.001 -14.997  1.00  0.00     0.000 C 
BRANCH   3   4
ATOM      4  C   UNL     1     -98.622 -30.971 -13.972  1.00  0.00     0.000 C 
BRANCH   4   5
ATOM      5  C   UNL     1     -98.529 -29.627 -13.213  1.00  0.00     0.000 C 
BRANCH   5   6
ATOM      6  C   UNL     1     -99.598 -29.461 -12.112  1.00  0.00     0.000 C 
BRANCH   6   7
ATOM      7  C   UNL     1    -100.580 -28.310 -12.393  1.00  0.00     0.000 C 
BRANCH   7   8
ATOM      8  C   UNL     1    -100.381 -27.701 -13.801  1.00  0.00     0.000 C 
BRANCH   8   9
ATOM      9  C   UNL     1    -101.717 -27.336 -14.474  1.00  0.00     0.000 C 
BRANCH   9  10
ATOM     10  C   UNL     1    -101.756 -27.685 -15.979  1.00  0.00     0.000 C 
BRANCH  10  11
ATOM     11  C   UNL     1    -103.154 -27.513 -16.620  1.00  0.00     0.000 C 
BRANCH  11  12
ATOM     12  C   UNL     1    -103.525 -26.037 -16.840  1.00  0.00     0.000 C 
BRANCH  12  13
ATOM     13  C   UNL     1    -104.705 -25.583 -15.961  1.00  0.00     0.006 C 
BRANCH  13  14
ATOM     14  C   UNL     1    -104.460 -24.263 -15.210  1.00  0.00     0.053 C 
BRANCH  14  15
ATOM     15  C   UNL     1    -105.341 -23.150 -15.691  1.00  0.00     0.041 C 
ATOM     16  O   UNL     1    -106.334 -23.398 -16.425  1.00  0.00    -0.550 OA
ATOM     17  O   UNL     1    -105.067 -21.837 -15.326  1.00  0.00    -0.550 OA
ENDBRANCH  14  15
ENDBRANCH  13  14
ENDBRANCH  12  13
ENDBRANCH  11  12
ENDBRANCH  10  11
ENDBRANCH   9  10
ENDBRANCH   8   9
ENDBRANCH   7   8
ENDBRANCH   6   7
ENDBRANCH   5   6
ENDBRANCH   4   5
ENDBRANCH   3   4
ENDBRANCH   2   3
ENDBRANCH   1   2
BRANCH   1  18
ATOM     18  C   UNL     1    -103.395 -30.546 -14.395  1.00  0.00     0.000 C 
BRANCH  18  19
ATOM     19  C   UNL     1    -103.211 -30.773 -12.883  1.00  0.00     0.000 C 
BRANCH  19  20
ATOM     20  C   UNL     1    -103.962 -29.727 -12.038  1.00  0.00     0.000 C 
BRANCH  20  21
ATOM     21  C   UNL     1    -105.175 -29.089 -12.752  1.00  0.00     0.000 C 
BRANCH  21  22
ATOM     22  C   UNL     1    -105.123 -27.553 -12.905  1.00  0.00     0.000 C 
BRANCH  22  23
ATOM     23  C   UNL     1    -104.027 -26.845 -12.085  1.00  0.00     0.000 C 
BRANCH  23  24
ATOM     24  C   UNL     1    -104.419 -25.411 -11.695  1.00  0.00    -0.000 C 
BRANCH  24  25
ATOM     25  C   UNL     1    -104.697 -25.314 -10.187  1.00  0.00    -0.000 C 
BRANCH  25  26
ATOM     26  C   UNL     1    -103.450 -25.599  -9.330  1.00  0.00    -0.000 C 
BRANCH  26  27
ATOM     27  C   UNL     1    -103.393 -24.841  -7.986  1.00  0.00    -0.000 C 
BRANCH  27  28
ATOM     28  C   UNL     1    -103.076 -23.338  -8.105  1.00  0.00    -0.000 C 
BRANCH  28  29
ATOM     29  C   UNL     1    -104.305 -22.448  -7.845  1.00  0.00    -0.000 C 
BRANCH  29  30
ATOM     30  C   UNL     1    -104.754 -21.671  -9.091  1.00  0.00    -0.000 C 
BRANCH  30  31
ATOM     31  C   UNL     1    -103.727 -21.632 -10.236  1.00  0.00    -0.003 C 
ATOM     32  C   UNL     1    -104.374 -21.640 -11.622  1.00  0.00     0.004 C 
ENDBRANCH  30  31
ENDBRANCH  29  30
ENDBRANCH  28  29
ENDBRANCH  27  28
ENDBRANCH  26  27
ENDBRANCH  25  26
ENDBRANCH  24  25
ENDBRANCH  23  24
ENDBRANCH  22  23
ENDBRANCH  21  22
ENDBRANCH  20  21
ENDBRANCH  19  20
ENDBRANCH  18  19
ENDBRANCH   1  18
TORSDOF 28
ENDMDL
MODEL 3
REMARK VINA RESULT:    -3.109      1.422      3.100
REMARK INTER + INTRA:         -13.478
REMARK INTER:                  -7.453
REMARK INTRA:                  -6.025
REMARK UNBOUND:                -5.278
REMARK SMILES CCCCCCCCCCCCCCCCCCCCCCCCCCCCCC(=O)[O-]
REMARK SMILES IDX 16 1 17 2 18 3 19 4 20 5 21 6 22 7 23 8 24 9 25 10 26 11
REMARK SMILES IDX 27 12 28 13 29 14 30 15 31 16 32 17 15 18 14 19 13 20 12 21
REMARK SMILES IDX 11 22 10 23 9 24 8 25 7 26 6 27 5 28 4 29 3 30 2 31 1 32
REMARK H PARENT
REMARK Flexibility Score: inf
ROOT
ATOM      1  C   UNL     1    -103.514 -30.103 -12.309  1.00  0.00     0.000 C 
ENDROOT
BRANCH   1   2
ATOM      2  C   UNL     1    -103.951 -30.537 -13.717  1.00  0.00     0.000 C 
BRANCH   2   3
ATOM      3  C   UNL     1    -104.782 -29.443 -14.404  1.00  0.00     0.000 C 
BRANCH   3   4
ATOM      4  C   UNL     1    -104.966 -28.229 -13.475  1.00  0.00     0.000 C 
BRANCH   4   5
ATOM      5  C   UNL     1    -105.453 -26.968 -14.225  1.00  0.00     0.000 C 
BRANCH   5   6
ATOM      6  C   UNL     1    -105.440 -27.116 -15.762  1.00  0.00     0.000 C 
BRANCH   6   7
ATOM      7  C   UNL     1    -105.000 -25.832 -16.487  1.00  0.00     0.000 C 
BRANCH   7   8
ATOM      8  C   UNL     1    -104.228 -24.869 -15.556  1.00  0.00     0.000 C 
BRANCH   8   9
ATOM      9  C   UNL     1    -104.900 -23.486 -15.458  1.00  0.00     0.000 C 
BRANCH   9  10
ATOM     10  C   UNL     1    -106.316 -23.539 -14.842  1.00  0.00     0.000 C 
BRANCH  10  11
ATOM     11  C   UNL     1    -106.320 -23.525 -13.294  1.00  0.00     0.000 C 
BRANCH  11  12
ATOM     12  C   UNL     1    -105.035 -22.919 -12.705  1.00  0.00     0.000 C 
BRANCH  12  13
ATOM     13  C   UNL     1    -104.583 -23.625 -11.414  1.00  0.00     0.006 C 
BRANCH  13  14
ATOM     14  C   UNL     1    -105.270 -24.978 -11.163  1.00  0.00     0.053 C 
BRANCH  14  15
ATOM     15  C   UNL     1    -104.385 -25.955 -10.450  1.00  0.00     0.041 C 
ATOM     16  O   UNL     1    -103.195 -25.649 -10.173  1.00  0.00    -0.550 OA
ATOM     17  O   UNL     1    -104.875 -27.205 -10.089  1.00  0.00    -0.550 OA
ENDBRANCH  14  15
ENDBRANCH  13  14
ENDBRANCH  12  13
ENDBRANCH  11  12
ENDBRANCH  10  11
ENDBRANCH   9  10
ENDBRANCH   8   9
ENDBRANCH   7   8
ENDBRANCH   6   7
ENDBRANCH   5   6
ENDBRANCH   4   5
ENDBRANCH   3   4
ENDBRANCH   2   3
ENDBRANCH   1   2
BRANCH   1  18
ATOM     18  C   UNL     1    -101.985 -29.984 -12.192  1.00  0.00     0.000 C 
BRANCH  18  19
ATOM     19  C   UNL     1    -101.558 -28.684 -11.487  1.00  0.00     0.000 C 
BRANCH  19  20
ATOM     20  C   UNL     1    -101.398 -27.509 -12.470  1.00  0.00     0.000 C 
BRANCH  20  21
ATOM     21  C   UNL     1    -100.936 -27.925 -13.884  1.00  0.00     0.000 C 
BRANCH  21  22
ATOM     22  C   UNL     1    -101.758 -27.336 -15.052  1.00  0.00     0.000 C 
BRANCH  22  23
ATOM     23  C   UNL     1    -101.862 -28.229 -16.303  1.00  0.00     0.000 C 
BRANCH  23  24
ATOM     24  C   UNL     1    -100.989 -29.489 -16.200  1.00  0.00    -0.000 C 
BRANCH  24  25
ATOM     25  C   UNL     1    -101.775 -30.733 -16.644  1.00  0.00    -0.000 C 
BRANCH  25  26
ATOM     26  C   UNL     1    -101.162 -32.045 -16.121  1.00  0.00    -0.000 C 
BRANCH  26  27
ATOM     27  C   UNL     1    -100.678 -32.001 -14.655  1.00  0.00    -0.000 C 
BRANCH  27  28
ATOM     28  C   UNL     1     -99.252 -32.540 -14.429  1.00  0.00    -0.000 C 
BRANCH  28  29
ATOM     29  C   UNL     1     -98.169 -31.626 -15.029  1.00  0.00    -0.000 C 
BRANCH  29  30
ATOM     30  C   UNL     1     -97.324 -30.918 -13.959  1.00  0.00    -0.000 C 
BRANCH  30  31
ATOM     31  C   UNL     1     -98.039 -29.772 -13.223  1.00  0.00    -0.003 C 
ATOM     32  C   UNL     1     -97.999 -29.920 -11.701  1.00  0.00     0.004 C 
ENDBRANCH  30  31
ENDBRANCH  29  30
ENDBRANCH  28  29
ENDBRANCH  27  28
ENDBRANCH  26  27
ENDBRANCH  25  26
ENDBRANCH  24  25
ENDBRANCH  23  24
ENDBRANCH  22  23
ENDBRANCH  21  22
ENDBRANCH  20  21
ENDBRANCH  19  20
ENDBRANCH  18  19
ENDBRANCH   1  18
TORSDOF 28
ENDMDL
MODEL 4
REMARK VINA RESULT:    -3.109      2.720      7.636
REMARK INTER + INTRA:         -13.476
REMARK INTER:                  -9.570
REMARK INTRA:                  -3.907
REMARK UNBOUND:                -5.278
REMARK SMILES CCCCCCCCCCCCCCCCCCCCCCCCCCCCCC(=O)[O-]
REMARK SMILES IDX 16 1 17 2 18 3 19 4 20 5 21 6 22 7 23 8 24 9 25 10 26 11
REMARK SMILES IDX 27 12 28 13 29 14 30 15 31 16 32 17 15 18 14 19 13 20 12 21
REMARK SMILES IDX 11 22 10 23 9 24 8 25 7 26 6 27 5 28 4 29 3 30 2 31 1 32
REMARK H PARENT
REMARK Flexibility Score: inf
ROOT
ATOM      1  C   UNL     1    -103.133 -26.486 -11.190  1.00  0.00     0.000 C 
ENDROOT
BRANCH   1   2
ATOM      2  C   UNL     1    -104.529 -25.976 -11.580  1.00  0.00     0.000 C 
BRANCH   2   3
ATOM      3  C   UNL     1    -104.493 -24.489 -11.958  1.00  0.00     0.000 C 
BRANCH   3   4
ATOM      4  C   UNL     1    -105.910 -23.886 -11.953  1.00  0.00     0.000 C 
BRANCH   4   5
ATOM      5  C   UNL     1    -105.906 -22.345 -11.829  1.00  0.00     0.000 C 
BRANCH   5   6
ATOM      6  C   UNL     1    -104.505 -21.714 -11.978  1.00  0.00     0.000 C 
BRANCH   6   7
ATOM      7  C   UNL     1    -103.958 -21.143 -10.658  1.00  0.00     0.000 C 
BRANCH   7   8
ATOM      8  C   UNL     1    -104.923 -21.379  -9.473  1.00  0.00     0.000 C 
BRANCH   8   9
ATOM      9  C   UNL     1    -104.338 -22.346  -8.426  1.00  0.00     0.000 C 
BRANCH   9  10
ATOM     10  C   UNL     1    -102.969 -22.933  -8.837  1.00  0.00     0.000 C 
BRANCH  10  11
ATOM     11  C   UNL     1    -102.362 -23.888  -7.782  1.00  0.00     0.000 C 
BRANCH  11  12
ATOM     12  C   UNL     1    -103.324 -25.021  -7.388  1.00  0.00     0.000 C 
BRANCH  12  13
ATOM     13  C   UNL     1    -102.747 -25.938  -6.295  1.00  0.00     0.006 C 
BRANCH  13  14
ATOM     14  C   UNL     1    -101.580 -25.319  -5.506  1.00  0.00     0.053 C 
BRANCH  14  15
ATOM     15  C   UNL     1    -100.528 -26.324  -5.142  1.00  0.00     0.041 C 
ATOM     16  O   UNL     1     -99.324 -25.971  -5.034  1.00  0.00    -0.550 OA
ATOM     17  O   UNL     1    -100.879 -27.651  -4.921  1.00  0.00    -0.550 OA
ENDBRANCH  14  15
ENDBRANCH  13  14
ENDBRANCH  12  13
ENDBRANCH  11  12
ENDBRANCH  10  11
ENDBRANCH   9  10
ENDBRANCH   8   9
ENDBRANCH   7   8
ENDBRANCH   6   7
ENDBRANCH   5   6
ENDBRANCH   4   5
ENDBRANCH   3   4
ENDBRANCH   2   3
ENDBRANCH   1   2
BRANCH   1  18
ATOM     18  C   UNL     1    -102.613 -27.548 -12.173  1.00  0.00     0.000 C 
BRANCH  18  19
ATOM     19  C   UNL     1    -101.168 -27.974 -11.854  1.00  0.00     0.000 C 
BRANCH  19  20
ATOM     20  C   UNL     1    -100.344 -28.248 -13.127  1.00  0.00     0.000 C 
BRANCH  20  21
ATOM     21  C   UNL     1    -100.165 -29.747 -13.455  1.00  0.00     0.000 C 
BRANCH  21  22
ATOM     22  C   UNL     1    -100.151 -30.101 -14.958  1.00  0.00     0.000 C 
BRANCH  22  23
ATOM     23  C   UNL     1    -101.502 -30.559 -15.541  1.00  0.00     0.000 C 
BRANCH  23  24
ATOM     24  C   UNL     1    -102.089 -29.542 -16.532  1.00  0.00    -0.000 C 
BRANCH  24  25
ATOM     25  C   UNL     1    -103.033 -28.565 -15.813  1.00  0.00    -0.000 C 
BRANCH  25  26
ATOM     26  C   UNL     1    -102.535 -27.109 -15.863  1.00  0.00    -0.000 C 
BRANCH  26  27
ATOM     27  C   UNL     1    -103.553 -26.088 -16.417  1.00  0.00    -0.000 C 
BRANCH  27  28
ATOM     28  C   UNL     1    -103.963 -24.983 -15.425  1.00  0.00    -0.000 C 
BRANCH  28  29
ATOM     29  C   UNL     1    -105.341 -24.376 -15.746  1.00  0.00    -0.000 C 
BRANCH  29  30
ATOM     30  C   UNL     1    -105.383 -22.853 -15.548  1.00  0.00    -0.000 C 
BRANCH  30  31
ATOM     31  C   UNL     1    -106.796 -22.249 -15.468  1.00  0.00    -0.003 C 
ATOM     32  C   UNL     1    -106.908 -20.894 -16.169  1.00  0.00     0.004 C 
ENDBRANCH  30  31
ENDBRANCH  29  30
ENDBRANCH  28  29
ENDBRANCH  27  28
ENDBRANCH  26  27
ENDBRANCH  25  26
ENDBRANCH  24  25
ENDBRANCH  23  24
ENDBRANCH  22  23
ENDBRANCH  21  22
ENDBRANCH  20  21
ENDBRANCH  19  20
ENDBRANCH  18  19
ENDBRANCH   1  18
TORSDOF 28
ENDMDL
MODEL 5
REMARK VINA RESULT:    -3.101      2.430      6.073
REMARK INTER + INTRA:         -13.456
REMARK INTER:                  -7.815
REMARK INTRA:                  -5.641
REMARK UNBOUND:                -5.278
REMARK SMILES CCCCCCCCCCCCCCCCCCCCCCCCCCCCCC(=O)[O-]
REMARK SMILES IDX 16 1 17 2 18 3 19 4 20 5 21 6 22 7 23 8 24 9 25 10 26 11
REMARK SMILES IDX 27 12 28 13 29 14 30 15 31 16 32 17 15 18 14 19 13 20 12 21
REMARK SMILES IDX 11 22 10 23 9 24 8 25 7 26 6 27 5 28 4 29 3 30 2 31 1 32
REMARK H PARENT
REMARK Flexibility Score: inf
ROOT
ATOM      1  C   UNL     1    -100.967 -28.393 -11.933  1.00  0.00     0.000 C 
ENDROOT
BRANCH   1   2
ATOM      2  C   UNL     1    -100.043 -28.156 -13.138  1.00  0.00     0.000 C 
BRANCH   2   3
ATOM      3  C   UNL     1     -98.936 -29.217 -13.207  1.00  0.00     0.000 C 
BRANCH   3   4
ATOM      4  C   UNL     1     -99.500 -30.571 -13.674  1.00  0.00     0.000 C 
BRANCH   4   5
ATOM      5  C   UNL     1     -99.308 -30.811 -15.189  1.00  0.00     0.000 C 
BRANCH   5   6
ATOM      6  C   UNL     1    -100.545 -30.444 -16.037  1.00  0.00     0.000 C 
BRANCH   6   7
ATOM      7  C   UNL     1    -101.870 -30.601 -15.270  1.00  0.00     0.000 C 
BRANCH   7   8
ATOM      8  C   UNL     1    -102.861 -29.453 -15.571  1.00  0.00     0.000 C 
BRANCH   8   9
ATOM      9  C   UNL     1    -102.188 -28.277 -16.305  1.00  0.00     0.000 C 
BRANCH   9  10
ATOM     10  C   UNL     1    -102.399 -26.918 -15.600  1.00  0.00     0.000 C 
BRANCH  10  11
ATOM     11  C   UNL     1    -103.446 -26.015 -16.294  1.00  0.00     0.000 C 
BRANCH  11  12
ATOM     12  C   UNL     1    -104.816 -26.054 -15.597  1.00  0.00     0.000 C 
BRANCH  12  13
ATOM     13  C   UNL     1    -104.790 -25.409 -14.199  1.00  0.00     0.006 C 
BRANCH  13  14
ATOM     14  C   UNL     1    -104.765 -23.871 -14.217  1.00  0.00     0.053 C 
BRANCH  14  15
ATOM     15  C   UNL     1    -105.985 -23.277 -14.854  1.00  0.00     0.041 C 
ATOM     16  O   UNL     1    -105.900 -22.696 -15.968  1.00  0.00    -0.550 OA
ATOM     17  O   UNL     1    -107.218 -23.367 -14.217  1.00  0.00    -0.550 OA
ENDBRANCH  14  15
ENDBRANCH  13  14
ENDBRANCH  12  13
ENDBRANCH  11  12
ENDBRANCH  10  11
ENDBRANCH   9  10
ENDBRANCH   8   9
ENDBRANCH   7   8
ENDBRANCH   6   7
ENDBRANCH   5   6
ENDBRANCH   4   5
ENDBRANCH   3   4
ENDBRANCH   2   3
ENDBRANCH   1   2
BRANCH   1  18
ATOM     18  C   UNL     1    -102.151 -27.412 -11.914  1.00  0.00     0.000 C 
BRANCH  18  19
ATOM     19  C   UNL     1    -103.495 -28.121 -12.158  1.00  0.00     0.000 C 
BRANCH  19  20
ATOM     20  C   UNL     1    -103.542 -29.523 -11.520  1.00  0.00     0.000 C 
BRANCH  20  21
ATOM     21  C   UNL     1    -104.210 -29.562 -10.127  1.00  0.00     0.000 C 
BRANCH  21  22
ATOM     22  C   UNL     1    -103.280 -29.243  -8.936  1.00  0.00     0.000 C 
BRANCH  22  23
ATOM     23  C   UNL     1    -103.774 -28.129  -7.992  1.00  0.00     0.000 C 
BRANCH  23  24
ATOM     24  C   UNL     1    -103.786 -26.749  -8.667  1.00  0.00    -0.000 C 
BRANCH  24  25
ATOM     25  C   UNL     1    -105.227 -26.253  -8.867  1.00  0.00    -0.000 C 
BRANCH  25  26
ATOM     26  C   UNL     1    -105.402 -25.432 -10.157  1.00  0.00    -0.000 C 
BRANCH  26  27
ATOM     27  C   UNL     1    -104.161 -24.621 -10.590  1.00  0.00    -0.000 C 
BRANCH  27  28
ATOM     28  C   UNL     1    -104.346 -23.092 -10.557  1.00  0.00    -0.000 C 
BRANCH  28  29
ATOM     29  C   UNL     1    -103.819 -22.456  -9.257  1.00  0.00    -0.000 C 
BRANCH  29  30
ATOM     30  C   UNL     1    -102.633 -23.223  -8.655  1.00  0.00    -0.000 C 
BRANCH  30  31
ATOM     31  C   UNL     1    -102.668 -23.376  -7.125  1.00  0.00    -0.003 C 
ATOM     32  C   UNL     1    -104.082 -23.560  -6.573  1.00  0.00     0.004 C 
ENDBRANCH  30  31
ENDBRANCH  29  30
ENDBRANCH  28  29
ENDBRANCH  27  28
ENDBRANCH  26  27
ENDBRANCH  25  26
ENDBRANCH  24  25
ENDBRANCH  23  24
ENDBRANCH  22  23
ENDBRANCH  21  22
ENDBRANCH  20  21
ENDBRANCH  19  20
ENDBRANCH  18  19
ENDBRANCH   1  18
TORSDOF 28
ENDMDL
MODEL 6
REMARK VINA RESULT:    -3.100      1.893      7.794
REMARK INTER + INTRA:         -13.452
REMARK INTER:                  -8.414
REMARK INTRA:                  -5.039
REMARK UNBOUND:                -5.278
REMARK SMILES CCCCCCCCCCCCCCCCCCCCCCCCCCCCCC(=O)[O-]
REMARK SMILES IDX 16 1 17 2 18 3 19 4 20 5 21 6 22 7 23 8 24 9 25 10 26 11
REMARK SMILES IDX 27 12 28 13 29 14 30 15 31 16 32 17 15 18 14 19 13 20 12 21
REMARK SMILES IDX 11 22 10 23 9 24 8 25 7 26 6 27 5 28 4 29 3 30 2 31 1 32
REMARK H PARENT
REMARK Flexibility Score: inf
ROOT
ATOM      1  C   UNL     1    -102.968 -29.915 -12.474  1.00  0.00     0.000 C 
ENDROOT
BRANCH   1   2
ATOM      2  C   UNL     1    -103.661 -28.544 -12.517  1.00  0.00     0.000 C 
BRANCH   2   3
ATOM      3  C   UNL     1    -102.641 -27.410 -12.687  1.00  0.00     0.000 C 
BRANCH   3   4
ATOM      4  C   UNL     1    -101.237 -27.863 -12.247  1.00  0.00     0.000 C 
BRANCH   4   5
ATOM      5  C   UNL     1    -100.181 -27.715 -13.367  1.00  0.00     0.000 C 
BRANCH   5   6
ATOM      6  C   UNL     1     -99.074 -28.790 -13.322  1.00  0.00     0.000 C 
BRANCH   6   7
ATOM      7  C   UNL     1     -99.445 -30.070 -14.091  1.00  0.00     0.000 C 
BRANCH   7   8
ATOM      8  C   UNL     1     -98.380 -31.180 -13.931  1.00  0.00     0.000 C 
BRANCH   8   9
ATOM      9  C   UNL     1     -97.018 -30.621 -13.475  1.00  0.00     0.000 C 
BRANCH   9  10
ATOM     10  C   UNL     1     -96.495 -31.276 -12.177  1.00  0.00     0.000 C 
BRANCH  10  11
ATOM     11  C   UNL     1     -96.188 -30.261 -11.050  1.00  0.00     0.000 C 
BRANCH  11  12
ATOM     12  C   UNL     1     -97.441 -29.874 -10.246  1.00  0.00     0.000 C 
BRANCH  12  13
ATOM     13  C   UNL     1     -98.450 -31.031 -10.125  1.00  0.00     0.006 C 
BRANCH  13  14
ATOM     14  C   UNL     1     -99.919 -30.603 -10.272  1.00  0.00     0.053 C 
BRANCH  14  15
ATOM     15  C   UNL     1    -100.476 -29.998  -9.018  1.00  0.00     0.041 C 
ATOM     16  O   UNL     1     -99.763 -29.913  -7.983  1.00  0.00    -0.550 OA
ATOM     17  O   UNL     1    -101.784 -29.527  -8.992  1.00  0.00    -0.550 OA
ENDBRANCH  14  15
ENDBRANCH  13  14
ENDBRANCH  12  13
ENDBRANCH  11  12
ENDBRANCH  10  11
ENDBRANCH   9  10
ENDBRANCH   8   9
ENDBRANCH   7   8
ENDBRANCH   6   7
ENDBRANCH   5   6
ENDBRANCH   4   5
ENDBRANCH   3   4
ENDBRANCH   2   3
ENDBRANCH   1   2
BRANCH   1  18
ATOM     18  C   UNL     1    -103.149 -30.693 -13.788  1.00  0.00     0.000 C 
BRANCH  18  19
ATOM     19  C   UNL     1    -104.330 -30.159 -14.619  1.00  0.00     0.000 C 
BRANCH  19  20
ATOM     20  C   UNL     1    -103.913 -29.776 -16.052  1.00  0.00     0.000 C 
BRANCH  20  21
ATOM     21  C   UNL     1    -102.408 -29.465 -16.211  1.00  0.00     0.000 C 
BRANCH  21  22
ATOM     22  C   UNL     1    -102.057 -27.975 -16.417  1.00  0.00     0.000 C 
BRANCH  22  23
ATOM     23  C   UNL     1    -103.241 -27.063 -16.794  1.00  0.00     0.000 C 
BRANCH  23  24
ATOM     24  C   UNL     1    -103.241 -25.745 -16.006  1.00  0.00    -0.000 C 
BRANCH  24  25
ATOM     25  C   UNL     1    -104.679 -25.259 -15.759  1.00  0.00    -0.000 C 
BRANCH  25  26
ATOM     26  C   UNL     1    -105.397 -26.057 -14.656  1.00  0.00    -0.000 C 
BRANCH  26  27
ATOM     27  C   UNL     1    -105.761 -25.245 -13.393  1.00  0.00    -0.000 C 
BRANCH  27  28
ATOM     28  C   UNL     1    -104.821 -24.062 -13.093  1.00  0.00    -0.000 C 
BRANCH  28  29
ATOM     29  C   UNL     1    -104.730 -23.739 -11.590  1.00  0.00    -0.000 C 
BRANCH  29  30
ATOM     30  C   UNL     1    -104.285 -22.295 -11.316  1.00  0.00    -0.000 C 
BRANCH  30  31
ATOM     31  C   UNL     1    -103.871 -22.009  -9.862  1.00  0.00    -0.003 C 
ATOM     32  C   UNL     1    -104.961 -21.303  -9.056  1.00  0.00     0.004 C 
ENDBRANCH  30  31
ENDBRANCH  29  30
ENDBRANCH  28  29
ENDBRANCH  27  28
ENDBRANCH  26  27
ENDBRANCH  25  26
ENDBRANCH  24  25
ENDBRANCH  23  24
ENDBRANCH  22  23
ENDBRANCH  21  22
ENDBRANCH  20  21
ENDBRANCH  19  20
ENDBRANCH  18  19
ENDBRANCH   1  18
TORSDOF 28
ENDMDL
MODEL 7
REMARK VINA RESULT:    -3.079      3.139      7.589
REMARK INTER + INTRA:         -13.397
REMARK INTER:                  -8.444
REMARK INTRA:                  -4.953
REMARK UNBOUND:                -5.278
REMARK SMILES CCCCCCCCCCCCCCCCCCCCCCCCCCCCCC(=O)[O-]
REMARK SMILES IDX 16 1 17 2 18 3 19 4 20 5 21 6 22 7 23 8 24 9 25 10 26 11
REMARK SMILES IDX 27 12 28 13 29 14 30 15 31 16 32 17 15 18 14 19 13 20 12 21
REMARK SMILES IDX 11 22 10 23 9 24 8 25 7 26 6 27 5 28 4 29 3 30 2 31 1 32
REMARK H PARENT
REMARK Flexibility Score: inf
ROOT
ATOM      1  C   UNL     1    -103.538 -26.396 -16.791  1.00  0.00     0.000 C 
ENDROOT
BRANCH   1   2
ATOM      2  C   UNL     1    -102.730 -27.040 -15.653  1.00  0.00     0.000 C 
BRANCH   2   3
ATOM      3  C   UNL     1    -101.658 -27.992 -16.201  1.00  0.00     0.000 C 
BRANCH   3   4
ATOM      4  C   UNL     1    -102.231 -29.407 -16.402  1.00  0.00     0.000 C 
BRANCH   4   5
ATOM      5  C   UNL     1    -103.206 -29.825 -15.277  1.00  0.00     0.000 C 
BRANCH   5   6
ATOM      6  C   UNL     1    -102.780 -31.109 -14.533  1.00  0.00     0.000 C 
BRANCH   6   7
ATOM      7  C   UNL     1    -102.873 -30.976 -13.002  1.00  0.00     0.000 C 
BRANCH   7   8
ATOM      8  C   UNL     1    -103.266 -29.547 -12.561  1.00  0.00     0.000 C 
BRANCH   8   9
ATOM      9  C   UNL     1    -102.714 -29.193 -11.167  1.00  0.00     0.000 C 
BRANCH   9  10
ATOM     10  C   UNL     1    -101.268 -28.649 -11.206  1.00  0.00     0.000 C 
BRANCH  10  11
ATOM     11  C   UNL     1    -100.886 -27.996 -12.555  1.00  0.00     0.000 C 
BRANCH  11  12
ATOM     12  C   UNL     1     -99.811 -28.793 -13.314  1.00  0.00     0.000 C 
BRANCH  12  13
ATOM     13  C   UNL     1     -98.911 -29.617 -12.376  1.00  0.00     0.006 C 
BRANCH  13  14
ATOM     14  C   UNL     1     -97.445 -29.711 -12.833  1.00  0.00     0.053 C 
BRANCH  14  15
ATOM     15  C   UNL     1     -97.063 -31.091 -13.278  1.00  0.00     0.041 C 
ATOM     16  O   UNL     1     -96.700 -31.297 -14.466  1.00  0.00    -0.550 OA
ATOM     17  O   UNL     1     -97.107 -32.151 -12.378  1.00  0.00    -0.550 OA
ENDBRANCH  14  15
ENDBRANCH  13  14
ENDBRANCH  12  13
ENDBRANCH  11  12
ENDBRANCH  10  11
ENDBRANCH   9  10
ENDBRANCH   8   9
ENDBRANCH   7   8
ENDBRANCH   6   7
ENDBRANCH   5   6
ENDBRANCH   4   5
ENDBRANCH   3   4
ENDBRANCH   2   3
ENDBRANCH   1   2
BRANCH   1  18
ATOM     18  C   UNL     1    -104.733 -25.586 -16.261  1.00  0.00     0.000 C 
BRANCH  18  19
ATOM     19  C   UNL     1    -104.292 -24.265 -15.605  1.00  0.00     0.000 C 
BRANCH  19  20
ATOM     20  C   UNL     1    -105.443 -23.246 -15.508  1.00  0.00     0.000 C 
BRANCH  20  21
ATOM     21  C   UNL     1    -106.852 -23.882 -15.493  1.00  0.00     0.000 C 
BRANCH  21  22
ATOM     22  C   UNL     1    -107.417 -24.211 -14.094  1.00  0.00     0.000 C 
BRANCH  22  23
ATOM     23  C   UNL     1    -107.588 -25.711 -13.787  1.00  0.00     0.000 C 
BRANCH  23  24
ATOM     24  C   UNL     1    -106.840 -26.139 -12.515  1.00  0.00    -0.000 C 
BRANCH  24  25
ATOM     25  C   UNL     1    -105.498 -26.799 -12.869  1.00  0.00    -0.000 C 
BRANCH  25  26
ATOM     26  C   UNL     1    -104.285 -25.960 -12.429  1.00  0.00    -0.000 C 
BRANCH  26  27
ATOM     27  C   UNL     1    -104.591 -24.867 -11.382  1.00  0.00    -0.000 C 
BRANCH  27  28
ATOM     28  C   UNL     1    -104.448 -23.422 -11.896  1.00  0.00    -0.000 C 
BRANCH  28  29
ATOM     29  C   UNL     1    -104.870 -22.374 -10.851  1.00  0.00    -0.000 C 
BRANCH  29  30
ATOM     30  C   UNL     1    -103.717 -21.953  -9.927  1.00  0.00    -0.000 C 
BRANCH  30  31
ATOM     31  C   UNL     1    -103.599 -22.766  -8.626  1.00  0.00    -0.003 C 
ATOM     32  C   UNL     1    -102.159 -23.152  -8.289  1.00  0.00     0.004 C 
ENDBRANCH  30  31
ENDBRANCH  29  30
ENDBRANCH  28  29
ENDBRANCH  27  28
ENDBRANCH  26  27
ENDBRANCH  25  26
ENDBRANCH  24  25
ENDBRANCH  23  24
ENDBRANCH  22  23
ENDBRANCH  21  22
ENDBRANCH  20  21
ENDBRANCH  19  20
ENDBRANCH  18  19
ENDBRANCH   1  18
TORSDOF 28
ENDMDL
MODEL 8
REMARK VINA RESULT:    -3.071      2.886      7.627
REMARK INTER + INTRA:         -13.377
REMARK INTER:                  -7.090
REMARK INTRA:                  -6.287
REMARK UNBOUND:                -5.278
REMARK SMILES CCCCCCCCCCCCCCCCCCCCCCCCCCCCCC(=O)[O-]
REMARK SMILES IDX 16 1 17 2 18 3 19 4 20 5 21 6 22 7 23 8 24 9 25 10 26 11
REMARK SMILES IDX 27 12 28 13 29 14 30 15 31 16 32 17 15 18 14 19 13 20 12 21
REMARK SMILES IDX 11 22 10 23 9 24 8 25 7 26 6 27 5 28 4 29 3 30 2 31 1 32
REMARK H PARENT
REMARK Flexibility Score: inf
ROOT
ATOM      1  C   UNL     1    -101.411 -31.490 -15.125  1.00  0.00     0.000 C 
ENDROOT
BRANCH   1   2
ATOM      2  C   UNL     1     -99.958 -31.857 -14.784  1.00  0.00     0.000 C 
BRANCH   2   3
ATOM      3  C   UNL     1     -99.055 -30.616 -14.794  1.00  0.00     0.000 C 
BRANCH   3   4
ATOM      4  C   UNL     1     -98.318 -30.462 -13.451  1.00  0.00     0.000 C 
BRANCH   4   5
ATOM      5  C   UNL     1     -98.705 -29.167 -12.699  1.00  0.00     0.000 C 
BRANCH   5   6
ATOM      6  C   UNL     1     -99.891 -28.411 -13.335  1.00  0.00     0.000 C 
BRANCH   6   7
ATOM      7  C   UNL     1    -101.247 -28.778 -12.706  1.00  0.00     0.000 C 
BRANCH   7   8
ATOM      8  C   UNL     1    -101.211 -28.720 -11.161  1.00  0.00     0.000 C 
BRANCH   8   9
ATOM      9  C   UNL     1    -101.954 -29.904 -10.514  1.00  0.00     0.000 C 
BRANCH   9  10
ATOM     10  C   UNL     1    -102.071 -31.133 -11.444  1.00  0.00     0.000 C 
BRANCH  10  11
ATOM     11  C   UNL     1    -101.506 -32.434 -10.827  1.00  0.00     0.000 C 
BRANCH  11  12
ATOM     12  C   UNL     1    -100.008 -32.624 -11.117  1.00  0.00     0.000 C 
BRANCH  12  13
ATOM     13  C   UNL     1     -99.110 -31.849 -10.135  1.00  0.00     0.006 C 
BRANCH  13  14
ATOM     14  C   UNL     1     -97.619 -32.215 -10.223  1.00  0.00     0.053 C 
BRANCH  14  15
ATOM     15  C   UNL     1     -96.726 -31.153  -9.656  1.00  0.00     0.041 C 
ATOM     16  O   UNL     1     -96.495 -31.112  -8.419  1.00  0.00    -0.550 OA
ATOM     17  O   UNL     1     -96.147 -30.208 -10.496  1.00  0.00    -0.550 OA
ENDBRANCH  14  15
ENDBRANCH  13  14
ENDBRANCH  12  13
ENDBRANCH  11  12
ENDBRANCH  10  11
ENDBRANCH   9  10
ENDBRANCH   8   9
ENDBRANCH   7   8
ENDBRANCH   6   7
ENDBRANCH   5   6
ENDBRANCH   4   5
ENDBRANCH   3   4
ENDBRANCH   2   3
ENDBRANCH   1   2
BRANCH   1  18
ATOM     18  C   UNL     1    -101.507 -30.652 -16.411  1.00  0.00     0.000 C 
BRANCH  18  19
ATOM     19  C   UNL     1    -102.452 -29.447 -16.249  1.00  0.00     0.000 C 
BRANCH  19  20
ATOM     20  C   UNL     1    -101.712 -28.102 -16.373  1.00  0.00     0.000 C 
BRANCH  20  21
ATOM     21  C   UNL     1    -102.440 -26.915 -15.701  1.00  0.00     0.000 C 
BRANCH  21  22
ATOM     22  C   UNL     1    -103.567 -26.270 -16.536  1.00  0.00     0.000 C 
BRANCH  22  23
ATOM     23  C   UNL     1    -104.162 -24.973 -15.954  1.00  0.00     0.000 C 
BRANCH  23  24
ATOM     24  C   UNL     1    -105.154 -25.242 -14.812  1.00  0.00    -0.000 C 
BRANCH  24  25
ATOM     25  C   UNL     1    -104.958 -24.231 -13.671  1.00  0.00    -0.000 C 
BRANCH  25  26
ATOM     26  C   UNL     1    -104.377 -24.872 -12.399  1.00  0.00    -0.000 C 
BRANCH  26  27
ATOM     27  C   UNL     1    -104.078 -26.384 -12.505  1.00  0.00    -0.000 C 
BRANCH  27  28
ATOM     28  C   UNL     1    -104.940 -27.278 -11.594  1.00  0.00    -0.000 C 
BRANCH  28  29
ATOM     29  C   UNL     1    -105.005 -28.737 -12.079  1.00  0.00    -0.000 C 
BRANCH  29  30
ATOM     30  C   UNL     1    -104.875 -28.866 -13.604  1.00  0.00    -0.000 C 
BRANCH  30  31
ATOM     31  C   UNL     1    -106.207 -29.021 -14.358  1.00  0.00    -0.003 C 
ATOM     32  C   UNL     1    -106.093 -28.702 -15.849  1.00  0.00     0.004 C 
ENDBRANCH  30  31
ENDBRANCH  29  30
ENDBRANCH  28  29
ENDBRANCH  27  28
ENDBRANCH  26  27
ENDBRANCH  25  26
ENDBRANCH  24  25
ENDBRANCH  23  24
ENDBRANCH  22  23
ENDBRANCH  21  22
ENDBRANCH  20  21
ENDBRANCH  19  20
ENDBRANCH  18  19
ENDBRANCH   1  18
TORSDOF 28
ENDMDL
MODEL 9
REMARK VINA RESULT:    -3.047      2.583      7.619
REMARK INTER + INTRA:         -13.312
REMARK INTER:                  -7.102
REMARK INTRA:                  -6.210
REMARK UNBOUND:                -5.278
REMARK SMILES CCCCCCCCCCCCCCCCCCCCCCCCCCCCCC(=O)[O-]
REMARK SMILES IDX 16 1 17 2 18 3 19 4 20 5 21 6 22 7 23 8 24 9 25 10 26 11
REMARK SMILES IDX 27 12 28 13 29 14 30 15 31 16 32 17 15 18 14 19 13 20 12 21
REMARK SMILES IDX 11 22 10 23 9 24 8 25 7 26 6 27 5 28 4 29 3 30 2 31 1 32
REMARK H PARENT
REMARK Flexibility Score: inf
ROOT
ATOM      1  C   UNL     1    -102.021 -27.841 -11.448  1.00  0.00     0.000 C 
ENDROOT
BRANCH   1   2
ATOM      2  C   UNL     1    -100.862 -28.850 -11.481  1.00  0.00     0.000 C 
BRANCH   2   3
ATOM      3  C   UNL     1    -100.900 -29.780 -10.260  1.00  0.00     0.000 C 
BRANCH   3   4
ATOM      4  C   UNL     1    -101.104 -31.244 -10.690  1.00  0.00     0.000 C 
BRANCH   4   5
ATOM      5  C   UNL     1    -102.557 -31.543 -11.128  1.00  0.00     0.000 C 
BRANCH   5   6
ATOM      6  C   UNL     1    -102.687 -31.942 -12.613  1.00  0.00     0.000 C 
BRANCH   6   7
ATOM      7  C   UNL     1    -103.686 -31.064 -13.387  1.00  0.00     0.000 C 
BRANCH   7   8
ATOM      8  C   UNL     1    -103.471 -31.140 -14.917  1.00  0.00     0.000 C 
BRANCH   8   9
ATOM      9  C   UNL     1    -102.210 -31.944 -15.290  1.00  0.00     0.000 C 
BRANCH   9  10
ATOM     10  C   UNL     1    -101.361 -31.269 -16.390  1.00  0.00     0.000 C 
BRANCH  10  11
ATOM     11  C   UNL     1    -100.001 -30.732 -15.883  1.00  0.00     0.000 C 
BRANCH  11  12
ATOM     12  C   UNL     1     -99.621 -31.295 -14.504  1.00  0.00     0.000 C 
BRANCH  12  13
ATOM     13  C   UNL     1     -98.621 -30.399 -13.751  1.00  0.00     0.006 C 
BRANCH  13  14
ATOM     14  C   UNL     1     -97.898 -31.101 -12.589  1.00  0.00     0.053 C 
BRANCH  14  15
ATOM     15  C   UNL     1     -97.074 -30.158 -11.764  1.00  0.00     0.041 C 
ATOM     16  O   UNL     1     -96.009 -29.673 -12.229  1.00  0.00    -0.550 OA
ATOM     17  O   UNL     1     -97.484 -29.816 -10.480  1.00  0.00    -0.550 OA
ENDBRANCH  14  15
ENDBRANCH  13  14
ENDBRANCH  12  13
ENDBRANCH  11  12
ENDBRANCH  10  11
ENDBRANCH   9  10
ENDBRANCH   8   9
ENDBRANCH   7   8
ENDBRANCH   6   7
ENDBRANCH   5   6
ENDBRANCH   4   5
ENDBRANCH   3   4
ENDBRANCH   2   3
ENDBRANCH   1   2
BRANCH   1  18
ATOM     18  C   UNL     1    -102.469 -27.434 -12.862  1.00  0.00     0.000 C 
BRANCH  18  19
ATOM     19  C   UNL     1    -101.641 -28.132 -13.956  1.00  0.00     0.000 C 
BRANCH  19  20
ATOM     20  C   UNL     1    -101.657 -27.356 -15.287  1.00  0.00     0.000 C 
BRANCH  20  21
ATOM     21  C   UNL     1    -102.616 -27.940 -16.348  1.00  0.00     0.000 C 
BRANCH  21  22
ATOM     22  C   UNL     1    -103.643 -26.945 -16.933  1.00  0.00     0.000 C 
BRANCH  22  23
ATOM     23  C   UNL     1    -103.546 -25.503 -16.396  1.00  0.00     0.000 C 
BRANCH  23  24
ATOM     24  C   UNL     1    -104.532 -25.236 -15.249  1.00  0.00    -0.000 C 
BRANCH  24  25
ATOM     25  C   UNL     1    -105.974 -25.532 -15.691  1.00  0.00    -0.000 C 
BRANCH  25  26
ATOM     26  C   UNL     1    -106.744 -26.393 -14.674  1.00  0.00    -0.000 C 
BRANCH  26  27
ATOM     27  C   UNL     1    -106.000 -27.658 -14.191  1.00  0.00    -0.000 C 
BRANCH  27  28
ATOM     28  C   UNL     1    -105.777 -27.734 -12.669  1.00  0.00    -0.000 C 
BRANCH  28  29
ATOM     29  C   UNL     1    -106.176 -26.436 -11.943  1.00  0.00    -0.000 C 
BRANCH  29  30
ATOM     30  C   UNL     1    -105.276 -26.126 -10.738  1.00  0.00    -0.000 C 
BRANCH  30  31
ATOM     31  C   UNL     1    -104.322 -24.934 -10.930  1.00  0.00    -0.003 C 
ATOM     32  C   UNL     1    -104.820 -23.929 -11.968  1.00  0.00     0.004 C 
ENDBRANCH  30  31
ENDBRANCH  29  30
ENDBRANCH  28  29
ENDBRANCH  27  28
ENDBRANCH  26  27
ENDBRANCH  25  26
ENDBRANCH  24  25
ENDBRANCH  23  24
ENDBRANCH  22  23
ENDBRANCH  21  22
ENDBRANCH  20  21
ENDBRANCH  19  20
ENDBRANCH  18  19
ENDBRANCH   1  18
TORSDOF 28
ENDMDL
