MODEL 1
REMARK VINA RESULT:    28.338      0.000      0.000
REMARK INTER + INTRA:          34.652
REMARK INTER:                  34.964
REMARK INTRA:                  -0.312
REMARK UNBOUND:                -0.312
REMARK SMILES Oc1cc(O)c2cc(O)c(-c3cc(O)c(O)c(O)c3)[o+]c2c1
REMARK SMILES IDX 10 1 20 2 21 3 22 4 2 5 3 6 4 7 6 8 7 9 8 10 11 11 12 12
REMARK SMILES IDX 13 13 19 14 15 15 17 16 14 17 16 19 18 21 9 23 1 25 5 27
REMARK H PARENT 14 18 16 20 18 22 9 24 1 26 5 28
REMARK Flexibility Score: inf
ROOT
ATOM      1  C   UNL     1     -33.163  31.650  -2.662  1.00  0.00     0.402 A 
ATOM      2  O   UNL     1     -34.112  31.293  -3.526  1.00  0.00    -0.202 OA
ATOM      3  C   UNL     1     -35.352  30.988  -3.159  1.00  0.00     0.368 A 
ATOM      4  C   UNL     1     -36.290  30.618  -4.129  1.00  0.00     0.162 A 
ATOM      5  C   UNL     1     -37.600  30.292  -3.755  1.00  0.00     0.128 A 
ATOM      6  C   UNL     1     -37.972  30.335  -2.408  1.00  0.00     0.093 A 
ATOM      7  C   UNL     1     -37.044  30.706  -1.423  1.00  0.00     0.136 A 
ATOM      8  C   UNL     1     -35.727  31.035  -1.799  1.00  0.00     0.125 A 
ATOM      9  C   UNL     1     -34.761  31.419  -0.862  1.00  0.00     0.078 A 
ATOM     10  C   UNL     1     -33.470  31.742  -1.288  1.00  0.00     0.223 A 
ENDROOT
BRANCH   1  11
ATOM     11  C   UNL     1     -31.814  31.958  -3.190  1.00  0.00     0.091 A 
ATOM     12  C   UNL     1     -30.726  31.104  -2.956  1.00  0.00     0.068 A 
ATOM     13  C   UNL     1     -29.465  31.398  -3.481  1.00  0.00     0.162 A 
ATOM     14  C   UNL     1     -31.630  33.095  -3.988  1.00  0.00     0.068 A 
ATOM     15  C   UNL     1     -29.273  32.553  -4.262  1.00  0.00     0.200 A 
ATOM     16  C   UNL     1     -30.373  33.406  -4.521  1.00  0.00     0.162 A 
BRANCH  13  17
ATOM     17  O   UNL     1     -28.409  30.525  -3.217  1.00  0.00    -0.504 OA
ATOM     18  H   UNL     1     -28.328  30.023  -2.341  1.00  0.00     0.293 HD
ENDBRANCH  13  17
BRANCH  15  19
ATOM     19  O   UNL     1     -27.994  32.814  -4.760  1.00  0.00    -0.502 OA
ATOM     20  H   UNL     1     -27.168  32.292  -4.504  1.00  0.00     0.293 HD
ENDBRANCH  15  19
BRANCH  16  21
ATOM     21  O   UNL     1     -30.267  34.562  -5.297  1.00  0.00    -0.504 OA
ATOM     22  H   UNL     1     -29.566  34.702  -6.011  1.00  0.00     0.293 HD
ENDBRANCH  16  21
ENDBRANCH   1  11
BRANCH  10  23
ATOM     23  O   UNL     1     -32.516  32.173  -0.367  1.00  0.00    -0.500 OA
ATOM     24  H   UNL     1     -32.021  31.521   0.231  1.00  0.00     0.294 HD
ENDBRANCH  10  23
BRANCH   5  25
ATOM     25  O   UNL     1     -38.539  29.921  -4.715  1.00  0.00    -0.507 OA
ATOM     26  H   UNL     1     -38.311  29.906  -5.702  1.00  0.00     0.293 HD
ENDBRANCH   5  25
BRANCH   7  27
ATOM     27  O   UNL     1     -37.428  30.748  -0.083  1.00  0.00    -0.507 OA
ATOM     28  H   UNL     1     -36.804  30.451   0.657  1.00  0.00     0.293 HD
ENDBRANCH   7  27
TORSDOF 7
ENDMDL
MODEL 2
REMARK VINA RESULT:    28.680      0.064      1.806
REMARK INTER + INTRA:          35.075
REMARK INTER:                  35.364
REMARK INTRA:                  -0.289
REMARK UNBOUND:                -0.312
REMARK SMILES Oc1cc(O)c2cc(O)c(-c3cc(O)c(O)c(O)c3)[o+]c2c1
REMARK SMILES IDX 10 1 20 2 21 3 22 4 2 5 3 6 4 7 6 8 7 9 8 10 11 11 12 12
REMARK SMILES IDX 13 13 19 14 15 15 17 16 14 17 16 19 18 21 9 23 1 25 5 27
REMARK H PARENT 14 18 16 20 18 22 9 24 1 26 5 28
REMARK Flexibility Score: inf
ROOT
ATOM      1  C   UNL     1     -33.154  31.658  -2.694  1.00  0.00     0.402 A 
ATOM      2  O   UNL     1     -34.115  31.297  -3.542  1.00  0.00    -0.202 OA
ATOM      3  C   UNL     1     -35.350  30.992  -3.156  1.00  0.00     0.368 A 
ATOM      4  C   UNL     1     -36.302  30.618  -4.110  1.00  0.00     0.162 A 
ATOM      5  C   UNL     1     -37.605  30.292  -3.715  1.00  0.00     0.128 A 
ATOM      6  C   UNL     1     -37.957  30.340  -2.362  1.00  0.00     0.093 A 
ATOM      7  C   UNL     1     -37.014  30.716  -1.393  1.00  0.00     0.136 A 
ATOM      8  C   UNL     1     -35.704  31.044  -1.790  1.00  0.00     0.125 A 
ATOM      9  C   UNL     1     -34.724  31.432  -0.869  1.00  0.00     0.078 A 
ATOM     10  C   UNL     1     -33.439  31.754  -1.316  1.00  0.00     0.223 A 
ENDROOT
BRANCH   1  11
ATOM     11  C   UNL     1     -31.813  31.965  -3.244  1.00  0.00     0.091 A 
ATOM     12  C   UNL     1     -31.577  33.135  -3.981  1.00  0.00     0.068 A 
ATOM     13  C   UNL     1     -30.301  33.421  -4.473  1.00  0.00     0.162 A 
ATOM     14  C   UNL     1     -30.744  31.100  -2.976  1.00  0.00     0.068 A 
ATOM     15  C   UNL     1     -29.231  32.540  -4.225  1.00  0.00     0.200 A 
ATOM     16  C   UNL     1     -29.459  31.369  -3.462  1.00  0.00     0.162 A 
BRANCH  13  17
ATOM     17  O   UNL     1     -30.113  34.592  -5.207  1.00  0.00    -0.504 OA
ATOM     18  H   UNL     1     -30.822  34.961  -5.829  1.00  0.00     0.293 HD
ENDBRANCH  13  17
BRANCH  15  19
ATOM     19  O   UNL     1     -27.974  32.859  -4.744  1.00  0.00    -0.502 OA
ATOM     20  H   UNL     1     -27.439  32.253  -5.350  1.00  0.00     0.293 HD
ENDBRANCH  15  19
BRANCH  16  21
ATOM     21  O   UNL     1     -28.448  30.454  -3.163  1.00  0.00    -0.504 OA
ATOM     22  H   UNL     1     -28.270  29.613  -3.693  1.00  0.00     0.293 HD
ENDBRANCH  16  21
ENDBRANCH   1  11
BRANCH  10  23
ATOM     23  O   UNL     1     -32.472  32.190  -0.411  1.00  0.00    -0.500 OA
ATOM     24  H   UNL     1     -31.808  31.548   0.007  1.00  0.00     0.294 HD
ENDBRANCH  10  23
BRANCH   5  25
ATOM     25  O   UNL     1     -38.559  29.918  -4.658  1.00  0.00    -0.507 OA
ATOM     26  H   UNL     1     -39.138  29.096  -4.530  1.00  0.00     0.293 HD
ENDBRANCH   5  25
BRANCH   7  27
ATOM     27  O   UNL     1     -37.378  30.762  -0.047  1.00  0.00    -0.507 OA
ATOM     28  H   UNL     1     -36.687  30.864   0.686  1.00  0.00     0.293 HD
ENDBRANCH   7  27
TORSDOF 7
ENDMDL
