MODEL 1
REMARK VINA RESULT:    -4.690      0.000      0.000
REMARK INTER + INTRA:         -10.786
REMARK INTER:                  -9.077
REMARK INTRA:                  -1.709
REMARK UNBOUND:                -1.709
REMARK SMILES CCCCCCCCCCCCCCCCCC(=O)[O-]
REMARK SMILES IDX 10 1 11 2 12 3 13 4 14 5 15 6 16 7 17 8 18 9 19 10 20 11
REMARK SMILES IDX 9 12 8 13 7 14 6 15 5 16 4 17 3 18 2 19 1 20
REMARK H PARENT
REMARK Flexibility Score: inf
ROOT
ATOM      1  C   UNL     1      31.403   1.352 167.222  1.00  0.00     0.000 C 
ENDROOT
BRANCH   1   2
ATOM      2  C   UNL     1      31.128   0.033 167.966  1.00  0.00     0.000 C 
BRANCH   2   3
ATOM      3  C   UNL     1      29.708  -0.098 168.552  1.00  0.00     0.000 C 
BRANCH   3   4
ATOM      4  C   UNL     1      28.943  -1.344 168.053  1.00  0.00     0.000 C 
BRANCH   4   5
ATOM      5  C   UNL     1      29.284  -1.698 166.595  1.00  0.00     0.000 C 
BRANCH   5   6
ATOM      6  C   UNL     1      28.118  -2.382 165.864  1.00  0.00     0.000 C 
BRANCH   6   7
ATOM      7  C   UNL     1      28.594  -3.447 164.860  1.00  0.00     0.006 C 
BRANCH   7   8
ATOM      8  C   UNL     1      30.106  -3.369 164.608  1.00  0.00     0.053 C 
BRANCH   8   9
ATOM      9  C   UNL     1      30.417  -2.759 163.275  1.00  0.00     0.041 C 
ATOM     10  O   UNL     1      31.516  -2.996 162.710  1.00  0.00    -0.550 OA
ATOM     11  O   UNL     1      29.479  -1.951 162.645  1.00  0.00    -0.550 OA
ENDBRANCH   8   9
ENDBRANCH   7   8
ENDBRANCH   6   7
ENDBRANCH   5   6
ENDBRANCH   4   5
ENDBRANCH   3   4
ENDBRANCH   2   3
ENDBRANCH   1   2
BRANCH   1  12
ATOM     12  C   UNL     1      32.260   1.216 165.947  1.00  0.00     0.000 C 
BRANCH  12  13
ATOM     13  C   UNL     1      32.359  -0.214 165.377  1.00  0.00    -0.000 C 
BRANCH  13  14
ATOM     14  C   UNL     1      33.788  -0.683 165.041  1.00  0.00    -0.000 C 
BRANCH  14  15
ATOM     15  C   UNL     1      34.463   0.069 163.878  1.00  0.00    -0.000 C 
BRANCH  15  16
ATOM     16  C   UNL     1      35.492   1.134 164.302  1.00  0.00    -0.000 C 
BRANCH  16  17
ATOM     17  C   UNL     1      36.007   1.002 165.748  1.00  0.00    -0.000 C 
BRANCH  17  18
ATOM     18  C   UNL     1      36.345   2.335 166.445  1.00  0.00    -0.000 C 
BRANCH  18  19
ATOM     19  C   UNL     1      35.198   3.360 166.475  1.00  0.00    -0.003 C 
ATOM     20  C   UNL     1      35.534   4.607 167.290  1.00  0.00     0.004 C 
ENDBRANCH  18  19
ENDBRANCH  17  18
ENDBRANCH  16  17
ENDBRANCH  15  16
ENDBRANCH  14  15
ENDBRANCH  13  14
ENDBRANCH  12  13
ENDBRANCH   1  12
TORSDOF 16
ENDMDL
MODEL 2
REMARK VINA RESULT:    -4.469      3.080      7.216
REMARK INTER + INTRA:         -10.357
REMARK INTER:                  -8.779
REMARK INTRA:                  -1.579
REMARK UNBOUND:                -1.709
REMARK SMILES CCCCCCCCCCCCCCCCCC(=O)[O-]
REMARK SMILES IDX 10 1 11 2 12 3 13 4 14 5 15 6 16 7 17 8 18 9 19 10 20 11
REMARK SMILES IDX 9 12 8 13 7 14 6 15 5 16 4 17 3 18 2 19 1 20
REMARK H PARENT
REMARK Flexibility Score: inf
ROOT
ATOM      1  C   UNL     1      30.985   1.610 167.136  1.00  0.00     0.000 C 
ENDROOT
BRANCH   1   2
ATOM      2  C   UNL     1      32.326   1.903 166.440  1.00  0.00     0.000 C 
BRANCH   2   3
ATOM      3  C   UNL     1      32.636   1.007 165.224  1.00  0.00     0.000 C 
BRANCH   3   4
ATOM      4  C   UNL     1      33.333  -0.321 165.592  1.00  0.00     0.000 C 
BRANCH   4   5
ATOM      5  C   UNL     1      34.844  -0.292 165.299  1.00  0.00     0.000 C 
BRANCH   5   6
ATOM      6  C   UNL     1      35.221   0.751 164.237  1.00  0.00     0.000 C 
BRANCH   6   7
ATOM      7  C   UNL     1      36.275   1.753 164.742  1.00  0.00     0.006 C 
BRANCH   7   8
ATOM      8  C   UNL     1      36.335   1.806 166.274  1.00  0.00     0.053 C 
BRANCH   8   9
ATOM      9  C   UNL     1      36.314   3.215 166.783  1.00  0.00     0.041 C 
ATOM     10  O   UNL     1      35.223   3.832 166.895  1.00  0.00    -0.550 OA
ATOM     11  O   UNL     1      37.498   3.835 167.161  1.00  0.00    -0.550 OA
ENDBRANCH   8   9
ENDBRANCH   7   8
ENDBRANCH   6   7
ENDBRANCH   5   6
ENDBRANCH   4   5
ENDBRANCH   3   4
ENDBRANCH   2   3
ENDBRANCH   1   2
BRANCH   1  12
ATOM     12  C   UNL     1      30.996   0.396 168.087  1.00  0.00     0.000 C 
BRANCH  12  13
ATOM     13  C   UNL     1      29.622   0.015 168.675  1.00  0.00    -0.000 C 
BRANCH  13  14
ATOM     14  C   UNL     1      29.048  -1.325 168.175  1.00  0.00    -0.000 C 
BRANCH  14  15
ATOM     15  C   UNL     1      29.352  -1.653 166.700  1.00  0.00    -0.000 C 
BRANCH  15  16
ATOM     16  C   UNL     1      28.194  -2.317 165.929  1.00  0.00    -0.000 C 
BRANCH  16  17
ATOM     17  C   UNL     1      28.628  -3.276 164.803  1.00  0.00    -0.000 C 
BRANCH  17  18
ATOM     18  C   UNL     1      30.102  -3.149 164.371  1.00  0.00    -0.000 C 
BRANCH  18  19
ATOM     19  C   UNL     1      30.346  -2.227 163.163  1.00  0.00    -0.003 C 
ATOM     20  C   UNL     1      31.813  -2.173 162.741  1.00  0.00     0.004 C 
ENDBRANCH  18  19
ENDBRANCH  17  18
ENDBRANCH  16  17
ENDBRANCH  15  16
ENDBRANCH  14  15
ENDBRANCH  13  14
ENDBRANCH  12  13
ENDBRANCH   1  12
TORSDOF 16
ENDMDL
MODEL 3
REMARK VINA RESULT:    -4.452      1.218      2.107
REMARK INTER + INTRA:         -10.325
REMARK INTER:                  -8.520
REMARK INTRA:                  -1.805
REMARK UNBOUND:                -1.709
REMARK SMILES CCCCCCCCCCCCCCCCCC(=O)[O-]
REMARK SMILES IDX 10 1 11 2 12 3 13 4 14 5 15 6 16 7 17 8 18 9 19 10 20 11
REMARK SMILES IDX 9 12 8 13 7 14 6 15 5 16 4 17 3 18 2 19 1 20
REMARK H PARENT
REMARK Flexibility Score: inf
ROOT
ATOM      1  C   UNL     1      30.370  -0.768 167.760  1.00  0.00     0.000 C 
ENDROOT
BRANCH   1   2
ATOM      2  C   UNL     1      29.039  -1.145 168.435  1.00  0.00     0.000 C 
BRANCH   2   3
ATOM      3  C   UNL     1      28.124  -2.063 167.600  1.00  0.00     0.000 C 
BRANCH   3   4
ATOM      4  C   UNL     1      28.386  -1.984 166.080  1.00  0.00     0.000 C 
BRANCH   4   5
ATOM      5  C   UNL     1      28.104  -3.318 165.366  1.00  0.00     0.000 C 
BRANCH   5   6
ATOM      6  C   UNL     1      29.335  -3.866 164.628  1.00  0.00     0.000 C 
BRANCH   6   7
ATOM      7  C   UNL     1      30.423  -2.797 164.420  1.00  0.00     0.006 C 
BRANCH   7   8
ATOM      8  C   UNL     1      30.960  -2.792 162.982  1.00  0.00     0.053 C 
BRANCH   8   9
ATOM      9  C   UNL     1      32.405  -3.184 162.927  1.00  0.00     0.041 C 
ATOM     10  O   UNL     1      32.795  -4.247 163.477  1.00  0.00    -0.550 OA
ATOM     11  O   UNL     1      33.316  -2.388 162.244  1.00  0.00    -0.550 OA
ENDBRANCH   8   9
ENDBRANCH   7   8
ENDBRANCH   6   7
ENDBRANCH   5   6
ENDBRANCH   4   5
ENDBRANCH   3   4
ENDBRANCH   2   3
ENDBRANCH   1   2
BRANCH   1  12
ATOM     12  C   UNL     1      30.704   0.738 167.772  1.00  0.00     0.000 C 
BRANCH  12  13
ATOM     13  C   UNL     1      31.772   1.178 166.751  1.00  0.00    -0.000 C 
BRANCH  13  14
ATOM     14  C   UNL     1      32.143   0.116 165.697  1.00  0.00    -0.000 C 
BRANCH  14  15
ATOM     15  C   UNL     1      33.615  -0.339 165.721  1.00  0.00    -0.000 C 
BRANCH  15  16
ATOM     16  C   UNL     1      34.438   0.052 164.478  1.00  0.00    -0.000 C 
BRANCH  16  17
ATOM     17  C   UNL     1      35.555   1.082 164.735  1.00  0.00    -0.000 C 
BRANCH  17  18
ATOM     18  C   UNL     1      35.463   1.821 166.084  1.00  0.00    -0.000 C 
BRANCH  18  19
ATOM     19  C   UNL     1      34.788   3.202 166.022  1.00  0.00    -0.003 C 
ATOM     20  C   UNL     1      35.415   4.215 166.979  1.00  0.00     0.004 C 
ENDBRANCH  18  19
ENDBRANCH  17  18
ENDBRANCH  16  17
ENDBRANCH  15  16
ENDBRANCH  14  15
ENDBRANCH  13  14
ENDBRANCH  12  13
ENDBRANCH   1  12
TORSDOF 16
ENDMDL
MODEL 4
REMARK VINA RESULT:    -4.424      3.233      6.857
REMARK INTER + INTRA:         -10.271
REMARK INTER:                  -8.326
REMARK INTRA:                  -1.945
REMARK UNBOUND:                -1.709
REMARK SMILES CCCCCCCCCCCCCCCCCC(=O)[O-]
REMARK SMILES IDX 10 1 11 2 12 3 13 4 14 5 15 6 16 7 17 8 18 9 19 10 20 11
REMARK SMILES IDX 9 12 8 13 7 14 6 15 5 16 4 17 3 18 2 19 1 20
REMARK H PARENT
REMARK Flexibility Score: inf
ROOT
ATOM      1  C   UNL     1      30.650  -2.693 163.842  1.00  0.00     0.000 C 
ENDROOT
BRANCH   1   2
ATOM      2  C   UNL     1      32.135  -2.953 163.529  1.00  0.00     0.000 C 
BRANCH   2   3
ATOM      3  C   UNL     1      33.072  -1.757 163.787  1.00  0.00     0.000 C 
BRANCH   3   4
ATOM      4  C   UNL     1      32.330  -0.416 163.982  1.00  0.00     0.000 C 
BRANCH   4   5
ATOM      5  C   UNL     1      33.286   0.742 164.316  1.00  0.00     0.000 C 
BRANCH   5   6
ATOM      6  C   UNL     1      34.256   0.399 165.457  1.00  0.00     0.000 C 
BRANCH   6   7
ATOM      7  C   UNL     1      35.296   1.507 165.700  1.00  0.00     0.006 C 
BRANCH   7   8
ATOM      8  C   UNL     1      34.645   2.829 166.127  1.00  0.00     0.053 C 
BRANCH   8   9
ATOM      9  C   UNL     1      35.634   3.757 166.762  1.00  0.00     0.041 C 
ATOM     10  O   UNL     1      36.753   3.326 167.146  1.00  0.00    -0.550 OA
ATOM     11  O   UNL     1      35.330   5.105 166.906  1.00  0.00    -0.550 OA
ENDBRANCH   8   9
ENDBRANCH   7   8
ENDBRANCH   6   7
ENDBRANCH   5   6
ENDBRANCH   4   5
ENDBRANCH   3   4
ENDBRANCH   2   3
ENDBRANCH   1   2
BRANCH   1  12
ATOM     12  C   UNL     1      29.969  -3.771 164.709  1.00  0.00     0.000 C 
BRANCH  12  13
ATOM     13  C   UNL     1      28.455  -3.574 164.925  1.00  0.00    -0.000 C 
BRANCH  13  14
ATOM     14  C   UNL     1      28.061  -2.256 165.620  1.00  0.00    -0.000 C 
BRANCH  14  15
ATOM     15  C   UNL     1      28.081  -2.302 167.160  1.00  0.00    -0.000 C 
BRANCH  15  16
ATOM     16  C   UNL     1      28.985  -1.250 167.832  1.00  0.00    -0.000 C 
BRANCH  16  17
ATOM     17  C   UNL     1      30.458  -1.670 167.999  1.00  0.00    -0.000 C 
BRANCH  17  18
ATOM     18  C   UNL     1      31.489  -0.557 167.729  1.00  0.00    -0.000 C 
BRANCH  18  19
ATOM     19  C   UNL     1      31.042   0.855 168.147  1.00  0.00    -0.003 C 
ATOM     20  C   UNL     1      31.130   1.869 167.007  1.00  0.00     0.004 C 
ENDBRANCH  18  19
ENDBRANCH  17  18
ENDBRANCH  16  17
ENDBRANCH  15  16
ENDBRANCH  14  15
ENDBRANCH  13  14
ENDBRANCH  12  13
ENDBRANCH   1  12
TORSDOF 16
ENDMDL
MODEL 5
REMARK VINA RESULT:    -4.354      1.857      3.474
REMARK INTER + INTRA:         -10.136
REMARK INTER:                  -8.111
REMARK INTRA:                  -2.025
REMARK UNBOUND:                -1.709
REMARK SMILES CCCCCCCCCCCCCCCCCC(=O)[O-]
REMARK SMILES IDX 10 1 11 2 12 3 13 4 14 5 15 6 16 7 17 8 18 9 19 10 20 11
REMARK SMILES IDX 9 12 8 13 7 14 6 15 5 16 4 17 3 18 2 19 1 20
REMARK H PARENT
REMARK Flexibility Score: inf
ROOT
ATOM      1  C   UNL     1      29.146  -1.146 168.212  1.00  0.00     0.000 C 
ENDROOT
BRANCH   1   2
ATOM      2  C   UNL     1      28.103  -2.055 167.538  1.00  0.00     0.000 C 
BRANCH   2   3
ATOM      3  C   UNL     1      28.104  -2.013 165.997  1.00  0.00     0.000 C 
BRANCH   3   4
ATOM      4  C   UNL     1      28.575  -3.329 165.340  1.00  0.00     0.000 C 
BRANCH   4   5
ATOM      5  C   UNL     1      29.973  -3.204 164.709  1.00  0.00     0.000 C 
BRANCH   5   6
ATOM      6  C   UNL     1      30.285  -1.774 164.242  1.00  0.00     0.000 C 
BRANCH   6   7
ATOM      7  C   UNL     1      31.785  -1.554 163.977  1.00  0.00     0.006 C 
BRANCH   7   8
ATOM      8  C   UNL     1      32.032  -0.699 162.727  1.00  0.00     0.053 C 
BRANCH   8   9
ATOM      9  C   UNL     1      33.404  -0.096 162.728  1.00  0.00     0.041 C 
ATOM     10  O   UNL     1      34.360  -0.695 163.284  1.00  0.00    -0.550 OA
ATOM     11  O   UNL     1      33.630   1.117 162.089  1.00  0.00    -0.550 OA
ENDBRANCH   8   9
ENDBRANCH   7   8
ENDBRANCH   6   7
ENDBRANCH   5   6
ENDBRANCH   4   5
ENDBRANCH   3   4
ENDBRANCH   2   3
ENDBRANCH   1   2
BRANCH   1  12
ATOM     12  C   UNL     1      30.613  -1.582 168.020  1.00  0.00     0.000 C 
BRANCH  12  13
ATOM     13  C   UNL     1      31.601  -0.437 167.721  1.00  0.00    -0.000 C 
BRANCH  13  14
ATOM     14  C   UNL     1      30.962   0.961 167.603  1.00  0.00    -0.000 C 
BRANCH  14  15
ATOM     15  C   UNL     1      31.640   1.903 166.589  1.00  0.00    -0.000 C 
BRANCH  15  16
ATOM     16  C   UNL     1      32.929   1.352 165.950  1.00  0.00    -0.000 C 
BRANCH  16  17
ATOM     17  C   UNL     1      33.883   2.421 165.384  1.00  0.00    -0.000 C 
BRANCH  17  18
ATOM     18  C   UNL     1      35.179   2.634 166.191  1.00  0.00    -0.000 C 
BRANCH  18  19
ATOM     19  C   UNL     1      36.210   1.498 166.071  1.00  0.00    -0.003 C 
ATOM     20  C   UNL     1      37.437   1.711 166.956  1.00  0.00     0.004 C 
ENDBRANCH  18  19
ENDBRANCH  17  18
ENDBRANCH  16  17
ENDBRANCH  15  16
ENDBRANCH  14  15
ENDBRANCH  13  14
ENDBRANCH  12  13
ENDBRANCH   1  12
TORSDOF 16
ENDMDL
MODEL 6
REMARK VINA RESULT:    -4.351      2.797      5.842
REMARK INTER + INTRA:         -10.130
REMARK INTER:                  -7.973
REMARK INTRA:                  -2.157
REMARK UNBOUND:                -1.709
REMARK SMILES CCCCCCCCCCCCCCCCCC(=O)[O-]
REMARK SMILES IDX 10 1 11 2 12 3 13 4 14 5 15 6 16 7 17 8 18 9 19 10 20 11
REMARK SMILES IDX 9 12 8 13 7 14 6 15 5 16 4 17 3 18 2 19 1 20
REMARK H PARENT
REMARK Flexibility Score: inf
ROOT
ATOM      1  C   UNL     1      29.252  -1.099 168.072  1.00  0.00     0.000 C 
ENDROOT
BRANCH   1   2
ATOM      2  C   UNL     1      29.947   0.242 168.369  1.00  0.00     0.000 C 
BRANCH   2   3
ATOM      3  C   UNL     1      31.427   0.314 167.946  1.00  0.00     0.000 C 
BRANCH   3   4
ATOM      4  C   UNL     1      31.715   1.385 166.871  1.00  0.00     0.000 C 
BRANCH   4   5
ATOM      5  C   UNL     1      32.198   0.772 165.544  1.00  0.00     0.000 C 
BRANCH   5   6
ATOM      6  C   UNL     1      33.025  -0.505 165.750  1.00  0.00     0.000 C 
BRANCH   6   7
ATOM      7  C   UNL     1      34.530  -0.277 165.521  1.00  0.00     0.006 C 
BRANCH   7   8
ATOM      8  C   UNL     1      34.831   1.146 165.032  1.00  0.00     0.053 C 
BRANCH   8   9
ATOM      9  C   UNL     1      35.638   1.918 166.031  1.00  0.00     0.041 C 
ATOM     10  O   UNL     1      35.200   3.001 166.499  1.00  0.00    -0.550 OA
ATOM     11  O   UNL     1      36.863   1.426 166.465  1.00  0.00    -0.550 OA
ENDBRANCH   8   9
ENDBRANCH   7   8
ENDBRANCH   6   7
ENDBRANCH   5   6
ENDBRANCH   4   5
ENDBRANCH   3   4
ENDBRANCH   2   3
ENDBRANCH   1   2
BRANCH   1  12
ATOM     12  C   UNL     1      29.604  -1.728 166.709  1.00  0.00     0.000 C 
BRANCH  12  13
ATOM     13  C   UNL     1      28.419  -2.373 165.962  1.00  0.00    -0.000 C 
BRANCH  13  14
ATOM     14  C   UNL     1      28.800  -3.165 164.696  1.00  0.00    -0.000 C 
BRANCH  14  15
ATOM     15  C   UNL     1      29.571  -2.360 163.632  1.00  0.00    -0.000 C 
BRANCH  15  16
ATOM     16  C   UNL     1      31.048  -2.761 163.455  1.00  0.00    -0.000 C 
BRANCH  16  17
ATOM     17  C   UNL     1      31.731  -2.192 162.197  1.00  0.00    -0.000 C 
BRANCH  17  18
ATOM     18  C   UNL     1      33.247  -1.951 162.329  1.00  0.00    -0.000 C 
BRANCH  18  19
ATOM     19  C   UNL     1      33.735  -0.587 161.810  1.00  0.00    -0.003 C 
ATOM     20  C   UNL     1      35.256  -0.501 161.697  1.00  0.00     0.004 C 
ENDBRANCH  18  19
ENDBRANCH  17  18
ENDBRANCH  16  17
ENDBRANCH  15  16
ENDBRANCH  14  15
ENDBRANCH  13  14
ENDBRANCH  12  13
ENDBRANCH   1  12
TORSDOF 16
ENDMDL
MODEL 7
REMARK VINA RESULT:    -4.345      2.772      4.700
REMARK INTER + INTRA:         -10.118
REMARK INTER:                  -8.061
REMARK INTRA:                  -2.056
REMARK UNBOUND:                -1.709
REMARK SMILES CCCCCCCCCCCCCCCCCC(=O)[O-]
REMARK SMILES IDX 10 1 11 2 12 3 13 4 14 5 15 6 16 7 17 8 18 9 19 10 20 11
REMARK SMILES IDX 9 12 8 13 7 14 6 15 5 16 4 17 3 18 2 19 1 20
REMARK H PARENT
REMARK Flexibility Score: inf
ROOT
ATOM      1  C   UNL     1      30.569  -2.866 164.507  1.00  0.00     0.000 C 
ENDROOT
BRANCH   1   2
ATOM      2  C   UNL     1      29.533  -3.966 164.802  1.00  0.00     0.000 C 
BRANCH   2   3
ATOM      3  C   UNL     1      28.098  -3.458 165.048  1.00  0.00     0.000 C 
BRANCH   3   4
ATOM      4  C   UNL     1      28.034  -2.144 165.857  1.00  0.00     0.000 C 
BRANCH   4   5
ATOM      5  C   UNL     1      28.093  -2.386 167.376  1.00  0.00     0.000 C 
BRANCH   5   6
ATOM      6  C   UNL     1      28.786  -1.241 168.130  1.00  0.00     0.000 C 
BRANCH   6   7
ATOM      7  C   UNL     1      30.320  -1.303 168.018  1.00  0.00     0.006 C 
BRANCH   7   8
ATOM      8  C   UNL     1      30.864  -0.311 166.981  1.00  0.00     0.053 C 
BRANCH   8   9
ATOM      9  C   UNL     1      31.147   1.029 167.588  1.00  0.00     0.041 C 
ATOM     10  O   UNL     1      31.768   1.904 166.931  1.00  0.00    -0.550 OA
ATOM     11  O   UNL     1      30.700   1.319 168.872  1.00  0.00    -0.550 OA
ENDBRANCH   8   9
ENDBRANCH   7   8
ENDBRANCH   6   7
ENDBRANCH   5   6
ENDBRANCH   4   5
ENDBRANCH   3   4
ENDBRANCH   2   3
ENDBRANCH   1   2
BRANCH   1  12
ATOM     12  C   UNL     1      31.592  -3.212 163.407  1.00  0.00     0.000 C 
BRANCH  12  13
ATOM     13  C   UNL     1      31.264  -2.649 162.010  1.00  0.00    -0.000 C 
BRANCH  13  14
ATOM     14  C   UNL     1      30.531  -1.293 162.009  1.00  0.00    -0.000 C 
BRANCH  14  15
ATOM     15  C   UNL     1      31.350  -0.110 161.459  1.00  0.00    -0.000 C 
BRANCH  15  16
ATOM     16  C   UNL     1      32.841  -0.410 161.210  1.00  0.00    -0.000 C 
BRANCH  16  17
ATOM     17  C   UNL     1      33.814   0.263 162.197  1.00  0.00    -0.000 C 
BRANCH  17  18
ATOM     18  C   UNL     1      33.209   0.622 163.568  1.00  0.00    -0.000 C 
BRANCH  18  19
ATOM     19  C   UNL     1      33.483  -0.400 164.685  1.00  0.00    -0.003 C 
ATOM     20  C   UNL     1      34.832  -0.187 165.370  1.00  0.00     0.004 C 
ENDBRANCH  18  19
ENDBRANCH  17  18
ENDBRANCH  16  17
ENDBRANCH  15  16
ENDBRANCH  14  15
ENDBRANCH  13  14
ENDBRANCH  12  13
ENDBRANCH   1  12
TORSDOF 16
ENDMDL
MODEL 8
REMARK VINA RESULT:    -4.306      3.082      7.109
REMARK INTER + INTRA:         -10.042
REMARK INTER:                  -8.469
REMARK INTRA:                  -1.574
REMARK UNBOUND:                -1.709
REMARK SMILES CCCCCCCCCCCCCCCCCC(=O)[O-]
REMARK SMILES IDX 10 1 11 2 12 3 13 4 14 5 15 6 16 7 17 8 18 9 19 10 20 11
REMARK SMILES IDX 9 12 8 13 7 14 6 15 5 16 4 17 3 18 2 19 1 20
REMARK H PARENT
REMARK Flexibility Score: inf
ROOT
ATOM      1  C   UNL     1      30.892  -1.606 163.555  1.00  0.00     0.000 C 
ENDROOT
BRANCH   1   2
ATOM      2  C   UNL     1      31.915  -0.740 164.312  1.00  0.00     0.000 C 
BRANCH   2   3
ATOM      3  C   UNL     1      33.369  -1.246 164.246  1.00  0.00     0.000 C 
BRANCH   3   4
ATOM      4  C   UNL     1      34.417  -0.115 164.164  1.00  0.00     0.000 C 
BRANCH   4   5
ATOM      5  C   UNL     1      33.780   1.284 164.251  1.00  0.00     0.000 C 
BRANCH   5   6
ATOM      6  C   UNL     1      34.598   2.354 163.513  1.00  0.00     0.000 C 
BRANCH   6   7
ATOM      7  C   UNL     1      34.634   3.695 164.267  1.00  0.00     0.006 C 
BRANCH   7   8
ATOM      8  C   UNL     1      34.191   3.548 165.728  1.00  0.00     0.053 C 
BRANCH   8   9
ATOM      9  C   UNL     1      35.353   3.619 166.671  1.00  0.00     0.041 C 
ATOM     10  O   UNL     1      35.524   4.637 167.392  1.00  0.00    -0.550 OA
ATOM     11  O   UNL     1      36.233   2.548 166.772  1.00  0.00    -0.550 OA
ENDBRANCH   8   9
ENDBRANCH   7   8
ENDBRANCH   6   7
ENDBRANCH   5   6
ENDBRANCH   4   5
ENDBRANCH   3   4
ENDBRANCH   2   3
ENDBRANCH   1   2
BRANCH   1  12
ATOM     12  C   UNL     1      30.567  -2.960 164.216  1.00  0.00     0.000 C 
BRANCH  12  13
ATOM     13  C   UNL     1      29.092  -3.398 164.118  1.00  0.00    -0.000 C 
BRANCH  13  14
ATOM     14  C   UNL     1      28.305  -3.340 165.442  1.00  0.00    -0.000 C 
BRANCH  14  15
ATOM     15  C   UNL     1      28.293  -1.962 166.132  1.00  0.00    -0.000 C 
BRANCH  15  16
ATOM     16  C   UNL     1      28.103  -2.001 167.661  1.00  0.00    -0.000 C 
BRANCH  16  17
ATOM     17  C   UNL     1      29.174  -1.242 168.468  1.00  0.00    -0.000 C 
BRANCH  17  18
ATOM     18  C   UNL     1      30.508  -1.015 167.732  1.00  0.00    -0.000 C 
BRANCH  18  19
ATOM     19  C   UNL     1      31.050   0.424 167.800  1.00  0.00    -0.003 C 
ATOM     20  C   UNL     1      30.377   1.263 168.884  1.00  0.00     0.004 C 
ENDBRANCH  18  19
ENDBRANCH  17  18
ENDBRANCH  16  17
ENDBRANCH  15  16
ENDBRANCH  14  15
ENDBRANCH  13  14
ENDBRANCH  12  13
ENDBRANCH   1  12
TORSDOF 16
ENDMDL
MODEL 9
REMARK VINA RESULT:    -4.163      2.571      4.311
REMARK INTER + INTRA:          -9.765
REMARK INTER:                  -8.000
REMARK INTRA:                  -1.764
REMARK UNBOUND:                -1.709
REMARK SMILES CCCCCCCCCCCCCCCCCC(=O)[O-]
REMARK SMILES IDX 10 1 11 2 12 3 13 4 14 5 15 6 16 7 17 8 18 9 19 10 20 11
REMARK SMILES IDX 9 12 8 13 7 14 6 15 5 16 4 17 3 18 2 19 1 20
REMARK H PARENT
REMARK Flexibility Score: inf
ROOT
ATOM      1  C   UNL     1      31.712  -2.819 162.397  1.00  0.00     0.000 C 
ENDROOT
BRANCH   1   2
ATOM      2  C   UNL     1      30.453  -2.032 161.990  1.00  0.00     0.000 C 
BRANCH   2   3
ATOM      3  C   UNL     1      29.281  -2.121 162.988  1.00  0.00     0.000 C 
BRANCH   3   4
ATOM      4  C   UNL     1      29.727  -2.258 164.460  1.00  0.00     0.000 C 
BRANCH   4   5
ATOM      5  C   UNL     1      28.594  -2.759 165.374  1.00  0.00     0.000 C 
BRANCH   5   6
ATOM      6  C   UNL     1      28.466  -1.934 166.663  1.00  0.00     0.000 C 
BRANCH   6   7
ATOM      7  C   UNL     1      29.737  -1.123 166.974  1.00  0.00     0.006 C 
BRANCH   7   8
ATOM      8  C   UNL     1      29.665  -0.438 168.345  1.00  0.00     0.053 C 
BRANCH   8   9
ATOM      9  C   UNL     1      30.342   0.898 168.336  1.00  0.00     0.041 C 
ATOM     10  O   UNL     1      30.999   1.269 167.329  1.00  0.00    -0.550 OA
ATOM     11  O   UNL     1      30.224   1.745 169.431  1.00  0.00    -0.550 OA
ENDBRANCH   8   9
ENDBRANCH   7   8
ENDBRANCH   6   7
ENDBRANCH   5   6
ENDBRANCH   4   5
ENDBRANCH   3   4
ENDBRANCH   2   3
ENDBRANCH   1   2
BRANCH   1  12
ATOM     12  C   UNL     1      33.021  -2.004 162.388  1.00  0.00     0.000 C 
BRANCH  12  13
ATOM     13  C   UNL     1      32.872  -0.534 161.947  1.00  0.00    -0.000 C 
BRANCH  13  14
ATOM     14  C   UNL     1      33.259   0.509 163.014  1.00  0.00    -0.000 C 
BRANCH  14  15
ATOM     15  C   UNL     1      32.622   0.290 164.400  1.00  0.00    -0.000 C 
BRANCH  15  16
ATOM     16  C   UNL     1      33.602  -0.146 165.506  1.00  0.00    -0.000 C 
BRANCH  16  17
ATOM     17  C   UNL     1      35.072   0.248 165.265  1.00  0.00    -0.000 C 
BRANCH  17  18
ATOM     18  C   UNL     1      35.452   1.666 165.733  1.00  0.00    -0.000 C 
BRANCH  18  19
ATOM     19  C   UNL     1      34.261   2.567 166.104  1.00  0.00    -0.003 C 
ATOM     20  C   UNL     1      34.146   3.801 165.211  1.00  0.00     0.004 C 
ENDBRANCH  18  19
ENDBRANCH  17  18
ENDBRANCH  16  17
ENDBRANCH  15  16
ENDBRANCH  14  15
ENDBRANCH  13  14
ENDBRANCH  12  13
ENDBRANCH   1  12
TORSDOF 16
ENDMDL
