MODEL 1
REMARK VINA RESULT:    -3.414      0.000      0.000
REMARK INTER + INTRA:          -5.459
REMARK INTER:                  -5.210
REMARK INTRA:                  -0.249
REMARK UNBOUND:                -0.249
REMARK SMILES CC1=CCC[C@H](C)C(=O)C[C@H](C(C)C)C(=O)C1
REMARK SMILES IDX 8 1 9 2 6 3 7 4 5 5 4 6 3 7 2 8 1 9 10 11 11 12 15 13 16 14
REMARK SMILES IDX 17 15 12 17 13 18 14 19
REMARK H PARENT
REMARK Flexibility Score: 70.00
ROOT
ATOM      1  C   UNL     1       7.341  20.760  15.031  1.00  0.00     0.136 C 
ATOM      2  O   UNL     1       6.603  21.594  14.525  1.00  0.00    -0.299 OA
ENDROOT
BRANCH   1   3
ATOM      3  C   UNL     1       8.847  20.958  15.006  1.00  0.00     0.053 C 
ATOM      4  C   UNL     1       9.495  20.695  16.376  1.00  0.00     0.016 C 
BRANCH   3   5
ATOM      5  C   UNL     1       9.514  20.115  13.898  1.00  0.00     0.015 C 
BRANCH   5   6
ATOM      6  C   UNL     1      10.406  18.968  14.430  1.00  0.00     0.028 C 
BRANCH   6   7
ATOM      7  C   UNL     1      10.138  17.686  13.680  1.00  0.00    -0.028 C 
ATOM      8  C   UNL     1       9.123  16.824  13.930  1.00  0.00    -0.070 CG0
ATOM      9  C   UNL     1       8.964  15.640  13.011  1.00  0.00     0.039 C 
ATOM     10  G   UNL     1       8.167  16.971  15.105  1.00  0.00     0.000 G0
ENDBRANCH   6   7
ENDBRANCH   5   6
ENDBRANCH   3   5
ENDBRANCH   1   3
BRANCH   1  11
ATOM     11  C   UNL     1       6.725  19.548  15.693  1.00  0.00     0.087 C 
BRANCH  11  12
ATOM     12  C   UNL     1       6.051  18.563  14.696  1.00  0.00     0.066 C 
BRANCH  12  13
ATOM     13  C   UNL     1       6.715  17.190  14.763  1.00  0.00     0.140 C 
ATOM     14  O   UNL     1       6.036  16.205  14.514  1.00  0.00    -0.299 OA
BRANCH  13  15
ATOM     15  C   UNL     1       8.177  16.962  15.103  1.00  0.00     0.106 CG0
ATOM     16  G   UNL     1       9.121  16.827  13.918  1.00  0.00     0.000 G0
ENDBRANCH  13  15
ENDBRANCH  12  13
BRANCH  12  17
ATOM     17  C   UNL     1       4.517  18.434  14.962  1.00  0.00    -0.006 C 
ATOM     18  C   UNL     1       4.027  19.425  16.031  1.00  0.00     0.008 C 
ATOM     19  C   UNL     1       3.704  18.652  13.673  1.00  0.00     0.008 C 
ENDBRANCH  12  17
ENDBRANCH  11  12
ENDBRANCH   1  11
TORSDOF 1
ENDMDL
MODEL 2
REMARK VINA RESULT:    -3.350      1.648      4.019
REMARK INTER + INTRA:          -5.362
REMARK INTER:                  -5.049
REMARK INTRA:                  -0.314
REMARK UNBOUND:                -0.249
REMARK SMILES CC1=CCC[C@H](C)C(=O)C[C@H](C(C)C)C(=O)C1
REMARK SMILES IDX 8 1 9 2 6 3 7 4 5 5 4 6 3 7 2 8 1 9 10 11 11 12 15 13 16 14
REMARK SMILES IDX 17 15 12 17 13 18 14 19
REMARK H PARENT
REMARK Flexibility Score: 70.00
ROOT
ATOM      1  C   UNL     1       5.332  20.295  14.496  1.00  0.00     0.136 C 
ATOM      2  O   UNL     1       5.053  21.485  14.502  1.00  0.00    -0.299 OA
ENDROOT
BRANCH   1   3
ATOM      3  C   UNL     1       4.457  19.302  15.243  1.00  0.00     0.053 C 
ATOM      4  C   UNL     1       3.227  19.969  15.882  1.00  0.00     0.016 C 
BRANCH   3   5
ATOM      5  C   UNL     1       4.048  18.115  14.344  1.00  0.00     0.015 C 
BRANCH   5   6
ATOM      6  C   UNL     1       4.516  16.737  14.869  1.00  0.00     0.028 C 
BRANCH   6   7
ATOM      7  C   UNL     1       5.271  15.983  13.803  1.00  0.00    -0.028 C 
ATOM      8  C   UNL     1       6.620  15.881  13.715  1.00  0.00    -0.070 CG0
ATOM      9  C   UNL     1       7.189  15.005  12.629  1.00  0.00     0.039 C 
ATOM     10  G   UNL     1       7.579  16.632  14.627  1.00  0.00     0.000 G0
ENDBRANCH   6   7
ENDBRANCH   5   6
ENDBRANCH   3   5
ENDBRANCH   1   3
BRANCH   1  11
ATOM     11  C   UNL     1       6.545  19.834  13.719  1.00  0.00     0.087 C 
BRANCH  11  12
ATOM     12  C   UNL     1       7.699  19.302  14.615  1.00  0.00     0.066 C 
BRANCH  12  13
ATOM     13  C   UNL     1       8.162  17.928  14.138  1.00  0.00     0.140 C 
ATOM     14  O   UNL     1       9.054  17.875  13.304  1.00  0.00    -0.299 OA
BRANCH  13  15
ATOM     15  C   UNL     1       7.599  16.612  14.644  1.00  0.00     0.106 CG0
ATOM     16  G   UNL     1       6.617  15.910  13.718  1.00  0.00     0.000 G0
ENDBRANCH  13  15
ENDBRANCH  12  13
BRANCH  12  17
ATOM     17  C   UNL     1       8.905  20.295  14.651  1.00  0.00    -0.006 C 
ATOM     18  C   UNL     1       8.576  21.634  13.968  1.00  0.00     0.008 C 
ATOM     19  C   UNL     1       9.360  20.574  16.095  1.00  0.00     0.008 C 
ENDBRANCH  12  17
ENDBRANCH  11  12
ENDBRANCH   1  11
TORSDOF 1
ENDMDL
MODEL 3
REMARK VINA RESULT:    -3.159      1.803      4.269
REMARK INTER + INTRA:          -5.070
REMARK INTER:                  -4.739
REMARK INTRA:                  -0.331
REMARK UNBOUND:                -0.249
REMARK SMILES CC1=CCC[C@H](C)C(=O)C[C@H](C(C)C)C(=O)C1
REMARK SMILES IDX 8 1 9 2 6 3 7 4 5 5 4 6 3 7 2 8 1 9 10 11 11 12 15 13 16 14
REMARK SMILES IDX 17 15 12 17 13 18 14 19
REMARK H PARENT
REMARK Flexibility Score: 70.00
ROOT
ATOM      1  C   UNL     1       9.153  19.599  14.169  1.00  0.00     0.136 C 
ATOM      2  O   UNL     1       8.651  20.225  13.246  1.00  0.00    -0.299 OA
ENDROOT
BRANCH   1   3
ATOM      3  C   UNL     1       8.666  19.814  15.592  1.00  0.00     0.053 C 
ATOM      4  C   UNL     1       9.442  20.928  16.314  1.00  0.00     0.016 C 
BRANCH   3   5
ATOM      5  C   UNL     1       7.144  20.067  15.641  1.00  0.00     0.015 C 
BRANCH   5   6
ATOM      6  C   UNL     1       6.294  18.779  15.739  1.00  0.00     0.028 C 
BRANCH   6   7
ATOM      7  C   UNL     1       5.895  18.292  14.367  1.00  0.00    -0.028 C 
ATOM      8  C   UNL     1       6.359  17.171  13.763  1.00  0.00    -0.070 CG0
ATOM      9  C   UNL     1       5.772  16.798  12.426  1.00  0.00     0.039 C 
ATOM     10  G   UNL     1       7.460  16.297  14.347  1.00  0.00     0.000 G0
ENDBRANCH   6   7
ENDBRANCH   5   6
ENDBRANCH   3   5
ENDBRANCH   1   3
BRANCH   1  11
ATOM     11  C   UNL     1      10.246  18.599  13.861  1.00  0.00     0.087 C 
BRANCH  11  12
ATOM     12  C   UNL     1       9.998  17.191  14.474  1.00  0.00     0.066 C 
BRANCH  12  13
ATOM     13  C   UNL     1       8.849  16.487  13.757  1.00  0.00     0.140 C 
ATOM     14  O   UNL     1       9.052  16.040  12.637  1.00  0.00    -0.299 OA
BRANCH  13  15
ATOM     15  C   UNL     1       7.466  16.285  14.349  1.00  0.00     0.106 CG0
ATOM     16  G   UNL     1       6.365  17.167  13.780  1.00  0.00     0.000 G0
ENDBRANCH  13  15
ENDBRANCH  12  13
BRANCH  12  17
ATOM     17  C   UNL     1      11.285  16.308  14.427  1.00  0.00    -0.006 C 
ATOM     18  C   UNL     1      12.558  17.118  14.731  1.00  0.00     0.008 C 
ATOM     19  C   UNL     1      11.197  15.134  15.419  1.00  0.00     0.008 C 
ENDBRANCH  12  17
ENDBRANCH  11  12
ENDBRANCH   1  11
TORSDOF 1
ENDMDL
MODEL 4
REMARK VINA RESULT:    -3.139      1.640      1.903
REMARK INTER + INTRA:          -5.040
REMARK INTER:                  -4.781
REMARK INTRA:                  -0.259
REMARK UNBOUND:                -0.249
REMARK SMILES CC1=CCC[C@H](C)C(=O)C[C@H](C(C)C)C(=O)C1
REMARK SMILES IDX 8 1 9 2 6 3 7 4 5 5 4 6 3 7 2 8 1 9 10 11 11 12 15 13 16 14
REMARK SMILES IDX 17 15 12 17 13 18 14 19
REMARK H PARENT
REMARK Flexibility Score: 70.00
ROOT
ATOM      1  C   UNL     1       7.560  18.946  15.650  1.00  0.00     0.136 C 
ATOM      2  O   UNL     1       8.051  17.924  16.109  1.00  0.00    -0.299 OA
ENDROOT
BRANCH   1   3
ATOM      3  C   UNL     1       8.436  19.961  14.936  1.00  0.00     0.053 C 
ATOM      4  C   UNL     1       9.119  20.934  15.912  1.00  0.00     0.016 C 
BRANCH   3   5
ATOM      5  C   UNL     1       9.468  19.274  14.015  1.00  0.00     0.015 C 
BRANCH   5   6
ATOM      6  C   UNL     1       8.867  18.713  12.705  1.00  0.00     0.028 C 
BRANCH   6   7
ATOM      7  C   UNL     1       8.768  17.208  12.761  1.00  0.00    -0.028 C 
ATOM      8  C   UNL     1       7.620  16.490  12.692  1.00  0.00    -0.070 CG0
ATOM      9  C   UNL     1       7.731  14.987  12.670  1.00  0.00     0.039 C 
ATOM     10  G   UNL     1       6.236  17.122  12.672  1.00  0.00     0.000 G0
ENDBRANCH   6   7
ENDBRANCH   5   6
ENDBRANCH   3   5
ENDBRANCH   1   3
BRANCH   1  11
ATOM     11  C   UNL     1       6.069  19.164  15.789  1.00  0.00     0.087 C 
BRANCH  11  12
ATOM     12  C   UNL     1       5.266  18.846  14.496  1.00  0.00     0.066 C 
BRANCH  12  13
ATOM     13  C   UNL     1       5.577  17.437  14.002  1.00  0.00     0.140 C 
ATOM     14  O   UNL     1       5.284  16.492  14.720  1.00  0.00    -0.299 OA
BRANCH  13  15
ATOM     15  C   UNL     1       6.217  17.122  12.661  1.00  0.00     0.106 CG0
ATOM     16  G   UNL     1       7.608  16.508  12.717  1.00  0.00     0.000 G0
ENDBRANCH  13  15
ENDBRANCH  12  13
BRANCH  12  17
ATOM     17  C   UNL     1       3.728  19.012  14.718  1.00  0.00    -0.006 C 
ATOM     18  C   UNL     1       3.408  19.834  15.979  1.00  0.00     0.008 C 
ATOM     19  C   UNL     1       3.055  19.680  13.506  1.00  0.00     0.008 C 
ENDBRANCH  12  17
ENDBRANCH  11  12
ENDBRANCH   1  11
TORSDOF 1
ENDMDL
MODEL 5
REMARK VINA RESULT:    -2.858      2.287      4.273
REMARK INTER + INTRA:          -4.611
REMARK INTER:                  -4.075
REMARK INTRA:                  -0.537
REMARK UNBOUND:                -0.249
REMARK SMILES CC1=CCC[C@H](C)C(=O)C[C@H](C(C)C)C(=O)C1
REMARK SMILES IDX 8 1 9 2 6 3 7 4 5 5 4 6 3 7 2 8 1 9 10 11 11 12 15 13 16 14
REMARK SMILES IDX 17 15 12 17 13 18 14 19
REMARK H PARENT
REMARK Flexibility Score: 70.00
ROOT
ATOM      1  C   UNL     1       8.243  17.824  14.593  1.00  0.00     0.136 C 
ATOM      2  O   UNL     1       9.176  17.221  15.104  1.00  0.00    -0.299 OA
ENDROOT
BRANCH   1   3
ATOM      3  C   UNL     1       7.894  17.593  13.132  1.00  0.00     0.053 C 
ATOM      4  C   UNL     1       9.034  18.003  12.185  1.00  0.00     0.016 C 
BRANCH   3   5
ATOM      5  C   UNL     1       7.449  16.136  12.877  1.00  0.00     0.015 C 
BRANCH   5   6
ATOM      6  C   UNL     1       6.256  15.680  13.749  1.00  0.00     0.028 C 
BRANCH   6   7
ATOM      7  C   UNL     1       4.952  16.192  13.187  1.00  0.00    -0.028 C 
ATOM      8  C   UNL     1       4.131  17.087  13.789  1.00  0.00    -0.070 CG0
ATOM      9  C   UNL     1       2.915  17.548  13.028  1.00  0.00     0.039 C 
ATOM     10  G   UNL     1       4.356  17.616  15.198  1.00  0.00     0.000 G0
ENDBRANCH   6   7
ENDBRANCH   5   6
ENDBRANCH   3   5
ENDBRANCH   1   3
BRANCH   1  11
ATOM     11  C   UNL     1       7.439  18.781  15.444  1.00  0.00     0.087 C 
BRANCH  11  12
ATOM     12  C   UNL     1       6.253  19.446  14.690  1.00  0.00     0.066 C 
BRANCH  12  13
ATOM     13  C   UNL     1       4.921  19.028  15.307  1.00  0.00     0.140 C 
ATOM     14  O   UNL     1       4.273  19.869  15.912  1.00  0.00    -0.299 OA
BRANCH  13  15
ATOM     15  C   UNL     1       4.332  17.633  15.206  1.00  0.00     0.106 CG0
ATOM     16  G   UNL     1       4.118  17.103  13.795  1.00  0.00     0.000 G0
ENDBRANCH  13  15
ENDBRANCH  12  13
BRANCH  12  17
ATOM     17  C   UNL     1       6.377  21.004  14.680  1.00  0.00    -0.006 C 
ATOM     18  C   UNL     1       7.811  21.475  14.982  1.00  0.00     0.008 C 
ATOM     19  C   UNL     1       5.935  21.593  13.329  1.00  0.00     0.008 C 
ENDBRANCH  12  17
ENDBRANCH  11  12
ENDBRANCH   1  11
TORSDOF 1
ENDMDL
MODEL 6
REMARK VINA RESULT:    -2.844      2.038      5.184
REMARK INTER + INTRA:          -4.590
REMARK INTER:                  -4.586
REMARK INTRA:                  -0.004
REMARK UNBOUND:                -0.249
REMARK SMILES CC1=CCC[C@H](C)C(=O)C[C@H](C(C)C)C(=O)C1
REMARK SMILES IDX 8 1 9 2 6 3 7 4 5 5 4 6 3 7 2 8 1 9 10 11 11 12 15 13 16 14
REMARK SMILES IDX 17 15 12 17 13 18 14 19
REMARK H PARENT
REMARK Flexibility Score: 70.00
ROOT
ATOM      1  C   UNL     1       6.218  16.866  14.433  1.00  0.00     0.136 C 
ATOM      2  O   UNL     1       6.236  15.710  14.035  1.00  0.00    -0.299 OA
ENDROOT
BRANCH   1   3
ATOM      3  C   UNL     1       4.987  17.730  14.217  1.00  0.00     0.053 C 
ATOM      4  C   UNL     1       3.819  16.942  13.601  1.00  0.00     0.016 C 
BRANCH   3   5
ATOM      5  C   UNL     1       4.558  18.445  15.517  1.00  0.00     0.015 C 
BRANCH   5   6
ATOM      6  C   UNL     1       4.414  19.978  15.374  1.00  0.00     0.028 C 
BRANCH   6   7
ATOM      7  C   UNL     1       4.965  20.449  14.051  1.00  0.00    -0.028 C 
ATOM      8  C   UNL     1       6.236  20.862  13.828  1.00  0.00    -0.070 CG0
ATOM      9  C   UNL     1       6.625  21.209  12.414  1.00  0.00     0.039 C 
ATOM     10  G   UNL     1       7.271  21.025  14.932  1.00  0.00     0.000 G0
ENDBRANCH   6   7
ENDBRANCH   5   6
ENDBRANCH   3   5
ENDBRANCH   1   3
BRANCH   1  11
ATOM     11  C   UNL     1       7.432  17.405  15.157  1.00  0.00     0.087 C 
BRANCH  11  12
ATOM     12  C   UNL     1       8.162  18.545  14.392  1.00  0.00     0.066 C 
BRANCH  12  13
ATOM     13  C   UNL     1       8.168  19.830  15.217  1.00  0.00     0.140 C 
ATOM     14  O   UNL     1       8.940  19.909  16.161  1.00  0.00    -0.299 OA
BRANCH  13  15
ATOM     15  C   UNL     1       7.286  21.032  14.934  1.00  0.00     0.106 CG0
ATOM     16  G   UNL     1       6.248  20.851  13.835  1.00  0.00     0.000 G0
ENDBRANCH  13  15
ENDBRANCH  12  13
BRANCH  12  17
ATOM     17  C   UNL     1       9.623  18.141  14.014  1.00  0.00    -0.006 C 
ATOM     18  C   UNL     1       9.938  16.681  14.386  1.00  0.00     0.008 C 
ATOM     19  C   UNL     1       9.890  18.339  12.511  1.00  0.00     0.008 C 
ENDBRANCH  12  17
ENDBRANCH  11  12
ENDBRANCH   1  11
TORSDOF 1
ENDMDL
MODEL 7
REMARK VINA RESULT:    -2.802      2.104      3.890
REMARK INTER + INTRA:          -4.525
REMARK INTER:                  -4.213
REMARK INTRA:                  -0.313
REMARK UNBOUND:                -0.249
REMARK SMILES CC1=CCC[C@H](C)C(=O)C[C@H](C(C)C)C(=O)C1
REMARK SMILES IDX 8 1 9 2 6 3 7 4 5 5 4 6 3 7 2 8 1 9 10 11 11 12 15 13 16 14
REMARK SMILES IDX 17 15 12 17 13 18 14 19
REMARK H PARENT
REMARK Flexibility Score: 70.00
ROOT
ATOM      1  C   UNL     1       4.431  19.638  15.198  1.00  0.00     0.136 C 
ATOM      2  O   UNL     1       3.510  19.960  15.935  1.00  0.00    -0.299 OA
ENDROOT
BRANCH   1   3
ATOM      3  C   UNL     1       4.604  20.319  13.851  1.00  0.00     0.053 C 
ATOM      4  C   UNL     1       3.360  20.177  12.959  1.00  0.00     0.016 C 
BRANCH   3   5
ATOM      5  C   UNL     1       5.016  21.799  14.010  1.00  0.00     0.015 C 
BRANCH   5   6
ATOM      6  C   UNL     1       6.367  22.002  14.732  1.00  0.00     0.028 C 
BRANCH   6   7
ATOM      7  C   UNL     1       7.522  21.694  13.811  1.00  0.00    -0.028 C 
ATOM      8  C   UNL     1       8.416  20.688  13.976  1.00  0.00    -0.070 CG0
ATOM      9  C   UNL     1       9.448  20.480  12.898  1.00  0.00     0.039 C 
ATOM     10  G   UNL     1       8.450  19.790  15.204  1.00  0.00     0.000 G0
ENDBRANCH   6   7
ENDBRANCH   5   6
ENDBRANCH   3   5
ENDBRANCH   1   3
BRANCH   1  11
ATOM     11  C   UNL     1       5.397  18.570  15.662  1.00  0.00     0.087 C 
BRANCH  11  12
ATOM     12  C   UNL     1       6.425  18.141  14.576  1.00  0.00     0.066 C 
BRANCH  12  13
ATOM     13  C   UNL     1       7.851  18.398  15.055  1.00  0.00     0.140 C 
ATOM     14  O   UNL     1       8.557  17.435  15.317  1.00  0.00    -0.299 OA
BRANCH  13  15
ATOM     15  C   UNL     1       8.466  19.777  15.212  1.00  0.00     0.106 CG0
ATOM     16  G   UNL     1       8.401  20.677  13.986  1.00  0.00     0.000 G0
ENDBRANCH  13  15
ENDBRANCH  12  13
BRANCH  12  17
ATOM     17  C   UNL     1       6.251  16.640  14.180  1.00  0.00    -0.006 C 
ATOM     18  C   UNL     1       4.772  16.222  14.120  1.00  0.00     0.008 C 
ATOM     19  C   UNL     1       6.908  16.339  12.820  1.00  0.00     0.008 C 
ENDBRANCH  12  17
ENDBRANCH  11  12
ENDBRANCH   1  11
TORSDOF 1
ENDMDL
MODEL 8
REMARK VINA RESULT:    -2.783      6.698      9.215
REMARK INTER + INTRA:          -4.496
REMARK INTER:                  -4.486
REMARK INTRA:                  -0.010
REMARK UNBOUND:                -0.249
REMARK SMILES CC1=CCC[C@H](C)C(=O)C[C@H](C(C)C)C(=O)C1
REMARK SMILES IDX 8 1 9 2 6 3 7 4 5 5 4 6 3 7 2 8 1 9 10 11 11 12 15 13 16 14
REMARK SMILES IDX 17 15 12 17 13 18 14 19
REMARK H PARENT
REMARK Flexibility Score: 70.00
ROOT
ATOM      1  C   UNL     1      17.124  16.596  16.128  1.00  0.00     0.136 C 
ATOM      2  O   UNL     1      18.341  16.486  16.074  1.00  0.00    -0.299 OA
ENDROOT
BRANCH   1   3
ATOM      3  C   UNL     1      16.237  15.381  15.918  1.00  0.00     0.053 C 
ATOM      4  C   UNL     1      17.036  14.138  15.492  1.00  0.00     0.016 C 
BRANCH   3   5
ATOM      5  C   UNL     1      15.367  15.089  17.161  1.00  0.00     0.015 C 
BRANCH   5   6
ATOM      6  C   UNL     1      13.848  15.246  16.917  1.00  0.00     0.028 C 
BRANCH   6   7
ATOM      7  C   UNL     1      13.555  15.431  15.448  1.00  0.00    -0.028 C 
ATOM      8  C   UNL     1      13.541  16.616  14.790  1.00  0.00    -0.070 CG0
ATOM      9  C   UNL     1      13.318  16.590  13.300  1.00  0.00     0.039 C 
ATOM     10  G   UNL     1      13.701  17.962  15.483  1.00  0.00     0.000 G0
ENDBRANCH   6   7
ENDBRANCH   5   6
ENDBRANCH   3   5
ENDBRANCH   1   3
BRANCH   1  11
ATOM     11  C   UNL     1      16.528  17.954  16.426  1.00  0.00     0.087 C 
BRANCH  11  12
ATOM     12  C   UNL     1      16.255  18.810  15.157  1.00  0.00     0.066 C 
BRANCH  12  13
ATOM     13  C   UNL     1      14.756  18.910  14.888  1.00  0.00     0.140 C 
ATOM     14  O   UNL     1      14.358  19.793  14.141  1.00  0.00    -0.299 OA
BRANCH  13  15
ATOM     15  C   UNL     1      13.716  17.971  15.474  1.00  0.00     0.106 CG0
ATOM     16  G   UNL     1      13.564  16.629  14.773  1.00  0.00     0.000 G0
ENDBRANCH  13  15
ENDBRANCH  12  13
BRANCH  12  17
ATOM     17  C   UNL     1      16.876  20.238  15.281  1.00  0.00    -0.006 C 
ATOM     18  C   UNL     1      17.604  20.441  16.622  1.00  0.00     0.008 C 
ATOM     19  C   UNL     1      17.862  20.523  14.134  1.00  0.00     0.008 C 
ENDBRANCH  12  17
ENDBRANCH  11  12
ENDBRANCH   1  11
TORSDOF 1
ENDMDL
MODEL 9
REMARK VINA RESULT:    -2.781     10.499     12.530
REMARK INTER + INTRA:          -4.493
REMARK INTER:                  -4.425
REMARK INTRA:                  -0.067
REMARK UNBOUND:                -0.249
REMARK SMILES CC1=CCC[C@H](C)C(=O)C[C@H](C(C)C)C(=O)C1
REMARK SMILES IDX 8 1 9 2 6 3 7 4 5 5 4 6 3 7 2 8 1 9 10 11 11 12 15 13 16 14
REMARK SMILES IDX 17 15 12 17 13 18 14 19
REMARK H PARENT
REMARK Flexibility Score: 70.00
ROOT
ATOM      1  C   UNL     1       6.836  29.448  15.158  1.00  0.00     0.136 C 
ATOM      2  O   UNL     1       7.020  28.959  16.264  1.00  0.00    -0.299 OA
ENDROOT
BRANCH   1   3
ATOM      3  C   UNL     1       7.623  30.674  14.726  1.00  0.00     0.053 C 
ATOM      4  C   UNL     1       7.451  30.982  13.229  1.00  0.00     0.016 C 
BRANCH   3   5
ATOM      5  C   UNL     1       7.282  31.905  15.594  1.00  0.00     0.015 C 
BRANCH   5   6
ATOM      6  C   UNL     1       5.767  32.118  15.817  1.00  0.00     0.028 C 
BRANCH   6   7
ATOM      7  C   UNL     1       5.102  32.614  14.556  1.00  0.00    -0.028 C 
ATOM      8  C   UNL     1       3.912  32.184  14.071  1.00  0.00    -0.070 CG0
ATOM      9  C   UNL     1       3.365  32.866  12.844  1.00  0.00     0.039 C 
ATOM     10  G   UNL     1       3.127  31.030  14.678  1.00  0.00     0.000 G0
ENDBRANCH   6   7
ENDBRANCH   5   6
ENDBRANCH   3   5
ENDBRANCH   1   3
BRANCH   1  11
ATOM     11  C   UNL     1       5.832  28.799  14.232  1.00  0.00     0.087 C 
BRANCH  11  12
ATOM     12  C   UNL     1       4.407  28.674  14.842  1.00  0.00     0.066 C 
BRANCH  12  13
ATOM     13  C   UNL     1       3.442  29.638  14.158  1.00  0.00     0.140 C 
ATOM     14  O   UNL     1       2.887  29.272  13.132  1.00  0.00    -0.299 OA
BRANCH  13  15
ATOM     15  C   UNL     1       3.107  31.025  14.676  1.00  0.00     0.106 CG0
ATOM     16  G   UNL     1       3.916  32.169  14.081  1.00  0.00     0.000 G0
ENDBRANCH  13  15
ENDBRANCH  12  13
BRANCH  12  17
ATOM     17  C   UNL     1       3.866  27.211  14.745  1.00  0.00    -0.006 C 
ATOM     18  C   UNL     1       4.973  26.204  14.389  1.00  0.00     0.008 C 
ATOM     19  C   UNL     1       3.201  26.771  16.062  1.00  0.00     0.008 C 
ENDBRANCH  12  17
ENDBRANCH  11  12
ENDBRANCH   1  11
TORSDOF 1
ENDMDL
