MODEL 1
REMARK VINA RESULT:    -5.366      0.000      0.000
REMARK INTER + INTRA:          -8.399
REMARK INTER:                  -8.189
REMARK INTRA:                  -0.210
REMARK UNBOUND:                -0.210
REMARK SMILES CC1=CCC[C@H](C)C(=O)C[C@@H](C(C)C)C(=O)C1
REMARK SMILES IDX 8 1 9 2 6 3 7 4 5 5 4 6 3 7 2 8 1 9 10 11 11 12 15 13 16 14
REMARK SMILES IDX 17 15 12 17 13 18 14 19
REMARK H PARENT
REMARK Flexibility Score: 70.00
ROOT
ATOM      1  C   UNL     1      27.672  13.697  78.561  1.00  0.00     0.136 C 
ATOM      2  O   UNL     1      27.352  12.549  78.284  1.00  0.00    -0.299 OA
ENDROOT
BRANCH   1   3
ATOM      3  C   UNL     1      26.659  14.816  78.428  1.00  0.00     0.053 C 
ATOM      4  C   UNL     1      25.880  14.642  77.122  1.00  0.00     0.016 C 
BRANCH   3   5
ATOM      5  C   UNL     1      25.687  14.854  79.631  1.00  0.00     0.015 C 
BRANCH   5   6
ATOM      6  C   UNL     1      26.076  15.895  80.692  1.00  0.00     0.028 C 
BRANCH   6   7
ATOM      7  C   UNL     1      26.424  15.235  82.005  1.00  0.00    -0.028 C 
ATOM      8  C   UNL     1      27.675  15.018  82.472  1.00  0.00    -0.070 CG0
ATOM      9  C   UNL     1      27.821  14.342  83.812  1.00  0.00     0.039 C 
ATOM     10  G   UNL     1      28.924  15.452  81.732  1.00  0.00     0.000 G0
ENDBRANCH   6   7
ENDBRANCH   5   6
ENDBRANCH   3   5
ENDBRANCH   1   3
BRANCH   1  11
ATOM     11  C   UNL     1      29.083  13.973  79.011  1.00  0.00     0.087 C 
BRANCH  11  12
ATOM     12  C   UNL     1      29.419  13.251  80.339  1.00  0.00     0.066 C 
BRANCH  12  13
ATOM     13  C   UNL     1      29.802  14.246  81.423  1.00  0.00     0.140 C 
ATOM     14  O   UNL     1      30.811  14.063  82.089  1.00  0.00    -0.299 OA
BRANCH  13  15
ATOM     15  C   UNL     1      28.939  15.443  81.727  1.00  0.00     0.106 CG0
ATOM     16  G   UNL     1      27.683  15.030  82.469  1.00  0.00     0.000 G0
ENDBRANCH  13  15
ENDBRANCH  12  13
BRANCH  12  17
ATOM     17  C   UNL     1      30.505  12.149  80.141  1.00  0.00    -0.006 C 
ATOM     18  C   UNL     1      31.478  12.513  79.010  1.00  0.00     0.008 C 
ATOM     19  C   UNL     1      29.928  10.740  79.910  1.00  0.00     0.008 C 
ENDBRANCH  12  17
ENDBRANCH  11  12
ENDBRANCH   1  11
TORSDOF 1
ENDMDL
MODEL 2
REMARK VINA RESULT:    -5.328      1.836      4.178
REMARK INTER + INTRA:          -8.342
REMARK INTER:                  -8.164
REMARK INTRA:                  -0.178
REMARK UNBOUND:                -0.210
REMARK SMILES CC1=CCC[C@H](C)C(=O)C[C@@H](C(C)C)C(=O)C1
REMARK SMILES IDX 8 1 9 2 6 3 7 4 5 5 4 6 3 7 2 8 1 9 10 11 11 12 15 13 16 14
REMARK SMILES IDX 17 15 12 17 13 18 14 19
REMARK H PARENT
REMARK Flexibility Score: 70.00
ROOT
ATOM      1  C   UNL     1      27.438  13.580  79.355  1.00  0.00     0.136 C 
ATOM      2  O   UNL     1      27.546  14.645  78.764  1.00  0.00    -0.299 OA
ENDROOT
BRANCH   1   3
ATOM      3  C   UNL     1      27.854  12.293  78.671  1.00  0.00     0.053 C 
ATOM      4  C   UNL     1      27.108  12.162  77.340  1.00  0.00     0.016 C 
BRANCH   3   5
ATOM      5  C   UNL     1      29.381  12.236  78.437  1.00  0.00     0.015 C 
BRANCH   5   6
ATOM      6  C   UNL     1      30.160  11.693  79.646  1.00  0.00     0.028 C 
BRANCH   6   7
ATOM      7  C   UNL     1      30.873  12.803  80.381  1.00  0.00    -0.028 C 
ATOM      8  C   UNL     1      30.536  13.286  81.599  1.00  0.00    -0.070 CG0
ATOM      9  C   UNL     1      31.372  14.402  82.173  1.00  0.00     0.039 C 
ATOM     10  G   UNL     1      29.385  12.739  82.420  1.00  0.00     0.000 G0
ENDBRANCH   6   7
ENDBRANCH   5   6
ENDBRANCH   3   5
ENDBRANCH   1   3
BRANCH   1  11
ATOM     11  C   UNL     1      26.871  13.572  80.751  1.00  0.00     0.087 C 
BRANCH  11  12
ATOM     12  C   UNL     1      27.613  14.561  81.682  1.00  0.00     0.066 C 
BRANCH  12  13
ATOM     13  C   UNL     1      28.379  13.821  82.768  1.00  0.00     0.140 C 
ATOM     14  O   UNL     1      28.215  14.123  83.942  1.00  0.00    -0.299 OA
BRANCH  13  15
ATOM     15  C   UNL     1      29.376  12.744  82.427  1.00  0.00     0.106 CG0
ATOM     16  G   UNL     1      30.523  13.306  81.610  1.00  0.00     0.000 G0
ENDBRANCH  13  15
ENDBRANCH  12  13
BRANCH  12  17
ATOM     17  C   UNL     1      26.651  15.638  82.270  1.00  0.00    -0.006 C 
ATOM     18  C   UNL     1      25.213  15.107  82.383  1.00  0.00     0.008 C 
ATOM     19  C   UNL     1      26.664  16.972  81.503  1.00  0.00     0.008 C 
ENDBRANCH  12  17
ENDBRANCH  11  12
ENDBRANCH   1  11
TORSDOF 1
ENDMDL
MODEL 3
REMARK VINA RESULT:    -5.281      1.931      4.105
REMARK INTER + INTRA:          -8.270
REMARK INTER:                  -8.109
REMARK INTRA:                  -0.161
REMARK UNBOUND:                -0.210
REMARK SMILES CC1=CCC[C@H](C)C(=O)C[C@@H](C(C)C)C(=O)C1
REMARK SMILES IDX 8 1 9 2 6 3 7 4 5 5 4 6 3 7 2 8 1 9 10 11 11 12 15 13 16 14
REMARK SMILES IDX 17 15 12 17 13 18 14 19
REMARK H PARENT
REMARK Flexibility Score: 70.00
ROOT
ATOM      1  C   UNL     1      26.701  14.482  79.011  1.00  0.00     0.136 C 
ATOM      2  O   UNL     1      26.327  15.190  78.087  1.00  0.00    -0.299 OA
ENDROOT
BRANCH   1   3
ATOM      3  C   UNL     1      27.713  13.383  78.757  1.00  0.00     0.053 C 
ATOM      4  C   UNL     1      27.314  12.608  77.499  1.00  0.00     0.016 C 
BRANCH   3   5
ATOM      5  C   UNL     1      29.145  13.945  78.608  1.00  0.00     0.015 C 
BRANCH   5   6
ATOM      6  C   UNL     1      30.108  13.450  79.698  1.00  0.00     0.028 C 
BRANCH   6   7
ATOM      7  C   UNL     1      29.506  12.311  80.485  1.00  0.00    -0.028 C 
ATOM      8  C   UNL     1      28.992  12.398  81.733  1.00  0.00    -0.070 CG0
ATOM      9  C   UNL     1      28.433  11.144  82.357  1.00  0.00     0.039 C 
ATOM     10  G   UNL     1      28.924  13.696  82.514  1.00  0.00     0.000 G0
ENDBRANCH   6   7
ENDBRANCH   5   6
ENDBRANCH   3   5
ENDBRANCH   1   3
BRANCH   1  11
ATOM     11  C   UNL     1      26.128  14.711  80.386  1.00  0.00     0.087 C 
BRANCH  11  12
ATOM     12  C   UNL     1      27.177  15.301  81.359  1.00  0.00     0.066 C 
BRANCH  12  13
ATOM     13  C   UNL     1      27.540  14.301  82.446  1.00  0.00     0.140 C 
ATOM     14  O   UNL     1      26.714  14.000  83.296  1.00  0.00    -0.299 OA
BRANCH  13  15
ATOM     15  C   UNL     1      28.918  13.697  82.525  1.00  0.00     0.106 CG0
ATOM     16  G   UNL     1      28.988  12.402  81.741  1.00  0.00     0.000 G0
ENDBRANCH  13  15
ENDBRANCH  12  13
BRANCH  12  17
ATOM     17  C   UNL     1      26.717  16.670  81.948  1.00  0.00    -0.006 C 
ATOM     18  C   UNL     1      25.451  17.187  81.248  1.00  0.00     0.008 C 
ATOM     19  C   UNL     1      27.810  17.754  81.934  1.00  0.00     0.008 C 
ENDBRANCH  12  17
ENDBRANCH  11  12
ENDBRANCH   1  11
TORSDOF 1
ENDMDL
MODEL 4
REMARK VINA RESULT:    -5.224      2.088      3.730
REMARK INTER + INTRA:          -8.183
REMARK INTER:                  -8.394
REMARK INTRA:                   0.211
REMARK UNBOUND:                -0.210
REMARK SMILES CC1=CCC[C@H](C)C(=O)C[C@@H](C(C)C)C(=O)C1
REMARK SMILES IDX 8 1 9 2 6 3 7 4 5 5 4 6 3 7 2 8 1 9 10 11 11 12 15 13 16 14
REMARK SMILES IDX 17 15 12 17 13 18 14 19
REMARK H PARENT
REMARK Flexibility Score: 70.00
ROOT
ATOM      1  C   UNL     1      26.462  14.710  82.733  1.00  0.00     0.136 C 
ATOM      2  O   UNL     1      26.379  14.720  83.953  1.00  0.00    -0.299 OA
ENDROOT
BRANCH   1   3
ATOM      3  C   UNL     1      26.010  15.917  81.936  1.00  0.00     0.053 C 
ATOM      4  C   UNL     1      27.162  16.920  81.837  1.00  0.00     0.016 C 
BRANCH   3   5
ATOM      5  C   UNL     1      25.522  15.521  80.523  1.00  0.00     0.015 C 
BRANCH   5   6
ATOM      6  C   UNL     1      26.514  15.895  79.412  1.00  0.00     0.028 C 
BRANCH   6   7
ATOM      7  C   UNL     1      27.118  14.664  78.779  1.00  0.00    -0.028 C 
ATOM      8  C   UNL     1      28.279  14.075  79.150  1.00  0.00    -0.070 CG0
ATOM      9  C   UNL     1      28.720  12.847  78.394  1.00  0.00     0.039 C 
ATOM     10  G   UNL     1      29.131  14.570  80.301  1.00  0.00     0.000 G0
ENDBRANCH   6   7
ENDBRANCH   5   6
ENDBRANCH   3   5
ENDBRANCH   1   3
BRANCH   1  11
ATOM     11  C   UNL     1      27.000  13.481  82.047  1.00  0.00     0.087 C 
BRANCH  11  12
ATOM     12  C   UNL     1      28.465  13.186  82.450  1.00  0.00     0.066 C 
BRANCH  12  13
ATOM     13  C   UNL     1      29.414  13.440  81.289  1.00  0.00     0.140 C 
ATOM     14  O   UNL     1      30.424  12.760  81.169  1.00  0.00    -0.299 OA
BRANCH  13  15
ATOM     15  C   UNL     1      29.161  14.546  80.298  1.00  0.00     0.106 CG0
ATOM     16  G   UNL     1      28.280  14.063  79.162  1.00  0.00     0.000 G0
ENDBRANCH  13  15
ENDBRANCH  12  13
BRANCH  12  17
ATOM     17  C   UNL     1      28.627  11.752  83.041  1.00  0.00    -0.006 C 
ATOM     18  C   UNL     1      27.837  10.715  82.228  1.00  0.00     0.008 C 
ATOM     19  C   UNL     1      28.259  11.647  84.532  1.00  0.00     0.008 C 
ENDBRANCH  12  17
ENDBRANCH  11  12
ENDBRANCH   1  11
TORSDOF 1
ENDMDL
MODEL 5
REMARK VINA RESULT:    -5.169      1.934      3.235
REMARK INTER + INTRA:          -8.099
REMARK INTER:                  -7.939
REMARK INTRA:                  -0.161
REMARK UNBOUND:                -0.210
REMARK SMILES CC1=CCC[C@H](C)C(=O)C[C@@H](C(C)C)C(=O)C1
REMARK SMILES IDX 8 1 9 2 6 3 7 4 5 5 4 6 3 7 2 8 1 9 10 11 11 12 15 13 16 14
REMARK SMILES IDX 17 15 12 17 13 18 14 19
REMARK H PARENT
REMARK Flexibility Score: 70.00
ROOT
ATOM      1  C   UNL     1      26.818  14.893  79.739  1.00  0.00     0.136 C 
ATOM      2  O   UNL     1      25.722  15.051  79.221  1.00  0.00    -0.299 OA
ENDROOT
BRANCH   1   3
ATOM      3  C   UNL     1      27.021  15.247  81.198  1.00  0.00     0.053 C 
ATOM      4  C   UNL     1      26.375  16.606  81.484  1.00  0.00     0.016 C 
BRANCH   3   5
ATOM      5  C   UNL     1      26.435  14.167  82.138  1.00  0.00     0.015 C 
BRANCH   5   6
ATOM      6  C   UNL     1      27.508  13.269  82.773  1.00  0.00     0.028 C 
BRANCH   6   7
ATOM      7  C   UNL     1      28.876  13.902  82.683  1.00  0.00    -0.028 C 
ATOM      8  C   UNL     1      29.914  13.438  81.951  1.00  0.00    -0.070 CG0
ATOM      9  C   UNL     1      31.208  14.212  81.989  1.00  0.00     0.039 C 
ATOM     10  G   UNL     1      29.826  12.204  81.074  1.00  0.00     0.000 G0
ENDBRANCH   6   7
ENDBRANCH   5   6
ENDBRANCH   3   5
ENDBRANCH   1   3
BRANCH   1  11
ATOM     11  C   UNL     1      27.953  14.362  78.902  1.00  0.00     0.087 C 
BRANCH  11  12
ATOM     12  C   UNL     1      28.174  12.845  79.120  1.00  0.00     0.066 C 
BRANCH  12  13
ATOM     13  C   UNL     1      29.579  12.564  79.628  1.00  0.00     0.140 C 
ATOM     14  O   UNL     1      30.525  12.597  78.853  1.00  0.00    -0.299 OA
BRANCH  13  15
ATOM     15  C   UNL     1      29.833  12.201  81.068  1.00  0.00     0.106 CG0
ATOM     16  G   UNL     1      29.889  13.441  81.938  1.00  0.00     0.000 G0
ENDBRANCH  13  15
ENDBRANCH  12  13
BRANCH  12  17
ATOM     17  C   UNL     1      27.833  12.019  77.843  1.00  0.00    -0.006 C 
ATOM     18  C   UNL     1      26.741  12.702  77.005  1.00  0.00     0.008 C 
ATOM     19  C   UNL     1      27.442  10.558  78.131  1.00  0.00     0.008 C 
ENDBRANCH  12  17
ENDBRANCH  11  12
ENDBRANCH   1  11
TORSDOF 1
ENDMDL
MODEL 6
REMARK VINA RESULT:    -5.084      2.332      5.210
REMARK INTER + INTRA:          -7.969
REMARK INTER:                  -8.038
REMARK INTRA:                   0.069
REMARK UNBOUND:                -0.210
REMARK SMILES CC1=CCC[C@H](C)C(=O)C[C@@H](C(C)C)C(=O)C1
REMARK SMILES IDX 8 1 9 2 6 3 7 4 5 5 4 6 3 7 2 8 1 9 10 11 11 12 15 13 16 14
REMARK SMILES IDX 17 15 12 17 13 18 14 19
REMARK H PARENT
REMARK Flexibility Score: 70.00
ROOT
ATOM      1  C   UNL     1      28.110  13.734  82.863  1.00  0.00     0.136 C 
ATOM      2  O   UNL     1      27.891  14.269  83.941  1.00  0.00    -0.299 OA
ENDROOT
BRANCH   1   3
ATOM      3  C   UNL     1      28.282  12.231  82.787  1.00  0.00     0.053 C 
ATOM      4  C   UNL     1      28.400  11.662  84.204  1.00  0.00     0.016 C 
BRANCH   3   5
ATOM      5  C   UNL     1      27.110  11.557  82.036  1.00  0.00     0.015 C 
BRANCH   5   6
ATOM      6  C   UNL     1      27.571  10.611  80.917  1.00  0.00     0.028 C 
BRANCH   6   7
ATOM      7  C   UNL     1      28.775  11.164  80.192  1.00  0.00    -0.028 C 
ATOM      8  C   UNL     1      28.749  12.116  79.231  1.00  0.00    -0.070 CG0
ATOM      9  C   UNL     1      30.061  12.542  78.622  1.00  0.00     0.039 C 
ATOM     10  G   UNL     1      27.475  12.793  78.767  1.00  0.00     0.000 G0
ENDBRANCH   6   7
ENDBRANCH   5   6
ENDBRANCH   3   5
ENDBRANCH   1   3
BRANCH   1  11
ATOM     11  C   UNL     1      28.223  14.594  81.631  1.00  0.00     0.087 C 
BRANCH  11  12
ATOM     12  C   UNL     1      26.971  14.477  80.727  1.00  0.00     0.066 C 
BRANCH  12  13
ATOM     13  C   UNL     1      27.362  14.202  79.283  1.00  0.00     0.140 C 
ATOM     14  O   UNL     1      27.559  15.135  78.517  1.00  0.00    -0.299 OA
BRANCH  13  15
ATOM     15  C   UNL     1      27.473  12.794  78.757  1.00  0.00     0.106 CG0
ATOM     16  G   UNL     1      28.744  12.130  79.250  1.00  0.00     0.000 G0
ENDBRANCH  13  15
ENDBRANCH  12  13
BRANCH  12  17
ATOM     17  C   UNL     1      26.042  15.723  80.858  1.00  0.00    -0.006 C 
ATOM     18  C   UNL     1      26.829  16.969  81.292  1.00  0.00     0.008 C 
ATOM     19  C   UNL     1      24.837  15.506  81.791  1.00  0.00     0.008 C 
ENDBRANCH  12  17
ENDBRANCH  11  12
ENDBRANCH   1  11
TORSDOF 1
ENDMDL
MODEL 7
REMARK VINA RESULT:    -5.073      1.985      4.014
REMARK INTER + INTRA:          -7.952
REMARK INTER:                  -7.733
REMARK INTRA:                  -0.219
REMARK UNBOUND:                -0.210
REMARK SMILES CC1=CCC[C@H](C)C(=O)C[C@@H](C(C)C)C(=O)C1
REMARK SMILES IDX 8 1 9 2 6 3 7 4 5 5 4 6 3 7 2 8 1 9 10 11 11 12 15 13 16 14
REMARK SMILES IDX 17 15 12 17 13 18 14 19
REMARK H PARENT
REMARK Flexibility Score: 70.00
ROOT
ATOM      1  C   UNL     1      28.168  11.855  81.875  1.00  0.00     0.136 C 
ATOM      2  O   UNL     1      29.182  11.216  81.632  1.00  0.00    -0.299 OA
ENDROOT
BRANCH   1   3
ATOM      3  C   UNL     1      27.844  12.242  83.303  1.00  0.00     0.053 C 
ATOM      4  C   UNL     1      28.602  11.321  84.263  1.00  0.00     0.016 C 
BRANCH   3   5
ATOM      5  C   UNL     1      28.195  13.720  83.590  1.00  0.00     0.015 C 
BRANCH   5   6
ATOM      6  C   UNL     1      26.963  14.593  83.874  1.00  0.00     0.028 C 
BRANCH   6   7
ATOM      7  C   UNL     1      27.000  15.871  83.071  1.00  0.00    -0.028 C 
ATOM      8  C   UNL     1      26.430  16.059  81.859  1.00  0.00    -0.070 CG0
ATOM      9  C   UNL     1      26.575  17.413  81.211  1.00  0.00     0.039 C 
ATOM     10  G   UNL     1      25.629  14.989  81.143  1.00  0.00     0.000 G0
ENDBRANCH   6   7
ENDBRANCH   5   6
ENDBRANCH   3   5
ENDBRANCH   1   3
BRANCH   1  11
ATOM     11  C   UNL     1      27.250  12.227  80.739  1.00  0.00     0.087 C 
BRANCH  11  12
ATOM     12  C   UNL     1      27.633  13.588  80.107  1.00  0.00     0.066 C 
BRANCH  12  13
ATOM     13  C   UNL     1      26.408  14.472  79.929  1.00  0.00     0.140 C 
ATOM     14  O   UNL     1      26.050  14.795  78.805  1.00  0.00    -0.299 OA
BRANCH  13  15
ATOM     15  C   UNL     1      25.644  15.000  81.115  1.00  0.00     0.106 CG0
ATOM     16  G   UNL     1      26.441  16.063  81.844  1.00  0.00     0.000 G0
ENDBRANCH  13  15
ENDBRANCH  12  13
BRANCH  12  17
ATOM     17  C   UNL     1      28.429  13.408  78.779  1.00  0.00    -0.006 C 
ATOM     18  C   UNL     1      28.193  12.019  78.165  1.00  0.00     0.008 C 
ATOM     19  C   UNL     1      29.938  13.678  78.914  1.00  0.00     0.008 C 
ENDBRANCH  12  17
ENDBRANCH  11  12
ENDBRANCH   1  11
TORSDOF 1
ENDMDL
MODEL 8
REMARK VINA RESULT:    -5.066      1.807      4.212
REMARK INTER + INTRA:          -7.942
REMARK INTER:                  -7.899
REMARK INTRA:                  -0.043
REMARK UNBOUND:                -0.210
REMARK SMILES CC1=CCC[C@H](C)C(=O)C[C@@H](C(C)C)C(=O)C1
REMARK SMILES IDX 8 1 9 2 6 3 7 4 5 5 4 6 3 7 2 8 1 9 10 11 11 12 15 13 16 14
REMARK SMILES IDX 17 15 12 17 13 18 14 19
REMARK H PARENT
REMARK Flexibility Score: 70.00
ROOT
ATOM      1  C   UNL     1      28.548  13.915  79.182  1.00  0.00     0.136 C 
ATOM      2  O   UNL     1      28.664  14.633  78.199  1.00  0.00    -0.299 OA
ENDROOT
BRANCH   1   3
ATOM      3  C   UNL     1      29.753  13.167  79.716  1.00  0.00     0.053 C 
ATOM      4  C   UNL     1      30.458  12.451  78.561  1.00  0.00     0.016 C 
BRANCH   3   5
ATOM      5  C   UNL     1      30.738  14.112  80.442  1.00  0.00     0.015 C 
BRANCH   5   6
ATOM      6  C   UNL     1      30.430  14.277  81.939  1.00  0.00     0.028 C 
BRANCH   6   7
ATOM      7  C   UNL     1      29.786  13.034  82.505  1.00  0.00    -0.028 C 
ATOM      8  C   UNL     1      28.593  12.984  83.142  1.00  0.00    -0.070 CG0
ATOM      9  C   UNL     1      28.113  11.644  83.640  1.00  0.00     0.039 C 
ATOM     10  G   UNL     1      27.708  14.198  83.346  1.00  0.00     0.000 G0
ENDBRANCH   6   7
ENDBRANCH   5   6
ENDBRANCH   3   5
ENDBRANCH   1   3
BRANCH   1  11
ATOM     11  C   UNL     1      27.195  13.777  79.830  1.00  0.00     0.087 C 
BRANCH  11  12
ATOM     12  C   UNL     1      26.949  14.871  80.897  1.00  0.00     0.066 C 
BRANCH  12  13
ATOM     13  C   UNL     1      26.652  14.255  82.255  1.00  0.00     0.140 C 
ATOM     14  O   UNL     1      25.533  13.824  82.496  1.00  0.00    -0.299 OA
BRANCH  13  15
ATOM     15  C   UNL     1      27.700  14.201  83.337  1.00  0.00     0.106 CG0
ATOM     16  G   UNL     1      28.594  12.989  83.164  1.00  0.00     0.000 G0
ENDBRANCH  13  15
ENDBRANCH  12  13
BRANCH  12  17
ATOM     17  C   UNL     1      25.845  15.878  80.453  1.00  0.00    -0.006 C 
ATOM     18  C   UNL     1      25.796  16.022  78.924  1.00  0.00     0.008 C 
ATOM     19  C   UNL     1      25.963  17.265  81.111  1.00  0.00     0.008 C 
ENDBRANCH  12  17
ENDBRANCH  11  12
ENDBRANCH   1  11
TORSDOF 1
ENDMDL
MODEL 9
REMARK VINA RESULT:    -5.058      2.076      3.499
REMARK INTER + INTRA:          -7.930
REMARK INTER:                  -7.895
REMARK INTRA:                  -0.035
REMARK UNBOUND:                -0.210
REMARK SMILES CC1=CCC[C@H](C)C(=O)C[C@@H](C(C)C)C(=O)C1
REMARK SMILES IDX 8 1 9 2 6 3 7 4 5 5 4 6 3 7 2 8 1 9 10 11 11 12 15 13 16 14
REMARK SMILES IDX 17 15 12 17 13 18 14 19
REMARK H PARENT
REMARK Flexibility Score: 70.00
ROOT
ATOM      1  C   UNL     1      27.134  15.280  80.263  1.00  0.00     0.136 C 
ATOM      2  O   UNL     1      25.953  15.402  79.970  1.00  0.00    -0.299 OA
ENDROOT
BRANCH   1   3
ATOM      3  C   UNL     1      27.611  15.670  81.648  1.00  0.00     0.053 C 
ATOM      4  C   UNL     1      27.231  17.127  81.923  1.00  0.00     0.016 C 
BRANCH   3   5
ATOM      5  C   UNL     1      27.020  14.747  82.739  1.00  0.00     0.015 C 
BRANCH   5   6
ATOM      6  C   UNL     1      28.071  13.843  83.402  1.00  0.00     0.028 C 
BRANCH   6   7
ATOM      7  C   UNL     1      27.961  12.421  82.907  1.00  0.00    -0.028 C 
ATOM      8  C   UNL     1      28.721  11.863  81.936  1.00  0.00    -0.070 CG0
ATOM      9  C   UNL     1      28.462  10.421  81.576  1.00  0.00     0.039 C 
ATOM     10  G   UNL     1      29.834  12.605  81.222  1.00  0.00     0.000 G0
ENDBRANCH   6   7
ENDBRANCH   5   6
ENDBRANCH   3   5
ENDBRANCH   1   3
BRANCH   1  11
ATOM     11  C   UNL     1      28.095  14.760  79.226  1.00  0.00     0.087 C 
BRANCH  11  12
ATOM     12  C   UNL     1      28.196  13.215  79.254  1.00  0.00     0.066 C 
BRANCH  12  13
ATOM     13  C   UNL     1      29.560  12.764  79.753  1.00  0.00     0.140 C 
ATOM     14  O   UNL     1      30.439  12.483  78.950  1.00  0.00    -0.299 OA
BRANCH  13  15
ATOM     15  C   UNL     1      29.845  12.614  81.225  1.00  0.00     0.106 CG0
ATOM     16  G   UNL     1      28.720  11.873  81.921  1.00  0.00     0.000 G0
ENDBRANCH  13  15
ENDBRANCH  12  13
BRANCH  12  17
ATOM     17  C   UNL     1      27.836  12.585  77.874  1.00  0.00    -0.006 C 
ATOM     18  C   UNL     1      26.755  13.400  77.147  1.00  0.00     0.008 C 
ATOM     19  C   UNL     1      27.418  11.105  77.953  1.00  0.00     0.008 C 
ENDBRANCH  12  17
ENDBRANCH  11  12
ENDBRANCH   1  11
TORSDOF 1
ENDMDL
