MODEL 1
REMARK VINA RESULT:    -4.114      0.000      0.000
REMARK INTER + INTRA:          -6.040
REMARK INTER:                  -5.557
REMARK INTRA:                  -0.483
REMARK UNBOUND:                -0.483
REMARK SMILES CCCCCCC=CC(=O)[O-]
REMARK SMILES IDX 5 1 6 2 7 3 8 4 9 5 10 6 11 7 4 8 3 9 2 10 1 11
REMARK H PARENT
REMARK Flexibility Score: inf
ROOT
ATOM      1  C   UNL     1     -21.609  15.662  -2.744  1.00  0.00     0.004 C 
ENDROOT
BRANCH   1   2
ATOM      2  C   UNL     1     -21.161  16.655  -1.663  1.00  0.00     0.027 C 
BRANCH   2   3
ATOM      3  C   UNL     1     -22.275  17.597  -1.292  1.00  0.00    -0.025 C 
ATOM      4  C   UNL     1     -22.342  18.901  -1.608  1.00  0.00     0.020 C 
BRANCH   4   5
ATOM      5  C   UNL     1     -21.329  19.686  -2.344  1.00  0.00     0.064 C 
ATOM      6  O   UNL     1     -21.222  19.633  -3.597  1.00  0.00    -0.545 OA
ATOM      7  O   UNL     1     -20.451  20.488  -1.627  1.00  0.00    -0.545 OA
ENDBRANCH   4   5
ENDBRANCH   2   3
ENDBRANCH   1   2
BRANCH   1   8
ATOM      8  C   UNL     1     -21.363  16.232  -4.147  1.00  0.00     0.000 C 
BRANCH   8   9
ATOM      9  C   UNL     1     -22.683  16.426  -4.901  1.00  0.00    -0.000 C 
BRANCH   9  10
ATOM     10  C   UNL     1     -22.704  15.604  -6.195  1.00  0.00    -0.003 C 
ATOM     11  C   UNL     1     -23.637  16.227  -7.229  1.00  0.00     0.004 C 
ENDBRANCH   9  10
ENDBRANCH   8   9
ENDBRANCH   1   8
TORSDOF 6
ENDMDL
MODEL 2
REMARK VINA RESULT:    -4.074      2.542      4.905
REMARK INTER + INTRA:          -5.986
REMARK INTER:                  -5.301
REMARK INTRA:                  -0.684
REMARK UNBOUND:                -0.483
REMARK SMILES CCCCCCC=CC(=O)[O-]
REMARK SMILES IDX 5 1 6 2 7 3 8 4 9 5 10 6 11 7 4 8 3 9 2 10 1 11
REMARK H PARENT
REMARK Flexibility Score: inf
ROOT
ATOM      1  C   UNL     1     -21.358  18.434  -1.754  1.00  0.00     0.004 C 
ENDROOT
BRANCH   1   2
ATOM      2  C   UNL     1     -21.193  18.428  -3.280  1.00  0.00     0.027 C 
BRANCH   2   3
ATOM      3  C   UNL     1     -20.790  17.066  -3.779  1.00  0.00    -0.025 C 
ATOM      4  C   UNL     1     -21.580  16.206  -4.445  1.00  0.00     0.020 C 
BRANCH   4   5
ATOM      5  C   UNL     1     -23.004  16.398  -4.788  1.00  0.00     0.064 C 
ATOM      6  O   UNL     1     -23.916  16.336  -3.923  1.00  0.00    -0.545 OA
ATOM      7  O   UNL     1     -23.348  16.632  -6.113  1.00  0.00    -0.545 OA
ENDBRANCH   4   5
ENDBRANCH   2   3
ENDBRANCH   1   2
BRANCH   1   8
ATOM      8  C   UNL     1     -22.836  18.315  -1.363  1.00  0.00     0.000 C 
BRANCH   8   9
ATOM      9  C   UNL     1     -23.089  17.039  -0.551  1.00  0.00    -0.000 C 
BRANCH   9  10
ATOM     10  C   UNL     1     -21.781  16.278  -0.301  1.00  0.00    -0.003 C 
ATOM     11  C   UNL     1     -21.636  15.899   1.170  1.00  0.00     0.004 C 
ENDBRANCH   9  10
ENDBRANCH   8   9
ENDBRANCH   1   8
TORSDOF 6
ENDMDL
MODEL 3
REMARK VINA RESULT:    -4.029      1.787      2.781
REMARK INTER + INTRA:          -5.925
REMARK INTER:                  -5.222
REMARK INTRA:                  -0.703
REMARK UNBOUND:                -0.483
REMARK SMILES CCCCCCC=CC(=O)[O-]
REMARK SMILES IDX 5 1 6 2 7 3 8 4 9 5 10 6 11 7 4 8 3 9 2 10 1 11
REMARK H PARENT
REMARK Flexibility Score: inf
ROOT
ATOM      1  C   UNL     1     -23.388  17.001  -1.005  1.00  0.00     0.004 C 
ENDROOT
BRANCH   1   2
ATOM      2  C   UNL     1     -23.377  18.536  -0.991  1.00  0.00     0.027 C 
BRANCH   2   3
ATOM      3  C   UNL     1     -23.215  19.093  -2.380  1.00  0.00    -0.025 C 
ATOM      4  C   UNL     1     -22.078  19.576  -2.908  1.00  0.00     0.020 C 
BRANCH   4   5
ATOM      5  C   UNL     1     -20.770  19.698  -2.229  1.00  0.00     0.064 C 
ATOM      6  O   UNL     1     -20.351  20.793  -1.774  1.00  0.00    -0.545 OA
ATOM      7  O   UNL     1     -19.969  18.569  -2.111  1.00  0.00    -0.545 OA
ENDBRANCH   4   5
ENDBRANCH   2   3
ENDBRANCH   1   2
BRANCH   1   8
ATOM      8  C   UNL     1     -22.028  16.439  -0.571  1.00  0.00     0.000 C 
BRANCH   8   9
ATOM      9  C   UNL     1     -21.386  15.623  -1.699  1.00  0.00    -0.000 C 
BRANCH   9  10
ATOM     10  C   UNL     1     -22.129  15.834  -3.023  1.00  0.00    -0.003 C 
ATOM     11  C   UNL     1     -21.155  15.912  -4.195  1.00  0.00     0.004 C 
ENDBRANCH   9  10
ENDBRANCH   8   9
ENDBRANCH   1   8
TORSDOF 6
ENDMDL
MODEL 4
REMARK VINA RESULT:    -3.989      3.122      5.056
REMARK INTER + INTRA:          -5.872
REMARK INTER:                  -5.367
REMARK INTRA:                  -0.505
REMARK UNBOUND:                -0.483
REMARK SMILES CCCCCCC=CC(=O)[O-]
REMARK SMILES IDX 5 1 6 2 7 3 8 4 9 5 10 6 11 7 4 8 3 9 2 10 1 11
REMARK H PARENT
REMARK Flexibility Score: inf
ROOT
ATOM      1  C   UNL     1     -20.610  17.728  -3.427  1.00  0.00     0.004 C 
ENDROOT
BRANCH   1   2
ATOM      2  C   UNL     1     -21.123  16.598  -4.330  1.00  0.00     0.027 C 
BRANCH   2   3
ATOM      3  C   UNL     1     -22.625  16.505  -4.287  1.00  0.00    -0.025 C 
ATOM      4  C   UNL     1     -23.422  16.141  -5.306  1.00  0.00     0.020 C 
BRANCH   4   5
ATOM      5  C   UNL     1     -22.998  15.799  -6.680  1.00  0.00     0.064 C 
ATOM      6  O   UNL     1     -23.462  16.387  -7.690  1.00  0.00    -0.545 OA
ATOM      7  O   UNL     1     -22.075  14.777  -6.861  1.00  0.00    -0.545 OA
ENDBRANCH   4   5
ENDBRANCH   2   3
ENDBRANCH   1   2
BRANCH   1   8
ATOM      8  C   UNL     1     -21.683  18.807  -3.236  1.00  0.00     0.000 C 
BRANCH   8   9
ATOM      9  C   UNL     1     -21.884  19.126  -1.750  1.00  0.00    -0.000 C 
BRANCH   9  10
ATOM     10  C   UNL     1     -23.180  18.497  -1.223  1.00  0.00    -0.003 C 
ATOM     11  C   UNL     1     -22.916  17.128  -0.604  1.00  0.00     0.004 C 
ENDBRANCH   9  10
ENDBRANCH   8   9
ENDBRANCH   1   8
TORSDOF 6
ENDMDL
MODEL 5
REMARK VINA RESULT:    -3.984      2.308      4.789
REMARK INTER + INTRA:          -5.864
REMARK INTER:                  -5.356
REMARK INTRA:                  -0.509
REMARK UNBOUND:                -0.483
REMARK SMILES CCCCCCC=CC(=O)[O-]
REMARK SMILES IDX 5 1 6 2 7 3 8 4 9 5 10 6 11 7 4 8 3 9 2 10 1 11
REMARK H PARENT
REMARK Flexibility Score: inf
ROOT
ATOM      1  C   UNL     1     -21.531  17.034  -1.776  1.00  0.00     0.004 C 
ENDROOT
BRANCH   1   2
ATOM      2  C   UNL     1     -22.011  15.875  -2.660  1.00  0.00     0.027 C 
BRANCH   2   3
ATOM      3  C   UNL     1     -21.214  15.795  -3.934  1.00  0.00    -0.025 C 
ATOM      4  C   UNL     1     -21.707  15.904  -5.180  1.00  0.00     0.020 C 
BRANCH   4   5
ATOM      5  C   UNL     1     -23.124  16.085  -5.557  1.00  0.00     0.064 C 
ATOM      6  O   UNL     1     -23.840  16.992  -5.057  1.00  0.00    -0.545 OA
ATOM      7  O   UNL     1     -23.690  15.211  -6.476  1.00  0.00    -0.545 OA
ENDBRANCH   4   5
ENDBRANCH   2   3
ENDBRANCH   1   2
BRANCH   1   8
ATOM      8  C   UNL     1     -22.599  18.130  -1.682  1.00  0.00     0.000 C 
BRANCH   8   9
ATOM      9  C   UNL     1     -22.400  19.188  -2.774  1.00  0.00    -0.000 C 
BRANCH   9  10
ATOM     10  C   UNL     1     -20.913  19.515  -2.957  1.00  0.00    -0.003 C 
ATOM     11  C   UNL     1     -20.439  20.527  -1.917  1.00  0.00     0.004 C 
ENDBRANCH   9  10
ENDBRANCH   8   9
ENDBRANCH   1   8
TORSDOF 6
ENDMDL
MODEL 6
REMARK VINA RESULT:    -3.939      2.403      2.985
REMARK INTER + INTRA:          -5.804
REMARK INTER:                  -5.552
REMARK INTRA:                  -0.251
REMARK UNBOUND:                -0.483
REMARK SMILES CCCCCCC=CC(=O)[O-]
REMARK SMILES IDX 5 1 6 2 7 3 8 4 9 5 10 6 11 7 4 8 3 9 2 10 1 11
REMARK H PARENT
REMARK Flexibility Score: inf
ROOT
ATOM      1  C   UNL     1     -20.685  18.075  -3.287  1.00  0.00     0.004 C 
ENDROOT
BRANCH   1   2
ATOM      2  C   UNL     1     -21.011  18.742  -1.943  1.00  0.00     0.027 C 
BRANCH   2   3
ATOM      3  C   UNL     1     -22.402  18.392  -1.484  1.00  0.00    -0.025 C 
ATOM      4  C   UNL     1     -22.740  17.327  -0.738  1.00  0.00     0.020 C 
BRANCH   4   5
ATOM      5  C   UNL     1     -21.835  16.265  -0.251  1.00  0.00     0.064 C 
ATOM      6  O   UNL     1     -21.653  16.052   0.976  1.00  0.00    -0.545 OA
ATOM      7  O   UNL     1     -21.145  15.495  -1.178  1.00  0.00    -0.545 OA
ENDBRANCH   4   5
ENDBRANCH   2   3
ENDBRANCH   1   2
BRANCH   1   8
ATOM      8  C   UNL     1     -21.968  17.671  -4.024  1.00  0.00     0.000 C 
BRANCH   8   9
ATOM      9  C   UNL     1     -21.820  16.289  -4.669  1.00  0.00    -0.000 C 
BRANCH   9  10
ATOM     10  C   UNL     1     -22.897  16.062  -5.737  1.00  0.00    -0.003 C 
ATOM     11  C   UNL     1     -22.400  15.116  -6.827  1.00  0.00     0.004 C 
ENDBRANCH   9  10
ENDBRANCH   8   9
ENDBRANCH   1   8
TORSDOF 6
ENDMDL
MODEL 7
REMARK VINA RESULT:    -3.869      1.155      2.128
REMARK INTER + INTRA:          -5.708
REMARK INTER:                  -5.040
REMARK INTRA:                  -0.669
REMARK UNBOUND:                -0.483
REMARK SMILES CCCCCCC=CC(=O)[O-]
REMARK SMILES IDX 5 1 6 2 7 3 8 4 9 5 10 6 11 7 4 8 3 9 2 10 1 11
REMARK H PARENT
REMARK Flexibility Score: inf
ROOT
ATOM      1  C   UNL     1     -23.892  17.719  -2.331  1.00  0.00     0.004 C 
ENDROOT
BRANCH   1   2
ATOM      2  C   UNL     1     -23.064  17.741  -1.039  1.00  0.00     0.027 C 
BRANCH   2   3
ATOM      3  C   UNL     1     -21.656  17.270  -1.286  1.00  0.00    -0.025 C 
ATOM      4  C   UNL     1     -20.656  18.009  -1.797  1.00  0.00     0.020 C 
BRANCH   4   5
ATOM      5  C   UNL     1     -20.739  19.412  -2.255  1.00  0.00     0.064 C 
ATOM      6  O   UNL     1     -20.391  20.376  -1.525  1.00  0.00    -0.545 OA
ATOM      7  O   UNL     1     -21.239  19.674  -3.523  1.00  0.00    -0.545 OA
ENDBRANCH   4   5
ENDBRANCH   2   3
ENDBRANCH   1   2
BRANCH   1   8
ATOM      8  C   UNL     1     -23.509  16.521  -3.207  1.00  0.00     0.000 C 
BRANCH   8   9
ATOM      9  C   UNL     1     -23.379  16.934  -4.678  1.00  0.00    -0.000 C 
BRANCH   9  10
ATOM     10  C   UNL     1     -22.444  15.983  -5.436  1.00  0.00    -0.003 C 
ATOM     11  C   UNL     1     -21.103  15.842  -4.720  1.00  0.00     0.004 C 
ENDBRANCH   9  10
ENDBRANCH   8   9
ENDBRANCH   1   8
TORSDOF 6
ENDMDL
MODEL 8
REMARK VINA RESULT:    -3.759      1.388      1.511
REMARK INTER + INTRA:          -5.560
REMARK INTER:                  -5.251
REMARK INTRA:                  -0.309
REMARK UNBOUND:                -0.483
REMARK SMILES CCCCCCC=CC(=O)[O-]
REMARK SMILES IDX 5 1 6 2 7 3 8 4 9 5 10 6 11 7 4 8 3 9 2 10 1 11
REMARK H PARENT
REMARK Flexibility Score: inf
ROOT
ATOM      1  C   UNL     1     -22.920  16.207  -3.201  1.00  0.00     0.004 C 
ENDROOT
BRANCH   1   2
ATOM      2  C   UNL     1     -23.063  17.531  -2.437  1.00  0.00     0.027 C 
BRANCH   2   3
ATOM      3  C   UNL     1     -22.728  18.706  -3.316  1.00  0.00    -0.025 C 
ATOM      4  C   UNL     1     -21.685  19.538  -3.155  1.00  0.00     0.020 C 
BRANCH   4   5
ATOM      5  C   UNL     1     -20.681  19.498  -2.071  1.00  0.00     0.064 C 
ATOM      6  O   UNL     1     -20.142  18.424  -1.697  1.00  0.00    -0.545 OA
ATOM      7  O   UNL     1     -20.340  20.681  -1.429  1.00  0.00    -0.545 OA
ENDBRANCH   4   5
ENDBRANCH   2   3
ENDBRANCH   1   2
BRANCH   1   8
ATOM      8  C   UNL     1     -21.652  16.207  -4.064  1.00  0.00     0.000 C 
BRANCH   8   9
ATOM      9  C   UNL     1     -21.958  15.738  -5.491  1.00  0.00    -0.000 C 
BRANCH   9  10
ATOM     10  C   UNL     1     -23.397  16.090  -5.889  1.00  0.00    -0.003 C 
ATOM     11  C   UNL     1     -23.552  16.143  -7.406  1.00  0.00     0.004 C 
ENDBRANCH   9  10
ENDBRANCH   8   9
ENDBRANCH   1   8
TORSDOF 6
ENDMDL
MODEL 9
REMARK VINA RESULT:    -3.734      2.513      4.363
REMARK INTER + INTRA:          -5.526
REMARK INTER:                  -4.986
REMARK INTRA:                  -0.540
REMARK UNBOUND:                -0.483
REMARK SMILES CCCCCCC=CC(=O)[O-]
REMARK SMILES IDX 5 1 6 2 7 3 8 4 9 5 10 6 11 7 4 8 3 9 2 10 1 11
REMARK H PARENT
REMARK Flexibility Score: inf
ROOT
ATOM      1  C   UNL     1     -23.148  18.525  -1.024  1.00  0.00     0.004 C 
ENDROOT
BRANCH   1   2
ATOM      2  C   UNL     1     -23.373  17.008  -0.963  1.00  0.00     0.027 C 
BRANCH   2   3
ATOM      3  C   UNL     1     -22.065  16.264  -0.932  1.00  0.00    -0.025 C 
ATOM      4  C   UNL     1     -21.349  15.884  -2.005  1.00  0.00     0.020 C 
BRANCH   4   5
ATOM      5  C   UNL     1     -21.712  16.081  -3.424  1.00  0.00     0.064 C 
ATOM      6  O   UNL     1     -22.877  15.878  -3.852  1.00  0.00    -0.545 OA
ATOM      7  O   UNL     1     -20.727  16.480  -4.318  1.00  0.00    -0.545 OA
ENDBRANCH   4   5
ENDBRANCH   2   3
ENDBRANCH   1   2
BRANCH   1   8
ATOM      8  C   UNL     1     -23.447  19.067  -2.427  1.00  0.00     0.000 C 
BRANCH   8   9
ATOM      9  C   UNL     1     -22.173  19.599  -3.094  1.00  0.00    -0.000 C 
BRANCH   9  10
ATOM     10  C   UNL     1     -20.987  19.563  -2.122  1.00  0.00    -0.003 C 
ATOM     11  C   UNL     1     -20.236  20.892  -2.121  1.00  0.00     0.004 C 
ENDBRANCH   9  10
ENDBRANCH   8   9
ENDBRANCH   1   8
TORSDOF 6
ENDMDL
