MODEL 1
REMARK VINA RESULT:    -4.221      0.000      0.000
REMARK INTER + INTRA:          -8.912
REMARK INTER:                  -6.441
REMARK INTRA:                  -2.471
REMARK UNBOUND:                -2.471
REMARK SMILES CC(=O)CCC=C(C)CCC=C(C)CCC=C(C)C
REMARK SMILES IDX 10 1 11 2 12 3 13 4 14 5 15 6 16 7 18 8 17 9 19 10 9 11 7 12
REMARK SMILES IDX 6 13 8 14 5 15 4 16 2 17 3 18 1 19
REMARK H PARENT
REMARK Flexibility Score: inf
ROOT
ATOM      1  C   UNL     1      31.572  67.802 103.380  1.00  0.00     0.032 C 
ENDROOT
BRANCH   1   2
ATOM      2  C   UNL     1      31.357  69.233 103.807  1.00  0.00    -0.028 C 
ATOM      3  C   UNL     1      31.136  69.623 105.082  1.00  0.00    -0.077 C 
ATOM      4  C   UNL     1      31.045  68.631 106.218  1.00  0.00     0.039 C 
BRANCH   3   5
ATOM      5  C   UNL     1      30.921  71.093 105.380  1.00  0.00     0.034 C 
BRANCH   5   6
ATOM      6  C   UNL     1      31.696  71.539 106.627  1.00  0.00     0.032 C 
BRANCH   6   7
ATOM      7  C   UNL     1      33.092  71.997 106.275  1.00  0.00    -0.028 C 
ATOM      8  C   UNL     1      34.216  70.132 107.512  1.00  0.00     0.039 C 
ATOM      9  C   UNL     1      34.230  71.394 106.686  1.00  0.00    -0.080 C 
ATOM     10  C   UNL     1      35.549  72.012 106.299  1.00  0.00     0.039 C 
ENDBRANCH   6   7
ENDBRANCH   5   6
ENDBRANCH   3   5
ENDBRANCH   1   2
BRANCH   1  11
ATOM     11  C   UNL     1      33.009  67.589 102.886  1.00  0.00     0.034 C 
BRANCH  11  12
ATOM     12  C   UNL     1      34.006  67.681 104.027  1.00  0.00    -0.077 C 
ATOM     13  C   UNL     1      34.870  68.711 104.184  1.00  0.00    -0.028 C 
ATOM     14  C   UNL     1      34.032  66.576 105.055  1.00  0.00     0.039 C 
BRANCH  13  15
ATOM     15  C   UNL     1      35.018  69.890 103.248  1.00  0.00     0.035 C 
BRANCH  15  16
ATOM     16  C   UNL     1      36.382  69.883 102.542  1.00  0.00     0.079 C 
BRANCH  16  17
ATOM     17  C   UNL     1      36.244  69.785 101.044  1.00  0.00     0.130 C 
ATOM     18  O   UNL     1      36.251  68.692 100.502  1.00  0.00    -0.300 OA
ATOM     19  C   UNL     1      36.087  71.022 100.215  1.00  0.00     0.087 C 
ENDBRANCH  16  17
ENDBRANCH  15  16
ENDBRANCH  13  15
ENDBRANCH  11  12
ENDBRANCH   1  11
TORSDOF 9
ENDMDL
MODEL 2
REMARK VINA RESULT:    -4.217      2.700      5.309
REMARK INTER + INTRA:          -8.906
REMARK INTER:                  -6.554
REMARK INTRA:                  -2.352
REMARK UNBOUND:                -2.471
REMARK SMILES CC(=O)CCC=C(C)CCC=C(C)CCC=C(C)C
REMARK SMILES IDX 10 1 11 2 12 3 13 4 14 5 15 6 16 7 18 8 17 9 19 10 9 11 7 12
REMARK SMILES IDX 6 13 8 14 5 15 4 16 2 17 3 18 1 19
REMARK H PARENT
REMARK Flexibility Score: inf
ROOT
ATOM      1  C   UNL     1      31.197  68.632 106.520  1.00  0.00     0.032 C 
ENDROOT
BRANCH   1   2
ATOM      2  C   UNL     1      31.774  67.861 105.359  1.00  0.00    -0.028 C 
ATOM      3  C   UNL     1      31.706  68.259 104.069  1.00  0.00    -0.077 C 
ATOM      4  C   UNL     1      30.995  69.528 103.660  1.00  0.00     0.039 C 
BRANCH   3   5
ATOM      5  C   UNL     1      32.316  67.386 102.992  1.00  0.00     0.034 C 
BRANCH   5   6
ATOM      6  C   UNL     1      33.848  67.359 103.081  1.00  0.00     0.032 C 
BRANCH   6   7
ATOM      7  C   UNL     1      34.437  68.737 102.881  1.00  0.00    -0.028 C 
ATOM      8  C   UNL     1      35.420  68.854 105.182  1.00  0.00     0.039 C 
ATOM      9  C   UNL     1      35.120  69.429 103.820  1.00  0.00    -0.080 C 
ATOM     10  C   UNL     1      35.592  70.820 103.483  1.00  0.00     0.039 C 
ENDBRANCH   6   7
ENDBRANCH   5   6
ENDBRANCH   3   5
ENDBRANCH   1   2
BRANCH   1  11
ATOM     11  C   UNL     1      32.223  69.622 107.084  1.00  0.00     0.034 C 
BRANCH  11  12
ATOM     12  C   UNL     1      31.833  71.057 106.783  1.00  0.00    -0.077 C 
ATOM     13  C   UNL     1      32.731  72.052 106.592  1.00  0.00    -0.028 C 
ATOM     14  C   UNL     1      30.368  71.401 106.676  1.00  0.00     0.039 C 
BRANCH  13  15
ATOM     15  C   UNL     1      34.235  71.916 106.690  1.00  0.00     0.035 C 
BRANCH  15  16
ATOM     16  C   UNL     1      34.794  72.683 107.897  1.00  0.00     0.079 C 
BRANCH  16  17
ATOM     17  C   UNL     1      35.532  71.779 108.850  1.00  0.00     0.130 C 
ATOM     18  O   UNL     1      36.113  72.253 109.814  1.00  0.00    -0.300 OA
ATOM     19  C   UNL     1      35.549  70.298 108.631  1.00  0.00     0.087 C 
ENDBRANCH  16  17
ENDBRANCH  15  16
ENDBRANCH  13  15
ENDBRANCH  11  12
ENDBRANCH   1  11
TORSDOF 9
ENDMDL
MODEL 3
REMARK VINA RESULT:    -4.206      1.776      4.963
REMARK INTER + INTRA:          -8.890
REMARK INTER:                  -6.829
REMARK INTRA:                  -2.061
REMARK UNBOUND:                -2.471
REMARK SMILES CC(=O)CCC=C(C)CCC=C(C)CCC=C(C)C
REMARK SMILES IDX 10 1 11 2 12 3 13 4 14 5 15 6 16 7 18 8 17 9 19 10 9 11 7 12
REMARK SMILES IDX 6 13 8 14 5 15 4 16 2 17 3 18 1 19
REMARK H PARENT
REMARK Flexibility Score: inf
ROOT
ATOM      1  C   UNL     1      32.175  71.837 106.462  1.00  0.00     0.032 C 
ENDROOT
BRANCH   1   2
ATOM      2  C   UNL     1      33.367  71.367 105.668  1.00  0.00    -0.028 C 
ATOM      3  C   UNL     1      34.349  70.578 106.159  1.00  0.00    -0.077 C 
ATOM      4  C   UNL     1      34.358  70.114 107.598  1.00  0.00     0.039 C 
BRANCH   3   5
ATOM      5  C   UNL     1      35.503  70.185 105.260  1.00  0.00     0.034 C 
BRANCH   5   6
ATOM      6  C   UNL     1      35.339  70.752 103.844  1.00  0.00     0.032 C 
BRANCH   6   7
ATOM      7  C   UNL     1      35.684  69.723 102.793  1.00  0.00    -0.028 C 
ATOM      8  C   UNL     1      36.429  71.421 101.108  1.00  0.00     0.039 C 
ATOM      9  C   UNL     1      36.148  70.007 101.555  1.00  0.00    -0.080 C 
ATOM     10  C   UNL     1      36.387  68.867 100.600  1.00  0.00     0.039 C 
ENDBRANCH   6   7
ENDBRANCH   5   6
ENDBRANCH   3   5
ENDBRANCH   1   2
BRANCH   1  11
ATOM     11  C   UNL     1      30.886  71.178 105.955  1.00  0.00     0.034 C 
BRANCH  11  12
ATOM     12  C   UNL     1      30.849  69.698 106.292  1.00  0.00    -0.077 C 
ATOM     13  C   UNL     1      30.950  68.718 105.365  1.00  0.00    -0.028 C 
ATOM     14  C   UNL     1      30.708  69.289 107.737  1.00  0.00     0.039 C 
BRANCH  13  15
ATOM     15  C   UNL     1      31.065  68.923 103.870  1.00  0.00     0.035 C 
BRANCH  15  16
ATOM     16  C   UNL     1      32.448  68.510 103.347  1.00  0.00     0.079 C 
BRANCH  16  17
ATOM     17  C   UNL     1      32.453  67.102 102.808  1.00  0.00     0.130 C 
ATOM     18  O   UNL     1      31.404  66.487 102.700  1.00  0.00    -0.300 OA
ATOM     19  C   UNL     1      33.737  66.455 102.390  1.00  0.00     0.087 C 
ENDBRANCH  16  17
ENDBRANCH  15  16
ENDBRANCH  13  15
ENDBRANCH  11  12
ENDBRANCH   1  11
TORSDOF 9
ENDMDL
MODEL 4
REMARK VINA RESULT:    -4.178      2.189      4.457
REMARK INTER + INTRA:          -8.847
REMARK INTER:                  -6.399
REMARK INTRA:                  -2.449
REMARK UNBOUND:                -2.471
REMARK SMILES CC(=O)CCC=C(C)CCC=C(C)CCC=C(C)C
REMARK SMILES IDX 10 1 11 2 12 3 13 4 14 5 15 6 16 7 18 8 17 9 19 10 9 11 7 12
REMARK SMILES IDX 6 13 8 14 5 15 4 16 2 17 3 18 1 19
REMARK H PARENT
REMARK Flexibility Score: inf
ROOT
ATOM      1  C   UNL     1      31.902  71.958 106.786  1.00  0.00     0.032 C 
ENDROOT
BRANCH   1   2
ATOM      2  C   UNL     1      33.175  71.730 106.010  1.00  0.00    -0.028 C 
ATOM      3  C   UNL     1      34.415  71.977 106.489  1.00  0.00    -0.077 C 
ATOM      4  C   UNL     1      34.640  72.552 107.869  1.00  0.00     0.039 C 
BRANCH   3   5
ATOM      5  C   UNL     1      35.617  71.718 105.604  1.00  0.00     0.034 C 
BRANCH   5   6
ATOM      6  C   UNL     1      35.792  70.223 105.306  1.00  0.00     0.032 C 
BRANCH   6   7
ATOM      7  C   UNL     1      36.268  69.469 106.526  1.00  0.00    -0.028 C 
ATOM      8  C   UNL     1      34.116  68.223 106.827  1.00  0.00     0.039 C 
ATOM      9  C   UNL     1      35.522  68.591 107.232  1.00  0.00    -0.080 C 
ATOM     10  C   UNL     1      36.125  67.966 108.464  1.00  0.00     0.039 C 
ENDBRANCH   6   7
ENDBRANCH   5   6
ENDBRANCH   3   5
ENDBRANCH   1   2
BRANCH   1  11
ATOM     11  C   UNL     1      30.708  71.303 106.081  1.00  0.00     0.034 C 
BRANCH  11  12
ATOM     12  C   UNL     1      30.688  69.801 106.304  1.00  0.00    -0.077 C 
ATOM     13  C   UNL     1      30.893  68.896 105.320  1.00  0.00    -0.028 C 
ATOM     14  C   UNL     1      30.441  69.282 107.699  1.00  0.00     0.039 C 
BRANCH  13  15
ATOM     15  C   UNL     1      31.123  69.216 103.859  1.00  0.00     0.035 C 
BRANCH  15  16
ATOM     16  C   UNL     1      32.617  69.200 103.505  1.00  0.00     0.079 C 
BRANCH  16  17
ATOM     17  C   UNL     1      33.077  67.839 103.051  1.00  0.00     0.130 C 
ATOM     18  O   UNL     1      32.264  67.022 102.650  1.00  0.00    -0.300 OA
ATOM     19  C   UNL     1      34.532  67.484 103.076  1.00  0.00     0.087 C 
ENDBRANCH  16  17
ENDBRANCH  15  16
ENDBRANCH  13  15
ENDBRANCH  11  12
ENDBRANCH   1  11
TORSDOF 9
ENDMDL
MODEL 5
REMARK VINA RESULT:    -4.088      9.864     12.493
REMARK INTER + INTRA:          -8.710
REMARK INTER:                  -6.396
REMARK INTRA:                  -2.314
REMARK UNBOUND:                -2.471
REMARK SMILES CC(=O)CCC=C(C)CCC=C(C)CCC=C(C)C
REMARK SMILES IDX 10 1 11 2 12 3 13 4 14 5 15 6 16 7 18 8 17 9 19 10 9 11 7 12
REMARK SMILES IDX 6 13 8 14 5 15 4 16 2 17 3 18 1 19
REMARK H PARENT
REMARK Flexibility Score: inf
ROOT
ATOM      1  C   UNL     1      24.763  76.487 108.194  1.00  0.00     0.032 C 
ENDROOT
BRANCH   1   2
ATOM      2  C   UNL     1      24.532  76.255 106.721  1.00  0.00    -0.028 C 
ATOM      3  C   UNL     1      25.487  75.852 105.853  1.00  0.00    -0.077 C 
ATOM      4  C   UNL     1      26.918  75.629 106.286  1.00  0.00     0.039 C 
BRANCH   3   5
ATOM      5  C   UNL     1      25.131  75.667 104.393  1.00  0.00     0.034 C 
BRANCH   5   6
ATOM      6  C   UNL     1      23.624  75.452 104.199  1.00  0.00     0.032 C 
BRANCH   6   7
ATOM      7  C   UNL     1      23.275  73.983 104.167  1.00  0.00    -0.028 C 
ATOM      8  C   UNL     1      20.930  74.332 104.976  1.00  0.00     0.039 C 
ATOM      9  C   UNL     1      22.083  73.463 104.537  1.00  0.00    -0.080 C 
ATOM     10  C   UNL     1      21.912  71.966 104.506  1.00  0.00     0.039 C 
ENDBRANCH   6   7
ENDBRANCH   5   6
ENDBRANCH   3   5
ENDBRANCH   1   2
BRANCH   1  11
ATOM     11  C   UNL     1      24.429  75.229 109.005  1.00  0.00     0.034 C 
BRANCH  11  12
ATOM     12  C   UNL     1      23.034  74.720 108.690  1.00  0.00    -0.077 C 
ATOM     13  C   UNL     1      22.785  73.502 108.155  1.00  0.00    -0.028 C 
ATOM     14  C   UNL     1      21.854  75.607 109.001  1.00  0.00     0.039 C 
BRANCH  13  15
ATOM     15  C   UNL     1      23.829  72.487 107.744  1.00  0.00     0.035 C 
BRANCH  15  16
ATOM     16  C   UNL     1      23.919  71.330 108.750  1.00  0.00     0.079 C 
BRANCH  16  17
ATOM     17  C   UNL     1      25.021  71.538 109.756  1.00  0.00     0.130 C 
ATOM     18  O   UNL     1      26.054  72.095 109.422  1.00  0.00    -0.300 OA
ATOM     19  C   UNL     1      24.852  71.078 111.171  1.00  0.00     0.087 C 
ENDBRANCH  16  17
ENDBRANCH  15  16
ENDBRANCH  13  15
ENDBRANCH  11  12
ENDBRANCH   1  11
TORSDOF 9
ENDMDL
MODEL 6
REMARK VINA RESULT:    -4.032      2.805      6.233
REMARK INTER + INTRA:          -8.625
REMARK INTER:                  -6.313
REMARK INTRA:                  -2.312
REMARK UNBOUND:                -2.471
REMARK SMILES CC(=O)CCC=C(C)CCC=C(C)CCC=C(C)C
REMARK SMILES IDX 10 1 11 2 12 3 13 4 14 5 15 6 16 7 18 8 17 9 19 10 9 11 7 12
REMARK SMILES IDX 6 13 8 14 5 15 4 16 2 17 3 18 1 19
REMARK H PARENT
REMARK Flexibility Score: inf
ROOT
ATOM      1  C   UNL     1      35.511  69.306 106.888  1.00  0.00     0.032 C 
ENDROOT
BRANCH   1   2
ATOM      2  C   UNL     1      34.835  68.913 105.598  1.00  0.00    -0.028 C 
ATOM      3  C   UNL     1      35.089  69.484 104.399  1.00  0.00    -0.077 C 
ATOM      4  C   UNL     1      36.074  70.621 104.247  1.00  0.00     0.039 C 
BRANCH   3   5
ATOM      5  C   UNL     1      34.332  69.008 103.177  1.00  0.00     0.034 C 
BRANCH   5   6
ATOM      6  C   UNL     1      32.852  68.749 103.491  1.00  0.00     0.032 C 
BRANCH   6   7
ATOM      7  C   UNL     1      32.372  67.459 102.866  1.00  0.00    -0.028 C 
ATOM      8  C   UNL     1      32.313  66.212 105.037  1.00  0.00     0.039 C 
ATOM      9  C   UNL     1      32.152  66.309 103.540  1.00  0.00    -0.080 C 
ATOM     10  C   UNL     1      31.733  65.089 102.760  1.00  0.00     0.039 C 
ENDBRANCH   6   7
ENDBRANCH   5   6
ENDBRANCH   3   5
ENDBRANCH   1   2
BRANCH   1  11
ATOM     11  C   UNL     1      34.559  70.113 107.781  1.00  0.00     0.034 C 
BRANCH  11  12
ATOM     12  C   UNL     1      34.640  71.598 107.476  1.00  0.00    -0.077 C 
ATOM     13  C   UNL     1      33.741  72.253 106.705  1.00  0.00    -0.028 C 
ATOM     14  C   UNL     1      35.771  72.398 108.073  1.00  0.00     0.039 C 
BRANCH  13  15
ATOM     15  C   UNL     1      32.562  71.624 105.995  1.00  0.00     0.035 C 
BRANCH  15  16
ATOM     16  C   UNL     1      31.235  71.971 106.686  1.00  0.00     0.079 C 
BRANCH  16  17
ATOM     17  C   UNL     1      30.353  70.761 106.857  1.00  0.00     0.130 C 
ATOM     18  O   UNL     1      29.190  70.899 107.200  1.00  0.00    -0.300 OA
ATOM     19  C   UNL     1      30.891  69.388 106.597  1.00  0.00     0.087 C 
ENDBRANCH  16  17
ENDBRANCH  15  16
ENDBRANCH  13  15
ENDBRANCH  11  12
ENDBRANCH   1  11
TORSDOF 9
ENDMDL
MODEL 7
REMARK VINA RESULT:    -4.029     10.127     12.836
REMARK INTER + INTRA:          -8.619
REMARK INTER:                  -6.619
REMARK INTRA:                  -2.000
REMARK UNBOUND:                -2.471
REMARK SMILES CC(=O)CCC=C(C)CCC=C(C)CCC=C(C)C
REMARK SMILES IDX 10 1 11 2 12 3 13 4 14 5 15 6 16 7 18 8 17 9 19 10 9 11 7 12
REMARK SMILES IDX 6 13 8 14 5 15 4 16 2 17 3 18 1 19
REMARK H PARENT
REMARK Flexibility Score: inf
ROOT
ATOM      1  C   UNL     1      22.367  76.154 105.041  1.00  0.00     0.032 C 
ENDROOT
BRANCH   1   2
ATOM      2  C   UNL     1      22.158  74.829 105.729  1.00  0.00    -0.028 C 
ATOM      3  C   UNL     1      22.444  73.629 105.177  1.00  0.00    -0.077 C 
ATOM      4  C   UNL     1      22.978  73.503 103.769  1.00  0.00     0.039 C 
BRANCH   3   5
ATOM      5  C   UNL     1      22.175  72.366 105.970  1.00  0.00     0.034 C 
BRANCH   5   6
ATOM      6  C   UNL     1      20.752  71.840 105.737  1.00  0.00     0.032 C 
BRANCH   6   7
ATOM      7  C   UNL     1      20.754  70.615 104.852  1.00  0.00    -0.028 C 
ATOM      8  C   UNL     1      18.372  70.023 105.350  1.00  0.00     0.039 C 
ATOM      9  C   UNL     1      19.706  69.778 104.689  1.00  0.00    -0.080 C 
ATOM     10  C   UNL     1      19.887  68.562 103.817  1.00  0.00     0.039 C 
ENDBRANCH   6   7
ENDBRANCH   5   6
ENDBRANCH   3   5
ENDBRANCH   1   2
BRANCH   1  11
ATOM     11  C   UNL     1      23.662  76.822 105.521  1.00  0.00     0.034 C 
BRANCH  11  12
ATOM     12  C   UNL     1      24.841  76.439 104.645  1.00  0.00    -0.077 C 
ATOM     13  C   UNL     1      25.956  75.833 105.115  1.00  0.00    -0.028 C 
ATOM     14  C   UNL     1      24.769  76.733 103.167  1.00  0.00     0.039 C 
BRANCH  13  15
ATOM     15  C   UNL     1      26.231  75.488 106.562  1.00  0.00     0.035 C 
BRANCH  15  16
ATOM     16  C   UNL     1      25.677  74.103 106.928  1.00  0.00     0.079 C 
BRANCH  16  17
ATOM     17  C   UNL     1      25.086  74.077 108.314  1.00  0.00     0.130 C 
ATOM     18  O   UNL     1      25.286  73.120 109.044  1.00  0.00    -0.300 OA
ATOM     19  C   UNL     1      24.263  75.226 108.808  1.00  0.00     0.087 C 
ENDBRANCH  16  17
ENDBRANCH  15  16
ENDBRANCH  13  15
ENDBRANCH  11  12
ENDBRANCH   1  11
TORSDOF 9
ENDMDL
MODEL 8
REMARK VINA RESULT:    -3.975     10.435     12.929
REMARK INTER + INTRA:          -8.538
REMARK INTER:                  -6.613
REMARK INTRA:                  -1.925
REMARK UNBOUND:                -2.471
REMARK SMILES CC(=O)CCC=C(C)CCC=C(C)CCC=C(C)C
REMARK SMILES IDX 10 1 11 2 12 3 13 4 14 5 15 6 16 7 18 8 17 9 19 10 9 11 7 12
REMARK SMILES IDX 6 13 8 14 5 15 4 16 2 17 3 18 1 19
REMARK H PARENT
REMARK Flexibility Score: inf
ROOT
ATOM      1  C   UNL     1      29.437  60.802 102.923  1.00  0.00     0.032 C 
ENDROOT
BRANCH   1   2
ATOM      2  C   UNL     1      28.938  60.255 101.609  1.00  0.00    -0.028 C 
ATOM      3  C   UNL     1      29.501  59.217 100.951  1.00  0.00    -0.077 C 
ATOM      4  C   UNL     1      30.735  58.515 101.471  1.00  0.00     0.039 C 
BRANCH   3   5
ATOM      5  C   UNL     1      28.912  58.770  99.629  1.00  0.00     0.034 C 
BRANCH   5   6
ATOM      6  C   UNL     1      29.686  59.350  98.438  1.00  0.00     0.032 C 
BRANCH   6   7
ATOM      7  C   UNL     1      28.939  60.497  97.798  1.00  0.00    -0.028 C 
ATOM      8  C   UNL     1      30.375  62.261  98.847  1.00  0.00     0.039 C 
ATOM      9  C   UNL     1      29.218  61.805  97.992  1.00  0.00    -0.080 C 
ATOM     10  C   UNL     1      28.337  62.832  97.329  1.00  0.00     0.039 C 
ENDBRANCH   6   7
ENDBRANCH   5   6
ENDBRANCH   3   5
ENDBRANCH   1   2
BRANCH   1  11
ATOM     11  C   UNL     1      28.349  60.713 104.001  1.00  0.00     0.034 C 
BRANCH  11  12
ATOM     12  C   UNL     1      27.986  59.270 104.304  1.00  0.00    -0.077 C 
ATOM     13  C   UNL     1      26.813  58.702 103.943  1.00  0.00    -0.028 C 
ATOM     14  C   UNL     1      28.989  58.412 105.036  1.00  0.00     0.039 C 
BRANCH  13  15
ATOM     15  C   UNL     1      25.673  59.402 103.236  1.00  0.00     0.035 C 
BRANCH  15  16
ATOM     16  C   UNL     1      24.429  59.504 104.131  1.00  0.00     0.079 C 
BRANCH  16  17
ATOM     17  C   UNL     1      24.332  60.843 104.815  1.00  0.00     0.130 C 
ATOM     18  O   UNL     1      23.801  60.930 105.911  1.00  0.00    -0.300 OA
ATOM     19  C   UNL     1      24.895  62.069 104.165  1.00  0.00     0.087 C 
ENDBRANCH  16  17
ENDBRANCH  15  16
ENDBRANCH  13  15
ENDBRANCH  11  12
ENDBRANCH   1  11
TORSDOF 9
ENDMDL
MODEL 9
REMARK VINA RESULT:    -3.958      2.672      5.458
REMARK INTER + INTRA:          -8.511
REMARK INTER:                  -5.997
REMARK INTRA:                  -2.513
REMARK UNBOUND:                -2.471
REMARK SMILES CC(=O)CCC=C(C)CCC=C(C)CCC=C(C)C
REMARK SMILES IDX 10 1 11 2 12 3 13 4 14 5 15 6 16 7 18 8 17 9 19 10 9 11 7 12
REMARK SMILES IDX 6 13 8 14 5 15 4 16 2 17 3 18 1 19
REMARK H PARENT
REMARK Flexibility Score: inf
ROOT
ATOM      1  C   UNL     1      35.429  71.319 104.906  1.00  0.00     0.032 C 
ENDROOT
BRANCH   1   2
ATOM      2  C   UNL     1      33.975  71.424 105.291  1.00  0.00    -0.028 C 
ATOM      3  C   UNL     1      33.532  71.870 106.488  1.00  0.00    -0.077 C 
ATOM      4  C   UNL     1      34.481  72.280 107.590  1.00  0.00     0.039 C 
BRANCH   3   5
ATOM      5  C   UNL     1      32.042  71.915 106.756  1.00  0.00     0.034 C 
BRANCH   5   6
ATOM      6  C   UNL     1      31.251  71.125 105.705  1.00  0.00     0.032 C 
BRANCH   6   7
ATOM      7  C   UNL     1      30.854  69.761 106.221  1.00  0.00    -0.028 C 
ATOM      8  C   UNL     1      30.973  68.669 103.970  1.00  0.00     0.039 C 
ATOM      9  C   UNL     1      30.700  68.659 105.454  1.00  0.00    -0.080 C 
ATOM     10  C   UNL     1      30.240  67.385 106.114  1.00  0.00     0.039 C 
ENDBRANCH   6   7
ENDBRANCH   5   6
ENDBRANCH   3   5
ENDBRANCH   1   2
BRANCH   1  11
ATOM     11  C   UNL     1      35.948  69.891 105.114  1.00  0.00     0.034 C 
BRANCH  11  12
ATOM     12  C   UNL     1      34.920  68.860 104.684  1.00  0.00    -0.077 C 
ATOM     13  C   UNL     1      34.363  67.962 105.529  1.00  0.00    -0.028 C 
ATOM     14  C   UNL     1      34.479  68.836 103.241  1.00  0.00     0.039 C 
BRANCH  13  15
ATOM     15  C   UNL     1      34.696  67.805 106.997  1.00  0.00     0.035 C 
BRANCH  15  16
ATOM     16  C   UNL     1      33.600  68.401 107.892  1.00  0.00     0.079 C 
BRANCH  16  17
ATOM     17  C   UNL     1      33.039  67.385 108.853  1.00  0.00     0.130 C 
ATOM     18  O   UNL     1      32.642  66.308 108.438  1.00  0.00    -0.300 OA
ATOM     19  C   UNL     1      32.974  67.683 110.319  1.00  0.00     0.087 C 
ENDBRANCH  16  17
ENDBRANCH  15  16
ENDBRANCH  13  15
ENDBRANCH  11  12
ENDBRANCH   1  11
TORSDOF 9
ENDMDL
