MODEL 1
REMARK VINA RESULT:    -5.207      0.000      0.000
REMARK INTER + INTRA:          -5.359
REMARK INTER:                  -5.359
REMARK INTRA:                   0.000
REMARK UNBOUND:                 0.000
REMARK SMILES Cc1cccc(O)c1C
REMARK SMILES IDX 1 1 2 2 8 3 6 4 5 5 4 6 3 7 9 8 7 9
REMARK H PARENT 7 10
REMARK Flexibility Score: inf
ROOT
ATOM      1  C   UNL     1     -11.182  -7.653  -6.074  1.00  0.00     0.045 C 
ATOM      2  C   UNL     1     -11.106  -6.293  -6.719  1.00  0.00    -0.045 A 
ATOM      3  C   UNL     1     -11.609  -5.136  -6.069  1.00  0.00    -0.006 A 
ATOM      4  C   UNL     1     -11.493  -3.880  -6.706  1.00  0.00     0.118 A 
ATOM      5  C   UNL     1     -10.926  -3.792  -7.984  1.00  0.00     0.046 A 
ATOM      6  C   UNL     1     -10.464  -4.936  -8.631  1.00  0.00     0.004 A 
ATOM      7  C   UNL     1     -10.552  -6.178  -8.004  1.00  0.00     0.004 A 
ATOM      8  C   UNL     1     -12.210  -5.228  -4.686  1.00  0.00     0.048 C 
ENDROOT
BRANCH   4   9
ATOM      9  O   UNL     1     -11.940  -2.721  -6.071  1.00  0.00    -0.508 OA
ATOM     10  H   UNL     1     -11.931  -1.822  -6.537  1.00  0.00     0.293 HD
ENDBRANCH   4   9
TORSDOF 1
ENDMDL
MODEL 2
REMARK VINA RESULT:    -4.998      1.818      2.722
REMARK INTER + INTRA:          -5.144
REMARK INTER:                  -5.144
REMARK INTRA:                   0.000
REMARK UNBOUND:                 0.000
REMARK SMILES Cc1cccc(O)c1C
REMARK SMILES IDX 1 1 2 2 8 3 6 4 5 5 4 6 3 7 9 8 7 9
REMARK H PARENT 7 10
REMARK Flexibility Score: inf
ROOT
ATOM      1  C   UNL     1     -12.620  -5.165  -4.729  1.00  0.00     0.045 C 
ATOM      2  C   UNL     1     -11.915  -4.998  -6.051  1.00  0.00    -0.045 A 
ATOM      3  C   UNL     1     -10.875  -5.876  -6.451  1.00  0.00    -0.006 A 
ATOM      4  C   UNL     1     -10.261  -5.692  -7.710  1.00  0.00     0.118 A 
ATOM      5  C   UNL     1     -10.651  -4.626  -8.531  1.00  0.00     0.046 A 
ATOM      6  C   UNL     1     -11.652  -3.748  -8.119  1.00  0.00     0.004 A 
ATOM      7  C   UNL     1     -12.281  -3.932  -6.888  1.00  0.00     0.004 A 
ATOM      8  C   UNL     1     -10.461  -7.032  -5.572  1.00  0.00     0.048 C 
ENDROOT
BRANCH   4   9
ATOM      9  O   UNL     1      -9.265  -6.566  -8.146  1.00  0.00    -0.508 OA
ATOM     10  H   UNL     1      -8.925  -6.553  -9.100  1.00  0.00     0.293 HD
ENDBRANCH   4   9
TORSDOF 1
ENDMDL
MODEL 3
REMARK VINA RESULT:    -4.824     12.950     14.300
REMARK INTER + INTRA:          -4.965
REMARK INTER:                  -4.965
REMARK INTRA:                   0.000
REMARK UNBOUND:                 0.000
REMARK SMILES Cc1cccc(O)c1C
REMARK SMILES IDX 1 1 2 2 8 3 6 4 5 5 4 6 3 7 9 8 7 9
REMARK H PARENT 7 10
REMARK Flexibility Score: inf
ROOT
ATOM      1  C   UNL     1      -2.414 -13.683  -5.815  1.00  0.00     0.045 C 
ATOM      2  C   UNL     1      -1.705 -13.732  -4.486  1.00  0.00    -0.045 A 
ATOM      3  C   UNL     1      -0.303 -13.536  -4.387  1.00  0.00    -0.006 A 
ATOM      4  C   UNL     1       0.311 -13.568  -3.115  1.00  0.00     0.118 A 
ATOM      5  C   UNL     1      -0.455 -13.835  -1.973  1.00  0.00     0.046 A 
ATOM      6  C   UNL     1      -1.827 -14.058  -2.080  1.00  0.00     0.004 A 
ATOM      7  C   UNL     1      -2.449 -14.007  -3.327  1.00  0.00     0.004 A 
ATOM      8  C   UNL     1       0.523 -13.237  -5.615  1.00  0.00     0.048 C 
ENDROOT
BRANCH   4   9
ATOM      9  O   UNL     1       1.680 -13.337  -2.984  1.00  0.00    -0.508 OA
ATOM     10  H   UNL     1       2.176 -12.711  -3.607  1.00  0.00     0.293 HD
ENDBRANCH   4   9
TORSDOF 1
ENDMDL
MODEL 4
REMARK VINA RESULT:    -4.610      1.275      2.744
REMARK INTER + INTRA:          -4.745
REMARK INTER:                  -4.745
REMARK INTRA:                   0.000
REMARK UNBOUND:                 0.000
REMARK SMILES Cc1cccc(O)c1C
REMARK SMILES IDX 1 1 2 2 8 3 6 4 5 5 4 6 3 7 9 8 7 9
REMARK H PARENT 7 10
REMARK Flexibility Score: inf
ROOT
ATOM      1  C   UNL     1      -9.118  -6.565  -6.860  1.00  0.00     0.045 C 
ATOM      2  C   UNL     1     -10.352  -5.800  -6.455  1.00  0.00    -0.045 A 
ATOM      3  C   UNL     1     -10.955  -4.853  -7.324  1.00  0.00    -0.006 A 
ATOM      4  C   UNL     1     -12.124  -4.178  -6.907  1.00  0.00     0.118 A 
ATOM      5  C   UNL     1     -12.652  -4.414  -5.631  1.00  0.00     0.046 A 
ATOM      6  C   UNL     1     -12.037  -5.321  -4.770  1.00  0.00     0.004 A 
ATOM      7  C   UNL     1     -10.896  -6.011  -5.178  1.00  0.00     0.004 A 
ATOM      8  C   UNL     1     -10.392  -4.606  -8.704  1.00  0.00     0.048 C 
ENDROOT
BRANCH   4   9
ATOM      9  O   UNL     1     -12.759  -3.274  -7.757  1.00  0.00    -0.508 OA
ATOM     10  H   UNL     1     -12.568  -2.280  -7.715  1.00  0.00     0.293 HD
ENDBRANCH   4   9
TORSDOF 1
ENDMDL
MODEL 5
REMARK VINA RESULT:    -4.585      1.516      2.640
REMARK INTER + INTRA:          -4.719
REMARK INTER:                  -4.719
REMARK INTRA:                   0.000
REMARK UNBOUND:                 0.000
REMARK SMILES Cc1cccc(O)c1C
REMARK SMILES IDX 1 1 2 2 8 3 6 4 5 5 4 6 3 7 9 8 7 9
REMARK H PARENT 7 10
REMARK Flexibility Score: inf
ROOT
ATOM      1  C   UNL     1     -11.025  -4.938  -9.135  1.00  0.00     0.045 C 
ATOM      2  C   UNL     1     -10.708  -5.309  -7.709  1.00  0.00    -0.045 A 
ATOM      3  C   UNL     1     -11.436  -4.762  -6.621  1.00  0.00    -0.006 A 
ATOM      4  C   UNL     1     -11.115  -5.160  -5.304  1.00  0.00     0.118 A 
ATOM      5  C   UNL     1     -10.059  -6.053  -5.079  1.00  0.00     0.046 A 
ATOM      6  C   UNL     1      -9.327  -6.563  -6.150  1.00  0.00     0.004 A 
ATOM      7  C   UNL     1      -9.648  -6.195  -7.456  1.00  0.00     0.004 A 
ATOM      8  C   UNL     1     -12.581  -3.808  -6.863  1.00  0.00     0.048 C 
ENDROOT
BRANCH   4   9
ATOM      9  O   UNL     1     -11.842  -4.668  -4.221  1.00  0.00    -0.508 OA
ATOM     10  H   UNL     1     -11.946  -5.201  -3.365  1.00  0.00     0.293 HD
ENDBRANCH   4   9
TORSDOF 1
ENDMDL
MODEL 6
REMARK VINA RESULT:    -4.494     12.470     13.840
REMARK INTER + INTRA:          -4.626
REMARK INTER:                  -4.626
REMARK INTRA:                   0.000
REMARK UNBOUND:                 0.000
REMARK SMILES Cc1cccc(O)c1C
REMARK SMILES IDX 1 1 2 2 8 3 6 4 5 5 4 6 3 7 9 8 7 9
REMARK H PARENT 7 10
REMARK Flexibility Score: inf
ROOT
ATOM      1  C   UNL     1       0.416 -13.392  -6.136  1.00  0.00     0.045 C 
ATOM      2  C   UNL     1      -0.141 -13.483  -4.738  1.00  0.00    -0.045 A 
ATOM      3  C   UNL     1      -1.522 -13.290  -4.477  1.00  0.00    -0.006 A 
ATOM      4  C   UNL     1      -1.998 -13.409  -3.152  1.00  0.00     0.118 A 
ATOM      5  C   UNL     1      -1.104 -13.672  -2.106  1.00  0.00     0.046 A 
ATOM      6  C   UNL     1       0.257 -13.828  -2.365  1.00  0.00     0.004 A 
ATOM      7  C   UNL     1       0.736 -13.736  -3.671  1.00  0.00     0.004 A 
ATOM      8  C   UNL     1      -2.490 -13.018  -5.604  1.00  0.00     0.048 C 
ENDROOT
BRANCH   4   9
ATOM      9  O   UNL     1      -3.357 -13.265  -2.873  1.00  0.00    -0.508 OA
ATOM     10  H   UNL     1      -4.017 -14.017  -3.039  1.00  0.00     0.293 HD
ENDBRANCH   4   9
TORSDOF 1
ENDMDL
MODEL 7
REMARK VINA RESULT:    -4.214      2.030      3.773
REMARK INTER + INTRA:          -4.337
REMARK INTER:                  -4.337
REMARK INTRA:                   0.000
REMARK UNBOUND:                 0.000
REMARK SMILES Cc1cccc(O)c1C
REMARK SMILES IDX 1 1 2 2 8 3 6 4 5 5 4 6 3 7 9 8 7 9
REMARK H PARENT 7 10
REMARK Flexibility Score: inf
ROOT
ATOM      1  C   UNL     1     -11.290  -3.612  -8.273  1.00  0.00     0.045 C 
ATOM      2  C   UNL     1     -11.606  -4.626  -7.204  1.00  0.00    -0.045 A 
ATOM      3  C   UNL     1     -10.908  -5.859  -7.123  1.00  0.00    -0.006 A 
ATOM      4  C   UNL     1     -11.227  -6.767  -6.088  1.00  0.00     0.118 A 
ATOM      5  C   UNL     1     -12.251  -6.465  -5.181  1.00  0.00     0.046 A 
ATOM      6  C   UNL     1     -12.955  -5.267  -5.285  1.00  0.00     0.004 A 
ATOM      7  C   UNL     1     -12.635  -4.352  -6.288  1.00  0.00     0.004 A 
ATOM      8  C   UNL     1      -9.797  -6.180  -8.093  1.00  0.00     0.048 C 
ENDROOT
BRANCH   4   9
ATOM      9  O   UNL     1     -10.528  -7.967  -5.961  1.00  0.00    -0.508 OA
ATOM     10  H   UNL     1     -10.428  -8.610  -6.738  1.00  0.00     0.293 HD
ENDBRANCH   4   9
TORSDOF 1
ENDMDL
MODEL 8
REMARK VINA RESULT:    -4.163      1.768      2.840
REMARK INTER + INTRA:          -4.285
REMARK INTER:                  -4.285
REMARK INTRA:                   0.000
REMARK UNBOUND:                 0.000
REMARK SMILES Cc1cccc(O)c1C
REMARK SMILES IDX 1 1 2 2 8 3 6 4 5 5 4 6 3 7 9 8 7 9
REMARK H PARENT 7 10
REMARK Flexibility Score: inf
ROOT
ATOM      1  C   UNL     1     -12.652  -5.119  -4.714  1.00  0.00     0.045 C 
ATOM      2  C   UNL     1     -11.498  -5.502  -5.604  1.00  0.00    -0.045 A 
ATOM      3  C   UNL     1     -11.355  -4.958  -6.908  1.00  0.00    -0.006 A 
ATOM      4  C   UNL     1     -10.242  -5.332  -7.694  1.00  0.00     0.118 A 
ATOM      5  C   UNL     1      -9.317  -6.261  -7.203  1.00  0.00     0.046 A 
ATOM      6  C   UNL     1      -9.480  -6.816  -5.935  1.00  0.00     0.004 A 
ATOM      7  C   UNL     1     -10.561  -6.439  -5.140  1.00  0.00     0.004 A 
ATOM      8  C   UNL     1     -12.346  -3.948  -7.434  1.00  0.00     0.048 C 
ENDROOT
BRANCH   4   9
ATOM      9  O   UNL     1     -10.056  -4.781  -8.962  1.00  0.00    -0.508 OA
ATOM     10  H   UNL     1     -10.420  -3.867  -9.203  1.00  0.00     0.293 HD
ENDBRANCH   4   9
TORSDOF 1
ENDMDL
MODEL 9
REMARK VINA RESULT:    -4.106      7.075      8.215
REMARK INTER + INTRA:          -4.226
REMARK INTER:                  -4.226
REMARK INTRA:                   0.000
REMARK UNBOUND:                 0.000
REMARK SMILES Cc1cccc(O)c1C
REMARK SMILES IDX 1 1 2 2 8 3 6 4 5 5 4 6 3 7 9 8 7 9
REMARK H PARENT 7 10
REMARK Flexibility Score: inf
ROOT
ATOM      1  C   UNL     1      -8.646 -13.341  -7.409  1.00  0.00     0.045 C 
ATOM      2  C   UNL     1      -7.895 -12.195  -6.783  1.00  0.00    -0.045 A 
ATOM      3  C   UNL     1      -6.569 -11.876  -7.174  1.00  0.00    -0.006 A 
ATOM      4  C   UNL     1      -5.916 -10.776  -6.573  1.00  0.00     0.118 A 
ATOM      5  C   UNL     1      -6.562 -10.040  -5.571  1.00  0.00     0.046 A 
ATOM      6  C   UNL     1      -7.852 -10.377  -5.169  1.00  0.00     0.004 A 
ATOM      7  C   UNL     1      -8.516 -11.446  -5.770  1.00  0.00     0.004 A 
ATOM      8  C   UNL     1      -5.876 -12.662  -8.261  1.00  0.00     0.048 C 
ENDROOT
BRANCH   4   9
ATOM      9  O   UNL     1      -4.628 -10.417  -6.968  1.00  0.00    -0.508 OA
ATOM     10  H   UNL     1      -3.806 -10.840  -6.554  1.00  0.00     0.293 HD
ENDBRANCH   4   9
TORSDOF 1
ENDMDL
