MODEL 1
REMARK VINA RESULT:    -3.511      0.000      0.000
REMARK INTER + INTRA:          -5.340
REMARK INTER:                  -5.358
REMARK INTRA:                   0.019
REMARK UNBOUND:                 0.019
REMARK SMILES CC1=CCC[C@@H](C)C(=O)C[C@@H](C(C)C)C(=O)C1
REMARK SMILES IDX 8 1 9 2 6 3 7 4 5 5 4 6 3 7 2 8 1 9 10 11 11 12 15 13 16 14
REMARK SMILES IDX 17 15 12 17 13 18 14 19
REMARK H PARENT
REMARK Flexibility Score: 70.00
ROOT
ATOM      1  C   UNL     1      -5.044  -3.755   1.615  1.00  0.00     0.136 C 
ATOM      2  O   UNL     1      -5.703  -3.448   0.632  1.00  0.00    -0.299 OA
ENDROOT
BRANCH   1   3
ATOM      3  C   UNL     1      -3.868  -2.879   2.015  1.00  0.00     0.053 C 
ATOM      4  C   UNL     1      -3.594  -1.865   0.896  1.00  0.00     0.016 C 
BRANCH   3   5
ATOM      5  C   UNL     1      -2.586  -3.693   2.343  1.00  0.00     0.015 C 
BRANCH   5   6
ATOM      6  C   UNL     1      -2.375  -4.048   3.829  1.00  0.00     0.028 C 
BRANCH   6   7
ATOM      7  C   UNL     1      -3.159  -3.245   4.839  1.00  0.00    -0.028 C 
ATOM      8  C   UNL     1      -4.204  -3.689   5.573  1.00  0.00    -0.070 CG0
ATOM      9  C   UNL     1      -4.658  -2.824   6.725  1.00  0.00     0.039 C 
ATOM     10  G   UNL     1      -4.926  -5.001   5.312  1.00  0.00     0.000 G0
ENDBRANCH   6   7
ENDBRANCH   5   6
ENDBRANCH   3   5
ENDBRANCH   1   3
BRANCH   1  11
ATOM     11  C   UNL     1      -5.335  -5.067   2.319  1.00  0.00     0.087 C 
BRANCH  11  12
ATOM     12  C   UNL     1      -6.586  -5.071   3.247  1.00  0.00     0.066 C 
BRANCH  12  13
ATOM     13  C   UNL     1      -6.276  -4.768   4.707  1.00  0.00     0.140 C 
ATOM     14  O   UNL     1      -7.191  -4.380   5.419  1.00  0.00    -0.299 OA
BRANCH  13  15
ATOM     15  C   UNL     1      -4.917  -5.007   5.331  1.00  0.00     0.106 CG0
ATOM     16  G   UNL     1      -4.198  -3.688   5.568  1.00  0.00     0.000 G0
ENDBRANCH  13  15
ENDBRANCH  12  13
BRANCH  12  17
ATOM     17  C   UNL     1      -7.407  -6.392   3.109  1.00  0.00    -0.006 C 
ATOM     18  C   UNL     1      -8.646  -6.208   2.212  1.00  0.00     0.008 C 
ATOM     19  C   UNL     1      -6.549  -7.536   2.538  1.00  0.00     0.008 C 
ENDBRANCH  12  17
ENDBRANCH  11  12
ENDBRANCH   1  11
TORSDOF 1
ENDMDL
MODEL 2
REMARK VINA RESULT:    -3.140     10.675     12.413
REMARK INTER + INTRA:          -4.774
REMARK INTER:                  -4.997
REMARK INTRA:                   0.224
REMARK UNBOUND:                 0.019
REMARK SMILES CC1=CCC[C@@H](C)C(=O)C[C@@H](C(C)C)C(=O)C1
REMARK SMILES IDX 8 1 9 2 6 3 7 4 5 5 4 6 3 7 2 8 1 9 10 11 11 12 15 13 16 14
REMARK SMILES IDX 17 15 12 17 13 18 14 19
REMARK H PARENT
REMARK Flexibility Score: 70.00
ROOT
ATOM      1  C   UNL     1       5.050  -8.115  -4.525  1.00  0.00     0.136 C 
ATOM      2  O   UNL     1       5.696  -8.628  -5.428  1.00  0.00    -0.299 OA
ENDROOT
BRANCH   1   3
ATOM      3  C   UNL     1       5.790  -7.527  -3.334  1.00  0.00     0.053 C 
ATOM      4  C   UNL     1       5.918  -8.598  -2.244  1.00  0.00     0.016 C 
BRANCH   3   5
ATOM      5  C   UNL     1       5.113  -6.247  -2.769  1.00  0.00     0.015 C 
BRANCH   5   6
ATOM      6  C   UNL     1       5.262  -4.973  -3.625  1.00  0.00     0.028 C 
BRANCH   6   7
ATOM      7  C   UNL     1       4.238  -3.884  -3.410  1.00  0.00    -0.028 C 
ATOM      8  C   UNL     1       3.051  -3.769  -4.047  1.00  0.00    -0.070 CG0
ATOM      9  C   UNL     1       2.056  -2.782  -3.484  1.00  0.00     0.039 C 
ATOM     10  G   UNL     1       2.667  -4.579  -5.275  1.00  0.00     0.000 G0
ENDBRANCH   6   7
ENDBRANCH   5   6
ENDBRANCH   3   5
ENDBRANCH   1   3
BRANCH   1  11
ATOM     11  C   UNL     1       3.537  -8.203  -4.558  1.00  0.00     0.087 C 
BRANCH  11  12
ATOM     12  C   UNL     1       2.825  -7.240  -5.555  1.00  0.00     0.066 C 
BRANCH  12  13
ATOM     13  C   UNL     1       2.245  -5.992  -4.903  1.00  0.00     0.140 C 
ATOM     14  O   UNL     1       1.459  -6.141  -3.979  1.00  0.00    -0.299 OA
BRANCH  13  15
ATOM     15  C   UNL     1       2.662  -4.588  -5.288  1.00  0.00     0.106 CG0
ATOM     16  G   UNL     1       3.029  -3.782  -4.053  1.00  0.00     0.000 G0
ENDBRANCH  13  15
ENDBRANCH  12  13
BRANCH  12  17
ATOM     17  C   UNL     1       1.749  -7.981  -6.411  1.00  0.00    -0.006 C 
ATOM     18  C   UNL     1       0.873  -6.997  -7.209  1.00  0.00     0.008 C 
ATOM     19  C   UNL     1       2.393  -8.979  -7.392  1.00  0.00     0.008 C 
ENDBRANCH  12  17
ENDBRANCH  11  12
ENDBRANCH   1  11
TORSDOF 1
ENDMDL
MODEL 3
REMARK VINA RESULT:    -3.134      1.827      4.382
REMARK INTER + INTRA:          -4.764
REMARK INTER:                  -4.662
REMARK INTRA:                  -0.102
REMARK UNBOUND:                 0.019
REMARK SMILES CC1=CCC[C@@H](C)C(=O)C[C@@H](C(C)C)C(=O)C1
REMARK SMILES IDX 8 1 9 2 6 3 7 4 5 5 4 6 3 7 2 8 1 9 10 11 11 12 15 13 16 14
REMARK SMILES IDX 17 15 12 17 13 18 14 19
REMARK H PARENT
REMARK Flexibility Score: 70.00
ROOT
ATOM      1  C   UNL     1      -7.625  -4.667   4.293  1.00  0.00     0.136 C 
ATOM      2  O   UNL     1      -8.749  -4.236   4.508  1.00  0.00    -0.299 OA
ENDROOT
BRANCH   1   3
ATOM      3  C   UNL     1      -7.325  -5.295   2.942  1.00  0.00     0.053 C 
ATOM      4  C   UNL     1      -8.553  -5.147   2.035  1.00  0.00     0.016 C 
BRANCH   3   5
ATOM      5  C   UNL     1      -6.894  -6.784   3.045  1.00  0.00     0.015 C 
BRANCH   5   6
ATOM      6  C   UNL     1      -5.379  -7.056   2.952  1.00  0.00     0.028 C 
BRANCH   6   7
ATOM      7  C   UNL     1      -4.519  -5.941   2.404  1.00  0.00    -0.028 C 
ATOM      8  C   UNL     1      -3.717  -5.126   3.125  1.00  0.00    -0.070 CG0
ATOM      9  C   UNL     1      -2.730  -4.275   2.361  1.00  0.00     0.039 C 
ATOM     10  G   UNL     1      -3.747  -5.033   4.642  1.00  0.00     0.000 G0
ENDBRANCH   6   7
ENDBRANCH   5   6
ENDBRANCH   3   5
ENDBRANCH   1   3
BRANCH   1  11
ATOM     11  C   UNL     1      -6.613  -4.684   5.422  1.00  0.00     0.087 C 
BRANCH  11  12
ATOM     12  C   UNL     1      -5.694  -3.430   5.525  1.00  0.00     0.066 C 
BRANCH  12  13
ATOM     13  C   UNL     1      -4.255  -3.679   5.096  1.00  0.00     0.140 C 
ATOM     14  O   UNL     1      -3.464  -2.750   5.177  1.00  0.00    -0.299 OA
BRANCH  13  15
ATOM     15  C   UNL     1      -3.744  -5.037   4.661  1.00  0.00     0.106 CG0
ATOM     16  G   UNL     1      -3.714  -5.135   3.144  1.00  0.00     0.000 G0
ENDBRANCH  13  15
ENDBRANCH  12  13
BRANCH  12  17
ATOM     17  C   UNL     1      -5.755  -2.780   6.944  1.00  0.00    -0.006 C 
ATOM     18  C   UNL     1      -7.204  -2.615   7.440  1.00  0.00     0.008 C 
ATOM     19  C   UNL     1      -4.969  -3.606   7.980  1.00  0.00     0.008 C 
ENDBRANCH  12  17
ENDBRANCH  11  12
ENDBRANCH   1  11
TORSDOF 1
ENDMDL
MODEL 4
REMARK VINA RESULT:    -2.940      2.020      4.297
REMARK INTER + INTRA:          -4.468
REMARK INTER:                  -4.740
REMARK INTRA:                   0.272
REMARK UNBOUND:                 0.019
REMARK SMILES CC1=CCC[C@@H](C)C(=O)C[C@@H](C(C)C)C(=O)C1
REMARK SMILES IDX 8 1 9 2 6 3 7 4 5 5 4 6 3 7 2 8 1 9 10 11 11 12 15 13 16 14
REMARK SMILES IDX 17 15 12 17 13 18 14 19
REMARK H PARENT
REMARK Flexibility Score: 70.00
ROOT
ATOM      1  C   UNL     1      -6.569  -5.709   3.037  1.00  0.00     0.136 C 
ATOM      2  O   UNL     1      -6.003  -6.782   2.881  1.00  0.00    -0.299 OA
ENDROOT
BRANCH   1   3
ATOM      3  C   UNL     1      -8.085  -5.656   2.935  1.00  0.00     0.053 C 
ATOM      4  C   UNL     1      -8.487  -5.593   1.456  1.00  0.00     0.016 C 
BRANCH   3   5
ATOM      5  C   UNL     1      -8.707  -4.471   3.725  1.00  0.00     0.015 C 
BRANCH   5   6
ATOM      6  C   UNL     1      -8.880  -4.689   5.242  1.00  0.00     0.028 C 
BRANCH   6   7
ATOM      7  C   UNL     1      -8.370  -3.596   6.150  1.00  0.00    -0.028 C 
ATOM      8  C   UNL     1      -7.097  -3.447   6.582  1.00  0.00    -0.070 CG0
ATOM      9  C   UNL     1      -6.740  -2.135   7.240  1.00  0.00     0.039 C 
ATOM     10  G   UNL     1      -6.021  -4.509   6.428  1.00  0.00     0.000 G0
ENDBRANCH   6   7
ENDBRANCH   5   6
ENDBRANCH   3   5
ENDBRANCH   1   3
BRANCH   1  11
ATOM     11  C   UNL     1      -5.737  -4.451   3.189  1.00  0.00     0.087 C 
BRANCH  11  12
ATOM     12  C   UNL     1      -4.552  -4.542   4.197  1.00  0.00     0.066 C 
BRANCH  12  13
ATOM     13  C   UNL     1      -4.869  -3.983   5.578  1.00  0.00     0.140 C 
ATOM     14  O   UNL     1      -4.219  -3.024   5.970  1.00  0.00    -0.299 OA
BRANCH  13  15
ATOM     15  C   UNL     1      -5.999  -4.501   6.442  1.00  0.00     0.106 CG0
ATOM     16  G   UNL     1      -7.084  -3.446   6.592  1.00  0.00     0.000 G0
ENDBRANCH  13  15
ENDBRANCH  12  13
BRANCH  12  17
ATOM     17  C   UNL     1      -3.247  -3.910   3.619  1.00  0.00    -0.006 C 
ATOM     18  C   UNL     1      -2.010  -4.785   3.899  1.00  0.00     0.008 C 
ATOM     19  C   UNL     1      -3.354  -3.677   2.100  1.00  0.00     0.008 C 
ENDBRANCH  12  17
ENDBRANCH  11  12
ENDBRANCH   1  11
TORSDOF 1
ENDMDL
MODEL 5
REMARK VINA RESULT:    -2.904      2.253      5.174
REMARK INTER + INTRA:          -4.413
REMARK INTER:                  -4.770
REMARK INTRA:                   0.357
REMARK UNBOUND:                 0.019
REMARK SMILES CC1=CCC[C@@H](C)C(=O)C[C@@H](C(C)C)C(=O)C1
REMARK SMILES IDX 8 1 9 2 6 3 7 4 5 5 4 6 3 7 2 8 1 9 10 11 11 12 15 13 16 14
REMARK SMILES IDX 17 15 12 17 13 18 14 19
REMARK H PARENT
REMARK Flexibility Score: 70.00
ROOT
ATOM      1  C   UNL     1      -5.567  -3.502   6.324  1.00  0.00     0.136 C 
ATOM      2  O   UNL     1      -4.824  -2.780   6.973  1.00  0.00    -0.299 OA
ENDROOT
BRANCH   1   3
ATOM      3  C   UNL     1      -7.069  -3.285   6.418  1.00  0.00     0.053 C 
ATOM      4  C   UNL     1      -7.404  -2.677   7.787  1.00  0.00     0.016 C 
BRANCH   3   5
ATOM      5  C   UNL     1      -7.888  -4.583   6.178  1.00  0.00     0.015 C 
BRANCH   5   6
ATOM      6  C   UNL     1      -9.113  -4.446   5.252  1.00  0.00     0.028 C 
BRANCH   6   7
ATOM      7  C   UNL     1      -8.838  -4.300   3.774  1.00  0.00    -0.028 C 
ATOM      8  C   UNL     1      -8.093  -5.136   3.017  1.00  0.00    -0.070 CG0
ATOM      9  C   UNL     1      -8.180  -4.973   1.517  1.00  0.00     0.039 C 
ATOM     10  G   UNL     1      -7.196  -6.223   3.586  1.00  0.00     0.000 G0
ENDBRANCH   6   7
ENDBRANCH   5   6
ENDBRANCH   3   5
ENDBRANCH   1   3
BRANCH   1  11
ATOM     11  C   UNL     1      -4.978  -4.671   5.559  1.00  0.00     0.087 C 
BRANCH  11  12
ATOM     12  C   UNL     1      -5.108  -4.598   4.008  1.00  0.00     0.066 C 
BRANCH  12  13
ATOM     13  C   UNL     1      -5.729  -5.838   3.379  1.00  0.00     0.140 C 
ATOM     14  O   UNL     1      -4.994  -6.595   2.760  1.00  0.00    -0.299 OA
BRANCH  13  15
ATOM     15  C   UNL     1      -7.184  -6.218   3.559  1.00  0.00     0.106 CG0
ATOM     16  G   UNL     1      -8.092  -5.132   3.005  1.00  0.00     0.000 G0
ENDBRANCH  13  15
ENDBRANCH  12  13
BRANCH  12  17
ATOM     17  C   UNL     1      -3.749  -4.242   3.328  1.00  0.00    -0.006 C 
ATOM     18  C   UNL     1      -3.942  -3.341   2.092  1.00  0.00     0.008 C 
ATOM     19  C   UNL     1      -2.791  -3.537   4.308  1.00  0.00     0.008 C 
ENDBRANCH  12  17
ENDBRANCH  11  12
ENDBRANCH   1  11
TORSDOF 1
ENDMDL
MODEL 6
REMARK VINA RESULT:    -2.836     11.217     12.645
REMARK INTER + INTRA:          -4.310
REMARK INTER:                  -4.602
REMARK INTRA:                   0.292
REMARK UNBOUND:                 0.019
REMARK SMILES CC1=CCC[C@@H](C)C(=O)C[C@@H](C(C)C)C(=O)C1
REMARK SMILES IDX 8 1 9 2 6 3 7 4 5 5 4 6 3 7 2 8 1 9 10 11 11 12 15 13 16 14
REMARK SMILES IDX 17 15 12 17 13 18 14 19
REMARK H PARENT
REMARK Flexibility Score: 70.00
ROOT
ATOM      1  C   UNL     1       2.067  -5.575  -4.556  1.00  0.00     0.136 C 
ATOM      2  O   UNL     1       1.195  -6.180  -3.949  1.00  0.00    -0.299 OA
ENDROOT
BRANCH   1   3
ATOM      3  C   UNL     1       2.339  -4.122  -4.199  1.00  0.00     0.053 C 
ATOM      4  C   UNL     1       2.251  -3.268  -5.471  1.00  0.00     0.016 C 
BRANCH   3   5
ATOM      5  C   UNL     1       3.707  -3.915  -3.492  1.00  0.00     0.015 C 
BRANCH   5   6
ATOM      6  C   UNL     1       4.838  -4.873  -3.918  1.00  0.00     0.028 C 
BRANCH   6   7
ATOM      7  C   UNL     1       5.289  -5.890  -2.897  1.00  0.00    -0.028 C 
ATOM      8  C   UNL     1       5.582  -7.188  -3.140  1.00  0.00    -0.070 CG0
ATOM      9  C   UNL     1       6.287  -7.954  -2.046  1.00  0.00     0.039 C 
ATOM     10  G   UNL     1       5.255  -7.900  -4.443  1.00  0.00     0.000 G0
ENDBRANCH   6   7
ENDBRANCH   5   6
ENDBRANCH   3   5
ENDBRANCH   1   3
BRANCH   1  11
ATOM     11  C   UNL     1       2.751  -6.248  -5.731  1.00  0.00     0.087 C 
BRANCH  11  12
ATOM     12  C   UNL     1       2.867  -7.799  -5.646  1.00  0.00     0.066 C 
BRANCH  12  13
ATOM     13  C   UNL     1       3.791  -8.293  -4.542  1.00  0.00     0.140 C 
ATOM     14  O   UNL     1       3.340  -9.085  -3.727  1.00  0.00    -0.299 OA
BRANCH  13  15
ATOM     15  C   UNL     1       5.256  -7.916  -4.458  1.00  0.00     0.106 CG0
ATOM     16  G   UNL     1       5.556  -7.223  -3.139  1.00  0.00     0.000 G0
ENDBRANCH  13  15
ENDBRANCH  12  13
BRANCH  12  17
ATOM     17  C   UNL     1       3.248  -8.429  -7.023  1.00  0.00    -0.006 C 
ATOM     18  C   UNL     1       2.020  -9.011  -7.750  1.00  0.00     0.008 C 
ATOM     19  C   UNL     1       3.929  -7.402  -7.947  1.00  0.00     0.008 C 
ENDBRANCH  12  17
ENDBRANCH  11  12
ENDBRANCH   1  11
TORSDOF 1
ENDMDL
MODEL 7
REMARK VINA RESULT:    -2.747      1.551      2.279
REMARK INTER + INTRA:          -4.173
REMARK INTER:                  -4.327
REMARK INTRA:                   0.153
REMARK UNBOUND:                 0.019
REMARK SMILES CC1=CCC[C@@H](C)C(=O)C[C@@H](C(C)C)C(=O)C1
REMARK SMILES IDX 8 1 9 2 6 3 7 4 5 5 4 6 3 7 2 8 1 9 10 11 11 12 15 13 16 14
REMARK SMILES IDX 17 15 12 17 13 18 14 19
REMARK H PARENT
REMARK Flexibility Score: 70.00
ROOT
ATOM      1  C   UNL     1      -4.493  -4.234   2.823  1.00  0.00     0.136 C 
ATOM      2  O   UNL     1      -4.671  -3.822   1.686  1.00  0.00    -0.299 OA
ENDROOT
BRANCH   1   3
ATOM      3  C   UNL     1      -3.259  -3.779   3.585  1.00  0.00     0.053 C 
ATOM      4  C   UNL     1      -2.418  -5.007   3.958  1.00  0.00     0.016 C 
BRANCH   3   5
ATOM      5  C   UNL     1      -3.598  -2.941   4.849  1.00  0.00     0.015 C 
BRANCH   5   6
ATOM      6  C   UNL     1      -4.293  -3.703   5.996  1.00  0.00     0.028 C 
BRANCH   6   7
ATOM      7  C   UNL     1      -5.532  -3.069   6.582  1.00  0.00    -0.028 C 
ATOM      8  C   UNL     1      -6.764  -3.624   6.630  1.00  0.00    -0.070 CG0
ATOM      9  C   UNL     1      -7.792  -2.951   7.510  1.00  0.00     0.039 C 
ATOM     10  G   UNL     1      -7.159  -4.877   5.866  1.00  0.00     0.000 G0
ENDBRANCH   6   7
ENDBRANCH   5   6
ENDBRANCH   3   5
ENDBRANCH   1   3
BRANCH   1  11
ATOM     11  C   UNL     1      -5.431  -5.286   3.383  1.00  0.00     0.087 C 
BRANCH  11  12
ATOM     12  C   UNL     1      -6.952  -5.000   3.201  1.00  0.00     0.066 C 
BRANCH  12  13
ATOM     13  C   UNL     1      -7.653  -4.545   4.474  1.00  0.00     0.140 C 
ATOM     14  O   UNL     1      -8.711  -3.941   4.361  1.00  0.00    -0.299 OA
BRANCH  13  15
ATOM     15  C   UNL     1      -7.149  -4.879   5.862  1.00  0.00     0.106 CG0
ATOM     16  G   UNL     1      -6.764  -3.613   6.610  1.00  0.00     0.000 G0
ENDBRANCH  13  15
ENDBRANCH  12  13
BRANCH  12  17
ATOM     17  C   UNL     1      -7.696  -6.208   2.549  1.00  0.00    -0.006 C 
ATOM     18  C   UNL     1      -8.530  -5.778   1.327  1.00  0.00     0.008 C 
ATOM     19  C   UNL     1      -6.714  -7.312   2.115  1.00  0.00     0.008 C 
ENDBRANCH  12  17
ENDBRANCH  11  12
ENDBRANCH   1  11
TORSDOF 1
ENDMDL
MODEL 8
REMARK VINA RESULT:    -2.316     17.177     19.212
REMARK INTER + INTRA:          -3.516
REMARK INTER:                  -3.943
REMARK INTRA:                   0.426
REMARK UNBOUND:                 0.019
REMARK SMILES CC1=CCC[C@@H](C)C(=O)C[C@@H](C(C)C)C(=O)C1
REMARK SMILES IDX 8 1 9 2 6 3 7 4 5 5 4 6 3 7 2 8 1 9 10 11 11 12 15 13 16 14
REMARK SMILES IDX 17 15 12 17 13 18 14 19
REMARK H PARENT
REMARK Flexibility Score: 70.00
ROOT
ATOM      1  C   UNL     1       8.474   6.710   7.128  1.00  0.00     0.136 C 
ATOM      2  O   UNL     1       8.524   7.746   6.481  1.00  0.00    -0.299 OA
ENDROOT
BRANCH   1   3
ATOM      3  C   UNL     1       8.742   5.390   6.423  1.00  0.00     0.053 C 
ATOM      4  C   UNL     1       7.407   4.777   5.981  1.00  0.00     0.016 C 
BRANCH   3   5
ATOM      5  C   UNL     1       9.545   4.386   7.296  1.00  0.00     0.015 C 
BRANCH   5   6
ATOM      6  C   UNL     1      10.939   4.858   7.756  1.00  0.00     0.028 C 
BRANCH   6   7
ATOM      7  C   UNL     1      11.125   5.093   9.236  1.00  0.00    -0.028 C 
ATOM      8  C   UNL     1      10.977   6.272   9.881  1.00  0.00    -0.070 CG0
ATOM      9  C   UNL     1      10.924   6.233  11.390  1.00  0.00     0.039 C 
ATOM     10  G   UNL     1      10.848   7.613   9.176  1.00  0.00     0.000 G0
ENDBRANCH   6   7
ENDBRANCH   5   6
ENDBRANCH   3   5
ENDBRANCH   1   3
BRANCH   1  11
ATOM     11  C   UNL     1       8.014   6.763   8.572  1.00  0.00     0.087 C 
BRANCH  11  12
ATOM     12  C   UNL     1       8.221   8.126   9.297  1.00  0.00     0.066 C 
BRANCH  12  13
ATOM     13  C   UNL     1       9.663   8.398   9.705  1.00  0.00     0.140 C 
ATOM     14  O   UNL     1       9.866   9.246  10.562  1.00  0.00    -0.299 OA
BRANCH  13  15
ATOM     15  C   UNL     1      10.839   7.611   9.165  1.00  0.00     0.106 CG0
ATOM     16  G   UNL     1      10.963   6.276   9.882  1.00  0.00     0.000 G0
ENDBRANCH  13  15
ENDBRANCH  12  13
BRANCH  12  17
ATOM     17  C   UNL     1       7.252   8.292  10.510  1.00  0.00    -0.006 C 
ATOM     18  C   UNL     1       6.034   9.167  10.158  1.00  0.00     0.008 C 
ATOM     19  C   UNL     1       6.750   6.930  11.025  1.00  0.00     0.008 C 
ENDBRANCH  12  17
ENDBRANCH  11  12
ENDBRANCH   1  11
TORSDOF 1
ENDMDL
MODEL 9
REMARK VINA RESULT:    -2.271     13.460     14.550
REMARK INTER + INTRA:          -3.448
REMARK INTER:                  -3.141
REMARK INTRA:                  -0.306
REMARK UNBOUND:                 0.019
REMARK SMILES CC1=CCC[C@@H](C)C(=O)C[C@@H](C(C)C)C(=O)C1
REMARK SMILES IDX 8 1 9 2 6 3 7 4 5 5 4 6 3 7 2 8 1 9 10 11 11 12 15 13 16 14
REMARK SMILES IDX 17 15 12 17 13 18 14 19
REMARK H PARENT
REMARK Flexibility Score: 70.00
ROOT
ATOM      1  C   UNL     1       8.798  -4.479   4.055  1.00  0.00     0.136 C 
ATOM      2  O   UNL     1       7.744  -4.200   3.503  1.00  0.00    -0.299 OA
ENDROOT
BRANCH   1   3
ATOM      3  C   UNL     1       9.229  -3.672   5.269  1.00  0.00     0.053 C 
ATOM      4  C   UNL     1      10.671  -4.048   5.636  1.00  0.00     0.016 C 
BRANCH   3   5
ATOM      5  C   UNL     1       8.285  -3.857   6.490  1.00  0.00     0.015 C 
BRANCH   5   6
ATOM      6  C   UNL     1       8.507  -5.134   7.325  1.00  0.00     0.028 C 
BRANCH   6   7
ATOM      7  C   UNL     1       7.662  -6.335   6.972  1.00  0.00    -0.028 C 
ATOM      8  C   UNL     1       8.094  -7.464   6.367  1.00  0.00    -0.070 CG0
ATOM      9  C   UNL     1       7.159  -8.650   6.366  1.00  0.00     0.039 C 
ATOM     10  G   UNL     1       9.458  -7.604   5.709  1.00  0.00     0.000 G0
ENDBRANCH   6   7
ENDBRANCH   5   6
ENDBRANCH   3   5
ENDBRANCH   1   3
BRANCH   1  11
ATOM     11  C   UNL     1       9.703  -5.526   3.433  1.00  0.00     0.087 C 
BRANCH  11  12
ATOM     12  C   UNL     1       9.040  -6.907   3.146  1.00  0.00     0.066 C 
BRANCH  12  13
ATOM     13  C   UNL     1       9.304  -7.955   4.219  1.00  0.00     0.140 C 
ATOM     14  O   UNL     1       9.464  -9.113   3.860  1.00  0.00    -0.299 OA
BRANCH  13  15
ATOM     15  C   UNL     1       9.461  -7.617   5.686  1.00  0.00     0.106 CG0
ATOM     16  G   UNL     1       8.102  -7.469   6.350  1.00  0.00     0.000 G0
ENDBRANCH  13  15
ENDBRANCH  12  13
BRANCH  12  17
ATOM     17  C   UNL     1       9.411  -7.445   1.729  1.00  0.00    -0.006 C 
ATOM     18  C   UNL     1       8.160  -7.806   0.905  1.00  0.00     0.008 C 
ATOM     19  C   UNL     1      10.247  -6.425   0.935  1.00  0.00     0.008 C 
ENDBRANCH  12  17
ENDBRANCH  11  12
ENDBRANCH   1  11
TORSDOF 1
ENDMDL
