MODEL 1
REMARK VINA RESULT:    -3.314      0.000      0.000
REMARK INTER + INTRA:          -4.166
REMARK INTER:                  -4.089
REMARK INTRA:                  -0.078
REMARK UNBOUND:                -0.078
REMARK SMILES CCCCCC(=O)[O-]
REMARK SMILES IDX 4 1 5 2 6 3 7 4 8 5 3 6 2 7 1 8
REMARK H PARENT
REMARK Flexibility Score: inf
ROOT
ATOM      1  C   UNL     1     175.397 175.545 151.172  1.00  0.00     0.006 C 
ENDROOT
BRANCH   1   2
ATOM      2  C   UNL     1     175.629 174.032 151.229  1.00  0.00     0.053 C 
BRANCH   2   3
ATOM      3  C   UNL     1     177.086 173.729 151.374  1.00  0.00     0.041 C 
ATOM      4  O   UNL     1     177.890 174.030 150.453  1.00  0.00    -0.550 OA
ATOM      5  O   UNL     1     177.551 173.070 152.504  1.00  0.00    -0.550 OA
ENDBRANCH   2   3
ENDBRANCH   1   2
BRANCH   1   6
ATOM      6  C   UNL     1     173.925 175.865 150.872  1.00  0.00     0.000 C 
BRANCH   6   7
ATOM      7  C   UNL     1     173.668 177.370 150.712  1.00  0.00    -0.003 C 
ATOM      8  C   UNL     1     174.886 178.125 150.180  1.00  0.00     0.004 C 
ENDBRANCH   6   7
ENDBRANCH   1   6
TORSDOF 4
ENDMDL
MODEL 2
REMARK VINA RESULT:    -3.294      0.928      1.692
REMARK INTER + INTRA:          -4.142
REMARK INTER:                  -4.032
REMARK INTRA:                  -0.110
REMARK UNBOUND:                -0.078
REMARK SMILES CCCCCC(=O)[O-]
REMARK SMILES IDX 4 1 5 2 6 3 7 4 8 5 3 6 2 7 1 8
REMARK H PARENT
REMARK Flexibility Score: inf
ROOT
ATOM      1  C   UNL     1     175.439 176.109 151.951  1.00  0.00     0.006 C 
ENDROOT
BRANCH   1   2
ATOM      2  C   UNL     1     175.522 174.869 151.057  1.00  0.00     0.053 C 
BRANCH   2   3
ATOM      3  C   UNL     1     176.809 174.142 151.287  1.00  0.00     0.041 C 
ATOM      4  O   UNL     1     177.085 173.688 152.428  1.00  0.00    -0.550 OA
ATOM      5  O   UNL     1     177.726 174.009 150.253  1.00  0.00    -0.550 OA
ENDBRANCH   2   3
ENDBRANCH   1   2
BRANCH   1   6
ATOM      6  C   UNL     1     175.471 177.395 151.111  1.00  0.00     0.000 C 
BRANCH   6   7
ATOM      7  C   UNL     1     174.125 177.692 150.434  1.00  0.00    -0.003 C 
ATOM      8  C   UNL     1     173.003 177.956 151.438  1.00  0.00     0.004 C 
ENDBRANCH   6   7
ENDBRANCH   1   6
TORSDOF 4
ENDMDL
MODEL 3
REMARK VINA RESULT:    -3.293     19.778     21.221
REMARK INTER + INTRA:          -4.142
REMARK INTER:                  -3.897
REMARK INTRA:                  -0.245
REMARK UNBOUND:                -0.078
REMARK SMILES CCCCCC(=O)[O-]
REMARK SMILES IDX 4 1 5 2 6 3 7 4 8 5 3 6 2 7 1 8
REMARK H PARENT
REMARK Flexibility Score: inf
ROOT
ATOM      1  C   UNL     1     177.778 159.044 164.188  1.00  0.00     0.006 C 
ENDROOT
BRANCH   1   2
ATOM      2  C   UNL     1     176.817 159.948 163.411  1.00  0.00     0.053 C 
BRANCH   2   3
ATOM      3  C   UNL     1     175.454 159.336 163.352  1.00  0.00     0.041 C 
ATOM      4  O   UNL     1     175.285 158.132 163.676  1.00  0.00    -0.550 OA
ATOM      5  O   UNL     1     174.377 160.081 162.890  1.00  0.00    -0.550 OA
ENDBRANCH   2   3
ENDBRANCH   1   2
BRANCH   1   6
ATOM      6  C   UNL     1     178.031 159.595 165.600  1.00  0.00     0.000 C 
BRANCH   6   7
ATOM      7  C   UNL     1     177.184 158.889 166.670  1.00  0.00    -0.003 C 
ATOM      8  C   UNL     1     175.912 159.659 167.020  1.00  0.00     0.004 C 
ENDBRANCH   6   7
ENDBRANCH   1   6
TORSDOF 4
ENDMDL
MODEL 4
REMARK VINA RESULT:    -3.274     13.887     14.997
REMARK INTER + INTRA:          -4.117
REMARK INTER:                  -3.980
REMARK INTRA:                  -0.137
REMARK UNBOUND:                -0.078
REMARK SMILES CCCCCC(=O)[O-]
REMARK SMILES IDX 4 1 5 2 6 3 7 4 8 5 3 6 2 7 1 8
REMARK H PARENT
REMARK Flexibility Score: inf
ROOT
ATOM      1  C   UNL     1     160.796 177.060 150.602  1.00  0.00     0.006 C 
ENDROOT
BRANCH   1   2
ATOM      2  C   UNL     1     160.870 175.628 151.141  1.00  0.00     0.053 C 
BRANCH   2   3
ATOM      3  C   UNL     1     159.773 175.381 152.128  1.00  0.00     0.041 C 
ATOM      4  O   UNL     1     159.837 175.877 153.283  1.00  0.00    -0.550 OA
ATOM      5  O   UNL     1     158.704 174.562 151.789  1.00  0.00    -0.550 OA
ENDBRANCH   2   3
ENDBRANCH   1   2
BRANCH   1   6
ATOM      6  C   UNL     1     161.950 177.913 151.150  1.00  0.00     0.000 C 
BRANCH   6   7
ATOM      7  C   UNL     1     163.277 177.143 151.210  1.00  0.00    -0.003 C 
ATOM      8  C   UNL     1     164.497 178.057 151.100  1.00  0.00     0.004 C 
ENDBRANCH   6   7
ENDBRANCH   1   6
TORSDOF 4
ENDMDL
MODEL 5
REMARK VINA RESULT:    -3.274     19.922     21.596
REMARK INTER + INTRA:          -4.117
REMARK INTER:                  -3.987
REMARK INTRA:                  -0.130
REMARK UNBOUND:                -0.078
REMARK SMILES CCCCCC(=O)[O-]
REMARK SMILES IDX 4 1 5 2 6 3 7 4 8 5 3 6 2 7 1 8
REMARK H PARENT
REMARK Flexibility Score: inf
ROOT
ATOM      1  C   UNL     1     176.012 160.552 165.727  1.00  0.00     0.006 C 
ENDROOT
BRANCH   1   2
ATOM      2  C   UNL     1     174.826 160.363 164.776  1.00  0.00     0.053 C 
BRANCH   2   3
ATOM      3  C   UNL     1     175.238 159.570 163.576  1.00  0.00     0.041 C 
ATOM      4  O   UNL     1     175.537 160.154 162.502  1.00  0.00    -0.550 OA
ATOM      5  O   UNL     1     175.244 158.182 163.628  1.00  0.00    -0.550 OA
ENDBRANCH   2   3
ENDBRANCH   1   2
BRANCH   1   6
ATOM      6  C   UNL     1     176.040 159.448 166.795  1.00  0.00     0.000 C 
BRANCH   6   7
ATOM      7  C   UNL     1     177.205 158.466 166.599  1.00  0.00    -0.003 C 
ATOM      8  C   UNL     1     177.856 158.051 167.917  1.00  0.00     0.004 C 
ENDBRANCH   6   7
ENDBRANCH   1   6
TORSDOF 4
ENDMDL
MODEL 6
REMARK VINA RESULT:    -3.264      1.312      1.601
REMARK INTER + INTRA:          -4.105
REMARK INTER:                  -3.976
REMARK INTRA:                  -0.129
REMARK UNBOUND:                -0.078
REMARK SMILES CCCCCC(=O)[O-]
REMARK SMILES IDX 4 1 5 2 6 3 7 4 8 5 3 6 2 7 1 8
REMARK H PARENT
REMARK Flexibility Score: inf
ROOT
ATOM      1  C   UNL     1     174.873 174.417 151.355  1.00  0.00     0.006 C 
ENDROOT
BRANCH   1   2
ATOM      2  C   UNL     1     176.393 174.548 151.221  1.00  0.00     0.053 C 
BRANCH   2   3
ATOM      3  C   UNL     1     176.929 173.505 150.292  1.00  0.00     0.041 C 
ATOM      4  O   UNL     1     176.324 172.410 150.151  1.00  0.00    -0.550 OA
ATOM      5  O   UNL     1     178.125 173.721 149.620  1.00  0.00    -0.550 OA
ENDBRANCH   2   3
ENDBRANCH   1   2
BRANCH   1   6
ATOM      6  C   UNL     1     174.175 175.743 151.018  1.00  0.00     0.000 C 
BRANCH   6   7
ATOM      7  C   UNL     1     175.106 176.955 151.166  1.00  0.00    -0.003 C 
ATOM      8  C   UNL     1     174.706 178.121 150.263  1.00  0.00     0.004 C 
ENDBRANCH   6   7
ENDBRANCH   1   6
TORSDOF 4
ENDMDL
MODEL 7
REMARK VINA RESULT:    -3.188     14.509     15.307
REMARK INTER + INTRA:          -4.012
REMARK INTER:                  -3.856
REMARK INTRA:                  -0.156
REMARK UNBOUND:                -0.078
REMARK SMILES CCCCCC(=O)[O-]
REMARK SMILES IDX 4 1 5 2 6 3 7 4 8 5 3 6 2 7 1 8
REMARK H PARENT
REMARK Flexibility Score: inf
ROOT
ATOM      1  C   UNL     1     161.649 175.111 152.143  1.00  0.00     0.006 C 
ENDROOT
BRANCH   1   2
ATOM      2  C   UNL     1     161.168 173.691 151.829  1.00  0.00     0.053 C 
BRANCH   2   3
ATOM      3  C   UNL     1     159.728 173.531 152.203  1.00  0.00     0.041 C 
ATOM      4  O   UNL     1     158.891 174.420 151.897  1.00  0.00    -0.550 OA
ATOM      5  O   UNL     1     159.319 172.423 152.933  1.00  0.00    -0.550 OA
ENDBRANCH   2   3
ENDBRANCH   1   2
BRANCH   1   6
ATOM      6  C   UNL     1     162.361 175.731 150.931  1.00  0.00     0.000 C 
BRANCH   6   7
ATOM      7  C   UNL     1     161.987 177.205 150.716  1.00  0.00    -0.003 C 
ATOM      8  C   UNL     1     160.547 177.385 150.238  1.00  0.00     0.004 C 
ENDBRANCH   6   7
ENDBRANCH   1   6
TORSDOF 4
ENDMDL
MODEL 8
REMARK VINA RESULT:    -3.172     17.703     19.025
REMARK INTER + INTRA:          -3.991
REMARK INTER:                  -3.858
REMARK INTRA:                  -0.133
REMARK UNBOUND:                -0.078
REMARK SMILES CCCCCC(=O)[O-]
REMARK SMILES IDX 4 1 5 2 6 3 7 4 8 5 3 6 2 7 1 8
REMARK H PARENT
REMARK Flexibility Score: inf
ROOT
ATOM      1  C   UNL     1     177.879 160.719 162.489  1.00  0.00     0.006 C 
ENDROOT
BRANCH   1   2
ATOM      2  C   UNL     1     176.425 160.404 162.853  1.00  0.00     0.053 C 
BRANCH   2   3
ATOM      3  C   UNL     1     176.322 159.049 163.479  1.00  0.00     0.041 C 
ATOM      4  O   UNL     1     177.343 158.497 163.965  1.00  0.00    -0.550 OA
ATOM      5  O   UNL     1     175.108 158.375 163.481  1.00  0.00    -0.550 OA
ENDBRANCH   2   3
ENDBRANCH   1   2
BRANCH   1   6
ATOM      6  C   UNL     1     178.118 160.543 160.982  1.00  0.00     0.000 C 
BRANCH   6   7
ATOM      7  C   UNL     1     177.019 161.194 160.129  1.00  0.00    -0.003 C 
ATOM      8  C   UNL     1     177.148 160.860 158.643  1.00  0.00     0.004 C 
ENDBRANCH   6   7
ENDBRANCH   1   6
TORSDOF 4
ENDMDL
MODEL 9
REMARK VINA RESULT:    -3.129     11.874     12.996
REMARK INTER + INTRA:          -3.938
REMARK INTER:                  -3.847
REMARK INTRA:                  -0.091
REMARK UNBOUND:                -0.078
REMARK SMILES CCCCCC(=O)[O-]
REMARK SMILES IDX 4 1 5 2 6 3 7 4 8 5 3 6 2 7 1 8
REMARK H PARENT
REMARK Flexibility Score: inf
ROOT
ATOM      1  C   UNL     1     162.759 176.809 151.738  1.00  0.00     0.006 C 
ENDROOT
BRANCH   1   2
ATOM      2  C   UNL     1     163.842 177.673 151.085  1.00  0.00     0.053 C 
BRANCH   2   3
ATOM      3  C   UNL     1     165.015 177.823 152.001  1.00  0.00     0.041 C 
ATOM      4  O   UNL     1     166.186 177.789 151.541  1.00  0.00    -0.550 OA
ATOM      5  O   UNL     1     164.817 177.950 153.370  1.00  0.00    -0.550 OA
ENDBRANCH   2   3
ENDBRANCH   1   2
BRANCH   1   6
ATOM      6  C   UNL     1     161.747 176.315 150.693  1.00  0.00     0.000 C 
BRANCH   6   7
ATOM      7  C   UNL     1     160.679 177.368 150.360  1.00  0.00    -0.003 C 
ATOM      8  C   UNL     1     160.189 178.124 151.594  1.00  0.00     0.004 C 
ENDBRANCH   6   7
ENDBRANCH   1   6
TORSDOF 4
ENDMDL
