MODEL 1
REMARK VINA RESULT:    32.529      0.000      0.000
REMARK INTER + INTRA:          35.381
REMARK INTER:                  35.381
REMARK INTRA:                   0.000
REMARK UNBOUND:                 0.000
REMARK SMILES Cc1cc(O)c2c(c1)C(=O)c1cc(O)cc(O)c1C2=O
REMARK SMILES IDX 1 1 2 2 8 3 7 4 6 5 4 6 3 7 19 8 20 9 18 10 11 11 9 12 10 13
REMARK SMILES IDX 12 14 13 15 15 16 16 17 5 18 17 20 14 22
REMARK H PARENT 5 19 17 21 14 23
REMARK Flexibility Score: inf
ROOT
ATOM      1  C   UNL     1      97.154  17.706 118.378  1.00  0.00     0.044 C 
ATOM      2  C   UNL     1      96.050  16.875 118.964  1.00  0.00    -0.047 A 
ATOM      3  C   UNL     1      96.259  15.518 119.237  1.00  0.00     0.016 A 
ATOM      4  C   UNL     1      95.220  14.722 119.751  1.00  0.00     0.038 A 
ATOM      5  C   UNL     1      93.952  15.292 119.989  1.00  0.00     0.076 A 
ATOM      6  C   UNL     1      93.738  16.656 119.686  1.00  0.00     0.127 A 
ATOM      7  C   UNL     1      94.785  17.433 119.173  1.00  0.00     0.050 A 
ATOM      8  C   UNL     1      92.876  14.447 120.571  1.00  0.00     0.201 C 
ATOM      9  O   UNL     1      91.885  14.997 121.120  1.00  0.00    -0.288 OA
ATOM     10  C   UNL     1      93.026  12.965 120.609  1.00  0.00     0.076 A 
ATOM     11  C   UNL     1      94.317  12.416 120.427  1.00  0.00     0.041 A 
ATOM     12  C   UNL     1      95.452  13.290 120.044  1.00  0.00     0.194 C 
ATOM     13  O   UNL     1      96.614  12.808 119.950  1.00  0.00    -0.289 OA
ATOM     14  C   UNL     1      94.521  11.035 120.600  1.00  0.00     0.059 A 
ATOM     15  C   UNL     1      93.456  10.197 120.936  1.00  0.00     0.120 A 
ATOM     16  C   UNL     1      92.174  10.726 121.070  1.00  0.00     0.093 A 
ATOM     17  C   UNL     1      91.938  12.089 120.876  1.00  0.00     0.131 A 
ENDROOT
BRANCH   6  18
ATOM     18  O   UNL     1      92.486  17.240 119.881  1.00  0.00    -0.507 OA
ATOM     19  H   UNL     1      91.659  16.681 120.060  1.00  0.00     0.293 HD
ENDBRANCH   6  18
BRANCH  17  20
ATOM     20  O   UNL     1      90.609  12.519 120.923  1.00  0.00    -0.507 OA
ATOM     21  H   UNL     1      89.837  11.998 120.532  1.00  0.00     0.293 HD
ENDBRANCH  17  20
BRANCH  15  22
ATOM     22  O   UNL     1      93.659   8.832 121.125  1.00  0.00    -0.508 OA
ATOM     23  H   UNL     1      93.012   8.144 120.756  1.00  0.00     0.293 HD
ENDBRANCH  15  22
TORSDOF 3
ENDMDL
