MODEL 1
REMARK VINA RESULT:    -2.922      0.000      0.000
REMARK INTER + INTRA:          -3.414
REMARK INTER:                  -3.349
REMARK INTRA:                  -0.065
REMARK UNBOUND:                -0.065
REMARK SMILES COc1cc(C=O)ccc1O
REMARK SMILES IDX 3 1 10 2 9 3 8 4 5 5 4 6 2 7 1 8 11 9 6 11 7 12
REMARK H PARENT 11 10
REMARK Flexibility Score: inf
ROOT
ATOM      1  C   UNL     1     142.958 148.911 140.845  1.00  0.00     0.161 A 
ATOM      2  C   UNL     1     141.672 149.346 140.475  1.00  0.00     0.157 A 
ATOM      3  C   UNL     1     140.541 148.674 140.949  1.00  0.00     0.051 A 
ATOM      4  C   UNL     1     140.677 147.569 141.792  1.00  0.00     0.015 A 
ATOM      5  C   UNL     1     141.953 147.121 142.171  1.00  0.00     0.018 A 
ATOM      6  C   UNL     1     143.088 147.794 141.695  1.00  0.00     0.062 A 
ENDROOT
BRANCH   1   7
ATOM      7  O   UNL     1     144.074 149.606 140.353  1.00  0.00    -0.493 OA
ATOM      8  C   UNL     1     144.758 149.287 139.146  1.00  0.00     0.278 C 
ENDBRANCH   1   7
BRANCH   2   9
ATOM      9  O   UNL     1     141.497 150.446 139.636  1.00  0.00    -0.504 OA
ATOM     10  H   UNL     1     141.312 150.346 138.646  1.00  0.00     0.293 HD
ENDBRANCH   2   9
BRANCH   5  11
ATOM     11  C   UNL     1     142.115 145.955 143.060  1.00  0.00     0.260 C 
ATOM     12  O   UNL     1     141.538 145.902 144.178  1.00  0.00    -0.298 OA
ENDBRANCH   5  11
TORSDOF 3
ENDMDL
MODEL 2
REMARK VINA RESULT:    -2.916      9.696     11.094
REMARK INTER + INTRA:          -3.408
REMARK INTER:                  -3.343
REMARK INTRA:                  -0.065
REMARK UNBOUND:                -0.065
REMARK SMILES COc1cc(C=O)ccc1O
REMARK SMILES IDX 3 1 10 2 9 3 8 4 5 5 4 6 2 7 1 8 11 9 6 11 7 12
REMARK H PARENT 11 10
REMARK Flexibility Score: inf
ROOT
ATOM      1  C   UNL     1     149.008 138.653 140.855  1.00  0.00     0.161 A 
ATOM      2  C   UNL     1     149.442 139.939 140.485  1.00  0.00     0.157 A 
ATOM      3  C   UNL     1     148.753 141.068 140.937  1.00  0.00     0.051 A 
ATOM      4  C   UNL     1     147.632 140.931 141.758  1.00  0.00     0.015 A 
ATOM      5  C   UNL     1     147.185 139.655 142.137  1.00  0.00     0.018 A 
ATOM      6  C   UNL     1     147.875 138.521 141.684  1.00  0.00     0.062 A 
ENDROOT
BRANCH   1   7
ATOM      7  O   UNL     1     149.720 137.537 140.387  1.00  0.00    -0.493 OA
ATOM      8  C   UNL     1     149.428 136.840 139.180  1.00  0.00     0.278 C 
ENDBRANCH   1   7
BRANCH   2   9
ATOM      9  O   UNL     1     150.558 140.115 139.667  1.00  0.00    -0.504 OA
ATOM     10  H   UNL     1     150.521 140.653 138.811  1.00  0.00     0.293 HD
ENDBRANCH   2   9
BRANCH   5  11
ATOM     11  C   UNL     1     146.002 139.492 143.003  1.00  0.00     0.260 C 
ATOM     12  O   UNL     1     145.927 140.069 144.120  1.00  0.00    -0.298 OA
ENDBRANCH   5  11
TORSDOF 3
ENDMDL
MODEL 3
REMARK VINA RESULT:    -2.909      9.657     11.007
REMARK INTER + INTRA:          -3.399
REMARK INTER:                  -3.335
REMARK INTRA:                  -0.064
REMARK UNBOUND:                -0.065
REMARK SMILES COc1cc(C=O)ccc1O
REMARK SMILES IDX 3 1 10 2 9 3 8 4 5 5 4 6 2 7 1 8 11 9 6 11 7 12
REMARK H PARENT 11 10
REMARK Flexibility Score: inf
ROOT
ATOM      1  C   UNL     1     132.772 142.944 140.824  1.00  0.00     0.161 A 
ATOM      2  C   UNL     1     132.312 141.664 140.464  1.00  0.00     0.157 A 
ATOM      3  C   UNL     1     132.951 140.525 140.964  1.00  0.00     0.051 A 
ATOM      4  C   UNL     1     134.045 140.646 141.822  1.00  0.00     0.015 A 
ATOM      5  C   UNL     1     134.517 141.916 142.191  1.00  0.00     0.018 A 
ATOM      6  C   UNL     1     133.878 143.060 141.690  1.00  0.00     0.062 A 
ENDROOT
BRANCH   1   7
ATOM      7  O   UNL     1     132.112 144.070 140.306  1.00  0.00    -0.493 OA
ATOM      8  C   UNL     1     132.464 144.729 139.094  1.00  0.00     0.278 C 
ENDBRANCH   1   7
BRANCH   2   9
ATOM      9  O   UNL     1     131.222 141.503 139.610  1.00  0.00    -0.504 OA
ATOM     10  H   UNL     1     130.312 141.209 139.944  1.00  0.00     0.293 HD
ENDBRANCH   2   9
BRANCH   5  11
ATOM     11  C   UNL     1     135.673 142.063 143.097  1.00  0.00     0.260 C 
ATOM     12  O   UNL     1     135.662 141.564 144.253  1.00  0.00    -0.298 OA
ENDBRANCH   5  11
TORSDOF 3
ENDMDL
MODEL 4
REMARK VINA RESULT:    -2.905     13.236     15.634
REMARK INTER + INTRA:          -3.395
REMARK INTER:                  -3.329
REMARK INTRA:                  -0.066
REMARK UNBOUND:                -0.065
REMARK SMILES COc1cc(C=O)ccc1O
REMARK SMILES IDX 3 1 10 2 9 3 8 4 5 5 4 6 2 7 1 8 11 9 6 11 7 12
REMARK H PARENT 11 10
REMARK Flexibility Score: inf
ROOT
ATOM      1  C   UNL     1     138.634 132.686 140.847  1.00  0.00     0.161 A 
ATOM      2  C   UNL     1     139.919 132.244 140.484  1.00  0.00     0.157 A 
ATOM      3  C   UNL     1     141.050 132.917 140.955  1.00  0.00     0.051 A 
ATOM      4  C   UNL     1     140.916 134.030 141.786  1.00  0.00     0.015 A 
ATOM      5  C   UNL     1     139.641 134.485 142.159  1.00  0.00     0.018 A 
ATOM      6  C   UNL     1     138.505 133.811 141.687  1.00  0.00     0.062 A 
ENDROOT
BRANCH   1   7
ATOM      7  O   UNL     1     137.516 131.991 140.359  1.00  0.00    -0.493 OA
ATOM      8  C   UNL     1     136.829 132.307 139.153  1.00  0.00     0.278 C 
ENDBRANCH   1   7
BRANCH   2   9
ATOM      9  O   UNL     1     140.092 131.135 139.655  1.00  0.00    -0.504 OA
ATOM     10  H   UNL     1     139.486 130.951 138.866  1.00  0.00     0.293 HD
ENDBRANCH   2   9
BRANCH   5  11
ATOM     11  C   UNL     1     139.480 135.660 143.037  1.00  0.00     0.260 C 
ATOM     12  O   UNL     1     140.083 135.736 144.140  1.00  0.00    -0.298 OA
ENDBRANCH   5  11
TORSDOF 3
ENDMDL
MODEL 5
REMARK VINA RESULT:    -2.891      9.010     10.882
REMARK INTER + INTRA:          -3.378
REMARK INTER:                  -3.305
REMARK INTRA:                  -0.073
REMARK UNBOUND:                -0.065
REMARK SMILES COc1cc(C=O)ccc1O
REMARK SMILES IDX 3 1 10 2 9 3 8 4 5 5 4 6 2 7 1 8 11 9 6 11 7 12
REMARK H PARENT 11 10
REMARK Flexibility Score: inf
ROOT
ATOM      1  C   UNL     1     135.099 141.982 141.698  1.00  0.00     0.161 A 
ATOM      2  C   UNL     1     135.114 140.766 140.992  1.00  0.00     0.157 A 
ATOM      3  C   UNL     1     133.982 140.354 140.281  1.00  0.00     0.051 A 
ATOM      4  C   UNL     1     132.831 141.143 140.265  1.00  0.00     0.015 A 
ATOM      5  C   UNL     1     132.799 142.361 140.965  1.00  0.00     0.018 A 
ATOM      6  C   UNL     1     133.933 142.775 141.679  1.00  0.00     0.062 A 
ENDROOT
BRANCH   1   7
ATOM      7  O   UNL     1     136.249 142.370 142.403  1.00  0.00    -0.493 OA
ATOM      8  C   UNL     1     136.457 142.154 143.795  1.00  0.00     0.278 C 
ENDBRANCH   1   7
BRANCH   2   9
ATOM      9  O   UNL     1     136.246 139.951 140.984  1.00  0.00    -0.504 OA
ATOM     10  H   UNL     1     137.146 140.280 140.660  1.00  0.00     0.293 HD
ENDBRANCH   2   9
BRANCH   5  11
ATOM     11  C   UNL     1     131.590 143.208 140.960  1.00  0.00     0.260 C 
ATOM     12  O   UNL     1     131.513 144.227 140.224  1.00  0.00    -0.298 OA
ENDBRANCH   5  11
TORSDOF 3
ENDMDL
MODEL 6
REMARK VINA RESULT:    -2.886      6.995      8.733
REMARK INTER + INTRA:          -3.373
REMARK INTER:                  -3.298
REMARK INTRA:                  -0.075
REMARK UNBOUND:                -0.065
REMARK SMILES COc1cc(C=O)ccc1O
REMARK SMILES IDX 3 1 10 2 9 3 8 4 5 5 4 6 2 7 1 8 11 9 6 11 7 12
REMARK H PARENT 11 10
REMARK Flexibility Score: inf
ROOT
ATOM      1  C   UNL     1     136.551 141.819 142.134  1.00  0.00     0.161 A 
ATOM      2  C   UNL     1     135.582 141.743 143.151  1.00  0.00     0.157 A 
ATOM      3  C   UNL     1     135.930 142.026 144.475  1.00  0.00     0.051 A 
ATOM      4  C   UNL     1     137.239 142.387 144.800  1.00  0.00     0.015 A 
ATOM      5  C   UNL     1     138.220 142.469 143.798  1.00  0.00     0.018 A 
ATOM      6  C   UNL     1     137.872 142.185 142.469  1.00  0.00     0.062 A 
ENDROOT
BRANCH   1   7
ATOM      7  O   UNL     1     136.173 141.530 140.814  1.00  0.00    -0.493 OA
ATOM      8  C   UNL     1     136.085 142.491 139.768  1.00  0.00     0.278 C 
ENDBRANCH   1   7
BRANCH   2   9
ATOM      9  O   UNL     1     134.264 141.386 142.864  1.00  0.00    -0.504 OA
ATOM     10  H   UNL     1     133.524 142.071 142.782  1.00  0.00     0.293 HD
ENDBRANCH   2   9
BRANCH   5  11
ATOM     11  C   UNL     1     139.608 142.849 144.123  1.00  0.00     0.260 C 
ATOM     12  O   UNL     1     139.869 143.567 145.125  1.00  0.00    -0.298 OA
ENDBRANCH   5  11
TORSDOF 3
ENDMDL
MODEL 7
REMARK VINA RESULT:    -2.870      6.168      8.292
REMARK INTER + INTRA:          -3.355
REMARK INTER:                  -3.297
REMARK INTRA:                  -0.058
REMARK UNBOUND:                -0.065
REMARK SMILES COc1cc(C=O)ccc1O
REMARK SMILES IDX 3 1 10 2 9 3 8 4 5 5 4 6 2 7 1 8 11 9 6 11 7 12
REMARK H PARENT 11 10
REMARK Flexibility Score: inf
ROOT
ATOM      1  C   UNL     1     138.452 142.370 142.954  1.00  0.00     0.161 A 
ATOM      2  C   UNL     1     138.527 142.555 144.347  1.00  0.00     0.157 A 
ATOM      3  C   UNL     1     137.367 142.497 145.125  1.00  0.00     0.051 A 
ATOM      4  C   UNL     1     136.128 142.254 144.530  1.00  0.00     0.015 A 
ATOM      5  C   UNL     1     136.034 142.066 143.142  1.00  0.00     0.018 A 
ATOM      6  C   UNL     1     137.197 142.125 142.359  1.00  0.00     0.062 A 
ENDROOT
BRANCH   1   7
ATOM      7  O   UNL     1     139.633 142.434 142.198  1.00  0.00    -0.493 OA
ATOM      8  C   UNL     1     140.162 143.625 141.624  1.00  0.00     0.278 C 
ENDBRANCH   1   7
BRANCH   2   9
ATOM      9  O   UNL     1     139.748 142.800 144.976  1.00  0.00    -0.504 OA
ATOM     10  H   UNL     1     140.491 142.113 144.999  1.00  0.00     0.293 HD
ENDBRANCH   2   9
BRANCH   5  11
ATOM     11  C   UNL     1     134.733 141.809 142.496  1.00  0.00     0.260 C 
ATOM     12  O   UNL     1     134.022 142.754 142.064  1.00  0.00    -0.298 OA
ENDBRANCH   5  11
TORSDOF 3
ENDMDL
MODEL 8
REMARK VINA RESULT:    -2.841      1.474      4.142
REMARK INTER + INTRA:          -3.321
REMARK INTER:                  -3.247
REMARK INTRA:                  -0.073
REMARK UNBOUND:                -0.065
REMARK SMILES COc1cc(C=O)ccc1O
REMARK SMILES IDX 3 1 10 2 9 3 8 4 5 5 4 6 2 7 1 8 11 9 6 11 7 12
REMARK H PARENT 11 10
REMARK Flexibility Score: inf
ROOT
ATOM      1  C   UNL     1     142.001 146.581 141.724  1.00  0.00     0.161 A 
ATOM      2  C   UNL     1     140.779 146.570 141.028  1.00  0.00     0.157 A 
ATOM      3  C   UNL     1     140.370 147.700 140.313  1.00  0.00     0.051 A 
ATOM      4  C   UNL     1     141.168 148.845 140.282  1.00  0.00     0.015 A 
ATOM      5  C   UNL     1     142.391 148.873 140.972  1.00  0.00     0.018 A 
ATOM      6  C   UNL     1     142.802 147.741 141.690  1.00  0.00     0.062 A 
ENDROOT
BRANCH   1   7
ATOM      7  O   UNL     1     142.386 145.432 142.433  1.00  0.00    -0.493 OA
ATOM      8  C   UNL     1     142.222 145.255 143.837  1.00  0.00     0.278 C 
ENDBRANCH   1   7
BRANCH   2   9
ATOM      9  O   UNL     1     139.955 145.444 141.035  1.00  0.00    -0.504 OA
ATOM     10  H   UNL     1     139.775 144.902 140.200  1.00  0.00     0.293 HD
ENDBRANCH   2   9
BRANCH   5  11
ATOM     11  C   UNL     1     143.247 150.075 140.951  1.00  0.00     0.260 C 
ATOM     12  O   UNL     1     144.263 150.138 140.210  1.00  0.00    -0.298 OA
ENDBRANCH   5  11
TORSDOF 3
ENDMDL
MODEL 9
REMARK VINA RESULT:    -2.835      8.970     10.681
REMARK INTER + INTRA:          -3.314
REMARK INTER:                  -3.241
REMARK INTRA:                  -0.073
REMARK UNBOUND:                -0.065
REMARK SMILES COc1cc(C=O)ccc1O
REMARK SMILES IDX 3 1 10 2 9 3 8 4 5 5 4 6 2 7 1 8 11 9 6 11 7 12
REMARK H PARENT 11 10
REMARK Flexibility Score: inf
ROOT
ATOM      1  C   UNL     1     146.589 139.623 141.720  1.00  0.00     0.161 A 
ATOM      2  C   UNL     1     146.583 140.830 140.999  1.00  0.00     0.157 A 
ATOM      3  C   UNL     1     147.718 141.226 140.286  1.00  0.00     0.051 A 
ATOM      4  C   UNL     1     148.864 140.429 140.281  1.00  0.00     0.015 A 
ATOM      5  C   UNL     1     148.888 139.220 140.995  1.00  0.00     0.018 A 
ATOM      6  C   UNL     1     147.750 138.822 141.712  1.00  0.00     0.062 A 
ENDROOT
BRANCH   1   7
ATOM      7  O   UNL     1     145.434 139.251 142.427  1.00  0.00    -0.493 OA
ATOM      8  C   UNL     1     145.245 139.442 143.825  1.00  0.00     0.278 C 
ENDBRANCH   1   7
BRANCH   2   9
ATOM      9  O   UNL     1     145.456 141.653 140.980  1.00  0.00    -0.504 OA
ATOM     10  H   UNL     1     144.586 141.387 141.422  1.00  0.00     0.293 HD
ENDBRANCH   2   9
BRANCH   5  11
ATOM     11  C   UNL     1     150.090 138.365 141.002  1.00  0.00     0.260 C 
ATOM     12  O   UNL     1     150.188 137.372 140.233  1.00  0.00    -0.298 OA
ENDBRANCH   5  11
TORSDOF 3
ENDMDL
