MODEL 1
REMARK VINA RESULT:    -5.184      0.000      0.000
REMARK INTER + INTRA:         -10.724
REMARK INTER:                  -9.426
REMARK INTRA:                  -1.298
REMARK UNBOUND:                -1.298
REMARK SMILES CCCCCCCCCCCCCCCC(=O)[O-]
REMARK SMILES IDX 9 1 10 2 11 3 12 4 13 5 14 6 15 7 16 8 17 9 18 10 8 11 7 12
REMARK SMILES IDX 6 13 5 14 4 15 3 16 2 17 1 18
REMARK H PARENT
REMARK Flexibility Score: inf
ROOT
ATOM      1  C   UNL     1      20.038  -1.842 -18.712  1.00  0.00     0.000 C 
ENDROOT
BRANCH   1   2
ATOM      2  C   UNL     1      19.715  -2.118 -17.233  1.00  0.00     0.000 C 
BRANCH   2   3
ATOM      3  C   UNL     1      20.843  -1.760 -16.243  1.00  0.00     0.000 C 
BRANCH   3   4
ATOM      4  C   UNL     1      20.459  -0.741 -15.153  1.00  0.00     0.000 C 
BRANCH   4   5
ATOM      5  C   UNL     1      21.121   0.641 -15.292  1.00  0.00     0.000 C 
BRANCH   5   6
ATOM      6  C   UNL     1      20.285   1.622 -16.127  1.00  0.00     0.006 C 
BRANCH   6   7
ATOM      7  C   UNL     1      19.155   2.229 -15.290  1.00  0.00     0.053 C 
BRANCH   7   8
ATOM      8  C   UNL     1      17.836   1.647 -15.690  1.00  0.00     0.041 C 
ATOM      9  O   UNL     1      17.324   1.941 -16.802  1.00  0.00    -0.550 OA
ATOM     10  O   UNL     1      17.147   0.819 -14.813  1.00  0.00    -0.550 OA
ENDBRANCH   7   8
ENDBRANCH   6   7
ENDBRANCH   5   6
ENDBRANCH   4   5
ENDBRANCH   3   4
ENDBRANCH   2   3
ENDBRANCH   1   2
BRANCH   1  11
ATOM     11  C   UNL     1      20.846  -0.552 -18.916  1.00  0.00     0.000 C 
BRANCH  11  12
ATOM     12  C   UNL     1      19.951   0.574 -19.456  1.00  0.00    -0.000 C 
BRANCH  12  13
ATOM     13  C   UNL     1      20.529   1.248 -20.714  1.00  0.00    -0.000 C 
BRANCH  13  14
ATOM     14  C   UNL     1      20.312   0.471 -22.025  1.00  0.00    -0.000 C 
BRANCH  14  15
ATOM     15  C   UNL     1      18.876  -0.052 -22.182  1.00  0.00    -0.000 C 
BRANCH  15  16
ATOM     16  C   UNL     1      17.949   1.047 -22.723  1.00  0.00    -0.000 C 
BRANCH  16  17
ATOM     17  C   UNL     1      16.629   0.487 -23.275  1.00  0.00    -0.003 C 
ATOM     18  C   UNL     1      16.835  -0.715 -24.196  1.00  0.00     0.004 C 
ENDBRANCH  16  17
ENDBRANCH  15  16
ENDBRANCH  14  15
ENDBRANCH  13  14
ENDBRANCH  12  13
ENDBRANCH  11  12
ENDBRANCH   1  11
TORSDOF 14
ENDMDL
MODEL 2
REMARK VINA RESULT:    -5.171      1.215      2.348
REMARK INTER + INTRA:         -10.700
REMARK INTER:                  -9.642
REMARK INTRA:                  -1.058
REMARK UNBOUND:                -1.298
REMARK SMILES CCCCCCCCCCCCCCCC(=O)[O-]
REMARK SMILES IDX 9 1 10 2 11 3 12 4 13 5 14 6 15 7 16 8 17 9 18 10 8 11 7 12
REMARK SMILES IDX 6 13 5 14 4 15 3 16 2 17 1 18
REMARK H PARENT
REMARK Flexibility Score: inf
ROOT
ATOM      1  C   UNL     1      21.203   0.605 -19.500  1.00  0.00     0.000 C 
ENDROOT
BRANCH   1   2
ATOM      2  C   UNL     1      20.139  -0.498 -19.351  1.00  0.00     0.000 C 
BRANCH   2   3
ATOM      3  C   UNL     1      20.529  -1.655 -18.408  1.00  0.00     0.000 C 
BRANCH   3   4
ATOM      4  C   UNL     1      19.790  -1.675 -17.056  1.00  0.00     0.000 C 
BRANCH   4   5
ATOM      5  C   UNL     1      20.652  -1.296 -15.838  1.00  0.00     0.000 C 
BRANCH   5   6
ATOM      6  C   UNL     1      20.058  -0.138 -15.024  1.00  0.00     0.006 C 
BRANCH   6   7
ATOM      7  C   UNL     1      19.597   0.997 -15.943  1.00  0.00     0.053 C 
BRANCH   7   8
ATOM      8  C   UNL     1      18.245   1.489 -15.531  1.00  0.00     0.041 C 
ATOM      9  O   UNL     1      17.467   0.738 -14.888  1.00  0.00    -0.550 OA
ATOM     10  O   UNL     1      17.826   2.761 -15.901  1.00  0.00    -0.550 OA
ENDBRANCH   7   8
ENDBRANCH   6   7
ENDBRANCH   5   6
ENDBRANCH   4   5
ENDBRANCH   3   4
ENDBRANCH   2   3
ENDBRANCH   1   2
BRANCH   1  11
ATOM     11  C   UNL     1      20.887   1.589 -20.636  1.00  0.00     0.000 C 
BRANCH  11  12
ATOM     12  C   UNL     1      20.462   0.838 -21.907  1.00  0.00    -0.000 C 
BRANCH  12  13
ATOM     13  C   UNL     1      19.048   1.217 -22.383  1.00  0.00    -0.000 C 
BRANCH  13  14
ATOM     14  C   UNL     1      18.071   0.036 -22.521  1.00  0.00    -0.000 C 
BRANCH  14  15
ATOM     15  C   UNL     1      16.687   0.460 -23.038  1.00  0.00    -0.000 C 
BRANCH  15  16
ATOM     16  C   UNL     1      16.511   0.071 -24.513  1.00  0.00    -0.000 C 
BRANCH  16  17
ATOM     17  C   UNL     1      15.865   1.190 -25.346  1.00  0.00    -0.003 C 
ATOM     18  C   UNL     1      16.812   1.762 -26.401  1.00  0.00     0.004 C 
ENDBRANCH  16  17
ENDBRANCH  15  16
ENDBRANCH  14  15
ENDBRANCH  13  14
ENDBRANCH  12  13
ENDBRANCH  11  12
ENDBRANCH   1  11
TORSDOF 14
ENDMDL
MODEL 3
REMARK VINA RESULT:    -5.100      3.222      7.199
REMARK INTER + INTRA:         -10.571
REMARK INTER:                  -9.280
REMARK INTRA:                  -1.291
REMARK UNBOUND:                -1.298
REMARK SMILES CCCCCCCCCCCCCCCC(=O)[O-]
REMARK SMILES IDX 9 1 10 2 11 3 12 4 13 5 14 6 15 7 16 8 17 9 18 10 8 11 7 12
REMARK SMILES IDX 6 13 5 14 4 15 3 16 2 17 1 18
REMARK H PARENT
REMARK Flexibility Score: inf
ROOT
ATOM      1  C   UNL     1      20.992   0.545 -19.292  1.00  0.00     0.000 C 
ENDROOT
BRANCH   1   2
ATOM      2  C   UNL     1      20.727   1.338 -20.584  1.00  0.00     0.000 C 
BRANCH   2   3
ATOM      3  C   UNL     1      19.425   0.962 -21.322  1.00  0.00     0.000 C 
BRANCH   3   4
ATOM      4  C   UNL     1      18.973   1.964 -22.403  1.00  0.00     0.000 C 
BRANCH   4   5
ATOM      5  C   UNL     1      17.476   1.906 -22.757  1.00  0.00     0.000 C 
BRANCH   5   6
ATOM      6  C   UNL     1      16.928   0.472 -22.797  1.00  0.00     0.006 C 
BRANCH   6   7
ATOM      7  C   UNL     1      16.300   0.163 -24.159  1.00  0.00     0.053 C 
BRANCH   7   8
ATOM      8  C   UNL     1      17.007  -0.981 -24.815  1.00  0.00     0.041 C 
ATOM      9  O   UNL     1      17.525  -0.837 -25.953  1.00  0.00    -0.550 OA
ATOM     10  O   UNL     1      17.051  -2.221 -24.191  1.00  0.00    -0.550 OA
ENDBRANCH   7   8
ENDBRANCH   6   7
ENDBRANCH   5   6
ENDBRANCH   4   5
ENDBRANCH   3   4
ENDBRANCH   2   3
ENDBRANCH   1   2
BRANCH   1  11
ATOM     11  C   UNL     1      20.156  -0.740 -19.198  1.00  0.00     0.000 C 
BRANCH  11  12
ATOM     12  C   UNL     1      20.788  -1.733 -18.211  1.00  0.00    -0.000 C 
BRANCH  12  13
ATOM     13  C   UNL     1      21.622  -1.043 -17.116  1.00  0.00    -0.000 C 
BRANCH  13  14
ATOM     14  C   UNL     1      21.229  -1.408 -15.674  1.00  0.00    -0.000 C 
BRANCH  14  15
ATOM     15  C   UNL     1      19.817  -0.934 -15.298  1.00  0.00    -0.000 C 
BRANCH  15  16
ATOM     16  C   UNL     1      19.775   0.594 -15.147  1.00  0.00    -0.000 C 
BRANCH  16  17
ATOM     17  C   UNL     1      18.383   1.178 -15.435  1.00  0.00    -0.003 C 
ATOM     18  C   UNL     1      18.113   1.355 -16.929  1.00  0.00     0.004 C 
ENDBRANCH  16  17
ENDBRANCH  15  16
ENDBRANCH  14  15
ENDBRANCH  13  14
ENDBRANCH  12  13
ENDBRANCH  11  12
ENDBRANCH   1  11
TORSDOF 14
ENDMDL
MODEL 4
REMARK VINA RESULT:    -5.050      2.515      5.243
REMARK INTER + INTRA:         -10.482
REMARK INTER:                  -8.540
REMARK INTRA:                  -1.942
REMARK UNBOUND:                -1.298
REMARK SMILES CCCCCCCCCCCCCCCC(=O)[O-]
REMARK SMILES IDX 9 1 10 2 11 3 12 4 13 5 14 6 15 7 16 8 17 9 18 10 8 11 7 12
REMARK SMILES IDX 6 13 5 14 4 15 3 16 2 17 1 18
REMARK H PARENT
REMARK Flexibility Score: inf
ROOT
ATOM      1  C   UNL     1      17.111   1.340 -22.745  1.00  0.00     0.000 C 
ENDROOT
BRANCH   1   2
ATOM      2  C   UNL     1      18.612   1.586 -22.507  1.00  0.00     0.000 C 
BRANCH   2   3
ATOM      3  C   UNL     1      19.474   0.309 -22.423  1.00  0.00     0.000 C 
BRANCH   3   4
ATOM      4  C   UNL     1      19.856  -0.130 -20.995  1.00  0.00     0.000 C 
BRANCH   4   5
ATOM      5  C   UNL     1      19.603   0.924 -19.902  1.00  0.00     0.000 C 
BRANCH   5   6
ATOM      6  C   UNL     1      19.955   0.420 -18.495  1.00  0.00     0.006 C 
BRANCH   6   7
ATOM      7  C   UNL     1      20.662  -0.937 -18.561  1.00  0.00     0.053 C 
BRANCH   7   8
ATOM      8  C   UNL     1      19.976  -1.929 -17.675  1.00  0.00     0.041 C 
ATOM      9  O   UNL     1      19.191  -2.781 -18.166  1.00  0.00    -0.550 OA
ATOM     10  O   UNL     1      20.166  -1.881 -16.299  1.00  0.00    -0.550 OA
ENDBRANCH   7   8
ENDBRANCH   6   7
ENDBRANCH   5   6
ENDBRANCH   4   5
ENDBRANCH   3   4
ENDBRANCH   2   3
ENDBRANCH   1   2
BRANCH   1  11
ATOM     11  C   UNL     1      16.818  -0.053 -23.320  1.00  0.00     0.000 C 
BRANCH  11  12
ATOM     12  C   UNL     1      16.058   0.053 -24.651  1.00  0.00    -0.000 C 
BRANCH  12  13
ATOM     13  C   UNL     1      16.080   1.474 -25.243  1.00  0.00    -0.000 C 
BRANCH  13  14
ATOM     14  C   UNL     1      16.941   1.639 -26.508  1.00  0.00    -0.000 C 
BRANCH  14  15
ATOM     15  C   UNL     1      17.901   0.462 -26.737  1.00  0.00    -0.000 C 
BRANCH  15  16
ATOM     16  C   UNL     1      19.287   0.763 -26.146  1.00  0.00    -0.000 C 
BRANCH  16  17
ATOM     17  C   UNL     1      20.139  -0.502 -25.963  1.00  0.00    -0.003 C 
ATOM     18  C   UNL     1      19.309  -1.721 -25.562  1.00  0.00     0.004 C 
ENDBRANCH  16  17
ENDBRANCH  15  16
ENDBRANCH  14  15
ENDBRANCH  13  14
ENDBRANCH  12  13
ENDBRANCH  11  12
ENDBRANCH   1  11
TORSDOF 14
ENDMDL
MODEL 5
REMARK VINA RESULT:    -5.043      1.261      2.730
REMARK INTER + INTRA:         -10.469
REMARK INTER:                  -9.219
REMARK INTRA:                  -1.250
REMARK UNBOUND:                -1.298
REMARK SMILES CCCCCCCCCCCCCCCC(=O)[O-]
REMARK SMILES IDX 9 1 10 2 11 3 12 4 13 5 14 6 15 7 16 8 17 9 18 10 8 11 7 12
REMARK SMILES IDX 6 13 5 14 4 15 3 16 2 17 1 18
REMARK H PARENT
REMARK Flexibility Score: inf
ROOT
ATOM      1  C   UNL     1      20.550   0.988 -19.783  1.00  0.00     0.000 C 
ENDROOT
BRANCH   1   2
ATOM      2  C   UNL     1      20.968  -0.162 -18.848  1.00  0.00     0.000 C 
BRANCH   2   3
ATOM      3  C   UNL     1      20.046  -1.398 -18.884  1.00  0.00     0.000 C 
BRANCH   3   4
ATOM      4  C   UNL     1      19.938  -2.173 -17.557  1.00  0.00     0.000 C 
BRANCH   4   5
ATOM      5  C   UNL     1      20.790  -1.612 -16.405  1.00  0.00     0.000 C 
BRANCH   5   6
ATOM      6  C   UNL     1      19.942  -1.038 -15.260  1.00  0.00     0.006 C 
BRANCH   6   7
ATOM      7  C   UNL     1      19.830   0.485 -15.373  1.00  0.00     0.053 C 
BRANCH   7   8
ATOM      8  C   UNL     1      18.452   0.878 -15.803  1.00  0.00     0.041 C 
ATOM      9  O   UNL     1      18.249   1.297 -16.972  1.00  0.00    -0.550 OA
ATOM     10  O   UNL     1      17.400   0.829 -14.897  1.00  0.00    -0.550 OA
ENDBRANCH   7   8
ENDBRANCH   6   7
ENDBRANCH   5   6
ENDBRANCH   4   5
ENDBRANCH   3   4
ENDBRANCH   2   3
ENDBRANCH   1   2
BRANCH   1  11
ATOM     11  C   UNL     1      19.998   0.492 -21.127  1.00  0.00     0.000 C 
BRANCH  11  12
ATOM     12  C   UNL     1      18.580   1.033 -21.370  1.00  0.00    -0.000 C 
BRANCH  12  13
ATOM     13  C   UNL     1      18.166   0.986 -22.852  1.00  0.00    -0.000 C 
BRANCH  13  14
ATOM     14  C   UNL     1      16.752   0.439 -23.114  1.00  0.00    -0.000 C 
BRANCH  14  15
ATOM     15  C   UNL     1      16.715  -0.620 -24.226  1.00  0.00    -0.000 C 
BRANCH  15  16
ATOM     16  C   UNL     1      17.976  -1.495 -24.191  1.00  0.00    -0.000 C 
BRANCH  16  17
ATOM     17  C   UNL     1      18.886  -1.272 -25.409  1.00  0.00    -0.003 C 
ATOM     18  C   UNL     1      20.372  -1.323 -25.055  1.00  0.00     0.004 C 
ENDBRANCH  16  17
ENDBRANCH  15  16
ENDBRANCH  14  15
ENDBRANCH  13  14
ENDBRANCH  12  13
ENDBRANCH  11  12
ENDBRANCH   1  11
TORSDOF 14
ENDMDL
MODEL 6
REMARK VINA RESULT:    -5.042      3.549      7.630
REMARK INTER + INTRA:         -10.466
REMARK INTER:                  -9.339
REMARK INTRA:                  -1.127
REMARK UNBOUND:                -1.298
REMARK SMILES CCCCCCCCCCCCCCCC(=O)[O-]
REMARK SMILES IDX 9 1 10 2 11 3 12 4 13 5 14 6 15 7 16 8 17 9 18 10 8 11 7 12
REMARK SMILES IDX 6 13 5 14 4 15 3 16 2 17 1 18
REMARK H PARENT
REMARK Flexibility Score: inf
ROOT
ATOM      1  C   UNL     1      20.813   0.662 -21.250  1.00  0.00     0.000 C 
ENDROOT
BRANCH   1   2
ATOM      2  C   UNL     1      20.206   1.099 -22.595  1.00  0.00     0.000 C 
BRANCH   2   3
ATOM      3  C   UNL     1      20.297   0.050 -23.722  1.00  0.00     0.000 C 
BRANCH   3   4
ATOM      4  C   UNL     1      18.960  -0.610 -24.113  1.00  0.00     0.000 C 
BRANCH   4   5
ATOM      5  C   UNL     1      17.819  -0.416 -23.098  1.00  0.00     0.000 C 
BRANCH   5   6
ATOM      6  C   UNL     1      16.559   0.194 -23.728  1.00  0.00     0.006 C 
BRANCH   6   7
ATOM      7  C   UNL     1      16.737   1.697 -23.963  1.00  0.00     0.053 C 
BRANCH   7   8
ATOM      8  C   UNL     1      16.331   2.061 -25.357  1.00  0.00     0.041 C 
ATOM      9  O   UNL     1      15.211   1.703 -25.805  1.00  0.00    -0.550 OA
ATOM     10  O   UNL     1      17.211   2.754 -26.178  1.00  0.00    -0.550 OA
ENDBRANCH   7   8
ENDBRANCH   6   7
ENDBRANCH   5   6
ENDBRANCH   4   5
ENDBRANCH   3   4
ENDBRANCH   2   3
ENDBRANCH   1   2
BRANCH   1  11
ATOM     11  C   UNL     1      19.749   0.373 -20.181  1.00  0.00     0.000 C 
BRANCH  11  12
ATOM     12  C   UNL     1      20.392  -0.199 -18.909  1.00  0.00    -0.000 C 
BRANCH  12  13
ATOM     13  C   UNL     1      20.105  -1.700 -18.714  1.00  0.00    -0.000 C 
BRANCH  13  14
ATOM     14  C   UNL     1      19.836  -2.127 -17.261  1.00  0.00    -0.000 C 
BRANCH  14  15
ATOM     15  C   UNL     1      20.875  -1.577 -16.272  1.00  0.00    -0.000 C 
BRANCH  15  16
ATOM     16  C   UNL     1      20.188  -0.925 -15.062  1.00  0.00    -0.000 C 
BRANCH  16  17
ATOM     17  C   UNL     1      19.850   0.554 -15.300  1.00  0.00    -0.003 C 
ATOM     18  C   UNL     1      18.352   0.798 -15.476  1.00  0.00     0.004 C 
ENDBRANCH  16  17
ENDBRANCH  15  16
ENDBRANCH  14  15
ENDBRANCH  13  14
ENDBRANCH  12  13
ENDBRANCH  11  12
ENDBRANCH   1  11
TORSDOF 14
ENDMDL
MODEL 7
REMARK VINA RESULT:    -5.028      4.007      8.389
REMARK INTER + INTRA:         -10.441
REMARK INTER:                  -8.717
REMARK INTRA:                  -1.725
REMARK UNBOUND:                -1.298
REMARK SMILES CCCCCCCCCCCCCCCC(=O)[O-]
REMARK SMILES IDX 9 1 10 2 11 3 12 4 13 5 14 6 15 7 16 8 17 9 18 10 8 11 7 12
REMARK SMILES IDX 6 13 5 14 4 15 3 16 2 17 1 18
REMARK H PARENT
REMARK Flexibility Score: inf
ROOT
ATOM      1  C   UNL     1      16.170  -0.067 -24.580  1.00  0.00     0.000 C 
ENDROOT
BRANCH   1   2
ATOM      2  C   UNL     1      16.055   1.309 -25.261  1.00  0.00     0.000 C 
BRANCH   2   3
ATOM      3  C   UNL     1      17.018   1.532 -26.445  1.00  0.00     0.000 C 
BRANCH   3   4
ATOM      4  C   UNL     1      18.078   0.430 -26.642  1.00  0.00     0.000 C 
BRANCH   4   5
ATOM      5  C   UNL     1      19.439   0.711 -25.981  1.00  0.00     0.000 C 
BRANCH   5   6
ATOM      6  C   UNL     1      20.148  -0.567 -25.510  1.00  0.00     0.006 C 
BRANCH   6   7
ATOM      7  C   UNL     1      19.571  -1.802 -26.207  1.00  0.00     0.053 C 
BRANCH   7   8
ATOM      8  C   UNL     1      19.517  -2.960 -25.262  1.00  0.00     0.041 C 
ATOM      9  O   UNL     1      20.516  -3.713 -25.124  1.00  0.00    -0.550 OA
ATOM     10  O   UNL     1      18.345  -3.238 -24.570  1.00  0.00    -0.550 OA
ENDBRANCH   7   8
ENDBRANCH   6   7
ENDBRANCH   5   6
ENDBRANCH   4   5
ENDBRANCH   3   4
ENDBRANCH   2   3
ENDBRANCH   1   2
BRANCH   1  11
ATOM     11  C   UNL     1      16.764   0.016 -23.166  1.00  0.00     0.000 C 
BRANCH  11  12
ATOM     12  C   UNL     1      17.202   1.452 -22.839  1.00  0.00    -0.000 C 
BRANCH  12  13
ATOM     13  C   UNL     1      18.699   1.558 -22.493  1.00  0.00    -0.000 C 
BRANCH  13  14
ATOM     14  C   UNL     1      19.267   0.373 -21.693  1.00  0.00    -0.000 C 
BRANCH  14  15
ATOM     15  C   UNL     1      19.588   0.733 -20.235  1.00  0.00    -0.000 C 
BRANCH  15  16
ATOM     16  C   UNL     1      20.812  -0.049 -19.734  1.00  0.00    -0.000 C 
BRANCH  16  17
ATOM     17  C   UNL     1      20.559  -0.742 -18.386  1.00  0.00    -0.003 C 
ATOM     18  C   UNL     1      19.941  -2.131 -18.542  1.00  0.00     0.004 C 
ENDBRANCH  16  17
ENDBRANCH  15  16
ENDBRANCH  14  15
ENDBRANCH  13  14
ENDBRANCH  12  13
ENDBRANCH  11  12
ENDBRANCH   1  11
TORSDOF 14
ENDMDL
MODEL 8
REMARK VINA RESULT:    -5.008      1.929      4.314
REMARK INTER + INTRA:         -10.404
REMARK INTER:                  -8.980
REMARK INTRA:                  -1.424
REMARK UNBOUND:                -1.298
REMARK SMILES CCCCCCCCCCCCCCCC(=O)[O-]
REMARK SMILES IDX 9 1 10 2 11 3 12 4 13 5 14 6 15 7 16 8 17 9 18 10 8 11 7 12
REMARK SMILES IDX 6 13 5 14 4 15 3 16 2 17 1 18
REMARK H PARENT
REMARK Flexibility Score: inf
ROOT
ATOM      1  C   UNL     1      18.962   0.905 -22.146  1.00  0.00     0.000 C 
ENDROOT
BRANCH   1   2
ATOM      2  C   UNL     1      20.428   0.501 -21.907  1.00  0.00     0.000 C 
BRANCH   2   3
ATOM      3  C   UNL     1      20.899   0.599 -20.442  1.00  0.00     0.000 C 
BRANCH   3   4
ATOM      4  C   UNL     1      19.981  -0.087 -19.412  1.00  0.00     0.000 C 
BRANCH   4   5
ATOM      5  C   UNL     1      20.665  -1.159 -18.544  1.00  0.00     0.000 C 
BRANCH   5   6
ATOM      6  C   UNL     1      19.689  -1.867 -17.593  1.00  0.00     0.006 C 
BRANCH   6   7
ATOM      7  C   UNL     1      20.179  -1.784 -16.144  1.00  0.00     0.053 C 
BRANCH   7   8
ATOM      8  C   UNL     1      19.916  -0.423 -15.580  1.00  0.00     0.041 C 
ATOM      9  O   UNL     1      20.875   0.345 -15.306  1.00  0.00    -0.550 OA
ATOM     10  O   UNL     1      18.614  -0.022 -15.309  1.00  0.00    -0.550 OA
ENDBRANCH   7   8
ENDBRANCH   6   7
ENDBRANCH   5   6
ENDBRANCH   4   5
ENDBRANCH   3   4
ENDBRANCH   2   3
ENDBRANCH   1   2
BRANCH   1  11
ATOM     11  C   UNL     1      18.110  -0.242 -22.709  1.00  0.00     0.000 C 
BRANCH  11  12
ATOM     12  C   UNL     1      16.738   0.270 -23.171  1.00  0.00    -0.000 C 
BRANCH  12  13
ATOM     13  C   UNL     1      16.798   1.683 -23.778  1.00  0.00    -0.000 C 
BRANCH  13  14
ATOM     14  C   UNL     1      16.096   1.836 -25.139  1.00  0.00    -0.000 C 
BRANCH  14  15
ATOM     15  C   UNL     1      16.224   0.587 -26.023  1.00  0.00    -0.000 C 
BRANCH  15  16
ATOM     16  C   UNL     1      17.445   0.693 -26.949  1.00  0.00    -0.000 C 
BRANCH  16  17
ATOM     17  C   UNL     1      18.639  -0.135 -26.450  1.00  0.00    -0.003 C 
ATOM     18  C   UNL     1      19.768   0.732 -25.893  1.00  0.00     0.004 C 
ENDBRANCH  16  17
ENDBRANCH  15  16
ENDBRANCH  14  15
ENDBRANCH  13  14
ENDBRANCH  12  13
ENDBRANCH  11  12
ENDBRANCH   1  11
TORSDOF 14
ENDMDL
MODEL 9
REMARK VINA RESULT:    -4.949      2.294      5.457
REMARK INTER + INTRA:         -10.298
REMARK INTER:                  -8.136
REMARK INTRA:                  -2.162
REMARK UNBOUND:                -1.298
REMARK SMILES CCCCCCCCCCCCCCCC(=O)[O-]
REMARK SMILES IDX 9 1 10 2 11 3 12 4 13 5 14 6 15 7 16 8 17 9 18 10 8 11 7 12
REMARK SMILES IDX 6 13 5 14 4 15 3 16 2 17 1 18
REMARK H PARENT
REMARK Flexibility Score: inf
ROOT
ATOM      1  C   UNL     1      16.339  -0.456 -24.593  1.00  0.00     0.000 C 
ENDROOT
BRANCH   1   2
ATOM      2  C   UNL     1      16.711   0.169 -23.236  1.00  0.00     0.000 C 
BRANCH   2   3
ATOM      3  C   UNL     1      18.091  -0.244 -22.687  1.00  0.00     0.000 C 
BRANCH   3   4
ATOM      4  C   UNL     1      18.810   0.830 -21.846  1.00  0.00     0.000 C 
BRANCH   4   5
ATOM      5  C   UNL     1      20.035   0.329 -21.060  1.00  0.00     0.000 C 
BRANCH   5   6
ATOM      6  C   UNL     1      20.185   1.011 -19.692  1.00  0.00     0.006 C 
BRANCH   6   7
ATOM      7  C   UNL     1      19.944   0.015 -18.555  1.00  0.00     0.053 C 
BRANCH   7   8
ATOM      8  C   UNL     1      19.006   0.593 -17.542  1.00  0.00     0.041 C 
ATOM      9  O   UNL     1      18.999   0.153 -16.363  1.00  0.00    -0.550 OA
ATOM     10  O   UNL     1      18.105   1.583 -17.914  1.00  0.00    -0.550 OA
ENDBRANCH   7   8
ENDBRANCH   6   7
ENDBRANCH   5   6
ENDBRANCH   4   5
ENDBRANCH   3   4
ENDBRANCH   2   3
ENDBRANCH   1   2
BRANCH   1  11
ATOM     11  C   UNL     1      15.678   0.547 -25.550  1.00  0.00     0.000 C 
BRANCH  11  12
ATOM     12  C   UNL     1      16.107   1.985 -25.219  1.00  0.00    -0.000 C 
BRANCH  12  13
ATOM     13  C   UNL     1      17.389   2.413 -25.956  1.00  0.00    -0.000 C 
BRANCH  13  14
ATOM     14  C   UNL     1      18.555   2.830 -25.043  1.00  0.00    -0.000 C 
BRANCH  14  15
ATOM     15  C   UNL     1      19.824   1.994 -25.271  1.00  0.00    -0.000 C 
BRANCH  15  16
ATOM     16  C   UNL     1      19.518   0.756 -26.126  1.00  0.00    -0.000 C 
BRANCH  16  17
ATOM     17  C   UNL     1      20.214  -0.510 -25.604  1.00  0.00    -0.003 C 
ATOM     18  C   UNL     1      21.347  -0.201 -24.625  1.00  0.00     0.004 C 
ENDBRANCH  16  17
ENDBRANCH  15  16
ENDBRANCH  14  15
ENDBRANCH  13  14
ENDBRANCH  12  13
ENDBRANCH  11  12
ENDBRANCH   1  11
TORSDOF 14
ENDMDL
