MODEL 1
REMARK VINA RESULT:    -3.537      0.000      0.000
REMARK INTER + INTRA:          -7.761
REMARK INTER:                  -6.226
REMARK INTRA:                  -1.535
REMARK UNBOUND:                -1.535
REMARK SMILES CCCCCCCCCCCCCCC(=O)[O-]
REMARK SMILES IDX 9 1 10 2 11 3 12 4 13 5 14 6 15 7 16 8 17 9 8 10 7 11 6 12
REMARK SMILES IDX 5 13 4 14 3 15 2 16 1 17
REMARK H PARENT
REMARK Flexibility Score: inf
ROOT
ATOM      1  C   UNL     1     -17.371  24.221  35.835  1.00  0.00     0.000 C 
ENDROOT
BRANCH   1   2
ATOM      2  C   UNL     1     -17.679  25.386  36.789  1.00  0.00     0.000 C 
BRANCH   2   3
ATOM      3  C   UNL     1     -17.588  26.758  36.089  1.00  0.00     0.000 C 
BRANCH   3   4
ATOM      4  C   UNL     1     -18.023  26.732  34.611  1.00  0.00     0.000 C 
BRANCH   4   5
ATOM      5  C   UNL     1     -17.006  27.337  33.624  1.00  0.00     0.006 C 
BRANCH   5   6
ATOM      6  C   UNL     1     -17.093  26.770  32.199  1.00  0.00     0.053 C 
BRANCH   6   7
ATOM      7  C   UNL     1     -16.286  25.518  32.043  1.00  0.00     0.041 C 
ATOM      8  O   UNL     1     -16.759  24.532  31.418  1.00  0.00    -0.550 OA
ATOM      9  O   UNL     1     -15.025  25.426  32.620  1.00  0.00    -0.550 OA
ENDBRANCH   6   7
ENDBRANCH   5   6
ENDBRANCH   4   5
ENDBRANCH   3   4
ENDBRANCH   2   3
ENDBRANCH   1   2
BRANCH   1  10
ATOM     10  C   UNL     1     -18.042  22.928  36.311  1.00  0.00     0.000 C 
BRANCH  10  11
ATOM     11  C   UNL     1     -18.125  21.901  35.175  1.00  0.00    -0.000 C 
BRANCH  11  12
ATOM     12  C   UNL     1     -17.466  22.439  33.899  1.00  0.00    -0.000 C 
BRANCH  12  13
ATOM     13  C   UNL     1     -16.737  21.321  33.142  1.00  0.00    -0.000 C 
BRANCH  13  14
ATOM     14  C   UNL     1     -15.264  21.238  33.569  1.00  0.00    -0.000 C 
BRANCH  14  15
ATOM     15  C   UNL     1     -14.661  22.614  33.889  1.00  0.00    -0.000 C 
BRANCH  15  16
ATOM     16  C   UNL     1     -13.669  22.566  35.060  1.00  0.00    -0.003 C 
ATOM     17  C   UNL     1     -14.356  22.103  36.343  1.00  0.00     0.004 C 
ENDBRANCH  15  16
ENDBRANCH  14  15
ENDBRANCH  13  14
ENDBRANCH  12  13
ENDBRANCH  11  12
ENDBRANCH  10  11
ENDBRANCH   1  10
TORSDOF 13
ENDMDL
MODEL 2
REMARK VINA RESULT:    -3.451      1.553      5.046
REMARK INTER + INTRA:          -7.609
REMARK INTER:                  -6.168
REMARK INTRA:                  -1.441
REMARK UNBOUND:                -1.535
REMARK SMILES CCCCCCCCCCCCCCC(=O)[O-]
REMARK SMILES IDX 9 1 10 2 11 3 12 4 13 5 14 6 15 7 16 8 17 9 8 10 7 11 6 12
REMARK SMILES IDX 5 13 4 14 3 15 2 16 1 17
REMARK H PARENT
REMARK Flexibility Score: inf
ROOT
ATOM      1  C   UNL     1     -17.191  22.705  33.024  1.00  0.00     0.000 C 
ENDROOT
BRANCH   1   2
ATOM      2  C   UNL     1     -18.121  22.155  34.116  1.00  0.00     0.000 C 
BRANCH   2   3
ATOM      3  C   UNL     1     -17.665  22.557  35.534  1.00  0.00     0.000 C 
BRANCH   3   4
ATOM      4  C   UNL     1     -16.251  23.168  35.582  1.00  0.00     0.000 C 
BRANCH   4   5
ATOM      5  C   UNL     1     -15.210  22.335  36.356  1.00  0.00     0.006 C 
BRANCH   5   6
ATOM      6  C   UNL     1     -13.791  22.396  35.771  1.00  0.00     0.053 C 
BRANCH   6   7
ATOM      7  C   UNL     1     -13.803  22.471  34.275  1.00  0.00     0.041 C 
ATOM      8  O   UNL     1     -13.575  23.565  33.693  1.00  0.00    -0.550 OA
ATOM      9  O   UNL     1     -14.102  21.341  33.524  1.00  0.00    -0.550 OA
ENDBRANCH   6   7
ENDBRANCH   5   6
ENDBRANCH   4   5
ENDBRANCH   3   4
ENDBRANCH   2   3
ENDBRANCH   1   2
BRANCH   1  10
ATOM     10  C   UNL     1     -17.618  24.113  32.593  1.00  0.00     0.000 C 
BRANCH  10  11
ATOM     11  C   UNL     1     -16.449  24.871  31.953  1.00  0.00    -0.000 C 
BRANCH  11  12
ATOM     12  C   UNL     1     -16.741  26.375  31.883  1.00  0.00    -0.000 C 
BRANCH  12  13
ATOM     13  C   UNL     1     -17.747  26.792  32.963  1.00  0.00    -0.000 C 
BRANCH  13  14
ATOM     14  C   UNL     1     -17.227  27.998  33.761  1.00  0.00    -0.000 C 
BRANCH  14  15
ATOM     15  C   UNL     1     -17.356  27.803  35.280  1.00  0.00    -0.000 C 
BRANCH  15  16
ATOM     16  C   UNL     1     -17.980  26.449  35.650  1.00  0.00    -0.003 C 
ATOM     17  C   UNL     1     -17.751  26.125  37.124  1.00  0.00     0.004 C 
ENDBRANCH  15  16
ENDBRANCH  14  15
ENDBRANCH  13  14
ENDBRANCH  12  13
ENDBRANCH  11  12
ENDBRANCH  10  11
ENDBRANCH   1  10
TORSDOF 13
ENDMDL
MODEL 3
REMARK VINA RESULT:    -3.403      1.945      5.028
REMARK INTER + INTRA:          -7.524
REMARK INTER:                  -5.903
REMARK INTRA:                  -1.621
REMARK UNBOUND:                -1.535
REMARK SMILES CCCCCCCCCCCCCCC(=O)[O-]
REMARK SMILES IDX 9 1 10 2 11 3 12 4 13 5 14 6 15 7 16 8 17 9 8 10 7 11 6 12
REMARK SMILES IDX 5 13 4 14 3 15 2 16 1 17
REMARK H PARENT
REMARK Flexibility Score: inf
ROOT
ATOM      1  C   UNL     1     -17.008  24.194  35.735  1.00  0.00     0.000 C 
ENDROOT
BRANCH   1   2
ATOM      2  C   UNL     1     -17.814  22.969  35.278  1.00  0.00     0.000 C 
BRANCH   2   3
ATOM      3  C   UNL     1     -17.990  22.919  33.746  1.00  0.00     0.000 C 
BRANCH   3   4
ATOM      4  C   UNL     1     -16.838  22.209  33.010  1.00  0.00     0.000 C 
BRANCH   4   5
ATOM      5  C   UNL     1     -15.782  21.562  33.927  1.00  0.00     0.006 C 
BRANCH   5   6
ATOM      6  C   UNL     1     -14.374  22.161  33.793  1.00  0.00     0.053 C 
BRANCH   6   7
ATOM      7  C   UNL     1     -13.707  22.330  35.124  1.00  0.00     0.041 C 
ATOM      8  O   UNL     1     -12.514  22.729  35.188  1.00  0.00    -0.550 OA
ATOM      9  O   UNL     1     -14.390  22.011  36.290  1.00  0.00    -0.550 OA
ENDBRANCH   6   7
ENDBRANCH   5   6
ENDBRANCH   4   5
ENDBRANCH   3   4
ENDBRANCH   2   3
ENDBRANCH   1   2
BRANCH   1  10
ATOM     10  C   UNL     1     -17.738  24.947  36.853  1.00  0.00     0.000 C 
BRANCH  10  11
ATOM     11  C   UNL     1     -17.746  26.457  36.584  1.00  0.00    -0.000 C 
BRANCH  11  12
ATOM     12  C   UNL     1     -18.125  26.755  35.128  1.00  0.00    -0.000 C 
BRANCH  12  13
ATOM     13  C   UNL     1     -17.066  27.633  34.451  1.00  0.00    -0.000 C 
BRANCH  13  14
ATOM     14  C   UNL     1     -17.330  27.750  32.942  1.00  0.00    -0.000 C 
BRANCH  14  15
ATOM     15  C   UNL     1     -17.354  26.386  32.238  1.00  0.00    -0.000 C 
BRANCH  15  16
ATOM     16  C   UNL     1     -16.030  25.622  32.382  1.00  0.00    -0.003 C 
ATOM     17  C   UNL     1     -15.373  25.399  31.023  1.00  0.00     0.004 C 
ENDBRANCH  15  16
ENDBRANCH  14  15
ENDBRANCH  13  14
ENDBRANCH  12  13
ENDBRANCH  11  12
ENDBRANCH  10  11
ENDBRANCH   1  10
TORSDOF 13
ENDMDL
MODEL 4
REMARK VINA RESULT:    -3.293     13.893     15.835
REMARK INTER + INTRA:          -7.331
REMARK INTER:                  -6.294
REMARK INTRA:                  -1.037
REMARK UNBOUND:                -1.535
REMARK SMILES CCCCCCCCCCCCCCC(=O)[O-]
REMARK SMILES IDX 9 1 10 2 11 3 12 4 13 5 14 6 15 7 16 8 17 9 8 10 7 11 6 12
REMARK SMILES IDX 5 13 4 14 3 15 2 16 1 17
REMARK H PARENT
REMARK Flexibility Score: inf
ROOT
ATOM      1  C   UNL     1      -3.829  24.598  26.571  1.00  0.00     0.000 C 
ENDROOT
BRANCH   1   2
ATOM      2  C   UNL     1      -4.582  23.416  25.944  1.00  0.00     0.000 C 
BRANCH   2   3
ATOM      3  C   UNL     1      -6.085  23.711  25.755  1.00  0.00     0.000 C 
BRANCH   3   4
ATOM      4  C   UNL     1      -7.008  22.787  26.573  1.00  0.00     0.000 C 
BRANCH   4   5
ATOM      5  C   UNL     1      -8.515  23.064  26.409  1.00  0.00     0.006 C 
BRANCH   5   6
ATOM      6  C   UNL     1      -8.887  23.790  25.107  1.00  0.00     0.053 C 
BRANCH   6   7
ATOM      7  C   UNL     1      -9.938  23.052  24.335  1.00  0.00     0.041 C 
ATOM      8  O   UNL     1     -10.525  23.612  23.371  1.00  0.00    -0.550 OA
ATOM      9  O   UNL     1     -10.294  21.761  24.702  1.00  0.00    -0.550 OA
ENDBRANCH   6   7
ENDBRANCH   5   6
ENDBRANCH   4   5
ENDBRANCH   3   4
ENDBRANCH   2   3
ENDBRANCH   1   2
BRANCH   1  10
ATOM     10  C   UNL     1      -3.430  25.625  25.505  1.00  0.00     0.000 C 
BRANCH  10  11
ATOM     11  C   UNL     1      -3.174  27.000  26.134  1.00  0.00    -0.000 C 
BRANCH  11  12
ATOM     12  C   UNL     1      -2.376  27.900  25.183  1.00  0.00    -0.000 C 
BRANCH  12  13
ATOM     13  C   UNL     1      -2.021  27.158  23.889  1.00  0.00    -0.000 C 
BRANCH  13  14
ATOM     14  C   UNL     1      -0.504  27.167  23.648  1.00  0.00    -0.000 C 
BRANCH  14  15
ATOM     15  C   UNL     1       0.219  26.027  24.383  1.00  0.00    -0.000 C 
BRANCH  15  16
ATOM     16  C   UNL     1       0.159  24.698  23.616  1.00  0.00    -0.003 C 
ATOM     17  C   UNL     1      -0.683  23.669  24.366  1.00  0.00     0.004 C 
ENDBRANCH  15  16
ENDBRANCH  14  15
ENDBRANCH  13  14
ENDBRANCH  12  13
ENDBRANCH  11  12
ENDBRANCH  10  11
ENDBRANCH   1  10
TORSDOF 13
ENDMDL
MODEL 5
REMARK VINA RESULT:    -3.170     14.244     16.108
REMARK INTER + INTRA:          -7.113
REMARK INTER:                  -6.175
REMARK INTRA:                  -0.939
REMARK UNBOUND:                -1.535
REMARK SMILES CCCCCCCCCCCCCCC(=O)[O-]
REMARK SMILES IDX 9 1 10 2 11 3 12 4 13 5 14 6 15 7 16 8 17 9 8 10 7 11 6 12
REMARK SMILES IDX 5 13 4 14 3 15 2 16 1 17
REMARK H PARENT
REMARK Flexibility Score: inf
ROOT
ATOM      1  C   UNL     1      -3.857  25.225  25.172  1.00  0.00     0.000 C 
ENDROOT
BRANCH   1   2
ATOM      2  C   UNL     1      -3.405  26.289  26.184  1.00  0.00     0.000 C 
BRANCH   2   3
ATOM      3  C   UNL     1      -2.828  27.545  25.498  1.00  0.00     0.000 C 
BRANCH   3   4
ATOM      4  C   UNL     1      -1.452  27.973  26.043  1.00  0.00     0.000 C 
BRANCH   4   5
ATOM      5  C   UNL     1      -0.243  27.383  25.291  1.00  0.00     0.006 C 
BRANCH   5   6
ATOM      6  C   UNL     1      -0.587  26.762  23.929  1.00  0.00     0.053 C 
BRANCH   6   7
ATOM      7  C   UNL     1      -0.007  25.390  23.776  1.00  0.00     0.041 C 
ATOM      8  O   UNL     1       0.945  25.190  22.975  1.00  0.00    -0.550 OA
ATOM      9  O   UNL     1      -0.540  24.325  24.491  1.00  0.00    -0.550 OA
ENDBRANCH   6   7
ENDBRANCH   5   6
ENDBRANCH   4   5
ENDBRANCH   3   4
ENDBRANCH   2   3
ENDBRANCH   1   2
BRANCH   1  10
ATOM     10  C   UNL     1      -3.740  23.816  25.764  1.00  0.00     0.000 C 
BRANCH  10  11
ATOM     11  C   UNL     1      -4.946  23.492  26.654  1.00  0.00    -0.000 C 
BRANCH  11  12
ATOM     12  C   UNL     1      -6.257  23.602  25.866  1.00  0.00    -0.000 C 
BRANCH  12  13
ATOM     13  C   UNL     1      -7.391  22.850  26.574  1.00  0.00    -0.000 C 
BRANCH  13  14
ATOM     14  C   UNL     1      -8.754  23.206  25.961  1.00  0.00    -0.000 C 
BRANCH  14  15
ATOM     15  C   UNL     1      -8.653  24.298  24.886  1.00  0.00    -0.000 C 
BRANCH  15  16
ATOM     16  C   UNL     1      -9.818  24.253  23.887  1.00  0.00    -0.003 C 
ATOM     17  C   UNL     1     -10.416  22.850  23.803  1.00  0.00     0.004 C 
ENDBRANCH  15  16
ENDBRANCH  14  15
ENDBRANCH  13  14
ENDBRANCH  12  13
ENDBRANCH  11  12
ENDBRANCH  10  11
ENDBRANCH   1  10
TORSDOF 13
ENDMDL
MODEL 6
REMARK VINA RESULT:    -3.101     13.424     15.360
REMARK INTER + INTRA:          -6.993
REMARK INTER:                  -6.426
REMARK INTRA:                  -0.567
REMARK UNBOUND:                -1.535
REMARK SMILES CCCCCCCCCCCCCCC(=O)[O-]
REMARK SMILES IDX 9 1 10 2 11 3 12 4 13 5 14 6 15 7 16 8 17 9 8 10 7 11 6 12
REMARK SMILES IDX 5 13 4 14 3 15 2 16 1 17
REMARK H PARENT
REMARK Flexibility Score: inf
ROOT
ATOM      1  C   UNL     1      -4.869  23.263  25.836  1.00  0.00     0.000 C 
ENDROOT
BRANCH   1   2
ATOM      2  C   UNL     1      -3.964  24.341  26.452  1.00  0.00     0.000 C 
BRANCH   2   3
ATOM      3  C   UNL     1      -3.793  25.564  25.527  1.00  0.00     0.000 C 
BRANCH   3   4
ATOM      4  C   UNL     1      -3.195  26.797  26.231  1.00  0.00     0.000 C 
BRANCH   4   5
ATOM      5  C   UNL     1      -2.074  27.511  25.451  1.00  0.00     0.006 C 
BRANCH   5   6
ATOM      6  C   UNL     1      -1.659  26.804  24.151  1.00  0.00     0.053 C 
BRANCH   6   7
ATOM      7  C   UNL     1      -0.424  25.976  24.332  1.00  0.00     0.041 C 
ATOM      8  O   UNL     1       0.706  26.529  24.390  1.00  0.00    -0.550 OA
ATOM      9  O   UNL     1      -0.518  24.592  24.402  1.00  0.00    -0.550 OA
ENDBRANCH   6   7
ENDBRANCH   5   6
ENDBRANCH   4   5
ENDBRANCH   3   4
ENDBRANCH   2   3
ENDBRANCH   1   2
BRANCH   1  10
ATOM     10  C   UNL     1      -6.348  23.644  25.968  1.00  0.00     0.000 C 
BRANCH  10  11
ATOM     11  C   UNL     1      -7.145  22.522  26.644  1.00  0.00    -0.000 C 
BRANCH  11  12
ATOM     12  C   UNL     1      -8.644  22.848  26.662  1.00  0.00    -0.000 C 
BRANCH  12  13
ATOM     13  C   UNL     1      -9.088  23.478  25.337  1.00  0.00    -0.000 C 
BRANCH  13  14
ATOM     14  C   UNL     1      -9.964  22.506  24.531  1.00  0.00    -0.000 C 
BRANCH  14  15
ATOM     15  C   UNL     1     -11.096  23.217  23.774  1.00  0.00    -0.000 C 
BRANCH  15  16
ATOM     16  C   UNL     1     -10.678  23.658  22.364  1.00  0.00    -0.003 C 
ATOM     17  C   UNL     1     -11.822  23.477  21.370  1.00  0.00     0.004 C 
ENDBRANCH  15  16
ENDBRANCH  14  15
ENDBRANCH  13  14
ENDBRANCH  12  13
ENDBRANCH  11  12
ENDBRANCH  10  11
ENDBRANCH   1  10
TORSDOF 13
ENDMDL
MODEL 7
REMARK VINA RESULT:    -3.021     17.871     19.880
REMARK INTER + INTRA:          -6.852
REMARK INTER:                  -5.791
REMARK INTRA:                  -1.061
REMARK UNBOUND:                -1.535
REMARK SMILES CCCCCCCCCCCCCCC(=O)[O-]
REMARK SMILES IDX 9 1 10 2 11 3 12 4 13 5 14 6 15 7 16 8 17 9 8 10 7 11 6 12
REMARK SMILES IDX 5 13 4 14 3 15 2 16 1 17
REMARK H PARENT
REMARK Flexibility Score: inf
ROOT
ATOM      1  C   UNL     1      -0.698  23.721  24.385  1.00  0.00     0.000 C 
ENDROOT
BRANCH   1   2
ATOM      2  C   UNL     1      -0.540  22.565  23.385  1.00  0.00     0.000 C 
BRANCH   2   3
ATOM      3  C   UNL     1       0.429  22.911  22.235  1.00  0.00     0.000 C 
BRANCH   3   4
ATOM      4  C   UNL     1       0.115  22.178  20.917  1.00  0.00     0.000 C 
BRANCH   4   5
ATOM      5  C   UNL     1       0.922  22.662  19.697  1.00  0.00     0.006 C 
BRANCH   5   6
ATOM      6  C   UNL     1       0.887  24.182  19.478  1.00  0.00     0.053 C 
BRANCH   6   7
ATOM      7  C   UNL     1       0.137  24.552  18.234  1.00  0.00     0.041 C 
ATOM      8  O   UNL     1      -0.085  23.686  17.347  1.00  0.00    -0.550 OA
ATOM      9  O   UNL     1      -0.284  25.861  18.039  1.00  0.00    -0.550 OA
ENDBRANCH   6   7
ENDBRANCH   5   6
ENDBRANCH   4   5
ENDBRANCH   3   4
ENDBRANCH   2   3
ENDBRANCH   1   2
BRANCH   1  10
ATOM     10  C   UNL     1      -0.088  25.014  23.833  1.00  0.00     0.000 C 
BRANCH  10  11
ATOM     11  C   UNL     1      -0.508  26.224  24.677  1.00  0.00    -0.000 C 
BRANCH  11  12
ATOM     12  C   UNL     1      -1.833  26.811  24.176  1.00  0.00    -0.000 C 
BRANCH  12  13
ATOM     13  C   UNL     1      -2.567  27.553  25.300  1.00  0.00    -0.000 C 
BRANCH  13  14
ATOM     14  C   UNL     1      -3.271  26.565  26.243  1.00  0.00    -0.000 C 
BRANCH  14  15
ATOM     15  C   UNL     1      -3.860  25.356  25.502  1.00  0.00    -0.000 C 
BRANCH  15  16
ATOM     16  C   UNL     1      -3.885  24.087  26.367  1.00  0.00    -0.003 C 
ATOM     17  C   UNL     1      -5.211  23.346  26.217  1.00  0.00     0.004 C 
ENDBRANCH  15  16
ENDBRANCH  14  15
ENDBRANCH  13  14
ENDBRANCH  12  13
ENDBRANCH  11  12
ENDBRANCH  10  11
ENDBRANCH   1  10
TORSDOF 13
ENDMDL
MODEL 8
REMARK VINA RESULT:    -3.011     18.532     20.667
REMARK INTER + INTRA:          -6.834
REMARK INTER:                  -5.989
REMARK INTRA:                  -0.845
REMARK UNBOUND:                -1.535
REMARK SMILES CCCCCCCCCCCCCCC(=O)[O-]
REMARK SMILES IDX 9 1 10 2 11 3 12 4 13 5 14 6 15 7 16 8 17 9 8 10 7 11 6 12
REMARK SMILES IDX 5 13 4 14 3 15 2 16 1 17
REMARK H PARENT
REMARK Flexibility Score: inf
ROOT
ATOM      1  C   UNL     1      -0.555  22.619  23.325  1.00  0.00     0.000 C 
ENDROOT
BRANCH   1   2
ATOM      2  C   UNL     1       0.429  22.915  22.183  1.00  0.00     0.000 C 
BRANCH   2   3
ATOM      3  C   UNL     1       0.169  22.037  20.941  1.00  0.00     0.000 C 
BRANCH   3   4
ATOM      4  C   UNL     1       1.342  22.010  19.942  1.00  0.00     0.000 C 
BRANCH   4   5
ATOM      5  C   UNL     1       1.862  20.603  19.589  1.00  0.00     0.006 C 
BRANCH   5   6
ATOM      6  C   UNL     1       0.846  19.721  18.846  1.00  0.00     0.053 C 
BRANCH   6   7
ATOM      7  C   UNL     1       0.696  18.376  19.489  1.00  0.00     0.041 C 
ATOM      8  O   UNL     1      -0.198  17.581  19.093  1.00  0.00    -0.550 OA
ATOM      9  O   UNL     1       1.518  18.014  20.547  1.00  0.00    -0.550 OA
ENDBRANCH   6   7
ENDBRANCH   5   6
ENDBRANCH   4   5
ENDBRANCH   3   4
ENDBRANCH   2   3
ENDBRANCH   1   2
BRANCH   1  10
ATOM     10  C   UNL     1      -0.545  23.745  24.366  1.00  0.00     0.000 C 
BRANCH  10  11
ATOM     11  C   UNL     1       0.046  25.032  23.778  1.00  0.00    -0.000 C 
BRANCH  11  12
ATOM     12  C   UNL     1      -0.396  26.259  24.586  1.00  0.00    -0.000 C 
BRANCH  12  13
ATOM     13  C   UNL     1      -1.864  26.604  24.306  1.00  0.00    -0.000 C 
BRANCH  13  14
ATOM     14  C   UNL     1      -2.541  27.182  25.558  1.00  0.00    -0.000 C 
BRANCH  14  15
ATOM     15  C   UNL     1      -3.524  26.196  26.208  1.00  0.00    -0.000 C 
BRANCH  15  16
ATOM     16  C   UNL     1      -3.672  24.895  25.406  1.00  0.00    -0.003 C 
ATOM     17  C   UNL     1      -4.479  23.859  26.185  1.00  0.00     0.004 C 
ENDBRANCH  15  16
ENDBRANCH  14  15
ENDBRANCH  13  14
ENDBRANCH  12  13
ENDBRANCH  11  12
ENDBRANCH  10  11
ENDBRANCH   1  10
TORSDOF 13
ENDMDL
