MODEL 1
REMARK VINA RESULT:    -4.526      0.000      0.000
REMARK INTER + INTRA:          -5.416
REMARK INTER:                  -5.452
REMARK INTRA:                   0.036
REMARK UNBOUND:                 0.036
REMARK SMILES CC[C@@H](C)[C@@H]([NH3+])C(=O)[O-]
REMARK SMILES IDX 3 1 4 2 5 3 6 4 7 8 8 9 9 10 2 11 1 12
REMARK H PARENT 6 5 6 6 6 7
REMARK Flexibility Score: inf
ROOT
ATOM      1  C   UNL     1     203.537 203.626 243.840  1.00  0.00     0.050 C 
ATOM      2  C   UNL     1     204.292 204.506 242.826  1.00  0.00     0.014 C 
ENDROOT
BRANCH   1   3
ATOM      3  C   UNL     1     202.259 203.002 243.199  1.00  0.00     0.230 C 
BRANCH   3   4
ATOM      4  N   UNL     1     201.431 203.994 242.494  1.00  0.00    -0.350 N 
ATOM      5  H   UNL     1     201.115 204.740 243.155  1.00  0.00     0.345 HD
ATOM      6  H   UNL     1     200.576 203.526 242.114  1.00  0.00     0.345 HD
ATOM      7  H   UNL     1     201.952 204.431 241.701  1.00  0.00     0.345 HD
ENDBRANCH   3   4
BRANCH   3   8
ATOM      8  C   UNL     1     202.616 201.853 242.287  1.00  0.00     0.099 C 
ATOM      9  O   UNL     1     202.480 200.668 242.689  1.00  0.00    -0.544 OA
ATOM     10  O   UNL     1     203.134 202.087 241.018  1.00  0.00    -0.544 OA
ENDBRANCH   3   8
ENDBRANCH   1   3
BRANCH   1  11
ATOM     11  C   UNL     1     204.476 202.565 244.471  1.00  0.00     0.006 C 
ATOM     12  C   UNL     1     203.959 202.042 245.812  1.00  0.00     0.004 C 
ENDBRANCH   1  11
TORSDOF 4
ENDMDL
MODEL 2
REMARK VINA RESULT:    -4.355      2.318      3.069
REMARK INTER + INTRA:          -5.210
REMARK INTER:                  -5.281
REMARK INTRA:                   0.071
REMARK UNBOUND:                 0.036
REMARK SMILES CC[C@@H](C)[C@@H]([NH3+])C(=O)[O-]
REMARK SMILES IDX 3 1 4 2 5 3 6 4 7 8 8 9 9 10 2 11 1 12
REMARK H PARENT 6 5 6 6 6 7
REMARK Flexibility Score: inf
ROOT
ATOM      1  C   UNL     1     203.460 201.752 243.733  1.00  0.00     0.050 C 
ATOM      2  C   UNL     1     202.635 201.054 242.635  1.00  0.00     0.014 C 
ENDROOT
BRANCH   1   3
ATOM      3  C   UNL     1     204.716 202.454 243.131  1.00  0.00     0.230 C 
BRANCH   3   4
ATOM      4  N   UNL     1     205.554 201.542 242.336  1.00  0.00    -0.350 N 
ATOM      5  H   UNL     1     205.766 201.963 241.403  1.00  0.00     0.345 HD
ATOM      6  H   UNL     1     205.034 200.649 242.168  1.00  0.00     0.345 HD
ATOM      7  H   UNL     1     206.448 201.320 242.827  1.00  0.00     0.345 HD
ENDBRANCH   3   4
BRANCH   3   8
ATOM      8  C   UNL     1     204.323 203.667 242.321  1.00  0.00     0.099 C 
ATOM      9  O   UNL     1     203.911 203.525 241.140  1.00  0.00    -0.544 OA
ATOM     10  O   UNL     1     204.451 204.946 242.849  1.00  0.00    -0.544 OA
ENDBRANCH   3   8
ENDBRANCH   1   3
BRANCH   1  11
ATOM     11  C   UNL     1     202.577 202.711 244.574  1.00  0.00     0.006 C 
ATOM     12  C   UNL     1     203.012 202.781 246.039  1.00  0.00     0.004 C 
ENDBRANCH   1  11
TORSDOF 4
ENDMDL
MODEL 3
REMARK VINA RESULT:    -4.260      2.223      2.717
REMARK INTER + INTRA:          -5.096
REMARK INTER:                  -4.992
REMARK INTRA:                  -0.104
REMARK UNBOUND:                 0.036
REMARK SMILES CC[C@@H](C)[C@@H]([NH3+])C(=O)[O-]
REMARK SMILES IDX 3 1 4 2 5 3 6 4 7 8 8 9 9 10 2 11 1 12
REMARK H PARENT 6 5 6 6 6 7
REMARK Flexibility Score: inf
ROOT
ATOM      1  C   UNL     1     203.931 201.982 242.248  1.00  0.00     0.050 C 
ATOM      2  C   UNL     1     202.686 201.158 242.622  1.00  0.00     0.014 C 
ENDROOT
BRANCH   1   3
ATOM      3  C   UNL     1     203.544 203.224 241.387  1.00  0.00     0.230 C 
BRANCH   3   4
ATOM      4  N   UNL     1     204.388 204.397 241.664  1.00  0.00    -0.350 N 
ATOM      5  H   UNL     1     205.328 204.096 242.006  1.00  0.00     0.345 HD
ATOM      6  H   UNL     1     203.947 204.972 242.420  1.00  0.00     0.345 HD
ATOM      7  H   UNL     1     204.502 204.995 240.816  1.00  0.00     0.345 HD
ENDBRANCH   3   4
BRANCH   3   8
ATOM      8  C   UNL     1     203.557 202.889 239.914  1.00  0.00     0.099 C 
ATOM      9  O   UNL     1     204.517 202.236 239.429  1.00  0.00    -0.544 OA
ATOM     10  O   UNL     1     202.540 203.330 239.076  1.00  0.00    -0.544 OA
ENDBRANCH   3   8
ENDBRANCH   1   3
BRANCH   1  11
ATOM     11  C   UNL     1     204.757 202.355 243.506  1.00  0.00     0.006 C 
ATOM     12  C   UNL     1     203.933 202.294 244.793  1.00  0.00     0.004 C 
ENDBRANCH   1  11
TORSDOF 4
ENDMDL
MODEL 4
REMARK VINA RESULT:    -4.257      2.223      2.613
REMARK INTER + INTRA:          -5.091
REMARK INTER:                  -5.004
REMARK INTRA:                  -0.087
REMARK UNBOUND:                 0.036
REMARK SMILES CC[C@@H](C)[C@@H]([NH3+])C(=O)[O-]
REMARK SMILES IDX 3 1 4 2 5 3 6 4 7 8 8 9 9 10 2 11 1 12
REMARK H PARENT 6 5 6 6 6 7
REMARK Flexibility Score: inf
ROOT
ATOM      1  C   UNL     1     203.068 203.479 242.183  1.00  0.00     0.050 C 
ATOM      2  C   UNL     1     204.310 204.229 242.699  1.00  0.00     0.014 C 
ENDROOT
BRANCH   1   3
ATOM      3  C   UNL     1     203.475 202.248 241.315  1.00  0.00     0.230 C 
BRANCH   3   4
ATOM      4  N   UNL     1     202.596 201.087 241.524  1.00  0.00    -0.350 N 
ATOM      5  H   UNL     1     201.983 200.940 240.690  1.00  0.00     0.345 HD
ATOM      6  H   UNL     1     201.974 201.264 242.346  1.00  0.00     0.345 HD
ATOM      7  H   UNL     1     203.148 200.219 241.705  1.00  0.00     0.345 HD
ENDBRANCH   3   4
BRANCH   3   8
ATOM      8  C   UNL     1     203.543 202.615 239.852  1.00  0.00     0.099 C 
ATOM      9  O   UNL     1     204.546 202.282 239.168  1.00  0.00    -0.544 OA
ATOM     10  O   UNL     1     202.528 203.356 239.256  1.00  0.00    -0.544 OA
ENDBRANCH   3   8
ENDBRANCH   1   3
BRANCH   1  11
ATOM     11  C   UNL     1     202.113 203.108 243.347  1.00  0.00     0.006 C 
ATOM     12  C   UNL     1     202.857 202.816 244.651  1.00  0.00     0.004 C 
ENDBRANCH   1  11
TORSDOF 4
ENDMDL
MODEL 5
REMARK VINA RESULT:    -4.213      2.560      3.896
REMARK INTER + INTRA:          -5.039
REMARK INTER:                  -5.031
REMARK INTRA:                  -0.009
REMARK UNBOUND:                 0.036
REMARK SMILES CC[C@@H](C)[C@@H]([NH3+])C(=O)[O-]
REMARK SMILES IDX 3 1 4 2 5 3 6 4 7 8 8 9 9 10 2 11 1 12
REMARK H PARENT 6 5 6 6 6 7
REMARK Flexibility Score: inf
ROOT
ATOM      1  C   UNL     1     203.341 202.727 241.758  1.00  0.00     0.050 C 
ATOM      2  C   UNL     1     202.796 201.411 242.345  1.00  0.00     0.014 C 
ENDROOT
BRANCH   1   3
ATOM      3  C   UNL     1     204.468 203.318 242.660  1.00  0.00     0.230 C 
BRANCH   3   4
ATOM      4  N   UNL     1     204.724 204.742 242.393  1.00  0.00    -0.350 N 
ATOM      5  H   UNL     1     205.203 204.859 241.471  1.00  0.00     0.345 HD
ATOM      6  H   UNL     1     205.361 205.126 243.130  1.00  0.00     0.345 HD
ATOM      7  H   UNL     1     203.839 205.297 242.396  1.00  0.00     0.345 HD
ENDBRANCH   3   4
BRANCH   3   8
ATOM      8  C   UNL     1     204.167 203.092 244.123  1.00  0.00     0.099 C 
ATOM      9  O   UNL     1     203.285 203.782 244.695  1.00  0.00    -0.544 OA
ATOM     10  O   UNL     1     204.885 202.156 244.859  1.00  0.00    -0.544 OA
ENDBRANCH   3   8
ENDBRANCH   1   3
BRANCH   1  11
ATOM     11  C   UNL     1     203.782 202.544 240.283  1.00  0.00     0.006 C 
ATOM     12  C   UNL     1     202.836 203.228 239.294  1.00  0.00     0.004 C 
ENDBRANCH   1  11
TORSDOF 4
ENDMDL
MODEL 6
REMARK VINA RESULT:    -4.157      1.861      2.123
REMARK INTER + INTRA:          -4.971
REMARK INTER:                  -5.051
REMARK INTRA:                   0.080
REMARK UNBOUND:                 0.036
REMARK SMILES CC[C@@H](C)[C@@H]([NH3+])C(=O)[O-]
REMARK SMILES IDX 3 1 4 2 5 3 6 4 7 8 8 9 9 10 2 11 1 12
REMARK H PARENT 6 5 6 6 6 7
REMARK Flexibility Score: inf
ROOT
ATOM      1  C   UNL     1     202.527 202.635 243.822  1.00  0.00     0.050 C 
ATOM      2  C   UNL     1     201.788 203.585 242.862  1.00  0.00     0.014 C 
ENDROOT
BRANCH   1   3
ATOM      3  C   UNL     1     203.176 201.447 243.046  1.00  0.00     0.230 C 
BRANCH   3   4
ATOM      4  N   UNL     1     202.200 200.681 242.254  1.00  0.00    -0.350 N 
ATOM      5  H   UNL     1     202.586 200.469 241.307  1.00  0.00     0.345 HD
ATOM      6  H   UNL     1     201.334 201.253 242.121  1.00  0.00     0.345 HD
ATOM      7  H   UNL     1     201.939 199.788 242.729  1.00  0.00     0.345 HD
ENDBRANCH   3   4
BRANCH   3   8
ATOM      8  C   UNL     1     204.316 201.924 242.178  1.00  0.00     0.099 C 
ATOM      9  O   UNL     1     205.492 201.912 242.626  1.00  0.00    -0.544 OA
ATOM     10  O   UNL     1     204.078 202.418 240.901  1.00  0.00    -0.544 OA
ENDBRANCH   3   8
ENDBRANCH   1   3
BRANCH   1  11
ATOM     11  C   UNL     1     203.543 203.406 244.704  1.00  0.00     0.006 C 
ATOM     12  C   UNL     1     203.973 202.614 245.940  1.00  0.00     0.004 C 
ENDBRANCH   1  11
TORSDOF 4
ENDMDL
MODEL 7
REMARK VINA RESULT:    -4.094      3.132      4.505
REMARK INTER + INTRA:          -4.896
REMARK INTER:                  -4.845
REMARK INTRA:                  -0.051
REMARK UNBOUND:                 0.036
REMARK SMILES CC[C@@H](C)[C@@H]([NH3+])C(=O)[O-]
REMARK SMILES IDX 3 1 4 2 5 3 6 4 7 8 8 9 9 10 2 11 1 12
REMARK H PARENT 6 5 6 6 6 7
REMARK Flexibility Score: inf
ROOT
ATOM      1  C   UNL     1     203.171 203.092 239.619  1.00  0.00     0.050 C 
ATOM      2  C   UNL     1     202.922 201.722 238.961  1.00  0.00     0.014 C 
ENDROOT
BRANCH   1   3
ATOM      3  C   UNL     1     203.747 202.926 241.059  1.00  0.00     0.230 C 
BRANCH   3   4
ATOM      4  N   UNL     1     204.432 204.134 241.543  1.00  0.00    -0.350 N 
ATOM      5  H   UNL     1     205.466 203.983 241.562  1.00  0.00     0.345 HD
ATOM      6  H   UNL     1     204.125 204.340 242.522  1.00  0.00     0.345 HD
ATOM      7  H   UNL     1     204.215 204.962 240.945  1.00  0.00     0.345 HD
ENDBRANCH   3   4
BRANCH   3   8
ATOM      8  C   UNL     1     202.670 202.495 242.027  1.00  0.00     0.099 C 
ATOM      9  O   UNL     1     201.963 203.362 242.604  1.00  0.00    -0.544 OA
ATOM     10  O   UNL     1     202.476 201.150 242.322  1.00  0.00    -0.544 OA
ENDBRANCH   3   8
ENDBRANCH   1   3
BRANCH   1  11
ATOM     11  C   UNL     1     204.053 203.995 238.718  1.00  0.00     0.006 C 
ATOM     12  C   UNL     1     203.417 204.270 237.354  1.00  0.00     0.004 C 
ENDBRANCH   1  11
TORSDOF 4
ENDMDL
MODEL 8
REMARK VINA RESULT:    -4.081      2.401      3.416
REMARK INTER + INTRA:          -4.880
REMARK INTER:                  -4.893
REMARK INTRA:                   0.013
REMARK UNBOUND:                 0.036
REMARK SMILES CC[C@@H](C)[C@@H]([NH3+])C(=O)[O-]
REMARK SMILES IDX 3 1 4 2 5 3 6 4 7 8 8 9 9 10 2 11 1 12
REMARK H PARENT 6 5 6 6 6 7
REMARK Flexibility Score: inf
ROOT
ATOM      1  C   UNL     1     203.731 202.880 242.013  1.00  0.00     0.050 C 
ATOM      2  C   UNL     1     204.176 204.231 242.603  1.00  0.00     0.014 C 
ENDROOT
BRANCH   1   3
ATOM      3  C   UNL     1     202.715 202.164 242.957  1.00  0.00     0.230 C 
BRANCH   3   4
ATOM      4  N   UNL     1     202.458 200.769 242.566  1.00  0.00    -0.350 N 
ATOM      5  H   UNL     1     201.440 200.625 242.380  1.00  0.00     0.345 HD
ATOM      6  H   UNL     1     202.729 200.132 243.351  1.00  0.00     0.345 HD
ATOM      7  H   UNL     1     203.006 200.503 241.717  1.00  0.00     0.345 HD
ENDBRANCH   3   4
BRANCH   3   8
ATOM      8  C   UNL     1     203.163 202.245 244.397  1.00  0.00     0.099 C 
ATOM      9  O   UNL     1     202.385 202.710 245.270  1.00  0.00    -0.544 OA
ATOM     10  O   UNL     1     204.444 201.850 244.766  1.00  0.00    -0.544 OA
ENDBRANCH   3   8
ENDBRANCH   1   3
BRANCH   1  11
ATOM     11  C   UNL     1     203.196 203.047 240.567  1.00  0.00     0.006 C 
ATOM     12  C   UNL     1     204.143 202.465 239.517  1.00  0.00     0.004 C 
ENDBRANCH   1  11
TORSDOF 4
ENDMDL
MODEL 9
REMARK VINA RESULT:    -4.058      3.271      4.535
REMARK INTER + INTRA:          -4.852
REMARK INTER:                  -4.791
REMARK INTRA:                  -0.062
REMARK UNBOUND:                 0.036
REMARK SMILES CC[C@@H](C)[C@@H]([NH3+])C(=O)[O-]
REMARK SMILES IDX 3 1 4 2 5 3 6 4 7 8 8 9 9 10 2 11 1 12
REMARK H PARENT 6 5 6 6 6 7
REMARK Flexibility Score: inf
ROOT
ATOM      1  C   UNL     1     203.786 202.461 239.507  1.00  0.00     0.050 C 
ATOM      2  C   UNL     1     203.981 203.890 238.968  1.00  0.00     0.014 C 
ENDROOT
BRANCH   1   3
ATOM      3  C   UNL     1     203.141 202.480 240.928  1.00  0.00     0.230 C 
BRANCH   3   4
ATOM      4  N   UNL     1     202.472 201.215 241.269  1.00  0.00    -0.350 N 
ATOM      5  H   UNL     1     203.164 200.433 241.296  1.00  0.00     0.345 HD
ATOM      6  H   UNL     1     201.765 200.986 240.532  1.00  0.00     0.345 HD
ATOM      7  H   UNL     1     201.984 201.278 242.190  1.00  0.00     0.345 HD
ENDBRANCH   3   4
BRANCH   3   8
ATOM      8  C   UNL     1     204.160 202.850 241.980  1.00  0.00     0.099 C 
ATOM      9  O   UNL     1     204.886 201.958 242.490  1.00  0.00    -0.544 OA
ATOM     10  O   UNL     1     204.277 204.162 242.426  1.00  0.00    -0.544 OA
ENDBRANCH   3   8
ENDBRANCH   1   3
BRANCH   1  11
ATOM     11  C   UNL     1     202.999 201.582 238.500  1.00  0.00     0.006 C 
ATOM     12  C   UNL     1     203.684 201.490 237.136  1.00  0.00     0.004 C 
ENDBRANCH   1  11
TORSDOF 4
ENDMDL
