MODEL 1
REMARK VINA RESULT:    -2.558      0.000      0.000
REMARK INTER + INTRA:          -6.805
REMARK INTER:                  -4.652
REMARK INTRA:                  -2.153
REMARK UNBOUND:                -2.153
REMARK SMILES CCCCCCCCCCCCCCCC(=O)[O-]
REMARK SMILES IDX 9 1 10 2 11 3 12 4 13 5 14 6 15 7 16 8 17 9 18 10 8 11 7 12
REMARK SMILES IDX 6 13 5 14 4 15 3 16 2 17 1 18
REMARK H PARENT
REMARK Flexibility Score: inf
ROOT
ATOM      1  C   UNL     1      52.442 -35.107  25.487  1.00  0.00     0.000 C 
ENDROOT
BRANCH   1   2
ATOM      2  C   UNL     1      51.553 -36.271  25.014  1.00  0.00     0.000 C 
BRANCH   2   3
ATOM      3  C   UNL     1      50.638 -35.943  23.822  1.00  0.00     0.000 C 
BRANCH   3   4
ATOM      4  C   UNL     1      51.083 -34.688  23.052  1.00  0.00     0.000 C 
BRANCH   4   5
ATOM      5  C   UNL     1      49.952 -33.645  22.942  1.00  0.00     0.000 C 
BRANCH   5   6
ATOM      6  C   UNL     1      50.349 -32.240  23.434  1.00  0.00     0.006 C 
BRANCH   6   7
ATOM      7  C   UNL     1      51.847 -31.918  23.277  1.00  0.00     0.053 C 
BRANCH   7   8
ATOM      8  C   UNL     1      52.359 -30.977  24.328  1.00  0.00     0.041 C 
ATOM      9  O   UNL     1      52.575 -29.767  24.052  1.00  0.00    -0.550 OA
ATOM     10  O   UNL     1      52.527 -31.420  25.633  1.00  0.00    -0.550 OA
ENDBRANCH   7   8
ENDBRANCH   6   7
ENDBRANCH   5   6
ENDBRANCH   4   5
ENDBRANCH   3   4
ENDBRANCH   2   3
ENDBRANCH   1   2
BRANCH   1  11
ATOM     11  C   UNL     1      53.940 -35.378  25.281  1.00  0.00     0.000 C 
BRANCH  11  12
ATOM     12  C   UNL     1      54.668 -34.112  24.813  1.00  0.00    -0.000 C 
BRANCH  12  13
ATOM     13  C   UNL     1      54.777 -34.075  23.281  1.00  0.00    -0.000 C 
BRANCH  13  14
ATOM     14  C   UNL     1      54.748 -35.475  22.650  1.00  0.00    -0.000 C 
BRANCH  14  15
ATOM     15  C   UNL     1      56.076 -35.847  21.968  1.00  0.00    -0.000 C 
BRANCH  15  16
ATOM     16  C   UNL     1      56.837 -36.947  22.737  1.00  0.00    -0.000 C 
BRANCH  16  17
ATOM     17  C   UNL     1      57.569 -36.427  23.987  1.00  0.00    -0.003 C 
ATOM     18  C   UNL     1      57.126 -37.123  25.272  1.00  0.00     0.004 C 
ENDBRANCH  16  17
ENDBRANCH  15  16
ENDBRANCH  14  15
ENDBRANCH  13  14
ENDBRANCH  12  13
ENDBRANCH  11  12
ENDBRANCH   1  11
TORSDOF 14
ENDMDL
MODEL 2
REMARK VINA RESULT:    -2.539      2.483      5.985
REMARK INTER + INTRA:          -6.771
REMARK INTER:                  -4.607
REMARK INTRA:                  -2.164
REMARK UNBOUND:                -2.153
REMARK SMILES CCCCCCCCCCCCCCCC(=O)[O-]
REMARK SMILES IDX 9 1 10 2 11 3 12 4 13 5 14 6 15 7 16 8 17 9 18 10 8 11 7 12
REMARK SMILES IDX 6 13 5 14 4 15 3 16 2 17 1 18
REMARK H PARENT
REMARK Flexibility Score: inf
ROOT
ATOM      1  C   UNL     1      54.528 -35.512  24.205  1.00  0.00     0.000 C 
ENDROOT
BRANCH   1   2
ATOM      2  C   UNL     1      54.340 -35.558  22.678  1.00  0.00     0.000 C 
BRANCH   2   3
ATOM      3  C   UNL     1      55.619 -35.864  21.878  1.00  0.00     0.000 C 
BRANCH   3   4
ATOM      4  C   UNL     1      56.687 -36.592  22.711  1.00  0.00     0.000 C 
BRANCH   4   5
ATOM      5  C   UNL     1      58.113 -36.105  22.378  1.00  0.00     0.000 C 
BRANCH   5   6
ATOM      6  C   UNL     1      58.816 -35.388  23.546  1.00  0.00     0.006 C 
BRANCH   6   7
ATOM      7  C   UNL     1      58.004 -34.227  24.153  1.00  0.00     0.053 C 
BRANCH   7   8
ATOM      8  C   UNL     1      57.880 -34.315  25.646  1.00  0.00     0.041 C 
ATOM      9  O   UNL     1      57.450 -35.366  26.190  1.00  0.00    -0.550 OA
ATOM     10  O   UNL     1      58.310 -33.262  26.441  1.00  0.00    -0.550 OA
ENDBRANCH   7   8
ENDBRANCH   6   7
ENDBRANCH   5   6
ENDBRANCH   4   5
ENDBRANCH   3   4
ENDBRANCH   2   3
ENDBRANCH   1   2
BRANCH   1  11
ATOM     11  C   UNL     1      54.185 -34.142  24.808  1.00  0.00     0.000 C 
BRANCH  11  12
ATOM     12  C   UNL     1      54.374 -33.025  23.775  1.00  0.00    -0.000 C 
BRANCH  12  13
ATOM     13  C   UNL     1      53.525 -31.796  24.133  1.00  0.00    -0.000 C 
BRANCH  13  14
ATOM     14  C   UNL     1      52.072 -32.158  24.475  1.00  0.00    -0.000 C 
BRANCH  14  15
ATOM     15  C   UNL     1      51.172 -32.246  23.230  1.00  0.00    -0.000 C 
BRANCH  15  16
ATOM     16  C   UNL     1      50.176 -33.422  23.315  1.00  0.00    -0.000 C 
BRANCH  16  17
ATOM     17  C   UNL     1      50.785 -34.773  22.902  1.00  0.00    -0.003 C 
ATOM     18  C   UNL     1      50.807 -35.792  24.039  1.00  0.00     0.004 C 
ENDBRANCH  16  17
ENDBRANCH  15  16
ENDBRANCH  14  15
ENDBRANCH  13  14
ENDBRANCH  12  13
ENDBRANCH  11  12
ENDBRANCH   1  11
TORSDOF 14
ENDMDL
MODEL 3
REMARK VINA RESULT:    -2.512      1.436      3.200
REMARK INTER + INTRA:          -6.721
REMARK INTER:                  -4.574
REMARK INTRA:                  -2.148
REMARK UNBOUND:                -2.153
REMARK SMILES CCCCCCCCCCCCCCCC(=O)[O-]
REMARK SMILES IDX 9 1 10 2 11 3 12 4 13 5 14 6 15 7 16 8 17 9 18 10 8 11 7 12
REMARK SMILES IDX 6 13 5 14 4 15 3 16 2 17 1 18
REMARK H PARENT
REMARK Flexibility Score: inf
ROOT
ATOM      1  C   UNL     1      54.405 -35.521  22.440  1.00  0.00     0.000 C 
ENDROOT
BRANCH   1   2
ATOM      2  C   UNL     1      54.232 -35.609  23.967  1.00  0.00     0.000 C 
BRANCH   2   3
ATOM      3  C   UNL     1      52.916 -35.021  24.504  1.00  0.00     0.000 C 
BRANCH   3   4
ATOM      4  C   UNL     1      51.726 -35.250  23.557  1.00  0.00     0.000 C 
BRANCH   4   5
ATOM      5  C   UNL     1      51.039 -33.928  23.159  1.00  0.00     0.000 C 
BRANCH   5   6
ATOM      6  C   UNL     1      51.555 -32.699  23.931  1.00  0.00     0.006 C 
BRANCH   6   7
ATOM      7  C   UNL     1      51.727 -31.437  23.065  1.00  0.00     0.053 C 
BRANCH   7   8
ATOM      8  C   UNL     1      51.531 -30.164  23.836  1.00  0.00     0.041 C 
ATOM      9  O   UNL     1      50.696 -30.111  24.776  1.00  0.00    -0.550 OA
ATOM     10  O   UNL     1      52.324 -29.058  23.563  1.00  0.00    -0.550 OA
ENDBRANCH   7   8
ENDBRANCH   6   7
ENDBRANCH   5   6
ENDBRANCH   4   5
ENDBRANCH   3   4
ENDBRANCH   2   3
ENDBRANCH   1   2
BRANCH   1  11
ATOM     11  C   UNL     1      55.871 -35.634  21.997  1.00  0.00     0.000 C 
BRANCH  11  12
ATOM     12  C   UNL     1      56.573 -36.794  22.712  1.00  0.00    -0.000 C 
BRANCH  12  13
ATOM     13  C   UNL     1      57.996 -36.399  23.135  1.00  0.00    -0.000 C 
BRANCH  13  14
ATOM     14  C   UNL     1      58.089 -34.943  23.614  1.00  0.00    -0.000 C 
BRANCH  14  15
ATOM     15  C   UNL     1      57.817 -34.793  25.121  1.00  0.00    -0.000 C 
BRANCH  15  16
ATOM     16  C   UNL     1      56.851 -33.629  25.425  1.00  0.00    -0.000 C 
BRANCH  16  17
ATOM     17  C   UNL     1      56.638 -32.680  24.233  1.00  0.00    -0.003 C 
ATOM     18  C   UNL     1      55.247 -32.051  24.210  1.00  0.00     0.004 C 
ENDBRANCH  16  17
ENDBRANCH  15  16
ENDBRANCH  14  15
ENDBRANCH  13  14
ENDBRANCH  12  13
ENDBRANCH  11  12
ENDBRANCH   1  11
TORSDOF 14
ENDMDL
MODEL 4
REMARK VINA RESULT:    -2.506      1.673      2.803
REMARK INTER + INTRA:          -6.709
REMARK INTER:                  -4.335
REMARK INTRA:                  -2.375
REMARK UNBOUND:                -2.153
REMARK SMILES CCCCCCCCCCCCCCCC(=O)[O-]
REMARK SMILES IDX 9 1 10 2 11 3 12 4 13 5 14 6 15 7 16 8 17 9 18 10 8 11 7 12
REMARK SMILES IDX 6 13 5 14 4 15 3 16 2 17 1 18
REMARK H PARENT
REMARK Flexibility Score: inf
ROOT
ATOM      1  C   UNL     1      52.104 -35.648  24.337  1.00  0.00     0.000 C 
ENDROOT
BRANCH   1   2
ATOM      2  C   UNL     1      51.713 -34.835  23.090  1.00  0.00     0.000 C 
BRANCH   2   3
ATOM      3  C   UNL     1      50.268 -34.309  23.088  1.00  0.00     0.000 C 
BRANCH   3   4
ATOM      4  C   UNL     1      50.188 -32.774  23.042  1.00  0.00     0.000 C 
BRANCH   4   5
ATOM      5  C   UNL     1      51.582 -32.118  23.122  1.00  0.00     0.000 C 
BRANCH   5   6
ATOM      6  C   UNL     1      51.545 -30.585  23.260  1.00  0.00     0.006 C 
BRANCH   6   7
ATOM      7  C   UNL     1      52.185 -30.052  24.556  1.00  0.00     0.053 C 
BRANCH   7   8
ATOM      8  C   UNL     1      53.053 -28.849  24.331  1.00  0.00     0.041 C 
ATOM      9  O   UNL     1      52.701 -27.952  23.520  1.00  0.00    -0.550 OA
ATOM     10  O   UNL     1      54.215 -28.683  25.072  1.00  0.00    -0.550 OA
ENDBRANCH   7   8
ENDBRANCH   6   7
ENDBRANCH   5   6
ENDBRANCH   4   5
ENDBRANCH   3   4
ENDBRANCH   2   3
ENDBRANCH   1   2
BRANCH   1  11
ATOM     11  C   UNL     1      51.785 -34.917  25.650  1.00  0.00     0.000 C 
BRANCH  11  12
ATOM     12  C   UNL     1      53.047 -34.746  26.504  1.00  0.00    -0.000 C 
BRANCH  12  13
ATOM     13  C   UNL     1      53.628 -33.333  26.350  1.00  0.00    -0.000 C 
BRANCH  13  14
ATOM     14  C   UNL     1      54.976 -33.323  25.614  1.00  0.00    -0.000 C 
BRANCH  14  15
ATOM     15  C   UNL     1      54.946 -32.472  24.332  1.00  0.00    -0.000 C 
BRANCH  15  16
ATOM     16  C   UNL     1      55.174 -33.322  23.064  1.00  0.00    -0.000 C 
BRANCH  16  17
ATOM     17  C   UNL     1      55.475 -34.801  23.362  1.00  0.00    -0.003 C 
ATOM     18  C   UNL     1      55.327 -35.700  22.137  1.00  0.00     0.004 C 
ENDBRANCH  16  17
ENDBRANCH  15  16
ENDBRANCH  14  15
ENDBRANCH  13  14
ENDBRANCH  12  13
ENDBRANCH  11  12
ENDBRANCH   1  11
TORSDOF 14
ENDMDL
MODEL 5
REMARK VINA RESULT:    -2.504      2.510      5.825
REMARK INTER + INTRA:          -6.707
REMARK INTER:                  -4.382
REMARK INTRA:                  -2.325
REMARK UNBOUND:                -2.153
REMARK SMILES CCCCCCCCCCCCCCCC(=O)[O-]
REMARK SMILES IDX 9 1 10 2 11 3 12 4 13 5 14 6 15 7 16 8 17 9 18 10 8 11 7 12
REMARK SMILES IDX 6 13 5 14 4 15 3 16 2 17 1 18
REMARK H PARENT
REMARK Flexibility Score: inf
ROOT
ATOM      1  C   UNL     1      54.175 -35.544  24.044  1.00  0.00     0.000 C 
ENDROOT
BRANCH   1   2
ATOM      2  C   UNL     1      54.554 -34.798  22.752  1.00  0.00     0.000 C 
BRANCH   2   3
ATOM      3  C   UNL     1      55.426 -35.603  21.773  1.00  0.00     0.000 C 
BRANCH   3   4
ATOM      4  C   UNL     1      56.276 -36.677  22.471  1.00  0.00     0.000 C 
BRANCH   4   5
ATOM      5  C   UNL     1      57.784 -36.358  22.401  1.00  0.00     0.000 C 
BRANCH   5   6
ATOM      6  C   UNL     1      58.464 -36.252  23.779  1.00  0.00     0.006 C 
BRANCH   6   7
ATOM      7  C   UNL     1      57.874 -35.160  24.691  1.00  0.00     0.053 C 
BRANCH   7   8
ATOM      8  C   UNL     1      58.083 -33.773  24.157  1.00  0.00     0.041 C 
ATOM      9  O   UNL     1      57.145 -32.933  24.178  1.00  0.00    -0.550 OA
ATOM     10  O   UNL     1      59.337 -33.386  23.704  1.00  0.00    -0.550 OA
ENDBRANCH   7   8
ENDBRANCH   6   7
ENDBRANCH   5   6
ENDBRANCH   4   5
ENDBRANCH   3   4
ENDBRANCH   2   3
ENDBRANCH   1   2
BRANCH   1  11
ATOM     11  C   UNL     1      52.666 -35.515  24.329  1.00  0.00     0.000 C 
BRANCH  11  12
ATOM     12  C   UNL     1      51.898 -34.886  23.160  1.00  0.00    -0.000 C 
BRANCH  12  13
ATOM     13  C   UNL     1      50.922 -33.809  23.659  1.00  0.00    -0.000 C 
BRANCH  13  14
ATOM     14  C   UNL     1      51.325 -32.394  23.217  1.00  0.00    -0.000 C 
BRANCH  14  15
ATOM     15  C   UNL     1      51.954 -31.572  24.356  1.00  0.00    -0.000 C 
BRANCH  15  16
ATOM     16  C   UNL     1      53.491 -31.708  24.391  1.00  0.00    -0.000 C 
BRANCH  16  17
ATOM     17  C   UNL     1      54.036 -32.179  25.751  1.00  0.00    -0.003 C 
ATOM     18  C   UNL     1      52.944 -32.694  26.686  1.00  0.00     0.004 C 
ENDBRANCH  16  17
ENDBRANCH  15  16
ENDBRANCH  14  15
ENDBRANCH  13  14
ENDBRANCH  12  13
ENDBRANCH  11  12
ENDBRANCH   1  11
TORSDOF 14
ENDMDL
MODEL 6
REMARK VINA RESULT:    -2.453      2.794      5.647
REMARK INTER + INTRA:          -6.613
REMARK INTER:                  -4.081
REMARK INTRA:                  -2.532
REMARK UNBOUND:                -2.153
REMARK SMILES CCCCCCCCCCCCCCCC(=O)[O-]
REMARK SMILES IDX 9 1 10 2 11 3 12 4 13 5 14 6 15 7 16 8 17 9 18 10 8 11 7 12
REMARK SMILES IDX 6 13 5 14 4 15 3 16 2 17 1 18
REMARK H PARENT
REMARK Flexibility Score: inf
ROOT
ATOM      1  C   UNL     1      51.062 -32.542  24.036  1.00  0.00     0.000 C 
ENDROOT
BRANCH   1   2
ATOM      2  C   UNL     1      52.528 -32.218  23.699  1.00  0.00     0.000 C 
BRANCH   2   3
ATOM      3  C   UNL     1      53.507 -32.349  24.879  1.00  0.00     0.000 C 
BRANCH   3   4
ATOM      4  C   UNL     1      54.528 -33.482  24.689  1.00  0.00     0.000 C 
BRANCH   4   5
ATOM      5  C   UNL     1      54.677 -33.886  23.207  1.00  0.00     0.000 C 
BRANCH   5   6
ATOM      6  C   UNL     1      54.465 -35.388  22.945  1.00  0.00     0.006 C 
BRANCH   6   7
ATOM      7  C   UNL     1      55.541 -36.029  22.047  1.00  0.00     0.053 C 
BRANCH   7   8
ATOM      8  C   UNL     1      56.813 -36.335  22.781  1.00  0.00     0.041 C 
ATOM      9  O   UNL     1      57.926 -36.231  22.200  1.00  0.00    -0.550 OA
ATOM     10  O   UNL     1      56.774 -36.664  24.129  1.00  0.00    -0.550 OA
ENDBRANCH   7   8
ENDBRANCH   6   7
ENDBRANCH   5   6
ENDBRANCH   4   5
ENDBRANCH   3   4
ENDBRANCH   2   3
ENDBRANCH   1   2
BRANCH   1  11
ATOM     11  C   UNL     1      50.395 -33.448  22.991  1.00  0.00     0.000 C 
BRANCH  11  12
ATOM     12  C   UNL     1      50.858 -34.901  23.148  1.00  0.00    -0.000 C 
BRANCH  12  13
ATOM     13  C   UNL     1      50.645 -35.394  24.587  1.00  0.00    -0.000 C 
BRANCH  13  14
ATOM     14  C   UNL     1      51.548 -36.585  24.946  1.00  0.00    -0.000 C 
BRANCH  14  15
ATOM     15  C   UNL     1      52.597 -36.234  26.015  1.00  0.00    -0.000 C 
BRANCH  15  16
ATOM     16  C   UNL     1      51.949 -35.749  27.329  1.00  0.00    -0.000 C 
BRANCH  16  17
ATOM     17  C   UNL     1      52.395 -34.338  27.750  1.00  0.00    -0.003 C 
ATOM     18  C   UNL     1      51.268 -33.310  27.682  1.00  0.00     0.004 C 
ENDBRANCH  16  17
ENDBRANCH  15  16
ENDBRANCH  14  15
ENDBRANCH  13  14
ENDBRANCH  12  13
ENDBRANCH  11  12
ENDBRANCH   1  11
TORSDOF 14
ENDMDL
MODEL 7
REMARK VINA RESULT:    -2.411      1.862      2.813
REMARK INTER + INTRA:          -6.538
REMARK INTER:                  -4.670
REMARK INTRA:                  -1.868
REMARK UNBOUND:                -2.153
REMARK SMILES CCCCCCCCCCCCCCCC(=O)[O-]
REMARK SMILES IDX 9 1 10 2 11 3 12 4 13 5 14 6 15 7 16 8 17 9 18 10 8 11 7 12
REMARK SMILES IDX 6 13 5 14 4 15 3 16 2 17 1 18
REMARK H PARENT
REMARK Flexibility Score: inf
ROOT
ATOM      1  C   UNL     1      52.041 -34.861  23.199  1.00  0.00     0.000 C 
ENDROOT
BRANCH   1   2
ATOM      2  C   UNL     1      50.858 -33.953  23.579  1.00  0.00     0.000 C 
BRANCH   2   3
ATOM      3  C   UNL     1      51.011 -32.481  23.156  1.00  0.00     0.000 C 
BRANCH   3   4
ATOM      4  C   UNL     1      52.429 -31.934  23.391  1.00  0.00     0.000 C 
BRANCH   4   5
ATOM      5  C   UNL     1      52.662 -31.542  24.865  1.00  0.00     0.000 C 
BRANCH   5   6
ATOM      6  C   UNL     1      53.985 -32.071  25.449  1.00  0.00     0.006 C 
BRANCH   6   7
ATOM      7  C   UNL     1      54.951 -30.968  25.923  1.00  0.00     0.053 C 
BRANCH   7   8
ATOM      8  C   UNL     1      55.607 -30.236  24.789  1.00  0.00     0.041 C 
ATOM      9  O   UNL     1      56.346 -30.850  23.976  1.00  0.00    -0.550 OA
ATOM     10  O   UNL     1      55.341 -28.888  24.588  1.00  0.00    -0.550 OA
ENDBRANCH   7   8
ENDBRANCH   6   7
ENDBRANCH   5   6
ENDBRANCH   4   5
ENDBRANCH   3   4
ENDBRANCH   2   3
ENDBRANCH   1   2
BRANCH   1  11
ATOM     11  C   UNL     1      52.753 -35.457  24.422  1.00  0.00     0.000 C 
BRANCH  11  12
ATOM     12  C   UNL     1      54.255 -35.620  24.159  1.00  0.00    -0.000 C 
BRANCH  12  13
ATOM     13  C   UNL     1      54.692 -34.794  22.941  1.00  0.00    -0.000 C 
BRANCH  13  14
ATOM     14  C   UNL     1      55.493 -35.618  21.921  1.00  0.00    -0.000 C 
BRANCH  14  15
ATOM     15  C   UNL     1      56.420 -36.650  22.588  1.00  0.00    -0.000 C 
BRANCH  15  16
ATOM     16  C   UNL     1      57.912 -36.316  22.373  1.00  0.00    -0.000 C 
BRANCH  16  17
ATOM     17  C   UNL     1      58.509 -35.430  23.479  1.00  0.00    -0.003 C 
ATOM     18  C   UNL     1      57.918 -35.715  24.858  1.00  0.00     0.004 C 
ENDBRANCH  16  17
ENDBRANCH  15  16
ENDBRANCH  14  15
ENDBRANCH  13  14
ENDBRANCH  12  13
ENDBRANCH  11  12
ENDBRANCH   1  11
TORSDOF 14
ENDMDL
MODEL 8
REMARK VINA RESULT:    -2.408      2.752      4.993
REMARK INTER + INTRA:          -6.533
REMARK INTER:                  -3.883
REMARK INTRA:                  -2.650
REMARK UNBOUND:                -2.153
REMARK SMILES CCCCCCCCCCCCCCCC(=O)[O-]
REMARK SMILES IDX 9 1 10 2 11 3 12 4 13 5 14 6 15 7 16 8 17 9 18 10 8 11 7 12
REMARK SMILES IDX 6 13 5 14 4 15 3 16 2 17 1 18
REMARK H PARENT
REMARK Flexibility Score: inf
ROOT
ATOM      1  C   UNL     1      51.292 -31.746  23.068  1.00  0.00     0.000 C 
ENDROOT
BRANCH   1   2
ATOM      2  C   UNL     1      50.078 -32.228  23.883  1.00  0.00     0.000 C 
BRANCH   2   3
ATOM      3  C   UNL     1      50.046 -33.740  24.164  1.00  0.00     0.000 C 
BRANCH   3   4
ATOM      4  C   UNL     1      50.811 -34.562  23.113  1.00  0.00     0.000 C 
BRANCH   4   5
ATOM      5  C   UNL     1      52.035 -35.280  23.717  1.00  0.00     0.000 C 
BRANCH   5   6
ATOM      6  C   UNL     1      53.374 -34.892  23.061  1.00  0.00     0.006 C 
BRANCH   6   7
ATOM      7  C   UNL     1      54.597 -35.624  23.644  1.00  0.00     0.053 C 
BRANCH   7   8
ATOM      8  C   UNL     1      55.714 -35.783  22.654  1.00  0.00     0.041 C 
ATOM      9  O   UNL     1      55.492 -35.675  21.419  1.00  0.00    -0.550 OA
ATOM     10  O   UNL     1      57.014 -35.976  23.100  1.00  0.00    -0.550 OA
ENDBRANCH   7   8
ENDBRANCH   6   7
ENDBRANCH   5   6
ENDBRANCH   4   5
ENDBRANCH   3   4
ENDBRANCH   2   3
ENDBRANCH   1   2
BRANCH   1  11
ATOM     11  C   UNL     1      51.776 -30.350  23.486  1.00  0.00     0.000 C 
BRANCH  11  12
ATOM     12  C   UNL     1      52.727 -30.434  24.686  1.00  0.00    -0.000 C 
BRANCH  12  13
ATOM     13  C   UNL     1      53.772 -31.541  24.483  1.00  0.00    -0.000 C 
BRANCH  13  14
ATOM     14  C   UNL     1      53.896 -32.470  25.700  1.00  0.00    -0.000 C 
BRANCH  14  15
ATOM     15  C   UNL     1      52.657 -32.422  26.613  1.00  0.00    -0.000 C 
BRANCH  15  16
ATOM     16  C   UNL     1      52.247 -33.825  27.109  1.00  0.00    -0.000 C 
BRANCH  16  17
ATOM     17  C   UNL     1      53.443 -34.736  27.435  1.00  0.00    -0.003 C 
ATOM     18  C   UNL     1      53.180 -36.205  27.114  1.00  0.00     0.004 C 
ENDBRANCH  16  17
ENDBRANCH  15  16
ENDBRANCH  14  15
ENDBRANCH  13  14
ENDBRANCH  12  13
ENDBRANCH  11  12
ENDBRANCH   1  11
TORSDOF 14
ENDMDL
MODEL 9
REMARK VINA RESULT:    -2.363      2.781      4.193
REMARK INTER + INTRA:          -6.450
REMARK INTER:                  -4.080
REMARK INTRA:                  -2.370
REMARK UNBOUND:                -2.153
REMARK SMILES CCCCCCCCCCCCCCCC(=O)[O-]
REMARK SMILES IDX 9 1 10 2 11 3 12 4 13 5 14 6 15 7 16 8 17 9 18 10 8 11 7 12
REMARK SMILES IDX 6 13 5 14 4 15 3 16 2 17 1 18
REMARK H PARENT
REMARK Flexibility Score: inf
ROOT
ATOM      1  C   UNL     1      53.636 -35.269  23.525  1.00  0.00     0.000 C 
ENDROOT
BRANCH   1   2
ATOM      2  C   UNL     1      53.141 -34.171  24.485  1.00  0.00     0.000 C 
BRANCH   2   3
ATOM      3  C   UNL     1      52.916 -32.796  23.833  1.00  0.00     0.000 C 
BRANCH   3   4
ATOM      4  C   UNL     1      53.143 -31.627  24.807  1.00  0.00     0.000 C 
BRANCH   4   5
ATOM      5  C   UNL     1      54.506 -31.725  25.523  1.00  0.00     0.000 C 
BRANCH   5   6
ATOM      6  C   UNL     1      55.694 -31.235  24.674  1.00  0.00     0.006 C 
BRANCH   6   7
ATOM      7  C   UNL     1      56.781 -32.301  24.437  1.00  0.00     0.053 C 
BRANCH   7   8
ATOM      8  C   UNL     1      58.039 -31.736  23.845  1.00  0.00     0.041 C 
ATOM      9  O   UNL     1      58.036 -30.596  23.310  1.00  0.00    -0.550 OA
ATOM     10  O   UNL     1      59.232 -32.438  23.951  1.00  0.00    -0.550 OA
ENDBRANCH   7   8
ENDBRANCH   6   7
ENDBRANCH   5   6
ENDBRANCH   4   5
ENDBRANCH   3   4
ENDBRANCH   2   3
ENDBRANCH   1   2
BRANCH   1  11
ATOM     11  C   UNL     1      54.885 -34.852  22.735  1.00  0.00     0.000 C 
BRANCH  11  12
ATOM     12  C   UNL     1      55.420 -36.020  21.897  1.00  0.00    -0.000 C 
BRANCH  12  13
ATOM     13  C   UNL     1      56.592 -36.713  22.607  1.00  0.00    -0.000 C 
BRANCH  13  14
ATOM     14  C   UNL     1      57.595 -35.716  23.208  1.00  0.00    -0.000 C 
BRANCH  14  15
ATOM     15  C   UNL     1      57.863 -35.969  24.702  1.00  0.00    -0.000 C 
BRANCH  15  16
ATOM     16  C   UNL     1      57.004 -37.124  25.260  1.00  0.00    -0.000 C 
BRANCH  16  17
ATOM     17  C   UNL     1      55.853 -36.652  26.164  1.00  0.00    -0.003 C 
ATOM     18  C   UNL     1      55.984 -35.190  26.584  1.00  0.00     0.004 C 
ENDBRANCH  16  17
ENDBRANCH  15  16
ENDBRANCH  14  15
ENDBRANCH  13  14
ENDBRANCH  12  13
ENDBRANCH  11  12
ENDBRANCH   1  11
TORSDOF 14
ENDMDL
