MODEL 1
REMARK VINA RESULT:    -5.088      0.000      0.000
REMARK INTER + INTRA:          -6.851
REMARK INTER:                  -7.171
REMARK INTRA:                   0.320
REMARK UNBOUND:                 0.320
REMARK SMILES CC1=CCC(=C(C)C)CCC(C)=CCC1
REMARK SMILES IDX 5 1 6 2 7 3 8 4 9 5 10 6 11 7 12 8 13 9 4 11 3 12 2 13 1 14
REMARK SMILES IDX 15 15 14 16
REMARK H PARENT
REMARK Flexibility Score: 60.00
ROOT
ATOM      1  C   UNL     1     111.425 112.140 109.623  1.00  0.00    -0.067 C 
ATOM      2  C   UNL     1     111.799 111.354 108.564  1.00  0.00    -0.077 C 
ATOM      3  C   UNL     1     113.254 111.003 108.325  1.00  0.00     0.039 C 
ATOM      4  C   UNL     1     110.784 110.816 107.575  1.00  0.00     0.039 C 
ENDROOT
BRANCH   1   5
ATOM      5  C   UNL     1     109.963 112.530 109.823  1.00  0.00     0.035 C 
BRANCH   5   6
ATOM      6  C   UNL     1     109.482 112.286 111.272  1.00  0.00     0.035 C 
BRANCH   6   7
ATOM      7  C   UNL     1     109.460 110.809 111.608  1.00  0.00    -0.077 C 
ATOM      8  C   UNL     1     108.826 109.862 110.624  1.00  0.00     0.039 C 
ATOM      9  C   UNL     1     109.929 110.304 112.771  1.00  0.00    -0.028 CG0
ATOM     10  G   UNL     1     110.595 111.096 113.878  1.00  0.00     0.000 G0
ENDBRANCH   6   7
ENDBRANCH   5   6
ENDBRANCH   1   5
BRANCH   1  11
ATOM     11  C   UNL     1     112.492 112.727 110.552  1.00  0.00     0.058 C 
BRANCH  11  12
ATOM     12  C   UNL     1     113.227 111.729 111.419  1.00  0.00    -0.024 C 
ATOM     13  C   UNL     1     112.871 111.386 112.679  1.00  0.00    -0.077 C 
ATOM     14  C   UNL     1     113.611 110.251 113.341  1.00  0.00     0.039 C 
BRANCH  13  15
ATOM     15  C   UNL     1     111.728 112.056 113.425  1.00  0.00     0.034 C 
BRANCH  15  16
ATOM     16  C   UNL     1     110.617 111.085 113.884  1.00  0.00     0.032 CG0
ATOM     17  G   UNL     1     109.932 110.313 112.776  1.00  0.00     0.000 G0
ENDBRANCH  15  16
ENDBRANCH  13  15
ENDBRANCH  11  12
ENDBRANCH   1  11
TORSDOF 0
ENDMDL
MODEL 2
REMARK VINA RESULT:    -5.052      3.321      4.892
REMARK INTER + INTRA:          -6.799
REMARK INTER:                  -7.098
REMARK INTRA:                   0.299
REMARK UNBOUND:                 0.320
REMARK SMILES CC1=CCC(=C(C)C)CCC(C)=CCC1
REMARK SMILES IDX 5 1 6 2 7 3 8 4 9 5 10 6 11 7 12 8 13 9 4 11 3 12 2 13 1 14
REMARK SMILES IDX 15 15 14 16
REMARK H PARENT
REMARK Flexibility Score: 60.00
ROOT
ATOM      1  C   UNL     1     111.643 112.016 114.548  1.00  0.00    -0.067 C 
ATOM      2  C   UNL     1     112.082 111.193 113.544  1.00  0.00    -0.077 C 
ATOM      3  C   UNL     1     113.540 110.788 113.445  1.00  0.00     0.039 C 
ATOM      4  C   UNL     1     111.142 110.668 112.477  1.00  0.00     0.039 C 
ENDROOT
BRANCH   1   5
ATOM      5  C   UNL     1     110.184 112.459 114.606  1.00  0.00     0.035 C 
BRANCH   5   6
ATOM      6  C   UNL     1     109.549 112.214 115.995  1.00  0.00     0.035 C 
BRANCH   6   7
ATOM      7  C   UNL     1     109.487 110.737 116.324  1.00  0.00    -0.077 C 
ATOM      8  C   UNL     1     108.923 109.798 115.291  1.00  0.00     0.039 C 
ATOM      9  C   UNL     1     109.860 110.226 117.519  1.00  0.00    -0.028 CG0
ATOM     10  G   UNL     1     110.445 111.009 118.676  1.00  0.00     0.000 G0
ENDBRANCH   6   7
ENDBRANCH   5   6
ENDBRANCH   1   5
BRANCH   1  11
ATOM     11  C   UNL     1     112.642 112.587 115.559  1.00  0.00     0.058 C 
BRANCH  11  12
ATOM     12  C   UNL     1     113.282 111.580 116.488  1.00  0.00    -0.024 C 
ATOM     13  C   UNL     1     112.814 111.248 117.713  1.00  0.00    -0.077 C 
ATOM     14  C   UNL     1     113.475 110.103 118.439  1.00  0.00     0.039 C 
BRANCH  13  15
ATOM     15  C   UNL     1     111.623 111.940 118.358  1.00  0.00     0.034 C 
BRANCH  15  16
ATOM     16  C   UNL     1     110.447 110.995 118.692  1.00  0.00     0.032 CG0
ATOM     17  G   UNL     1     109.879 110.227 117.517  1.00  0.00     0.000 G0
ENDBRANCH  15  16
ENDBRANCH  13  15
ENDBRANCH  11  12
ENDBRANCH   1  11
TORSDOF 0
ENDMDL
MODEL 3
REMARK VINA RESULT:    -5.050      1.398      3.372
REMARK INTER + INTRA:          -6.797
REMARK INTER:                  -7.122
REMARK INTRA:                   0.325
REMARK UNBOUND:                 0.320
REMARK SMILES CC1=CCC(=C(C)C)CCC(C)=CCC1
REMARK SMILES IDX 5 1 6 2 7 3 8 4 9 5 10 6 11 7 12 8 13 9 4 11 3 12 2 13 1 14
REMARK SMILES IDX 15 15 14 16
REMARK H PARENT
REMARK Flexibility Score: 60.00
ROOT
ATOM      1  C   UNL     1     110.684 110.382 109.667  1.00  0.00    -0.067 C 
ATOM      2  C   UNL     1     110.213 111.190 108.665  1.00  0.00    -0.077 C 
ATOM      3  C   UNL     1     108.752 111.591 108.605  1.00  0.00     0.039 C 
ATOM      4  C   UNL     1     111.119 111.702 107.563  1.00  0.00     0.039 C 
ENDROOT
BRANCH   1   5
ATOM      5  C   UNL     1     112.146 109.943 109.687  1.00  0.00     0.035 C 
BRANCH   5   6
ATOM      6  C   UNL     1     112.783 110.081 111.088  1.00  0.00     0.035 C 
BRANCH   6   7
ATOM      7  C   UNL     1     112.915 111.533 111.497  1.00  0.00    -0.077 C 
ATOM      8  C   UNL     1     113.484 112.508 110.499  1.00  0.00     0.039 C 
ATOM      9  C   UNL     1     112.603 111.991 112.731  1.00  0.00    -0.028 CG0
ATOM     10  G   UNL     1     112.024 111.167 113.862  1.00  0.00     0.000 G0
ENDBRANCH   6   7
ENDBRANCH   5   6
ENDBRANCH   1   5
BRANCH   1  11
ATOM     11  C   UNL     1     109.718 109.823 110.715  1.00  0.00     0.058 C 
BRANCH  11  12
ATOM     12  C   UNL     1     109.144 110.835 111.683  1.00  0.00    -0.024 C 
ATOM     13  C   UNL     1     109.638 111.095 112.916  1.00  0.00    -0.077 C 
ATOM     14  C   UNL     1     109.051 112.252 113.685  1.00  0.00     0.039 C 
BRANCH  13  15
ATOM     15  C   UNL     1     110.786 110.309 113.528  1.00  0.00     0.034 C 
BRANCH  15  16
ATOM     16  C   UNL     1     112.023 111.167 113.879  1.00  0.00     0.032 CG0
ATOM     17  G   UNL     1     112.588 111.986 112.737  1.00  0.00     0.000 G0
ENDBRANCH  15  16
ENDBRANCH  13  15
ENDBRANCH  11  12
ENDBRANCH   1  11
TORSDOF 0
ENDMDL
MODEL 4
REMARK VINA RESULT:    -5.028      3.417      6.012
REMARK INTER + INTRA:          -6.766
REMARK INTER:                  -7.161
REMARK INTRA:                   0.395
REMARK UNBOUND:                 0.320
REMARK SMILES CC1=CCC(=C(C)C)CCC(C)=CCC1
REMARK SMILES IDX 5 1 6 2 7 3 8 4 9 5 10 6 11 7 12 8 13 9 4 11 3 12 2 13 1 14
REMARK SMILES IDX 15 15 14 16
REMARK H PARENT
REMARK Flexibility Score: 60.00
ROOT
ATOM      1  C   UNL     1     110.733 110.218 114.650  1.00  0.00    -0.067 C 
ATOM      2  C   UNL     1     110.310 111.085 113.676  1.00  0.00    -0.077 C 
ATOM      3  C   UNL     1     108.850 111.479 113.560  1.00  0.00     0.039 C 
ATOM      4  C   UNL     1     111.271 111.672 112.662  1.00  0.00     0.039 C 
ENDROOT
BRANCH   1   5
ATOM      5  C   UNL     1     112.195 109.787 114.724  1.00  0.00     0.035 C 
BRANCH   5   6
ATOM      6  C   UNL     1     112.831 110.097 116.099  1.00  0.00     0.035 C 
BRANCH   6   7
ATOM      7  C   UNL     1     112.873 111.587 116.368  1.00  0.00    -0.077 C 
ATOM      8  C   UNL     1     113.454 112.488 115.311  1.00  0.00     0.039 C 
ATOM      9  C   UNL     1     112.467 112.144 117.532  1.00  0.00    -0.028 CG0
ATOM     10  G   UNL     1     111.861 111.404 118.706  1.00  0.00     0.000 G0
ENDBRANCH   6   7
ENDBRANCH   5   6
ENDBRANCH   1   5
BRANCH   1  11
ATOM     11  C   UNL     1     109.715 109.587 115.605  1.00  0.00     0.058 C 
BRANCH  11  12
ATOM     12  C   UNL     1     109.028 110.543 116.555  1.00  0.00    -0.024 C 
ATOM     13  C   UNL     1     109.515 110.925 117.758  1.00  0.00    -0.077 C 
ATOM     14  C   UNL     1     108.787 112.014 118.505  1.00  0.00     0.039 C 
BRANCH  13  15
ATOM     15  C   UNL     1     110.787 110.344 118.356  1.00  0.00     0.034 C 
BRANCH  15  16
ATOM     16  C   UNL     1     111.857 111.400 118.712  1.00  0.00     0.032 CG0
ATOM     17  G   UNL     1     112.458 112.138 117.534  1.00  0.00     0.000 G0
ENDBRANCH  15  16
ENDBRANCH  13  15
ENDBRANCH  11  12
ENDBRANCH   1  11
TORSDOF 0
ENDMDL
MODEL 5
REMARK VINA RESULT:    -4.853      1.693      4.455
REMARK INTER + INTRA:          -6.519
REMARK INTER:                  -6.922
REMARK INTRA:                   0.403
REMARK UNBOUND:                 0.320
REMARK SMILES CC1=CCC(=C(C)C)CCC(C)=CCC1
REMARK SMILES IDX 5 1 6 2 7 3 8 4 9 5 10 6 11 7 12 8 13 9 4 11 3 12 2 13 1 14
REMARK SMILES IDX 15 15 14 16
REMARK H PARENT
REMARK Flexibility Score: 60.00
ROOT
ATOM      1  C   UNL     1     111.562 110.687 114.430  1.00  0.00    -0.067 C 
ATOM      2  C   UNL     1     111.852 111.582 115.427  1.00  0.00    -0.077 C 
ATOM      3  C   UNL     1     113.241 112.174 115.567  1.00  0.00     0.039 C 
ATOM      4  C   UNL     1     110.811 112.006 116.444  1.00  0.00     0.039 C 
ENDROOT
BRANCH   1   5
ATOM      5  C   UNL     1     110.175 110.058 114.331  1.00  0.00     0.035 C 
BRANCH   5   6
ATOM      6  C   UNL     1     109.629 110.061 112.885  1.00  0.00     0.035 C 
BRANCH   6   7
ATOM      7  C   UNL     1     109.447 111.471 112.362  1.00  0.00    -0.077 C 
ATOM      8  C   UNL     1     108.755 112.476 113.245  1.00  0.00     0.039 C 
ATOM      9  C   UNL     1     109.824 111.859 111.123  1.00  0.00    -0.028 CG0
ATOM     10  G   UNL     1     110.528 110.994 110.098  1.00  0.00     0.000 G0
ENDBRANCH   6   7
ENDBRANCH   5   6
ENDBRANCH   1   5
BRANCH   1  11
ATOM     11  C   UNL     1     112.665 110.227 113.472  1.00  0.00     0.058 C 
BRANCH  11  12
ATOM     12  C   UNL     1     113.184 111.278 112.517  1.00  0.00    -0.024 C 
ATOM     13  C   UNL     1     112.815 111.398 111.221  1.00  0.00    -0.077 C 
ATOM     14  C   UNL     1     113.298 112.604 110.454  1.00  0.00     0.039 C 
BRANCH  13  15
ATOM     15  C   UNL     1     111.896 110.405 110.528  1.00  0.00     0.034 C 
BRANCH  15  16
ATOM     16  C   UNL     1     110.538 110.998 110.089  1.00  0.00     0.032 CG0
ATOM     17  G   UNL     1     109.840 111.854 111.125  1.00  0.00     0.000 G0
ENDBRANCH  15  16
ENDBRANCH  13  15
ENDBRANCH  11  12
ENDBRANCH   1  11
TORSDOF 0
ENDMDL
MODEL 6
REMARK VINA RESULT:    -4.844      3.541      6.088
REMARK INTER + INTRA:          -6.506
REMARK INTER:                  -6.947
REMARK INTRA:                   0.441
REMARK UNBOUND:                 0.320
REMARK SMILES CC1=CCC(=C(C)C)CCC(C)=CCC1
REMARK SMILES IDX 5 1 6 2 7 3 8 4 9 5 10 6 11 7 12 8 13 9 4 11 3 12 2 13 1 14
REMARK SMILES IDX 15 15 14 16
REMARK H PARENT
REMARK Flexibility Score: 60.00
ROOT
ATOM      1  C   UNL     1     110.746 110.293 104.648  1.00  0.00    -0.067 C 
ATOM      2  C   UNL     1     110.181 111.169 103.758  1.00  0.00    -0.077 C 
ATOM      3  C   UNL     1     108.685 111.416 103.744  1.00  0.00     0.039 C 
ATOM      4  C   UNL     1     111.016 111.915 102.736  1.00  0.00     0.039 C 
ENDROOT
BRANCH   1   5
ATOM      5  C   UNL     1     112.246 110.014 104.616  1.00  0.00     0.035 C 
BRANCH   5   6
ATOM      6  C   UNL     1     112.935 110.348 105.959  1.00  0.00     0.035 C 
BRANCH   6   7
ATOM      7  C   UNL     1     112.829 111.823 106.286  1.00  0.00    -0.077 C 
ATOM      8  C   UNL     1     113.247 112.819 105.235  1.00  0.00     0.039 C 
ATOM      9  C   UNL     1     112.433 112.292 107.491  1.00  0.00    -0.028 CG0
ATOM     10  G   UNL     1     111.981 111.449 108.665  1.00  0.00     0.000 G0
ENDBRANCH   6   7
ENDBRANCH   5   6
ENDBRANCH   1   5
BRANCH   1  11
ATOM     11  C   UNL     1     109.855 109.502 105.610  1.00  0.00     0.058 C 
BRANCH  11  12
ATOM     12  C   UNL     1     109.125 110.322 106.650  1.00  0.00    -0.024 C 
ATOM     13  C   UNL     1     109.648 110.716 107.834  1.00  0.00    -0.077 C 
ATOM     14  C   UNL     1     108.845 111.671 108.682  1.00  0.00     0.039 C 
BRANCH  13  15
ATOM     15  C   UNL     1     111.024 110.283 108.315  1.00  0.00     0.034 C 
BRANCH  15  16
ATOM     16  C   UNL     1     111.967 111.454 108.670  1.00  0.00     0.032 CG0
ATOM     17  G   UNL     1     112.429 112.294 107.497  1.00  0.00     0.000 G0
ENDBRANCH  15  16
ENDBRANCH  13  15
ENDBRANCH  11  12
ENDBRANCH   1  11
TORSDOF 0
ENDMDL
MODEL 7
REMARK VINA RESULT:    -4.834      1.710      5.146
REMARK INTER + INTRA:          -6.492
REMARK INTER:                  -6.914
REMARK INTRA:                   0.423
REMARK UNBOUND:                 0.320
REMARK SMILES CC1=CCC(=C(C)C)CCC(C)=CCC1
REMARK SMILES IDX 5 1 6 2 7 3 8 4 9 5 10 6 11 7 12 8 13 9 4 11 3 12 2 13 1 14
REMARK SMILES IDX 15 15 14 16
REMARK H PARENT
REMARK Flexibility Score: 60.00
ROOT
ATOM      1  C   UNL     1     110.781 111.470 114.583  1.00  0.00    -0.067 C 
ATOM      2  C   UNL     1     110.498 110.552 115.560  1.00  0.00    -0.077 C 
ATOM      3  C   UNL     1     109.105 109.974 115.712  1.00  0.00     0.039 C 
ATOM      4  C   UNL     1     111.553 110.088 116.545  1.00  0.00     0.039 C 
ENDROOT
BRANCH   1   5
ATOM      5  C   UNL     1     112.174 112.084 114.474  1.00  0.00     0.035 C 
BRANCH   5   6
ATOM      6  C   UNL     1     112.641 112.227 113.007  1.00  0.00     0.035 C 
BRANCH   6   7
ATOM      7  C   UNL     1     112.849 110.875 112.356  1.00  0.00    -0.077 C 
ATOM      8  C   UNL     1     113.591 109.816 113.130  1.00  0.00     0.039 C 
ATOM      9  C   UNL     1     112.452 110.587 111.096  1.00  0.00    -0.028 CG0
ATOM     10  G   UNL     1     111.700 111.518 110.168  1.00  0.00     0.000 G0
ENDBRANCH   6   7
ENDBRANCH   5   6
ENDBRANCH   1   5
BRANCH   1  11
ATOM     11  C   UNL     1     109.666 111.970 113.659  1.00  0.00     0.058 C 
BRANCH  11  12
ATOM     12  C   UNL     1     109.147 110.964 112.655  1.00  0.00    -0.024 C 
ATOM     13  C   UNL     1     109.467 110.946 111.340  1.00  0.00    -0.077 C 
ATOM     14  C   UNL     1     108.996 109.776 110.513  1.00  0.00     0.039 C 
BRANCH  13  15
ATOM     15  C   UNL     1     110.319 112.019 110.682  1.00  0.00     0.034 C 
BRANCH  15  16
ATOM     16  C   UNL     1     111.682 111.512 110.160  1.00  0.00     0.032 CG0
ATOM     17  G   UNL     1     112.435 110.593 111.099  1.00  0.00     0.000 G0
ENDBRANCH  15  16
ENDBRANCH  13  15
ENDBRANCH  11  12
ENDBRANCH   1  11
TORSDOF 0
ENDMDL
MODEL 8
REMARK VINA RESULT:    -4.789      1.956      4.001
REMARK INTER + INTRA:          -6.428
REMARK INTER:                  -6.999
REMARK INTRA:                   0.571
REMARK UNBOUND:                 0.320
REMARK SMILES CC1=CCC(=C(C)C)CCC(C)=CCC1
REMARK SMILES IDX 5 1 6 2 7 3 8 4 9 5 10 6 11 7 12 8 13 9 4 11 3 12 2 13 1 14
REMARK SMILES IDX 15 15 14 16
REMARK H PARENT
REMARK Flexibility Score: 60.00
ROOT
ATOM      1  C   UNL     1     110.820 111.530 106.809  1.00  0.00    -0.067 C 
ATOM      2  C   UNL     1     110.437 110.519 105.966  1.00  0.00    -0.077 C 
ATOM      3  C   UNL     1     109.034 109.948 106.015  1.00  0.00     0.039 C 
ATOM      4  C   UNL     1     111.399 109.913 104.963  1.00  0.00     0.039 C 
ENDROOT
BRANCH   1   5
ATOM      5  C   UNL     1     112.251 112.061 106.786  1.00  0.00     0.035 C 
BRANCH   5   6
ATOM      6  C   UNL     1     112.876 112.127 108.198  1.00  0.00     0.035 C 
BRANCH   6   7
ATOM      7  C   UNL     1     113.046 110.746 108.796  1.00  0.00    -0.077 C 
ATOM      8  C   UNL     1     113.560 109.642 107.910  1.00  0.00     0.039 C 
ATOM      9  C   UNL     1     112.707 110.440 110.069  1.00  0.00    -0.028 CG0
ATOM     10  G   UNL     1     112.175 111.410 111.103  1.00  0.00     0.000 G0
ENDBRANCH   6   7
ENDBRANCH   5   6
ENDBRANCH   1   5
BRANCH   1  11
ATOM     11  C   UNL     1     109.840 112.059 107.860  1.00  0.00     0.058 C 
BRANCH  11  12
ATOM     12  C   UNL     1     109.396 111.058 108.904  1.00  0.00    -0.024 C 
ATOM     13  C   UNL     1     109.777 111.071 110.202  1.00  0.00    -0.077 C 
ATOM     14  C   UNL     1     109.110 110.103 111.147  1.00  0.00     0.039 C 
BRANCH  13  15
ATOM     15  C   UNL     1     110.802 112.051 110.753  1.00  0.00     0.034 C 
BRANCH  15  16
ATOM     16  C   UNL     1     112.165 111.411 111.100  1.00  0.00     0.032 CG0
ATOM     17  G   UNL     1     112.709 110.444 110.070  1.00  0.00     0.000 G0
ENDBRANCH  15  16
ENDBRANCH  13  15
ENDBRANCH  11  12
ENDBRANCH   1  11
TORSDOF 0
ENDMDL
MODEL 9
REMARK VINA RESULT:    -4.738      3.112      6.089
REMARK INTER + INTRA:          -6.357
REMARK INTER:                  -6.912
REMARK INTRA:                   0.555
REMARK UNBOUND:                 0.320
REMARK SMILES CC1=CCC(=C(C)C)CCC(C)=CCC1
REMARK SMILES IDX 5 1 6 2 7 3 8 4 9 5 10 6 11 7 12 8 13 9 4 11 3 12 2 13 1 14
REMARK SMILES IDX 15 15 14 16
REMARK H PARENT
REMARK Flexibility Score: 60.00
ROOT
ATOM      1  C   UNL     1     110.769 111.406 109.617  1.00  0.00    -0.067 C 
ATOM      2  C   UNL     1     110.499 110.555 110.657  1.00  0.00    -0.077 C 
ATOM      3  C   UNL     1     109.116 109.964 110.846  1.00  0.00     0.039 C 
ATOM      4  C   UNL     1     111.559 110.181 111.674  1.00  0.00     0.039 C 
ENDROOT
BRANCH   1   5
ATOM      5  C   UNL     1     112.151 112.036 109.468  1.00  0.00     0.035 C 
BRANCH   5   6
ATOM      6  C   UNL     1     112.573 112.184 107.988  1.00  0.00     0.035 C 
BRANCH   6   7
ATOM      7  C   UNL     1     112.850 110.838 107.352  1.00  0.00    -0.077 C 
ATOM      8  C   UNL     1     113.639 109.825 108.139  1.00  0.00     0.039 C 
ATOM      9  C   UNL     1     112.473 110.518 106.093  1.00  0.00    -0.028 CG0
ATOM     10  G   UNL     1     111.680 111.402 105.153  1.00  0.00     0.000 G0
ENDBRANCH   6   7
ENDBRANCH   5   6
ENDBRANCH   1   5
BRANCH   1  11
ATOM     11  C   UNL     1     109.648 111.819 108.658  1.00  0.00     0.058 C 
BRANCH  11  12
ATOM     12  C   UNL     1     109.194 110.755 107.683  1.00  0.00    -0.024 C 
ATOM     13  C   UNL     1     109.510 110.724 106.368  1.00  0.00    -0.077 C 
ATOM     14  C   UNL     1     109.117 109.503 105.573  1.00  0.00     0.039 C 
BRANCH  13  15
ATOM     15  C   UNL     1     110.286 111.834 105.678  1.00  0.00     0.034 C 
BRANCH  15  16
ATOM     16  C   UNL     1     111.674 111.403 105.153  1.00  0.00     0.032 CG0
ATOM     17  G   UNL     1     112.468 110.506 106.079  1.00  0.00     0.000 G0
ENDBRANCH  15  16
ENDBRANCH  13  15
ENDBRANCH  11  12
ENDBRANCH   1  11
TORSDOF 0
ENDMDL
