MODEL 1
REMARK VINA RESULT:    -3.379      0.000      0.000
REMARK INTER + INTRA:          -4.088
REMARK INTER:                  -4.070
REMARK INTRA:                  -0.018
REMARK UNBOUND:                -0.018
REMARK SMILES OCC(O)CO
REMARK SMILES IDX 3 1 5 2 6 3 2 5 1 6 4 8
REMARK H PARENT 6 4 1 7 4 9
REMARK Flexibility Score: inf
ROOT
ATOM      1  C   UNL     1      23.436  16.534  32.232  1.00  0.00     0.165 C 
ENDROOT
BRANCH   1   2
ATOM      2  C   UNL     1      22.554  17.138  31.131  1.00  0.00     0.190 C 
BRANCH   2   3
ATOM      3  O   UNL     1      21.526  17.910  31.687  1.00  0.00    -0.394 OA
ATOM      4  H   UNL     1      21.374  17.551  32.599  1.00  0.00     0.210 HD
ENDBRANCH   2   3
ENDBRANCH   1   2
BRANCH   1   5
ATOM      5  C   UNL     1      23.202  17.209  33.594  1.00  0.00     0.190 C 
BRANCH   5   6
ATOM      6  O   UNL     1      23.352  16.284  34.635  1.00  0.00    -0.394 OA
ATOM      7  H   UNL     1      24.305  16.332  34.910  1.00  0.00     0.210 HD
ENDBRANCH   5   6
ENDBRANCH   1   5
BRANCH   1   8
ATOM      8  O   UNL     1      23.195  15.153  32.321  1.00  0.00    -0.388 OA
ATOM      9  H   UNL     1      22.251  15.009  32.047  1.00  0.00     0.211 HD
ENDBRANCH   1   8
TORSDOF 5
ENDMDL
MODEL 2
REMARK VINA RESULT:    -3.282      1.018      2.886
REMARK INTER + INTRA:          -3.971
REMARK INTER:                  -3.964
REMARK INTRA:                  -0.008
REMARK UNBOUND:                -0.018
REMARK SMILES OCC(O)CO
REMARK SMILES IDX 3 1 5 2 6 3 2 5 1 6 4 8
REMARK H PARENT 6 4 1 7 4 9
REMARK Flexibility Score: inf
ROOT
ATOM      1  C   UNL     1      23.346  16.700  32.446  1.00  0.00     0.165 C 
ENDROOT
BRANCH   1   2
ATOM      2  C   UNL     1      23.361  15.287  31.846  1.00  0.00     0.190 C 
BRANCH   2   3
ATOM      3  O   UNL     1      23.297  14.319  32.857  1.00  0.00    -0.394 OA
ATOM      4  H   UNL     1      24.208  14.267  33.247  1.00  0.00     0.210 HD
ENDBRANCH   2   3
ENDBRANCH   1   2
BRANCH   1   5
ATOM      5  C   UNL     1      22.132  17.516  31.973  1.00  0.00     0.190 C 
BRANCH   5   6
ATOM      6  O   UNL     1      21.973  17.402  30.585  1.00  0.00    -0.394 OA
ATOM      7  H   UNL     1      20.994  17.353  30.424  1.00  0.00     0.210 HD
ENDBRANCH   5   6
ENDBRANCH   1   5
BRANCH   1   8
ATOM      8  O   UNL     1      23.364  16.614  33.848  1.00  0.00    -0.388 OA
ATOM      9  H   UNL     1      23.504  17.537  34.190  1.00  0.00     0.211 HD
ENDBRANCH   1   8
TORSDOF 5
ENDMDL
MODEL 3
REMARK VINA RESULT:    -3.214      1.439      2.065
REMARK INTER + INTRA:          -3.890
REMARK INTER:                  -3.874
REMARK INTRA:                  -0.016
REMARK UNBOUND:                -0.018
REMARK SMILES OCC(O)CO
REMARK SMILES IDX 3 1 5 2 6 3 2 5 1 6 4 8
REMARK H PARENT 6 4 1 7 4 9
REMARK Flexibility Score: inf
ROOT
ATOM      1  C   UNL     1      23.170  16.678  32.447  1.00  0.00     0.165 C 
ENDROOT
BRANCH   1   2
ATOM      2  C   UNL     1      22.049  17.541  31.851  1.00  0.00     0.190 C 
BRANCH   2   3
ATOM      3  O   UNL     1      21.978  17.369  30.462  1.00  0.00    -0.394 OA
ATOM      4  H   UNL     1      21.029  17.163  30.258  1.00  0.00     0.210 HD
ENDBRANCH   2   3
ENDBRANCH   1   2
BRANCH   1   5
ATOM      5  C   UNL     1      23.374  15.372  31.661  1.00  0.00     0.190 C 
BRANCH   5   6
ATOM      6  O   UNL     1      23.095  14.262  32.469  1.00  0.00    -0.394 OA
ATOM      7  H   UNL     1      22.645  14.618  33.280  1.00  0.00     0.210 HD
ENDBRANCH   5   6
ENDBRANCH   1   5
BRANCH   1   8
ATOM      8  O   UNL     1      24.362  17.419  32.485  1.00  0.00    -0.388 OA
ATOM      9  H   UNL     1      24.499  17.788  31.573  1.00  0.00     0.211 HD
ENDBRANCH   1   8
TORSDOF 5
ENDMDL
MODEL 4
REMARK VINA RESULT:    -3.189      9.351     10.163
REMARK INTER + INTRA:          -3.860
REMARK INTER:                  -3.640
REMARK INTRA:                  -0.219
REMARK UNBOUND:                -0.018
REMARK SMILES OCC(O)CO
REMARK SMILES IDX 3 1 5 2 6 3 2 5 1 6 4 8
REMARK H PARENT 6 4 1 7 4 9
REMARK Flexibility Score: inf
ROOT
ATOM      1  C   UNL     1      21.879  27.098  33.640  1.00  0.00     0.165 C 
ENDROOT
BRANCH   1   2
ATOM      2  C   UNL     1      21.438  25.679  33.256  1.00  0.00     0.190 C 
BRANCH   2   3
ATOM      3  O   UNL     1      20.099  25.464  33.605  1.00  0.00    -0.394 OA
ATOM      4  H   UNL     1      20.110  24.828  34.366  1.00  0.00     0.210 HD
ENDBRANCH   2   3
ENDBRANCH   1   2
BRANCH   1   5
ATOM      5  C   UNL     1      22.504  27.148  35.044  1.00  0.00     0.190 C 
BRANCH   5   6
ATOM      6  O   UNL     1      21.759  26.374  35.944  1.00  0.00    -0.394 OA
ATOM      7  H   UNL     1      21.964  25.427  35.728  1.00  0.00     0.210 HD
ENDBRANCH   5   6
ENDBRANCH   1   5
BRANCH   1   8
ATOM      8  O   UNL     1      22.783  27.584  32.682  1.00  0.00    -0.388 OA
ATOM      9  H   UNL     1      22.560  27.135  31.825  1.00  0.00     0.211 HD
ENDBRANCH   1   8
TORSDOF 5
ENDMDL
MODEL 5
REMARK VINA RESULT:    -3.186      0.974      2.935
REMARK INTER + INTRA:          -3.856
REMARK INTER:                  -3.846
REMARK INTRA:                  -0.009
REMARK UNBOUND:                -0.018
REMARK SMILES OCC(O)CO
REMARK SMILES IDX 3 1 5 2 6 3 2 5 1 6 4 8
REMARK H PARENT 6 4 1 7 4 9
REMARK Flexibility Score: inf
ROOT
ATOM      1  C   UNL     1      23.013  17.225  32.061  1.00  0.00     0.165 C 
ENDROOT
BRANCH   1   2
ATOM      2  C   UNL     1      23.237  17.620  33.527  1.00  0.00     0.190 C 
BRANCH   2   3
ATOM      3  O   UNL     1      23.347  16.482  34.336  1.00  0.00    -0.394 OA
ATOM      4  H   UNL     1      23.325  16.806  35.273  1.00  0.00     0.210 HD
ENDBRANCH   2   3
ENDBRANCH   1   2
BRANCH   1   5
ATOM      5  C   UNL     1      23.181  15.713  31.839  1.00  0.00     0.190 C 
BRANCH   5   6
ATOM      6  O   UNL     1      23.283  15.424  30.471  1.00  0.00    -0.394 OA
ATOM      7  H   UNL     1      22.922  14.506  30.357  1.00  0.00     0.210 HD
ENDBRANCH   5   6
ENDBRANCH   1   5
BRANCH   1   8
ATOM      8  O   UNL     1      21.736  17.643  31.653  1.00  0.00    -0.388 OA
ATOM      9  H   UNL     1      21.081  17.147  32.212  1.00  0.00     0.211 HD
ENDBRANCH   1   8
TORSDOF 5
ENDMDL
MODEL 6
REMARK VINA RESULT:    -3.180      1.272      2.322
REMARK INTER + INTRA:          -3.849
REMARK INTER:                  -3.638
REMARK INTRA:                  -0.210
REMARK UNBOUND:                -0.018
REMARK SMILES OCC(O)CO
REMARK SMILES IDX 3 1 5 2 6 3 2 5 1 6 4 8
REMARK H PARENT 6 4 1 7 4 9
REMARK Flexibility Score: inf
ROOT
ATOM      1  C   UNL     1      22.797  16.341  31.766  1.00  0.00     0.165 C 
ENDROOT
BRANCH   1   2
ATOM      2  C   UNL     1      23.516  14.986  31.702  1.00  0.00     0.190 C 
BRANCH   2   3
ATOM      3  O   UNL     1      23.272  14.241  32.862  1.00  0.00    -0.394 OA
ATOM      4  H   UNL     1      22.663  14.790  33.420  1.00  0.00     0.210 HD
ENDBRANCH   2   3
ENDBRANCH   1   2
BRANCH   1   5
ATOM      5  C   UNL     1      23.440  17.288  32.792  1.00  0.00     0.190 C 
BRANCH   5   6
ATOM      6  O   UNL     1      23.323  16.765  34.087  1.00  0.00    -0.394 OA
ATOM      7  H   UNL     1      22.627  16.059  34.036  1.00  0.00     0.210 HD
ENDBRANCH   5   6
ENDBRANCH   1   5
BRANCH   1   8
ATOM      8  O   UNL     1      22.792  16.929  30.490  1.00  0.00    -0.388 OA
ATOM      9  H   UNL     1      23.579  16.566  30.004  1.00  0.00     0.211 HD
ENDBRANCH   1   8
TORSDOF 5
ENDMDL
MODEL 7
REMARK VINA RESULT:    -3.165      9.458     10.319
REMARK INTER + INTRA:          -3.830
REMARK INTER:                  -3.615
REMARK INTRA:                  -0.215
REMARK UNBOUND:                -0.018
REMARK SMILES OCC(O)CO
REMARK SMILES IDX 3 1 5 2 6 3 2 5 1 6 4 8
REMARK H PARENT 6 4 1 7 4 9
REMARK Flexibility Score: inf
ROOT
ATOM      1  C   UNL     1      22.220  26.596  33.602  1.00  0.00     0.165 C 
ENDROOT
BRANCH   1   2
ATOM      2  C   UNL     1      22.471  27.151  35.010  1.00  0.00     0.190 C 
BRANCH   2   3
ATOM      3  O   UNL     1      21.781  26.399  35.970  1.00  0.00    -0.394 OA
ATOM      4  H   UNL     1      20.901  26.179  35.567  1.00  0.00     0.210 HD
ENDBRANCH   2   3
ENDBRANCH   1   2
BRANCH   1   5
ATOM      5  C   UNL     1      20.725  26.357  33.334  1.00  0.00     0.190 C 
BRANCH   5   6
ATOM      6  O   UNL     1      20.373  25.037  33.648  1.00  0.00    -0.394 OA
ATOM      7  H   UNL     1      21.157  24.647  34.114  1.00  0.00     0.210 HD
ENDBRANCH   5   6
ENDBRANCH   1   5
BRANCH   1   8
ATOM      8  O   UNL     1      22.754  27.477  32.648  1.00  0.00    -0.388 OA
ATOM      9  H   UNL     1      22.741  26.999  31.777  1.00  0.00     0.211 HD
ENDBRANCH   1   8
TORSDOF 5
ENDMDL
MODEL 8
REMARK VINA RESULT:    -2.970     15.867     16.369
REMARK INTER + INTRA:          -3.595
REMARK INTER:                  -3.378
REMARK INTRA:                  -0.217
REMARK UNBOUND:                -0.018
REMARK SMILES OCC(O)CO
REMARK SMILES IDX 3 1 5 2 6 3 2 5 1 6 4 8
REMARK H PARENT 6 4 1 7 4 9
REMARK Flexibility Score: inf
ROOT
ATOM      1  C   UNL     1      23.403  21.602  48.245  1.00  0.00     0.165 C 
ENDROOT
BRANCH   1   2
ATOM      2  C   UNL     1      22.165  22.269  47.630  1.00  0.00     0.190 C 
BRANCH   2   3
ATOM      3  O   UNL     1      22.539  23.201  46.653  1.00  0.00    -0.394 OA
ATOM      4  H   UNL     1      22.057  24.040  46.873  1.00  0.00     0.210 HD
ENDBRANCH   2   3
ENDBRANCH   1   2
BRANCH   1   5
ATOM      5  C   UNL     1      24.626  22.534  48.236  1.00  0.00     0.190 C 
BRANCH   5   6
ATOM      6  O   UNL     1      25.398  22.322  47.086  1.00  0.00    -0.394 OA
ATOM      7  H   UNL     1      25.222  21.386  46.805  1.00  0.00     0.210 HD
ENDBRANCH   5   6
ENDBRANCH   1   5
BRANCH   1   8
ATOM      8  O   UNL     1      23.110  21.189  49.555  1.00  0.00    -0.388 OA
ATOM      9  H   UNL     1      23.128  20.196  49.553  1.00  0.00     0.211 HD
ENDBRANCH   1   8
TORSDOF 5
ENDMDL
MODEL 9
REMARK VINA RESULT:    -2.944     15.918     16.636
REMARK INTER + INTRA:          -3.564
REMARK INTER:                  -3.355
REMARK INTRA:                  -0.210
REMARK UNBOUND:                -0.018
REMARK SMILES OCC(O)CO
REMARK SMILES IDX 3 1 5 2 6 3 2 5 1 6 4 8
REMARK H PARENT 6 4 1 7 4 9
REMARK Flexibility Score: inf
ROOT
ATOM      1  C   UNL     1      22.988  22.547  48.071  1.00  0.00     0.165 C 
ENDROOT
BRANCH   1   2
ATOM      2  C   UNL     1      24.239  21.665  47.965  1.00  0.00     0.190 C 
BRANCH   2   3
ATOM      3  O   UNL     1      25.233  22.304  47.212  1.00  0.00    -0.394 OA
ATOM      4  H   UNL     1      25.566  23.051  47.772  1.00  0.00     0.210 HD
ENDBRANCH   2   3
ENDBRANCH   1   2
BRANCH   1   5
ATOM      5  C   UNL     1      23.276  23.873  48.793  1.00  0.00     0.190 C 
BRANCH   5   6
ATOM      6  O   UNL     1      23.675  24.856  47.878  1.00  0.00    -0.394 OA
ATOM      7  H   UNL     1      24.307  24.411  47.254  1.00  0.00     0.210 HD
ENDBRANCH   5   6
ENDBRANCH   1   5
BRANCH   1   8
ATOM      8  O   UNL     1      22.474  22.789  46.787  1.00  0.00    -0.388 OA
ATOM      9  H   UNL     1      21.512  22.542  46.812  1.00  0.00     0.211 HD
ENDBRANCH   1   8
TORSDOF 5
ENDMDL
