MODEL 1
REMARK VINA RESULT:    -4.342      0.000      0.000
REMARK INTER + INTRA:          -6.058
REMARK INTER:                  -5.865
REMARK INTRA:                  -0.193
REMARK UNBOUND:                -0.193
REMARK SMILES O=C[C@@H](O)[C@@H](O)[C@H](O)CO
REMARK SMILES IDX 7 1 9 2 10 3 5 5 3 6 2 7 1 8 4 9 6 11 8 13
REMARK H PARENT 10 4 4 10 6 12 8 14
REMARK Flexibility Score: inf
ROOT
ATOM      1  C   UNL     1      -3.190  11.215  17.342  1.00  0.00     0.171 C 
ENDROOT
BRANCH   1   2
ATOM      2  C   UNL     1      -2.560  11.691  18.666  1.00  0.00     0.190 C 
BRANCH   2   3
ATOM      3  O   UNL     1      -2.666  13.083  18.793  1.00  0.00    -0.394 OA
ATOM      4  H   UNL     1      -3.592  13.262  19.102  1.00  0.00     0.210 HD
ENDBRANCH   2   3
ENDBRANCH   1   2
BRANCH   1   5
ATOM      5  C   UNL     1      -4.739  11.107  17.385  1.00  0.00     0.181 C 
BRANCH   5   6
ATOM      6  C   UNL     1      -5.466  12.010  16.363  1.00  0.00     0.209 C 
BRANCH   6   7
ATOM      7  C   UNL     1      -6.305  13.041  17.071  1.00  0.00     0.258 C 
ATOM      8  O   UNL     1      -7.191  12.702  17.840  1.00  0.00    -0.300 OA
ENDBRANCH   6   7
BRANCH   6   9
ATOM      9  O   UNL     1      -4.535  12.659  15.537  1.00  0.00    -0.383 OA
ATOM     10  H   UNL     1      -4.370  13.553  15.936  1.00  0.00     0.211 HD
ENDBRANCH   6   9
ENDBRANCH   5   6
BRANCH   5  11
ATOM     11  O   UNL     1      -5.125   9.771  17.174  1.00  0.00    -0.387 OA
ATOM     12  H   UNL     1      -4.638   9.219  17.839  1.00  0.00     0.211 HD
ENDBRANCH   5  11
ENDBRANCH   1   5
BRANCH   1  13
ATOM     13  O   UNL     1      -2.631   9.990  16.942  1.00  0.00    -0.388 OA
ATOM     14  H   UNL     1      -1.719  10.185  16.601  1.00  0.00     0.211 HD
ENDBRANCH   1  13
TORSDOF 8
ENDMDL
MODEL 2
REMARK VINA RESULT:    -4.174      1.172      3.727
REMARK INTER + INTRA:          -5.832
REMARK INTER:                  -5.223
REMARK INTRA:                  -0.609
REMARK UNBOUND:                -0.193
REMARK SMILES O=C[C@@H](O)[C@@H](O)[C@H](O)CO
REMARK SMILES IDX 7 1 9 2 10 3 5 5 3 6 2 7 1 8 4 9 6 11 8 13
REMARK H PARENT 10 4 4 10 6 12 8 14
REMARK Flexibility Score: inf
ROOT
ATOM      1  C   UNL     1      -4.874  11.798  17.433  1.00  0.00     0.171 C 
ENDROOT
BRANCH   1   2
ATOM      2  C   UNL     1      -5.536  12.407  16.182  1.00  0.00     0.190 C 
BRANCH   2   3
ATOM      3  O   UNL     1      -4.565  12.816  15.256  1.00  0.00    -0.394 OA
ATOM      4  H   UNL     1      -3.702  12.451  15.583  1.00  0.00     0.210 HD
ENDBRANCH   2   3
ENDBRANCH   1   2
BRANCH   1   5
ATOM      5  C   UNL     1      -3.328  11.692  17.339  1.00  0.00     0.181 C 
BRANCH   5   6
ATOM      6  C   UNL     1      -2.591  11.965  18.670  1.00  0.00     0.209 C 
BRANCH   6   7
ATOM      7  C   UNL     1      -2.198  10.671  19.332  1.00  0.00     0.258 C 
ATOM      8  O   UNL     1      -3.046   9.851  19.649  1.00  0.00    -0.300 OA
ENDBRANCH   6   7
BRANCH   6   9
ATOM      9  O   UNL     1      -1.440  12.736  18.442  1.00  0.00    -0.383 OA
ATOM     10  H   UNL     1      -1.497  13.521  19.048  1.00  0.00     0.211 HD
ENDBRANCH   6   9
ENDBRANCH   5   6
BRANCH   5  11
ATOM     11  O   UNL     1      -2.969  10.416  16.868  1.00  0.00    -0.387 OA
ATOM     12  H   UNL     1      -3.474  10.264  16.027  1.00  0.00     0.211 HD
ENDBRANCH   5  11
ENDBRANCH   1   5
BRANCH   1  13
ATOM     13  O   UNL     1      -5.428  10.539  17.721  1.00  0.00    -0.388 OA
ATOM     14  H   UNL     1      -4.892   9.866  17.225  1.00  0.00     0.211 HD
ENDBRANCH   1  13
TORSDOF 8
ENDMDL
MODEL 3
REMARK VINA RESULT:    -4.154      1.066      1.839
REMARK INTER + INTRA:          -5.804
REMARK INTER:                  -5.098
REMARK INTRA:                  -0.707
REMARK UNBOUND:                -0.193
REMARK SMILES O=C[C@@H](O)[C@@H](O)[C@H](O)CO
REMARK SMILES IDX 7 1 9 2 10 3 5 5 3 6 2 7 1 8 4 9 6 11 8 13
REMARK H PARENT 10 4 4 10 6 12 8 14
REMARK Flexibility Score: inf
ROOT
ATOM      1  C   UNL     1      -2.902  11.300  17.470  1.00  0.00     0.171 C 
ENDROOT
BRANCH   1   2
ATOM      2  C   UNL     1      -2.615  11.480  18.974  1.00  0.00     0.190 C 
BRANCH   2   3
ATOM      3  O   UNL     1      -2.563  12.840  19.310  1.00  0.00    -0.394 OA
ATOM      4  H   UNL     1      -2.000  13.274  18.618  1.00  0.00     0.210 HD
ENDBRANCH   2   3
ENDBRANCH   1   2
BRANCH   1   5
ATOM      5  C   UNL     1      -4.368  11.617  17.068  1.00  0.00     0.181 C 
BRANCH   5   6
ATOM      6  C   UNL     1      -5.415  10.664  17.686  1.00  0.00     0.209 C 
BRANCH   6   7
ATOM      7  C   UNL     1      -6.809  11.094  17.314  1.00  0.00     0.258 C 
ATOM      8  O   UNL     1      -7.326  12.063  17.849  1.00  0.00    -0.300 OA
ENDBRANCH   6   7
BRANCH   6   9
ATOM      9  O   UNL     1      -5.202   9.350  17.242  1.00  0.00    -0.383 OA
ATOM     10  H   UNL     1      -4.593   9.407  16.459  1.00  0.00     0.211 HD
ENDBRANCH   6   9
ENDBRANCH   5   6
BRANCH   5  11
ATOM     11  O   UNL     1      -4.682  12.940  17.428  1.00  0.00    -0.387 OA
ATOM     12  H   UNL     1      -4.287  13.532  16.736  1.00  0.00     0.211 HD
ENDBRANCH   5  11
ENDBRANCH   1   5
BRANCH   1  13
ATOM     13  O   UNL     1      -2.555  10.005  17.053  1.00  0.00    -0.388 OA
ATOM     14  H   UNL     1      -3.381   9.456  17.096  1.00  0.00     0.211 HD
ENDBRANCH   1  13
TORSDOF 8
ENDMDL
MODEL 4
REMARK VINA RESULT:    -4.117      1.248      3.868
REMARK INTER + INTRA:          -5.754
REMARK INTER:                  -5.166
REMARK INTRA:                  -0.588
REMARK UNBOUND:                -0.193
REMARK SMILES O=C[C@@H](O)[C@@H](O)[C@H](O)CO
REMARK SMILES IDX 7 1 9 2 10 3 5 5 3 6 2 7 1 8 4 9 6 11 8 13
REMARK H PARENT 10 4 4 10 6 12 8 14
REMARK Flexibility Score: inf
ROOT
ATOM      1  C   UNL     1      -4.828  11.638  16.746  1.00  0.00     0.171 C 
ENDROOT
BRANCH   1   2
ATOM      2  C   UNL     1      -6.273  12.042  17.101  1.00  0.00     0.190 C 
BRANCH   2   3
ATOM      3  O   UNL     1      -6.315  13.354  17.594  1.00  0.00    -0.394 OA
ATOM      4  H   UNL     1      -6.315  13.947  16.798  1.00  0.00     0.210 HD
ENDBRANCH   2   3
ENDBRANCH   1   2
BRANCH   1   5
ATOM      5  C   UNL     1      -3.856  11.653  17.957  1.00  0.00     0.181 C 
BRANCH   5   6
ATOM      6  C   UNL     1      -2.582  10.800  17.758  1.00  0.00     0.209 C 
BRANCH   6   7
ATOM      7  C   UNL     1      -2.164  10.162  19.057  1.00  0.00     0.258 C 
ATOM      8  O   UNL     1      -1.994  10.841  20.058  1.00  0.00    -0.300 OA
ENDBRANCH   6   7
BRANCH   6   9
ATOM      9  O   UNL     1      -2.811   9.798  16.802  1.00  0.00    -0.383 OA
ATOM     10  H   UNL     1      -2.466  10.142  15.937  1.00  0.00     0.211 HD
ENDBRANCH   6   9
ENDBRANCH   5   6
BRANCH   5  11
ATOM     11  O   UNL     1      -3.481  12.978  18.246  1.00  0.00    -0.387 OA
ATOM     12  H   UNL     1      -2.503  12.973  18.416  1.00  0.00     0.211 HD
ENDBRANCH   5  11
ENDBRANCH   1   5
BRANCH   1  13
ATOM     13  O   UNL     1      -4.328  12.451  15.714  1.00  0.00    -0.388 OA
ATOM     14  H   UNL     1      -3.676  11.903  15.204  1.00  0.00     0.211 HD
ENDBRANCH   1  13
TORSDOF 8
ENDMDL
MODEL 5
REMARK VINA RESULT:    -4.110      1.186      2.310
REMARK INTER + INTRA:          -5.745
REMARK INTER:                  -5.229
REMARK INTRA:                  -0.517
REMARK UNBOUND:                -0.193
REMARK SMILES O=C[C@@H](O)[C@@H](O)[C@H](O)CO
REMARK SMILES IDX 7 1 9 2 10 3 5 5 3 6 2 7 1 8 4 9 6 11 8 13
REMARK H PARENT 10 4 4 10 6 12 8 14
REMARK Flexibility Score: inf
ROOT
ATOM      1  C   UNL     1      -4.093  11.565  18.004  1.00  0.00     0.171 C 
ENDROOT
BRANCH   1   2
ATOM      2  C   UNL     1      -3.110  10.378  18.044  1.00  0.00     0.190 C 
BRANCH   2   3
ATOM      3  O   UNL     1      -2.804   9.943  16.747  1.00  0.00    -0.394 OA
ATOM      4  H   UNL     1      -3.674   9.780  16.299  1.00  0.00     0.210 HD
ENDBRANCH   2   3
ENDBRANCH   1   2
BRANCH   1   5
ATOM      5  C   UNL     1      -4.924  11.650  16.694  1.00  0.00     0.181 C 
BRANCH   5   6
ATOM      6  C   UNL     1      -6.339  12.242  16.878  1.00  0.00     0.209 C 
BRANCH   6   7
ATOM      7  C   UNL     1      -7.195  11.321  17.706  1.00  0.00     0.258 C 
ATOM      8  O   UNL     1      -8.115  11.761  18.378  1.00  0.00    -0.300 OA
ENDBRANCH   6   7
BRANCH   6   9
ATOM      9  O   UNL     1      -6.266  13.495  17.506  1.00  0.00    -0.383 OA
ATOM     10  H   UNL     1      -7.164  13.910  17.424  1.00  0.00     0.211 HD
ENDBRANCH   6   9
ENDBRANCH   5   6
BRANCH   5  11
ATOM     11  O   UNL     1      -4.226  12.414  15.741  1.00  0.00    -0.387 OA
ATOM     12  H   UNL     1      -4.145  13.333  16.108  1.00  0.00     0.211 HD
ENDBRANCH   5  11
ENDBRANCH   1   5
BRANCH   1  13
ATOM     13  O   UNL     1      -3.415  12.775  18.225  1.00  0.00    -0.388 OA
ATOM     14  H   UNL     1      -3.516  12.992  19.189  1.00  0.00     0.211 HD
ENDBRANCH   1  13
TORSDOF 8
ENDMDL
MODEL 6
REMARK VINA RESULT:    -4.089      1.529      2.194
REMARK INTER + INTRA:          -5.717
REMARK INTER:                  -5.027
REMARK INTRA:                  -0.689
REMARK UNBOUND:                -0.193
REMARK SMILES O=C[C@@H](O)[C@@H](O)[C@H](O)CO
REMARK SMILES IDX 7 1 9 2 10 3 5 5 3 6 2 7 1 8 4 9 6 11 8 13
REMARK H PARENT 10 4 4 10 6 12 8 14
REMARK Flexibility Score: inf
ROOT
ATOM      1  C   UNL     1      -2.922  10.596  18.002  1.00  0.00     0.171 C 
ENDROOT
BRANCH   1   2
ATOM      2  C   UNL     1      -2.220   9.240  17.790  1.00  0.00     0.190 C 
BRANCH   2   3
ATOM      3  O   UNL     1      -1.937   9.035  16.433  1.00  0.00    -0.394 OA
ATOM      4  H   UNL     1      -1.228   9.688  16.197  1.00  0.00     0.210 HD
ENDBRANCH   2   3
ENDBRANCH   1   2
BRANCH   1   5
ATOM      5  C   UNL     1      -4.462  10.544  17.811  1.00  0.00     0.181 C 
BRANCH   5   6
ATOM      6  C   UNL     1      -5.031  11.680  16.932  1.00  0.00     0.209 C 
BRANCH   6   7
ATOM      7  C   UNL     1      -6.522  11.536  16.778  1.00  0.00     0.258 C 
ATOM      8  O   UNL     1      -6.992  10.736  15.984  1.00  0.00    -0.300 OA
ENDBRANCH   6   7
BRANCH   6   9
ATOM      9  O   UNL     1      -4.743  12.930  17.502  1.00  0.00    -0.383 OA
ATOM     10  H   UNL     1      -3.996  13.320  16.977  1.00  0.00     0.211 HD
ENDBRANCH   6   9
ENDBRANCH   5   6
BRANCH   5  11
ATOM     11  O   UNL     1      -4.827   9.305  17.253  1.00  0.00    -0.387 OA
ATOM     12  H   UNL     1      -5.194   9.490  16.350  1.00  0.00     0.211 HD
ENDBRANCH   5  11
ENDBRANCH   1   5
BRANCH   1  13
ATOM     13  O   UNL     1      -2.363  11.577  17.165  1.00  0.00    -0.388 OA
ATOM     14  H   UNL     1      -1.870  11.099  16.448  1.00  0.00     0.211 HD
ENDBRANCH   1  13
TORSDOF 8
ENDMDL
MODEL 7
REMARK VINA RESULT:    -4.028      2.030      3.560
REMARK INTER + INTRA:          -5.634
REMARK INTER:                  -5.366
REMARK INTRA:                  -0.268
REMARK UNBOUND:                -0.193
REMARK SMILES O=C[C@@H](O)[C@@H](O)[C@H](O)CO
REMARK SMILES IDX 7 1 9 2 10 3 5 5 3 6 2 7 1 8 4 9 6 11 8 13
REMARK H PARENT 10 4 4 10 6 12 8 14
REMARK Flexibility Score: inf
ROOT
ATOM      1  C   UNL     1      -5.650  12.845  15.729  1.00  0.00     0.171 C 
ENDROOT
BRANCH   1   2
ATOM      2  C   UNL     1      -6.241  14.197  15.284  1.00  0.00     0.190 C 
BRANCH   2   3
ATOM      3  O   UNL     1      -6.190  14.326  13.889  1.00  0.00    -0.394 OA
ATOM      4  H   UNL     1      -5.967  13.425  13.537  1.00  0.00     0.210 HD
ENDBRANCH   2   3
ENDBRANCH   1   2
BRANCH   1   5
ATOM      5  C   UNL     1      -5.695  12.615  17.265  1.00  0.00     0.181 C 
BRANCH   5   6
ATOM      6  C   UNL     1      -6.166  11.203  17.680  1.00  0.00     0.209 C 
BRANCH   6   7
ATOM      7  C   UNL     1      -7.669  11.145  17.751  1.00  0.00     0.258 C 
ATOM      8  O   UNL     1      -8.299  12.011  18.338  1.00  0.00    -0.300 OA
ENDBRANCH   6   7
BRANCH   6   9
ATOM      9  O   UNL     1      -5.709  10.245  16.761  1.00  0.00    -0.383 OA
ATOM     10  H   UNL     1      -6.079  10.498  15.875  1.00  0.00     0.211 HD
ENDBRANCH   6   9
ENDBRANCH   5   6
BRANCH   5  11
ATOM     11  O   UNL     1      -4.424  12.855  17.816  1.00  0.00    -0.387 OA
ATOM     12  H   UNL     1      -4.027  13.614  17.312  1.00  0.00     0.211 HD
ENDBRANCH   5  11
ENDBRANCH   1   5
BRANCH   1  13
ATOM     13  O   UNL     1      -4.335  12.702  15.257  1.00  0.00    -0.388 OA
ATOM     14  H   UNL     1      -4.340  12.969  14.301  1.00  0.00     0.211 HD
ENDBRANCH   1  13
TORSDOF 8
ENDMDL
MODEL 8
REMARK VINA RESULT:    -3.949      1.879      3.139
REMARK INTER + INTRA:          -5.527
REMARK INTER:                  -5.173
REMARK INTRA:                  -0.354
REMARK UNBOUND:                -0.193
REMARK SMILES O=C[C@@H](O)[C@@H](O)[C@H](O)CO
REMARK SMILES IDX 7 1 9 2 10 3 5 5 3 6 2 7 1 8 4 9 6 11 8 13
REMARK H PARENT 10 4 4 10 6 12 8 14
REMARK Flexibility Score: inf
ROOT
ATOM      1  C   UNL     1      -2.176   9.370  18.212  1.00  0.00     0.171 C 
ENDROOT
BRANCH   1   2
ATOM      2  C   UNL     1      -1.612   8.237  17.331  1.00  0.00     0.190 C 
BRANCH   2   3
ATOM      3  O   UNL     1      -1.631   8.603  15.978  1.00  0.00    -0.394 OA
ATOM      4  H   UNL     1      -2.455   8.204  15.597  1.00  0.00     0.210 HD
ENDBRANCH   2   3
ENDBRANCH   1   2
BRANCH   1   5
ATOM      5  C   UNL     1      -2.850  10.515  17.407  1.00  0.00     0.181 C 
BRANCH   5   6
ATOM      6  C   UNL     1      -4.373  10.639  17.636  1.00  0.00     0.209 C 
BRANCH   6   7
ATOM      7  C   UNL     1      -4.939  11.777  16.829  1.00  0.00     0.258 C 
ATOM      8  O   UNL     1      -5.060  12.889  17.319  1.00  0.00    -0.300 OA
ENDBRANCH   6   7
BRANCH   6   9
ATOM      9  O   UNL     1      -5.020   9.447  17.274  1.00  0.00    -0.383 OA
ATOM     10  H   UNL     1      -5.911   9.702  16.918  1.00  0.00     0.211 HD
ENDBRANCH   6   9
ENDBRANCH   5   6
BRANCH   5  11
ATOM     11  O   UNL     1      -2.236  11.740  17.725  1.00  0.00    -0.387 OA
ATOM     12  H   UNL     1      -2.509  11.971  18.651  1.00  0.00     0.211 HD
ENDBRANCH   5  11
ENDBRANCH   1   5
BRANCH   1  13
ATOM     13  O   UNL     1      -1.174   9.891  19.047  1.00  0.00    -0.388 OA
ATOM     14  H   UNL     1      -0.753  10.646  18.559  1.00  0.00     0.211 HD
ENDBRANCH   1  13
TORSDOF 8
ENDMDL
MODEL 9
REMARK VINA RESULT:    -3.727      2.259      3.992
REMARK INTER + INTRA:          -5.227
REMARK INTER:                  -4.788
REMARK INTRA:                  -0.438
REMARK UNBOUND:                -0.193
REMARK SMILES O=C[C@@H](O)[C@@H](O)[C@H](O)CO
REMARK SMILES IDX 7 1 9 2 10 3 5 5 3 6 2 7 1 8 4 9 6 11 8 13
REMARK H PARENT 10 4 4 10 6 12 8 14
REMARK Flexibility Score: inf
ROOT
ATOM      1  C   UNL     1      -2.633   9.412  17.888  1.00  0.00     0.171 C 
ENDROOT
BRANCH   1   2
ATOM      2  C   UNL     1      -3.542   8.172  17.993  1.00  0.00     0.190 C 
BRANCH   2   3
ATOM      3  O   UNL     1      -4.795   8.425  17.418  1.00  0.00    -0.394 OA
ATOM      4  H   UNL     1      -5.284   7.562  17.432  1.00  0.00     0.210 HD
ENDBRANCH   2   3
ENDBRANCH   1   2
BRANCH   1   5
ATOM      5  C   UNL     1      -3.396  10.761  17.986  1.00  0.00     0.181 C 
BRANCH   5   6
ATOM      6  C   UNL     1      -2.633  11.867  18.750  1.00  0.00     0.209 C 
BRANCH   6   7
ATOM      7  C   UNL     1      -2.048  11.322  20.026  1.00  0.00     0.258 C 
ATOM      8  O   UNL     1      -0.839  11.298  20.196  1.00  0.00    -0.300 OA
ENDBRANCH   6   7
BRANCH   6   9
ATOM      9  O   UNL     1      -1.602  12.388  17.953  1.00  0.00    -0.383 OA
ATOM     10  H   UNL     1      -1.147  13.087  18.493  1.00  0.00     0.211 HD
ENDBRANCH   6   9
ENDBRANCH   5   6
BRANCH   5  11
ATOM     11  O   UNL     1      -3.704  11.224  16.694  1.00  0.00    -0.387 OA
ATOM     12  H   UNL     1      -4.478  11.839  16.782  1.00  0.00     0.211 HD
ENDBRANCH   5  11
ENDBRANCH   1   5
BRANCH   1  13
ATOM     13  O   UNL     1      -1.875   9.369  16.706  1.00  0.00    -0.388 OA
ATOM     14  H   UNL     1      -2.265   8.655  16.138  1.00  0.00     0.211 HD
ENDBRANCH   1  13
TORSDOF 8
ENDMDL
