MODEL 1
REMARK VINA RESULT:    -3.257      0.000      0.000
REMARK INTER + INTRA:          -5.203
REMARK INTER:                  -4.971
REMARK INTRA:                  -0.232
REMARK UNBOUND:                -0.232
REMARK SMILES CC1=CCC[C@@H](C)C(=O)C[C@H](C(C)C)C(=O)C1
REMARK SMILES IDX 8 1 9 2 6 3 7 4 5 5 4 6 3 7 2 8 1 9 10 11 11 12 15 13 16 14
REMARK SMILES IDX 17 15 12 17 13 18 14 19
REMARK H PARENT
REMARK Flexibility Score: 70.00
ROOT
ATOM      1  C   UNL     1      39.471 -40.867  -3.309  1.00  0.00     0.136 C 
ATOM      2  O   UNL     1      38.789 -41.838  -3.611  1.00  0.00    -0.299 OA
ENDROOT
BRANCH   1   3
ATOM      3  C   UNL     1      40.216 -40.093  -4.383  1.00  0.00     0.053 C 
ATOM      4  C   UNL     1      39.300 -39.653  -5.536  1.00  0.00     0.016 C 
BRANCH   3   5
ATOM      5  C   UNL     1      41.474 -40.839  -4.895  1.00  0.00     0.015 C 
BRANCH   5   6
ATOM      6  C   UNL     1      42.848 -40.241  -4.518  1.00  0.00     0.028 C 
BRANCH   6   7
ATOM      7  C   UNL     1      42.868 -38.753  -4.250  1.00  0.00    -0.028 C 
ATOM      8  C   UNL     1      42.887 -38.161  -3.033  1.00  0.00    -0.070 CG0
ATOM      9  C   UNL     1      42.823 -36.656  -2.979  1.00  0.00     0.039 C 
ATOM     10  G   UNL     1      42.949 -38.935  -1.730  1.00  0.00     0.000 G0
ENDBRANCH   6   7
ENDBRANCH   5   6
ENDBRANCH   3   5
ENDBRANCH   1   3
BRANCH   1  11
ATOM     11  C   UNL     1      39.519 -40.440  -1.860  1.00  0.00     0.087 C 
BRANCH  11  12
ATOM     12  C   UNL     1      40.937 -40.611  -1.247  1.00  0.00     0.066 C 
BRANCH  12  13
ATOM     13  C   UNL     1      41.596 -39.242  -1.140  1.00  0.00     0.140 C 
ATOM     14  O   UNL     1      41.042 -38.371  -0.486  1.00  0.00    -0.299 OA
BRANCH  13  15
ATOM     15  C   UNL     1      42.951 -38.938  -1.735  1.00  0.00     0.106 CG0
ATOM     16  G   UNL     1      42.877 -38.164  -3.037  1.00  0.00     0.000 G0
ENDBRANCH  13  15
ENDBRANCH  12  13
BRANCH  12  17
ATOM     17  C   UNL     1      40.914 -41.320   0.147  1.00  0.00    -0.006 C 
ATOM     18  C   UNL     1      40.010 -42.568   0.156  1.00  0.00     0.008 C 
ATOM     19  C   UNL     1      42.332 -41.739   0.581  1.00  0.00     0.008 C 
ENDBRANCH  12  17
ENDBRANCH  11  12
ENDBRANCH   1  11
TORSDOF 1
ENDMDL
MODEL 2
REMARK VINA RESULT:    -3.193      2.244      5.135
REMARK INTER + INTRA:          -5.105
REMARK INTER:                  -5.006
REMARK INTRA:                  -0.099
REMARK UNBOUND:                -0.232
REMARK SMILES CC1=CCC[C@@H](C)C(=O)C[C@H](C(C)C)C(=O)C1
REMARK SMILES IDX 8 1 9 2 6 3 7 4 5 5 4 6 3 7 2 8 1 9 10 11 11 12 15 13 16 14
REMARK SMILES IDX 17 15 12 17 13 18 14 19
REMARK H PARENT
REMARK Flexibility Score: 70.00
ROOT
ATOM      1  C   UNL     1      42.927 -40.625  -0.719  1.00  0.00     0.136 C 
ATOM      2  O   UNL     1      43.960 -41.283  -0.707  1.00  0.00    -0.299 OA
ENDROOT
BRANCH   1   3
ATOM      3  C   UNL     1      41.981 -40.668   0.469  1.00  0.00     0.053 C 
ATOM      4  C   UNL     1      42.669 -40.272   1.785  1.00  0.00     0.016 C 
BRANCH   3   5
ATOM      5  C   UNL     1      41.233 -42.019   0.591  1.00  0.00     0.015 C 
BRANCH   5   6
ATOM      6  C   UNL     1      39.840 -42.113  -0.072  1.00  0.00     0.028 C 
BRANCH   6   7
ATOM      7  C   UNL     1      38.869 -41.007   0.275  1.00  0.00    -0.028 C 
ATOM      8  C   UNL     1      38.436 -40.035  -0.561  1.00  0.00    -0.070 CG0
ATOM      9  C   UNL     1      37.526 -38.972   0.003  1.00  0.00     0.039 C 
ATOM     10  G   UNL     1      38.834 -39.952  -2.022  1.00  0.00     0.000 G0
ENDBRANCH   6   7
ENDBRANCH   5   6
ENDBRANCH   3   5
ENDBRANCH   1   3
BRANCH   1  11
ATOM     11  C   UNL     1      42.641 -39.750  -1.917  1.00  0.00     0.087 C 
BRANCH  11  12
ATOM     12  C   UNL     1      41.392 -40.230  -2.707  1.00  0.00     0.066 C 
BRANCH  12  13
ATOM     13  C   UNL     1      40.191 -39.392  -2.288  1.00  0.00     0.140 C 
ATOM     14  O   UNL     1      40.313 -38.178  -2.223  1.00  0.00    -0.299 OA
BRANCH  13  15
ATOM     15  C   UNL     1      38.827 -39.988  -2.032  1.00  0.00     0.106 CG0
ATOM     16  G   UNL     1      38.442 -40.004  -0.565  1.00  0.00     0.000 G0
ENDBRANCH  13  15
ENDBRANCH  12  13
BRANCH  12  17
ATOM     17  C   UNL     1      41.592 -40.165  -4.257  1.00  0.00    -0.006 C 
ATOM     18  C   UNL     1      43.042 -40.479  -4.675  1.00  0.00     0.008 C 
ATOM     19  C   UNL     1      40.650 -41.145  -4.981  1.00  0.00     0.008 C 
ENDBRANCH  12  17
ENDBRANCH  11  12
ENDBRANCH   1  11
TORSDOF 1
ENDMDL
MODEL 3
REMARK VINA RESULT:    -3.160      2.238      4.765
REMARK INTER + INTRA:          -5.054
REMARK INTER:                  -5.216
REMARK INTRA:                   0.162
REMARK UNBOUND:                -0.232
REMARK SMILES CC1=CCC[C@@H](C)C(=O)C[C@H](C(C)C)C(=O)C1
REMARK SMILES IDX 8 1 9 2 6 3 7 4 5 5 4 6 3 7 2 8 1 9 10 11 11 12 15 13 16 14
REMARK SMILES IDX 17 15 12 17 13 18 14 19
REMARK H PARENT
REMARK Flexibility Score: 70.00
ROOT
ATOM      1  C   UNL     1      41.426 -40.535  -5.205  1.00  0.00     0.136 C 
ATOM      2  O   UNL     1      40.977 -41.532  -5.756  1.00  0.00    -0.299 OA
ENDROOT
BRANCH   1   3
ATOM      3  C   UNL     1      42.860 -40.523  -4.701  1.00  0.00     0.053 C 
ATOM      4  C   UNL     1      43.731 -41.594  -5.377  1.00  0.00     0.016 C 
BRANCH   3   5
ATOM      5  C   UNL     1      42.953 -40.591  -3.157  1.00  0.00     0.015 C 
BRANCH   5   6
ATOM      6  C   UNL     1      42.308 -39.433  -2.362  1.00  0.00     0.028 C 
BRANCH   6   7
ATOM      7  C   UNL     1      41.222 -39.829  -1.387  1.00  0.00    -0.028 C 
ATOM      8  C   UNL     1      39.921 -39.458  -1.447  1.00  0.00    -0.070 CG0
ATOM      9  C   UNL     1      39.010 -39.895  -0.328  1.00  0.00     0.039 C 
ATOM     10  G   UNL     1      39.346 -38.613  -2.568  1.00  0.00     0.000 G0
ENDBRANCH   6   7
ENDBRANCH   5   6
ENDBRANCH   3   5
ENDBRANCH   1   3
BRANCH   1  11
ATOM     11  C   UNL     1      40.540 -39.319  -5.074  1.00  0.00     0.087 C 
BRANCH  11  12
ATOM     12  C   UNL     1      39.035 -39.697  -4.990  1.00  0.00     0.066 C 
BRANCH  12  13
ATOM     13  C   UNL     1      38.528 -39.393  -3.587  1.00  0.00     0.140 C 
ATOM     14  O   UNL     1      37.461 -39.872  -3.228  1.00  0.00    -0.299 OA
BRANCH  13  15
ATOM     15  C   UNL     1      39.326 -38.594  -2.584  1.00  0.00     0.106 CG0
ATOM     16  G   UNL     1      39.925 -39.442  -1.478  1.00  0.00     0.000 G0
ENDBRANCH  13  15
ENDBRANCH  12  13
BRANCH  12  17
ATOM     17  C   UNL     1      38.164 -38.961  -6.060  1.00  0.00    -0.006 C 
ATOM     18  C   UNL     1      38.637 -37.516  -6.309  1.00  0.00     0.008 C 
ATOM     19  C   UNL     1      38.175 -39.718  -7.403  1.00  0.00     0.008 C 
ENDBRANCH  12  17
ENDBRANCH  11  12
ENDBRANCH   1  11
TORSDOF 1
ENDMDL
MODEL 4
REMARK VINA RESULT:    -3.134      2.439      4.617
REMARK INTER + INTRA:          -5.015
REMARK INTER:                  -5.093
REMARK INTRA:                   0.078
REMARK UNBOUND:                -0.232
REMARK SMILES CC1=CCC[C@@H](C)C(=O)C[C@H](C(C)C)C(=O)C1
REMARK SMILES IDX 8 1 9 2 6 3 7 4 5 5 4 6 3 7 2 8 1 9 10 11 11 12 15 13 16 14
REMARK SMILES IDX 17 15 12 17 13 18 14 19
REMARK H PARENT
REMARK Flexibility Score: 70.00
ROOT
ATOM      1  C   UNL     1      42.469 -40.288  -1.412  1.00  0.00     0.136 C 
ATOM      2  O   UNL     1      42.889 -41.199  -0.711  1.00  0.00    -0.299 OA
ENDROOT
BRANCH   1   3
ATOM      3  C   UNL     1      41.445 -39.310  -0.859  1.00  0.00     0.053 C 
ATOM      4  C   UNL     1      42.002 -38.465   0.298  1.00  0.00     0.016 C 
BRANCH   3   5
ATOM      5  C   UNL     1      40.106 -39.993  -0.485  1.00  0.00     0.015 C 
BRANCH   5   6
ATOM      6  C   UNL     1      38.909 -39.758  -1.433  1.00  0.00     0.028 C 
BRANCH   6   7
ATOM      7  C   UNL     1      38.728 -38.340  -1.927  1.00  0.00    -0.028 C 
ATOM      8  C   UNL     1      39.122 -37.857  -3.129  1.00  0.00    -0.070 CG0
ATOM      9  C   UNL     1      38.920 -36.387  -3.399  1.00  0.00     0.039 C 
ATOM     10  G   UNL     1      39.769 -38.712  -4.200  1.00  0.00     0.000 G0
ENDBRANCH   6   7
ENDBRANCH   5   6
ENDBRANCH   3   5
ENDBRANCH   1   3
BRANCH   1  11
ATOM     11  C   UNL     1      43.018 -40.138  -2.812  1.00  0.00     0.087 C 
BRANCH  11  12
ATOM     12  C   UNL     1      41.907 -40.257  -3.891  1.00  0.00     0.066 C 
BRANCH  12  13
ATOM     13  C   UNL     1      41.254 -38.893  -4.078  1.00  0.00     0.140 C 
ATOM     14  O   UNL     1      41.968 -37.908  -4.195  1.00  0.00    -0.299 OA
BRANCH  13  15
ATOM     15  C   UNL     1      39.760 -38.713  -4.212  1.00  0.00     0.106 CG0
ATOM     16  G   UNL     1      39.154 -37.864  -3.111  1.00  0.00     0.000 G0
ENDBRANCH  13  15
ENDBRANCH  12  13
BRANCH  12  17
ATOM     17  C   UNL     1      42.443 -40.799  -5.257  1.00  0.00    -0.006 C 
ATOM     18  C   UNL     1      43.733 -41.627  -5.094  1.00  0.00     0.008 C 
ATOM     19  C   UNL     1      41.386 -41.672  -5.961  1.00  0.00     0.008 C 
ENDBRANCH  12  17
ENDBRANCH  11  12
ENDBRANCH   1  11
TORSDOF 1
ENDMDL
MODEL 5
REMARK VINA RESULT:    -3.092      3.739      5.263
REMARK INTER + INTRA:          -4.950
REMARK INTER:                  -4.669
REMARK INTRA:                  -0.281
REMARK UNBOUND:                -0.232
REMARK SMILES CC1=CCC[C@@H](C)C(=O)C[C@H](C(C)C)C(=O)C1
REMARK SMILES IDX 8 1 9 2 6 3 7 4 5 5 4 6 3 7 2 8 1 9 10 11 11 12 15 13 16 14
REMARK SMILES IDX 17 15 12 17 13 18 14 19
REMARK H PARENT
REMARK Flexibility Score: 70.00
ROOT
ATOM      1  C   UNL     1      37.862 -39.071  -7.468  1.00  0.00     0.136 C 
ATOM      2  O   UNL     1      38.507 -39.824  -8.185  1.00  0.00    -0.299 OA
ENDROOT
BRANCH   1   3
ATOM      3  C   UNL     1      36.987 -37.992  -8.085  1.00  0.00     0.053 C 
ATOM      4  C   UNL     1      35.991 -38.557  -9.111  1.00  0.00     0.016 C 
BRANCH   3   5
ATOM      5  C   UNL     1      37.807 -36.813  -8.663  1.00  0.00     0.015 C 
BRANCH   5   6
ATOM      6  C   UNL     1      37.900 -35.533  -7.802  1.00  0.00     0.028 C 
BRANCH   6   7
ATOM      7  C   UNL     1      39.238 -35.276  -7.146  1.00  0.00    -0.028 C 
ATOM      8  C   UNL     1      39.598 -35.649  -5.895  1.00  0.00    -0.070 CG0
ATOM      9  C   UNL     1      40.956 -35.224  -5.395  1.00  0.00     0.039 C 
ATOM     10  G   UNL     1      38.699 -36.449  -4.972  1.00  0.00     0.000 G0
ENDBRANCH   6   7
ENDBRANCH   5   6
ENDBRANCH   3   5
ENDBRANCH   1   3
BRANCH   1  11
ATOM     11  C   UNL     1      37.929 -39.264  -5.971  1.00  0.00     0.087 C 
BRANCH  11  12
ATOM     12  C   UNL     1      39.354 -39.001  -5.410  1.00  0.00     0.066 C 
BRANCH  12  13
ATOM     13  C   UNL     1      39.311 -37.772  -4.511  1.00  0.00     0.140 C 
ATOM     14  O   UNL     1      39.857 -37.822  -3.418  1.00  0.00    -0.299 OA
BRANCH  13  15
ATOM     15  C   UNL     1      38.699 -36.462  -4.945  1.00  0.00     0.106 CG0
ATOM     16  G   UNL     1      39.591 -35.657  -5.871  1.00  0.00     0.000 G0
ENDBRANCH  13  15
ENDBRANCH  12  13
BRANCH  12  17
ATOM     17  C   UNL     1      39.937 -40.228  -4.634  1.00  0.00    -0.006 C 
ATOM     18  C   UNL     1      38.843 -41.227  -4.209  1.00  0.00     0.008 C 
ATOM     19  C   UNL     1      40.981 -40.978  -5.484  1.00  0.00     0.008 C 
ENDBRANCH  12  17
ENDBRANCH  11  12
ENDBRANCH   1  11
TORSDOF 1
ENDMDL
MODEL 6
REMARK VINA RESULT:    -3.000      2.273      3.413
REMARK INTER + INTRA:          -4.810
REMARK INTER:                  -5.150
REMARK INTRA:                   0.340
REMARK UNBOUND:                -0.232
REMARK SMILES CC1=CCC[C@@H](C)C(=O)C[C@H](C(C)C)C(=O)C1
REMARK SMILES IDX 8 1 9 2 6 3 7 4 5 5 4 6 3 7 2 8 1 9 10 11 11 12 15 13 16 14
REMARK SMILES IDX 17 15 12 17 13 18 14 19
REMARK H PARENT
REMARK Flexibility Score: 70.00
ROOT
ATOM      1  C   UNL     1      42.445 -40.130  -3.884  1.00  0.00     0.136 C 
ATOM      2  O   UNL     1      43.002 -39.084  -4.189  1.00  0.00    -0.299 OA
ENDROOT
BRANCH   1   3
ATOM      3  C   UNL     1      42.399 -41.286  -4.870  1.00  0.00     0.053 C 
ATOM      4  C   UNL     1      43.708 -41.438  -5.661  1.00  0.00     0.016 C 
BRANCH   3   5
ATOM      5  C   UNL     1      41.162 -41.230  -5.801  1.00  0.00     0.015 C 
BRANCH   5   6
ATOM      6  C   UNL     1      39.796 -40.940  -5.140  1.00  0.00     0.028 C 
BRANCH   6   7
ATOM      7  C   UNL     1      39.262 -39.537  -5.322  1.00  0.00    -0.028 C 
ATOM      8  C   UNL     1      39.001 -38.648  -4.334  1.00  0.00    -0.070 CG0
ATOM      9  C   UNL     1      38.392 -37.323  -4.720  1.00  0.00     0.039 C 
ATOM     10  G   UNL     1      39.270 -38.927  -2.868  1.00  0.00     0.000 G0
ENDBRANCH   6   7
ENDBRANCH   5   6
ENDBRANCH   3   5
ENDBRANCH   1   3
BRANCH   1  11
ATOM     11  C   UNL     1      41.844 -40.255  -2.504  1.00  0.00     0.087 C 
BRANCH  11  12
ATOM     12  C   UNL     1      41.719 -38.878  -1.794  1.00  0.00     0.066 C 
BRANCH  12  13
ATOM     13  C   UNL     1      40.466 -38.174  -2.299  1.00  0.00     0.140 C 
ATOM     14  O   UNL     1      40.447 -36.952  -2.326  1.00  0.00    -0.299 OA
BRANCH  13  15
ATOM     15  C   UNL     1      39.275 -38.921  -2.852  1.00  0.00     0.106 CG0
ATOM     16  G   UNL     1      39.016 -38.640  -4.319  1.00  0.00     0.000 G0
ENDBRANCH  13  15
ENDBRANCH  12  13
BRANCH  12  17
ATOM     17  C   UNL     1      41.689 -39.000  -0.235  1.00  0.00    -0.006 C 
ATOM     18  C   UNL     1      41.619 -40.465   0.238  1.00  0.00     0.008 C 
ATOM     19  C   UNL     1      42.929 -38.339   0.398  1.00  0.00     0.008 C 
ENDBRANCH  12  17
ENDBRANCH  11  12
ENDBRANCH   1  11
TORSDOF 1
ENDMDL
MODEL 7
REMARK VINA RESULT:    -2.986      2.472      3.787
REMARK INTER + INTRA:          -4.789
REMARK INTER:                  -4.754
REMARK INTRA:                  -0.035
REMARK UNBOUND:                -0.232
REMARK SMILES CC1=CCC[C@@H](C)C(=O)C[C@H](C(C)C)C(=O)C1
REMARK SMILES IDX 8 1 9 2 6 3 7 4 5 5 4 6 3 7 2 8 1 9 10 11 11 12 15 13 16 14
REMARK SMILES IDX 17 15 12 17 13 18 14 19
REMARK H PARENT
REMARK Flexibility Score: 70.00
ROOT
ATOM      1  C   UNL     1      37.656 -39.988  -4.986  1.00  0.00     0.136 C 
ATOM      2  O   UNL     1      36.676 -40.126  -4.267  1.00  0.00    -0.299 OA
ENDROOT
BRANCH   1   3
ATOM      3  C   UNL     1      37.677 -38.901  -6.048  1.00  0.00     0.053 C 
ATOM      4  C   UNL     1      37.974 -39.453  -7.451  1.00  0.00     0.016 C 
BRANCH   3   5
ATOM      5  C   UNL     1      38.612 -37.722  -5.680  1.00  0.00     0.015 C 
BRANCH   5   6
ATOM      6  C   UNL     1      38.265 -36.922  -4.404  1.00  0.00     0.028 C 
BRANCH   6   7
ATOM      7  C   UNL     1      39.412 -36.671  -3.452  1.00  0.00    -0.028 C 
ATOM      8  C   UNL     1      39.764 -37.450  -2.402  1.00  0.00    -0.070 CG0
ATOM      9  C   UNL     1      40.895 -36.981  -1.521  1.00  0.00     0.039 C 
ATOM     10  G   UNL     1      39.066 -38.753  -2.060  1.00  0.00     0.000 G0
ENDBRANCH   6   7
ENDBRANCH   5   6
ENDBRANCH   3   5
ENDBRANCH   1   3
BRANCH   1  11
ATOM     11  C   UNL     1      38.847 -40.893  -4.768  1.00  0.00     0.087 C 
BRANCH  11  12
ATOM     12  C   UNL     1      40.031 -40.148  -4.093  1.00  0.00     0.066 C 
BRANCH  12  13
ATOM     13  C   UNL     1      39.732 -39.991  -2.608  1.00  0.00     0.140 C 
ATOM     14  O   UNL     1      40.114 -40.859  -1.835  1.00  0.00    -0.299 OA
BRANCH  13  15
ATOM     15  C   UNL     1      39.061 -38.767  -2.033  1.00  0.00     0.106 CG0
ATOM     16  G   UNL     1      39.749 -37.469  -2.410  1.00  0.00     0.000 G0
ENDBRANCH  13  15
ENDBRANCH  12  13
BRANCH  12  17
ATOM     17  C   UNL     1      41.402 -40.870  -4.304  1.00  0.00    -0.006 C 
ATOM     18  C   UNL     1      41.555 -41.435  -5.730  1.00  0.00     0.008 C 
ATOM     19  C   UNL     1      42.581 -39.918  -4.025  1.00  0.00     0.008 C 
ENDBRANCH  12  17
ENDBRANCH  11  12
ENDBRANCH   1  11
TORSDOF 1
ENDMDL
MODEL 8
REMARK VINA RESULT:    -2.972      2.321      3.919
REMARK INTER + INTRA:          -4.768
REMARK INTER:                  -4.676
REMARK INTRA:                  -0.092
REMARK UNBOUND:                -0.232
REMARK SMILES CC1=CCC[C@@H](C)C(=O)C[C@H](C(C)C)C(=O)C1
REMARK SMILES IDX 8 1 9 2 6 3 7 4 5 5 4 6 3 7 2 8 1 9 10 11 11 12 15 13 16 14
REMARK SMILES IDX 17 15 12 17 13 18 14 19
REMARK H PARENT
REMARK Flexibility Score: 70.00
ROOT
ATOM      1  C   UNL     1      42.657 -39.637  -3.138  1.00  0.00     0.136 C 
ATOM      2  O   UNL     1      42.910 -38.523  -3.579  1.00  0.00    -0.299 OA
ENDROOT
BRANCH   1   3
ATOM      3  C   UNL     1      42.265 -40.761  -4.083  1.00  0.00     0.053 C 
ATOM      4  C   UNL     1      43.407 -41.158  -5.032  1.00  0.00     0.016 C 
BRANCH   3   5
ATOM      5  C   UNL     1      40.951 -40.469  -4.848  1.00  0.00     0.015 C 
BRANCH   5   6
ATOM      6  C   UNL     1      39.645 -41.028  -4.241  1.00  0.00     0.028 C 
BRANCH   6   7
ATOM      7  C   UNL     1      38.875 -40.080  -3.349  1.00  0.00    -0.028 C 
ATOM      8  C   UNL     1      38.831 -40.114  -1.996  1.00  0.00    -0.070 CG0
ATOM      9  C   UNL     1      37.935 -39.124  -1.294  1.00  0.00     0.039 C 
ATOM     10  G   UNL     1      39.617 -41.106  -1.161  1.00  0.00     0.000 G0
ENDBRANCH   6   7
ENDBRANCH   5   6
ENDBRANCH   3   5
ENDBRANCH   1   3
BRANCH   1  11
ATOM     11  C   UNL     1      42.782 -39.872  -1.651  1.00  0.00     0.087 C 
BRANCH  11  12
ATOM     12  C   UNL     1      41.554 -39.329  -0.868  1.00  0.00     0.066 C 
BRANCH  12  13
ATOM     13  C   UNL     1      40.736 -40.507  -0.355  1.00  0.00     0.140 C 
ATOM     14  O   UNL     1      40.956 -40.932   0.771  1.00  0.00    -0.299 OA
BRANCH  13  15
ATOM     15  C   UNL     1      39.604 -41.122  -1.142  1.00  0.00     0.106 CG0
ATOM     16  G   UNL     1      38.849 -40.120  -1.995  1.00  0.00     0.000 G0
ENDBRANCH  13  15
ENDBRANCH  12  13
BRANCH  12  17
ATOM     17  C   UNL     1      41.956 -38.385   0.312  1.00  0.00    -0.006 C 
ATOM     18  C   UNL     1      43.341 -37.742   0.104  1.00  0.00     0.008 C 
ATOM     19  C   UNL     1      40.918 -37.261   0.502  1.00  0.00     0.008 C 
ENDBRANCH  12  17
ENDBRANCH  11  12
ENDBRANCH   1  11
TORSDOF 1
ENDMDL
MODEL 9
REMARK VINA RESULT:    -2.831      3.876      6.003
REMARK INTER + INTRA:          -4.552
REMARK INTER:                  -4.725
REMARK INTRA:                   0.174
REMARK UNBOUND:                -0.232
REMARK SMILES CC1=CCC[C@@H](C)C(=O)C[C@H](C(C)C)C(=O)C1
REMARK SMILES IDX 8 1 9 2 6 3 7 4 5 5 4 6 3 7 2 8 1 9 10 11 11 12 15 13 16 14
REMARK SMILES IDX 17 15 12 17 13 18 14 19
REMARK H PARENT
REMARK Flexibility Score: 70.00
ROOT
ATOM      1  C   UNL     1      38.049 -38.388  -7.466  1.00  0.00     0.136 C 
ATOM      2  O   UNL     1      38.842 -37.781  -8.174  1.00  0.00    -0.299 OA
ENDROOT
BRANCH   1   3
ATOM      3  C   UNL     1      36.633 -37.865  -7.285  1.00  0.00     0.053 C 
ATOM      4  C   UNL     1      35.936 -37.577  -8.625  1.00  0.00     0.016 C 
BRANCH   3   5
ATOM      5  C   UNL     1      36.560 -36.655  -6.322  1.00  0.00     0.015 C 
BRANCH   5   6
ATOM      6  C   UNL     1      35.751 -36.841  -5.019  1.00  0.00     0.028 C 
BRANCH   6   7
ATOM      7  C   UNL     1      36.563 -37.093  -3.770  1.00  0.00    -0.028 C 
ATOM      8  C   UNL     1      36.808 -38.300  -3.206  1.00  0.00    -0.070 CG0
ATOM      9  C   UNL     1      37.578 -38.330  -1.909  1.00  0.00     0.039 C 
ATOM     10  G   UNL     1      36.332 -39.610  -3.802  1.00  0.00     0.000 G0
ENDBRANCH   6   7
ENDBRANCH   5   6
ENDBRANCH   3   5
ENDBRANCH   1   3
BRANCH   1  11
ATOM     11  C   UNL     1      38.497 -39.676  -6.815  1.00  0.00     0.087 C 
BRANCH  11  12
ATOM     12  C   UNL     1      38.550 -39.561  -5.266  1.00  0.00     0.066 C 
BRANCH  12  13
ATOM     13  C   UNL     1      37.354 -40.298  -4.677  1.00  0.00     0.140 C 
ATOM     14  O   UNL     1      37.257 -41.504  -4.857  1.00  0.00    -0.299 OA
BRANCH  13  15
ATOM     15  C   UNL     1      36.326 -39.621  -3.802  1.00  0.00     0.106 CG0
ATOM     16  G   UNL     1      36.802 -38.303  -3.222  1.00  0.00     0.000 G0
ENDBRANCH  13  15
ENDBRANCH  12  13
BRANCH  12  17
ATOM     17  C   UNL     1      39.884 -40.109  -4.663  1.00  0.00    -0.006 C 
ATOM     18  C   UNL     1      40.593 -41.098  -5.608  1.00  0.00     0.008 C 
ATOM     19  C   UNL     1      40.859 -38.960  -4.335  1.00  0.00     0.008 C 
ENDBRANCH  12  17
ENDBRANCH  11  12
ENDBRANCH   1  11
TORSDOF 1
ENDMDL
