MODEL 1
REMARK VINA RESULT:    -6.002      0.000      0.000
REMARK INTER + INTRA:         -13.693
REMARK INTER:                 -11.617
REMARK INTRA:                  -2.077
REMARK UNBOUND:                -2.077
REMARK SMILES CCCCCCCCCCCCCCCCCC(=O)[O-]
REMARK SMILES IDX 10 1 11 2 12 3 13 4 14 5 15 6 16 7 17 8 18 9 19 10 20 11
REMARK SMILES IDX 9 12 8 13 7 14 6 15 5 16 4 17 3 18 2 19 1 20
REMARK H PARENT
REMARK Flexibility Score: inf
ROOT
ATOM      1  C   UNL     1      93.397  -3.198   8.952  1.00  0.00     0.000 C 
ENDROOT
BRANCH   1   2
ATOM      2  C   UNL     1      93.463  -4.641   9.468  1.00  0.00     0.000 C 
BRANCH   2   3
ATOM      3  C   UNL     1      94.634  -4.820  10.445  1.00  0.00     0.000 C 
BRANCH   3   4
ATOM      4  C   UNL     1      94.923  -3.554  11.266  1.00  0.00     0.000 C 
BRANCH   4   5
ATOM      5  C   UNL     1      96.379  -3.078  11.133  1.00  0.00     0.000 C 
BRANCH   5   6
ATOM      6  C   UNL     1      97.092  -3.713   9.918  1.00  0.00     0.000 C 
BRANCH   6   7
ATOM      7  C   UNL     1      97.406  -2.706   8.796  1.00  0.00     0.006 C 
BRANCH   7   8
ATOM      8  C   UNL     1      96.740  -3.042   7.453  1.00  0.00     0.053 C 
BRANCH   8   9
ATOM      9  C   UNL     1      97.496  -4.098   6.705  1.00  0.00     0.041 C 
ATOM     10  O   UNL     1      97.091  -5.290   6.712  1.00  0.00    -0.550 OA
ATOM     11  O   UNL     1      98.635  -3.765   5.983  1.00  0.00    -0.550 OA
ENDBRANCH   8   9
ENDBRANCH   7   8
ENDBRANCH   6   7
ENDBRANCH   5   6
ENDBRANCH   4   5
ENDBRANCH   3   4
ENDBRANCH   2   3
ENDBRANCH   1   2
BRANCH   1  12
ATOM     12  C   UNL     1      92.718  -3.136   7.576  1.00  0.00     0.000 C 
BRANCH  12  13
ATOM     13  C   UNL     1      93.141  -1.903   6.762  1.00  0.00    -0.000 C 
BRANCH  13  14
ATOM     14  C   UNL     1      91.972  -0.937   6.500  1.00  0.00    -0.000 C 
BRANCH  14  15
ATOM     15  C   UNL     1      91.129  -1.350   5.284  1.00  0.00    -0.000 C 
BRANCH  15  16
ATOM     16  C   UNL     1      89.639  -1.519   5.629  1.00  0.00    -0.000 C 
BRANCH  16  17
ATOM     17  C   UNL     1      89.210  -2.994   5.684  1.00  0.00    -0.000 C 
BRANCH  17  18
ATOM     18  C   UNL     1      90.059  -3.889   4.766  1.00  0.00    -0.000 C 
BRANCH  18  19
ATOM     19  C   UNL     1      90.580  -5.144   5.485  1.00  0.00    -0.003 C 
ATOM     20  C   UNL     1      89.944  -5.342   6.861  1.00  0.00     0.004 C 
ENDBRANCH  18  19
ENDBRANCH  17  18
ENDBRANCH  16  17
ENDBRANCH  15  16
ENDBRANCH  14  15
ENDBRANCH  13  14
ENDBRANCH  12  13
ENDBRANCH   1  12
TORSDOF 16
ENDMDL
MODEL 2
REMARK VINA RESULT:    -5.988      7.120     10.611
REMARK INTER + INTRA:         -13.666
REMARK INTER:                 -11.894
REMARK INTRA:                  -1.772
REMARK UNBOUND:                -2.077
REMARK SMILES CCCCCCCCCCCCCCCCCC(=O)[O-]
REMARK SMILES IDX 10 1 11 2 12 3 13 4 14 5 15 6 16 7 17 8 18 9 19 10 20 11
REMARK SMILES IDX 9 12 8 13 7 14 6 15 5 16 4 17 3 18 2 19 1 20
REMARK H PARENT
REMARK Flexibility Score: inf
ROOT
ATOM      1  C   UNL     1      85.085  -2.341   2.190  1.00  0.00     0.000 C 
ENDROOT
BRANCH   1   2
ATOM      2  C   UNL     1      86.527  -2.644   2.617  1.00  0.00     0.000 C 
BRANCH   2   3
ATOM      3  C   UNL     1      87.532  -2.003   1.649  1.00  0.00     0.000 C 
BRANCH   3   4
ATOM      4  C   UNL     1      88.979  -2.442   1.920  1.00  0.00     0.000 C 
BRANCH   4   5
ATOM      5  C   UNL     1      89.175  -3.004   3.338  1.00  0.00     0.000 C 
BRANCH   5   6
ATOM      6  C   UNL     1      89.767  -1.954   4.305  1.00  0.00     0.000 C 
BRANCH   6   7
ATOM      7  C   UNL     1      89.018  -1.867   5.648  1.00  0.00     0.006 C 
BRANCH   7   8
ATOM      8  C   UNL     1      88.015  -3.008   5.877  1.00  0.00     0.053 C 
BRANCH   8   9
ATOM      9  C   UNL     1      86.673  -2.494   6.301  1.00  0.00     0.041 C 
ATOM     10  O   UNL     1      86.453  -1.255   6.338  1.00  0.00    -0.550 OA
ATOM     11  O   UNL     1      85.658  -3.381   6.636  1.00  0.00    -0.550 OA
ENDBRANCH   8   9
ENDBRANCH   7   8
ENDBRANCH   6   7
ENDBRANCH   5   6
ENDBRANCH   4   5
ENDBRANCH   3   4
ENDBRANCH   2   3
ENDBRANCH   1   2
BRANCH   1  12
ATOM     12  C   UNL     1      84.083  -2.832   3.245  1.00  0.00     0.000 C 
BRANCH  12  13
ATOM     13  C   UNL     1      83.089  -3.862   2.683  1.00  0.00    -0.000 C 
BRANCH  13  14
ATOM     14  C   UNL     1      81.629  -3.528   3.035  1.00  0.00    -0.000 C 
BRANCH  14  15
ATOM     15  C   UNL     1      80.792  -3.171   1.798  1.00  0.00    -0.000 C 
BRANCH  15  16
ATOM     16  C   UNL     1      81.538  -3.446   0.480  1.00  0.00    -0.000 C 
BRANCH  16  17
ATOM     17  C   UNL     1      81.792  -2.166  -0.332  1.00  0.00    -0.000 C 
BRANCH  17  18
ATOM     18  C   UNL     1      81.784  -0.901   0.544  1.00  0.00    -0.000 C 
BRANCH  18  19
ATOM     19  C   UNL     1      83.065  -0.067   0.385  1.00  0.00    -0.003 C 
ATOM     20  C   UNL     1      83.097   0.723  -0.922  1.00  0.00     0.004 C 
ENDBRANCH  18  19
ENDBRANCH  17  18
ENDBRANCH  16  17
ENDBRANCH  15  16
ENDBRANCH  14  15
ENDBRANCH  13  14
ENDBRANCH  12  13
ENDBRANCH   1  12
TORSDOF 16
ENDMDL
MODEL 3
REMARK VINA RESULT:    -5.928      8.473     12.821
REMARK INTER + INTRA:         -13.549
REMARK INTER:                 -11.580
REMARK INTRA:                  -1.969
REMARK UNBOUND:                -2.077
REMARK SMILES CCCCCCCCCCCCCCCCCC(=O)[O-]
REMARK SMILES IDX 10 1 11 2 12 3 13 4 14 5 15 6 16 7 17 8 18 9 19 10 20 11
REMARK SMILES IDX 9 12 8 13 7 14 6 15 5 16 4 17 3 18 2 19 1 20
REMARK H PARENT
REMARK Flexibility Score: inf
ROOT
ATOM      1  C   UNL     1      84.121  -2.464   3.026  1.00  0.00     0.000 C 
ENDROOT
BRANCH   1   2
ATOM      2  C   UNL     1      83.207  -3.640   3.395  1.00  0.00     0.000 C 
BRANCH   2   3
ATOM      3  C   UNL     1      81.750  -3.343   3.011  1.00  0.00     0.000 C 
BRANCH   3   4
ATOM      4  C   UNL     1      81.488  -3.503   1.506  1.00  0.00     0.000 C 
BRANCH   4   5
ATOM      5  C   UNL     1      81.038  -2.193   0.838  1.00  0.00     0.000 C 
BRANCH   5   6
ATOM      6  C   UNL     1      82.140  -1.586  -0.060  1.00  0.00     0.000 C 
BRANCH   6   7
ATOM      7  C   UNL     1      82.844  -0.371   0.572  1.00  0.00     0.006 C 
BRANCH   7   8
ATOM      8  C   UNL     1      82.799   0.895  -0.297  1.00  0.00     0.053 C 
BRANCH   8   9
ATOM      9  C   UNL     1      81.855   1.918   0.258  1.00  0.00     0.041 C 
ATOM     10  O   UNL     1      82.191   3.131   0.302  1.00  0.00    -0.550 OA
ATOM     11  O   UNL     1      80.597   1.538   0.708  1.00  0.00    -0.550 OA
ENDBRANCH   8   9
ENDBRANCH   7   8
ENDBRANCH   6   7
ENDBRANCH   5   6
ENDBRANCH   4   5
ENDBRANCH   3   4
ENDBRANCH   2   3
ENDBRANCH   1   2
BRANCH   1  12
ATOM     12  C   UNL     1      85.557  -2.944   2.767  1.00  0.00     0.000 C 
BRANCH  12  13
ATOM     13  C   UNL     1      86.349  -1.979   1.871  1.00  0.00    -0.000 C 
BRANCH  13  14
ATOM     14  C   UNL     1      87.832  -2.370   1.745  1.00  0.00    -0.000 C 
BRANCH  14  15
ATOM     15  C   UNL     1      88.666  -1.912   2.950  1.00  0.00    -0.000 C 
BRANCH  15  16
ATOM     16  C   UNL     1      89.167  -3.091   3.803  1.00  0.00    -0.000 C 
BRANCH  16  17
ATOM     17  C   UNL     1      88.623  -3.051   5.241  1.00  0.00    -0.000 C 
BRANCH  17  18
ATOM     18  C   UNL     1      88.087  -1.662   5.630  1.00  0.00    -0.000 C 
BRANCH  18  19
ATOM     19  C   UNL     1      86.635  -1.711   6.129  1.00  0.00    -0.003 C 
ATOM     20  C   UNL     1      86.209  -3.110   6.571  1.00  0.00     0.004 C 
ENDBRANCH  18  19
ENDBRANCH  17  18
ENDBRANCH  16  17
ENDBRANCH  15  16
ENDBRANCH  14  15
ENDBRANCH  13  14
ENDBRANCH  12  13
ENDBRANCH   1  12
TORSDOF 16
ENDMDL
MODEL 4
REMARK VINA RESULT:    -5.916      3.307      6.384
REMARK INTER + INTRA:         -13.526
REMARK INTER:                 -11.759
REMARK INTRA:                  -1.767
REMARK UNBOUND:                -2.077
REMARK SMILES CCCCCCCCCCCCCCCCCC(=O)[O-]
REMARK SMILES IDX 10 1 11 2 12 3 13 4 14 5 15 6 16 7 17 8 18 9 19 10 20 11
REMARK SMILES IDX 9 12 8 13 7 14 6 15 5 16 4 17 3 18 2 19 1 20
REMARK H PARENT
REMARK Flexibility Score: inf
ROOT
ATOM      1  C   UNL     1      98.262  -3.282   7.437  1.00  0.00     0.000 C 
ENDROOT
BRANCH   1   2
ATOM      2  C   UNL     1      98.853  -3.693   6.082  1.00  0.00     0.000 C 
BRANCH   2   3
ATOM      3  C   UNL     1     100.120  -4.540   6.271  1.00  0.00     0.000 C 
BRANCH   3   4
ATOM      4  C   UNL     1      99.817  -5.958   6.779  1.00  0.00     0.000 C 
BRANCH   4   5
ATOM      5  C   UNL     1      98.780  -6.691   5.913  1.00  0.00     0.000 C 
BRANCH   5   6
ATOM      6  C   UNL     1      98.848  -8.225   6.093  1.00  0.00     0.000 C 
BRANCH   6   7
ATOM      7  C   UNL     1      97.527  -8.941   5.760  1.00  0.00     0.006 C 
BRANCH   7   8
ATOM      8  C   UNL     1      97.604  -9.847   4.521  1.00  0.00     0.053 C 
BRANCH   8   9
ATOM      9  C   UNL     1      96.983  -9.202   3.319  1.00  0.00     0.041 C 
ATOM     10  O   UNL     1      96.582  -8.011   3.378  1.00  0.00    -0.550 OA
ATOM     11  O   UNL     1      96.867  -9.909   2.129  1.00  0.00    -0.550 OA
ENDBRANCH   8   9
ENDBRANCH   7   8
ENDBRANCH   6   7
ENDBRANCH   5   6
ENDBRANCH   4   5
ENDBRANCH   3   4
ENDBRANCH   2   3
ENDBRANCH   1   2
BRANCH   1  12
ATOM     12  C   UNL     1      96.803  -3.745   7.565  1.00  0.00     0.000 C 
BRANCH  12  13
ATOM     13  C   UNL     1      95.799  -2.651   7.166  1.00  0.00    -0.000 C 
BRANCH  13  14
ATOM     14  C   UNL     1      94.570  -2.610   8.091  1.00  0.00    -0.000 C 
BRANCH  14  15
ATOM     15  C   UNL     1      93.711  -3.879   7.986  1.00  0.00    -0.000 C 
BRANCH  15  16
ATOM     16  C   UNL     1      93.370  -4.476   9.362  1.00  0.00    -0.000 C 
BRANCH  16  17
ATOM     17  C   UNL     1      94.294  -3.956  10.476  1.00  0.00    -0.000 C 
BRANCH  17  18
ATOM     18  C   UNL     1      95.383  -4.972  10.861  1.00  0.00    -0.000 C 
BRANCH  18  19
ATOM     19  C   UNL     1      96.762  -4.318  11.039  1.00  0.00    -0.003 C 
ATOM     20  C   UNL     1      96.687  -2.793  11.112  1.00  0.00     0.004 C 
ENDBRANCH  18  19
ENDBRANCH  17  18
ENDBRANCH  16  17
ENDBRANCH  15  16
ENDBRANCH  14  15
ENDBRANCH  13  14
ENDBRANCH  12  13
ENDBRANCH   1  12
TORSDOF 16
ENDMDL
MODEL 5
REMARK VINA RESULT:    -5.855      8.957     13.146
REMARK INTER + INTRA:         -13.409
REMARK INTER:                 -11.574
REMARK INTRA:                  -1.835
REMARK UNBOUND:                -2.077
REMARK SMILES CCCCCCCCCCCCCCCCCC(=O)[O-]
REMARK SMILES IDX 10 1 11 2 12 3 13 4 14 5 15 6 16 7 17 8 18 9 19 10 20 11
REMARK SMILES IDX 9 12 8 13 7 14 6 15 5 16 4 17 3 18 2 19 1 20
REMARK H PARENT
REMARK Flexibility Score: inf
ROOT
ATOM      1  C   UNL     1      81.795  -0.943   0.790  1.00  0.00     0.000 C 
ENDROOT
BRANCH   1   2
ATOM      2  C   UNL     1      81.600  -2.279   0.061  1.00  0.00     0.000 C 
BRANCH   2   3
ATOM      3  C   UNL     1      81.120  -3.368   1.031  1.00  0.00     0.000 C 
BRANCH   3   4
ATOM      4  C   UNL     1      81.159  -2.916   2.499  1.00  0.00     0.000 C 
BRANCH   4   5
ATOM      5  C   UNL     1      82.152  -3.729   3.346  1.00  0.00     0.000 C 
BRANCH   5   6
ATOM      6  C   UNL     1      83.578  -3.714   2.749  1.00  0.00     0.000 C 
BRANCH   6   7
ATOM      7  C   UNL     1      84.443  -2.547   3.261  1.00  0.00     0.006 C 
BRANCH   7   8
ATOM      8  C   UNL     1      85.900  -2.594   2.777  1.00  0.00     0.053 C 
BRANCH   8   9
ATOM      9  C   UNL     1      86.869  -2.521   3.918  1.00  0.00     0.041 C 
ATOM     10  O   UNL     1      88.042  -2.958   3.780  1.00  0.00    -0.550 OA
ATOM     11  O   UNL     1      86.486  -1.954   5.126  1.00  0.00    -0.550 OA
ENDBRANCH   8   9
ENDBRANCH   7   8
ENDBRANCH   6   7
ENDBRANCH   5   6
ENDBRANCH   4   5
ENDBRANCH   3   4
ENDBRANCH   2   3
ENDBRANCH   1   2
BRANCH   1  12
ATOM     12  C   UNL     1      83.209  -0.390   0.557  1.00  0.00     0.000 C 
BRANCH  12  13
ATOM     13  C   UNL     1      83.227   0.789  -0.429  1.00  0.00    -0.000 C 
BRANCH  13  14
ATOM     14  C   UNL     1      81.825   1.374  -0.677  1.00  0.00    -0.000 C 
BRANCH  14  15
ATOM     15  C   UNL     1      81.547   2.617   0.182  1.00  0.00    -0.000 C 
BRANCH  15  16
ATOM     16  C   UNL     1      80.178   2.556   0.882  1.00  0.00    -0.000 C 
BRANCH  16  17
ATOM     17  C   UNL     1      80.262   2.925   2.372  1.00  0.00    -0.000 C 
BRANCH  17  18
ATOM     18  C   UNL     1      81.702   2.875   2.912  1.00  0.00    -0.000 C 
BRANCH  18  19
ATOM     19  C   UNL     1      81.755   2.586   4.420  1.00  0.00    -0.003 C 
ATOM     20  C   UNL     1      80.378   2.637   5.080  1.00  0.00     0.004 C 
ENDBRANCH  18  19
ENDBRANCH  17  18
ENDBRANCH  16  17
ENDBRANCH  15  16
ENDBRANCH  14  15
ENDBRANCH  13  14
ENDBRANCH  12  13
ENDBRANCH   1  12
TORSDOF 16
ENDMDL
MODEL 6
REMARK VINA RESULT:    -5.842      7.647     12.071
REMARK INTER + INTRA:         -13.384
REMARK INTER:                 -11.424
REMARK INTRA:                  -1.959
REMARK UNBOUND:                -2.077
REMARK SMILES CCCCCCCCCCCCCCCCCC(=O)[O-]
REMARK SMILES IDX 10 1 11 2 12 3 13 4 14 5 15 6 16 7 17 8 18 9 19 10 20 11
REMARK SMILES IDX 9 12 8 13 7 14 6 15 5 16 4 17 3 18 2 19 1 20
REMARK H PARENT
REMARK Flexibility Score: inf
ROOT
ATOM      1  C   UNL     1      86.115  -3.122   2.623  1.00  0.00     0.000 C 
ENDROOT
BRANCH   1   2
ATOM      2  C   UNL     1      84.751  -2.650   3.144  1.00  0.00     0.000 C 
BRANCH   2   3
ATOM      3  C   UNL     1      83.650  -3.661   2.793  1.00  0.00     0.000 C 
BRANCH   3   4
ATOM      4  C   UNL     1      82.309  -3.338   3.471  1.00  0.00     0.000 C 
BRANCH   4   5
ATOM      5  C   UNL     1      81.123  -3.377   2.492  1.00  0.00     0.000 C 
BRANCH   5   6
ATOM      6  C   UNL     1      81.554  -3.799   1.069  1.00  0.00     0.000 C 
BRANCH   6   7
ATOM      7  C   UNL     1      81.412  -2.675   0.027  1.00  0.00     0.006 C 
BRANCH   7   8
ATOM      8  C   UNL     1      81.417  -1.262   0.630  1.00  0.00     0.053 C 
BRANCH   8   9
ATOM      9  C   UNL     1      82.584  -0.454   0.150  1.00  0.00     0.041 C 
ATOM     10  O   UNL     1      83.728  -0.644   0.639  1.00  0.00    -0.550 OA
ATOM     11  O   UNL     1      82.414   0.493  -0.852  1.00  0.00    -0.550 OA
ENDBRANCH   8   9
ENDBRANCH   7   8
ENDBRANCH   6   7
ENDBRANCH   5   6
ENDBRANCH   4   5
ENDBRANCH   3   4
ENDBRANCH   2   3
ENDBRANCH   1   2
BRANCH   1  12
ATOM     12  C   UNL     1      87.015  -1.927   2.275  1.00  0.00     0.000 C 
BRANCH  12  13
ATOM     13  C   UNL     1      88.124  -2.295   1.277  1.00  0.00    -0.000 C 
BRANCH  13  14
ATOM     14  C   UNL     1      89.438  -2.691   1.972  1.00  0.00    -0.000 C 
BRANCH  14  15
ATOM     15  C   UNL     1      89.468  -2.282   3.452  1.00  0.00    -0.000 C 
BRANCH  15  16
ATOM     16  C   UNL     1      89.530  -3.494   4.398  1.00  0.00    -0.000 C 
BRANCH  16  17
ATOM     17  C   UNL     1      88.955  -3.186   5.790  1.00  0.00    -0.000 C 
BRANCH  17  18
ATOM     18  C   UNL     1      88.357  -1.771   5.880  1.00  0.00    -0.000 C 
BRANCH  18  19
ATOM     19  C   UNL     1      86.829  -1.788   6.050  1.00  0.00    -0.003 C 
ATOM     20  C   UNL     1      86.314  -3.109   6.620  1.00  0.00     0.004 C 
ENDBRANCH  18  19
ENDBRANCH  17  18
ENDBRANCH  16  17
ENDBRANCH  15  16
ENDBRANCH  14  15
ENDBRANCH  13  14
ENDBRANCH  12  13
ENDBRANCH   1  12
TORSDOF 16
ENDMDL
MODEL 7
REMARK VINA RESULT:    -5.833     12.391     14.869
REMARK INTER + INTRA:         -13.365
REMARK INTER:                 -11.988
REMARK INTRA:                  -1.376
REMARK UNBOUND:                -2.077
REMARK SMILES CCCCCCCCCCCCCCCCCC(=O)[O-]
REMARK SMILES IDX 10 1 11 2 12 3 13 4 14 5 15 6 16 7 17 8 18 9 19 10 20 11
REMARK SMILES IDX 9 12 8 13 7 14 6 15 5 16 4 17 3 18 2 19 1 20
REMARK H PARENT
REMARK Flexibility Score: inf
ROOT
ATOM      1  C   UNL     1      94.230  -7.884  -3.419  1.00  0.00     0.000 C 
ENDROOT
BRANCH   1   2
ATOM      2  C   UNL     1      93.218  -8.645  -2.553  1.00  0.00     0.000 C 
BRANCH   2   3
ATOM      3  C   UNL     1      92.128  -9.290  -3.422  1.00  0.00     0.000 C 
BRANCH   3   4
ATOM      4  C   UNL     1      90.724  -8.748  -3.114  1.00  0.00     0.000 C 
BRANCH   4   5
ATOM      5  C   UNL     1      89.732  -8.974  -4.267  1.00  0.00     0.000 C 
BRANCH   5   6
ATOM      6  C   UNL     1      90.334  -8.591  -5.638  1.00  0.00     0.000 C 
BRANCH   6   7
ATOM      7  C   UNL     1      90.084  -7.122  -6.028  1.00  0.00     0.006 C 
BRANCH   7   8
ATOM      8  C   UNL     1      88.624  -6.674  -5.862  1.00  0.00     0.053 C 
BRANCH   8   9
ATOM      9  C   UNL     1      88.510  -5.187  -5.719  1.00  0.00     0.041 C 
ATOM     10  O   UNL     1      88.441  -4.665  -4.575  1.00  0.00    -0.550 OA
ATOM     11  O   UNL     1      88.501  -4.374  -6.846  1.00  0.00    -0.550 OA
ENDBRANCH   8   9
ENDBRANCH   7   8
ENDBRANCH   6   7
ENDBRANCH   5   6
ENDBRANCH   4   5
ENDBRANCH   3   4
ENDBRANCH   2   3
ENDBRANCH   1   2
BRANCH   1  12
ATOM     12  C   UNL     1      93.832  -7.932  -4.902  1.00  0.00     0.000 C 
BRANCH  12  13
ATOM     13  C   UNL     1      95.049  -7.911  -5.841  1.00  0.00    -0.000 C 
BRANCH  13  14
ATOM     14  C   UNL     1      94.935  -6.834  -6.933  1.00  0.00    -0.000 C 
BRANCH  14  15
ATOM     15  C   UNL     1      96.041  -5.772  -6.831  1.00  0.00    -0.000 C 
BRANCH  15  16
ATOM     16  C   UNL     1      96.571  -5.608  -5.396  1.00  0.00    -0.000 C 
BRANCH  16  17
ATOM     17  C   UNL     1      97.105  -4.193  -5.123  1.00  0.00    -0.000 C 
BRANCH  17  18
ATOM     18  C   UNL     1      96.436  -3.129  -6.011  1.00  0.00    -0.000 C 
BRANCH  18  19
ATOM     19  C   UNL     1      97.242  -1.822  -6.070  1.00  0.00    -0.003 C 
ATOM     20  C   UNL     1      98.381  -1.784  -5.052  1.00  0.00     0.004 C 
ENDBRANCH  18  19
ENDBRANCH  17  18
ENDBRANCH  16  17
ENDBRANCH  15  16
ENDBRANCH  14  15
ENDBRANCH  13  14
ENDBRANCH  12  13
ENDBRANCH   1  12
TORSDOF 16
ENDMDL
MODEL 8
REMARK VINA RESULT:    -5.819      9.708     14.260
REMARK INTER + INTRA:         -13.338
REMARK INTER:                 -11.627
REMARK INTRA:                  -1.710
REMARK UNBOUND:                -2.077
REMARK SMILES CCCCCCCCCCCCCCCCCC(=O)[O-]
REMARK SMILES IDX 10 1 11 2 12 3 13 4 14 5 15 6 16 7 17 8 18 9 19 10 20 11
REMARK SMILES IDX 9 12 8 13 7 14 6 15 5 16 4 17 3 18 2 19 1 20
REMARK H PARENT
REMARK Flexibility Score: inf
ROOT
ATOM      1  C   UNL     1      81.768  -1.033   0.724  1.00  0.00     0.000 C 
ENDROOT
BRANCH   1   2
ATOM      2  C   UNL     1      83.139  -0.348   0.658  1.00  0.00     0.000 C 
BRANCH   2   3
ATOM      3  C   UNL     1      83.149   0.757  -0.409  1.00  0.00     0.000 C 
BRANCH   3   4
ATOM      4  C   UNL     1      81.799   1.479  -0.529  1.00  0.00     0.000 C 
BRANCH   4   5
ATOM      5  C   UNL     1      81.731   2.759   0.322  1.00  0.00     0.000 C 
BRANCH   5   6
ATOM      6  C   UNL     1      80.918   2.554   1.620  1.00  0.00     0.000 C 
BRANCH   6   7
ATOM      7  C   UNL     1      81.742   2.776   2.901  1.00  0.00     0.006 C 
BRANCH   7   8
ATOM      8  C   UNL     1      80.890   3.003   4.159  1.00  0.00     0.053 C 
BRANCH   8   9
ATOM      9  C   UNL     1      81.657   3.717   5.231  1.00  0.00     0.041 C 
ATOM     10  O   UNL     1      81.064   4.136   6.259  1.00  0.00    -0.550 OA
ATOM     11  O   UNL     1      83.028   3.902   5.105  1.00  0.00    -0.550 OA
ENDBRANCH   8   9
ENDBRANCH   7   8
ENDBRANCH   6   7
ENDBRANCH   5   6
ENDBRANCH   4   5
ENDBRANCH   3   4
ENDBRANCH   2   3
ENDBRANCH   1   2
BRANCH   1  12
ATOM     12  C   UNL     1      81.772  -2.350  -0.068  1.00  0.00     0.000 C 
BRANCH  12  13
ATOM     13  C   UNL     1      81.622  -3.583   0.837  1.00  0.00    -0.000 C 
BRANCH  13  14
ATOM     14  C   UNL     1      81.081  -3.230   2.234  1.00  0.00    -0.000 C 
BRANCH  14  15
ATOM     15  C   UNL     1      82.093  -3.527   3.350  1.00  0.00    -0.000 C 
BRANCH  15  16
ATOM     16  C   UNL     1      83.529  -3.679   2.819  1.00  0.00    -0.000 C 
BRANCH  16  17
ATOM     17  C   UNL     1      84.442  -2.518   3.247  1.00  0.00    -0.000 C 
BRANCH  17  18
ATOM     18  C   UNL     1      85.832  -2.589   2.593  1.00  0.00    -0.000 C 
BRANCH  18  19
ATOM     19  C   UNL     1      86.968  -2.628   3.628  1.00  0.00    -0.003 C 
ATOM     20  C   UNL     1      86.486  -2.317   5.044  1.00  0.00     0.004 C 
ENDBRANCH  18  19
ENDBRANCH  17  18
ENDBRANCH  16  17
ENDBRANCH  15  16
ENDBRANCH  14  15
ENDBRANCH  13  14
ENDBRANCH  12  13
ENDBRANCH   1  12
TORSDOF 16
ENDMDL
MODEL 9
REMARK VINA RESULT:    -5.808      1.424      2.172
REMARK INTER + INTRA:         -13.317
REMARK INTER:                 -11.702
REMARK INTRA:                  -1.615
REMARK UNBOUND:                -2.077
REMARK SMILES CCCCCCCCCCCCCCCCCC(=O)[O-]
REMARK SMILES IDX 10 1 11 2 12 3 13 4 14 5 15 6 16 7 17 8 18 9 19 10 20 11
REMARK SMILES IDX 9 12 8 13 7 14 6 15 5 16 4 17 3 18 2 19 1 20
REMARK H PARENT
REMARK Flexibility Score: inf
ROOT
ATOM      1  C   UNL     1      94.130  -3.773  10.323  1.00  0.00     0.000 C 
ENDROOT
BRANCH   1   2
ATOM      2  C   UNL     1      95.311  -4.722  10.563  1.00  0.00     0.000 C 
BRANCH   2   3
ATOM      3  C   UNL     1      96.590  -3.936  10.885  1.00  0.00     0.000 C 
BRANCH   3   4
ATOM      4  C   UNL     1      96.963  -2.932   9.784  1.00  0.00     0.000 C 
BRANCH   4   5
ATOM      5  C   UNL     1      97.365  -3.615   8.466  1.00  0.00     0.000 C 
BRANCH   5   6
ATOM      6  C   UNL     1      98.082  -2.645   7.500  1.00  0.00     0.000 C 
BRANCH   6   7
ATOM      7  C   UNL     1      98.928  -3.360   6.430  1.00  0.00     0.006 C 
BRANCH   7   8
ATOM      8  C   UNL     1      99.668  -4.602   6.948  1.00  0.00     0.053 C 
BRANCH   8   9
ATOM      9  C   UNL     1      99.395  -5.808   6.103  1.00  0.00     0.041 C 
ATOM     10  O   UNL     1      99.807  -6.941   6.465  1.00  0.00    -0.550 OA
ATOM     11  O   UNL     1      98.668  -5.686   4.925  1.00  0.00    -0.550 OA
ENDBRANCH   8   9
ENDBRANCH   7   8
ENDBRANCH   6   7
ENDBRANCH   5   6
ENDBRANCH   4   5
ENDBRANCH   3   4
ENDBRANCH   2   3
ENDBRANCH   1   2
BRANCH   1  12
ATOM     12  C   UNL     1      93.395  -4.126   9.021  1.00  0.00     0.000 C 
BRANCH  12  13
ATOM     13  C   UNL     1      93.699  -3.136   7.884  1.00  0.00    -0.000 C 
BRANCH  13  14
ATOM     14  C   UNL     1      92.508  -2.216   7.566  1.00  0.00    -0.000 C 
BRANCH  14  15
ATOM     15  C   UNL     1      92.641  -1.533   6.196  1.00  0.00    -0.000 C 
BRANCH  15  16
ATOM     16  C   UNL     1      91.281  -1.321   5.509  1.00  0.00    -0.000 C 
BRANCH  16  17
ATOM     17  C   UNL     1      90.204  -2.292   6.021  1.00  0.00    -0.000 C 
BRANCH  17  18
ATOM     18  C   UNL     1      90.033  -3.518   5.107  1.00  0.00    -0.000 C 
BRANCH  18  19
ATOM     19  C   UNL     1      90.775  -4.755   5.638  1.00  0.00    -0.003 C 
ATOM     20  C   UNL     1      90.078  -5.390   6.840  1.00  0.00     0.004 C 
ENDBRANCH  18  19
ENDBRANCH  17  18
ENDBRANCH  16  17
ENDBRANCH  15  16
ENDBRANCH  14  15
ENDBRANCH  13  14
ENDBRANCH  12  13
ENDBRANCH   1  12
TORSDOF 16
ENDMDL
