MODEL 1
REMARK VINA RESULT:    -6.814      0.000      0.000
REMARK INTER + INTRA:         -10.728
REMARK INTER:                  -9.603
REMARK INTRA:                  -1.125
REMARK UNBOUND:                -1.125
REMARK SMILES COc1c(O[C@H]2O[C@H](C(=O)[O-])[C@H](O)[C@@H](O)[C@H]2O)cc(O)c2c(=O)cc(-c3ccccc3)oc12
REMARK SMILES IDX 5 1 6 2 8 3 12 4 7 5 14 6 16 7 9 8 10 9 11 10 13 11 15 13
REMARK SMILES IDX 17 15 4 17 3 18 18 19 33 20 19 21 21 22 32 23 22 24 25 25
REMARK SMILES IDX 24 26 23 27 2 28 1 29 20 30 26 32 27 33 31 34 28 35 30 36
REMARK SMILES IDX 29 37
REMARK H PARENT 13 12 15 14 17 16 20 31
REMARK Flexibility Score: inf
ROOT
ATOM      1  O   UNL     1       0.834  -3.236  25.769  1.00  0.00    -0.458 OA
ENDROOT
BRANCH   1   2
ATOM      2  C   UNL     1       1.940  -2.822  26.581  1.00  0.00     0.339 C 
ATOM      3  C   UNL     1       1.716  -4.666  28.027  1.00  0.00     0.199 C 
ATOM      4  C   UNL     1       3.079  -5.273  27.633  1.00  0.00     0.180 C 
ATOM      5  O   UNL     1       1.742  -3.249  27.921  1.00  0.00    -0.328 OA
ATOM      6  C   UNL     1       3.430  -4.866  26.192  1.00  0.00     0.181 C 
ATOM      7  C   UNL     1       3.298  -3.335  26.039  1.00  0.00     0.214 C 
BRANCH   3   8
ATOM      8  C   UNL     1       1.365  -5.058  29.435  1.00  0.00     0.073 C 
ATOM      9  O   UNL     1       0.549  -4.373  30.112  1.00  0.00    -0.547 OA
ATOM     10  O   UNL     1       1.968  -6.172  30.011  1.00  0.00    -0.547 OA
ENDBRANCH   3   8
BRANCH   4  11
ATOM     11  O   UNL     1       4.073  -4.817  28.517  1.00  0.00    -0.387 OA
ATOM     12  H   UNL     1       3.677  -4.065  29.030  1.00  0.00     0.211 HD
ENDBRANCH   4  11
BRANCH   6  13
ATOM     13  O   UNL     1       2.571  -5.538  25.304  1.00  0.00    -0.387 OA
ATOM     14  H   UNL     1       3.142  -6.079  24.699  1.00  0.00     0.211 HD
ENDBRANCH   6  13
BRANCH   7  15
ATOM     15  O   UNL     1       3.542  -2.915  24.720  1.00  0.00    -0.384 OA
ATOM     16  H   UNL     1       4.153  -3.570  24.293  1.00  0.00     0.211 HD
ENDBRANCH   7  15
ENDBRANCH   1   2
BRANCH   1  17
ATOM     17  C   UNL     1      -0.355  -2.518  25.537  1.00  0.00     0.172 A 
ATOM     18  C   UNL     1      -0.675  -2.200  24.214  1.00  0.00     0.205 A 
ATOM     19  C   UNL     1      -1.206  -2.099  26.572  1.00  0.00     0.097 A 
ATOM     20  C   UNL     1      -1.881  -1.540  23.913  1.00  0.00     0.188 A 
ATOM     21  C   UNL     1      -2.366  -1.369  26.306  1.00  0.00     0.134 A 
ATOM     22  C   UNL     1      -2.753  -1.128  24.958  1.00  0.00     0.111 A 
ATOM     23  O   UNL     1      -2.213  -1.337  22.639  1.00  0.00    -0.452 OA
ATOM     24  C   UNL     1      -3.983  -0.541  24.578  1.00  0.00     0.197 A 
ATOM     25  C   UNL     1      -3.355  -0.774  22.258  1.00  0.00     0.138 A 
ATOM     26  C   UNL     1      -4.271  -0.348  23.229  1.00  0.00     0.100 A 
ATOM     27  O   UNL     1      -4.856  -0.214  25.424  1.00  0.00    -0.289 OA
BRANCH  18  28
ATOM     28  O   UNL     1       0.213  -2.589  23.204  1.00  0.00    -0.490 OA
ATOM     29  C   UNL     1       0.408  -3.952  22.840  1.00  0.00     0.278 C 
ENDBRANCH  18  28
BRANCH  21  30
ATOM     30  O   UNL     1      -3.074  -0.896  27.415  1.00  0.00    -0.507 OA
ATOM     31  H   UNL     1      -4.045  -1.099  27.602  1.00  0.00     0.293 HD
ENDBRANCH  21  30
BRANCH  25  32
ATOM     32  C   UNL     1      -3.640  -0.619  20.809  1.00  0.00     0.017 A 
ATOM     33  C   UNL     1      -4.971  -0.603  20.355  1.00  0.00     0.012 A 
ATOM     34  C   UNL     1      -2.602  -0.454  19.870  1.00  0.00     0.012 A 
ATOM     35  C   UNL     1      -5.256  -0.444  18.995  1.00  0.00     0.001 A 
ATOM     36  C   UNL     1      -2.892  -0.295  18.512  1.00  0.00     0.001 A 
ATOM     37  C   UNL     1      -4.217  -0.290  18.075  1.00  0.00     0.000 A 
ENDBRANCH  25  32
ENDBRANCH   1  17
TORSDOF 9
ENDMDL
MODEL 2
REMARK VINA RESULT:    -6.698      2.086      9.225
REMARK INTER + INTRA:         -10.564
REMARK INTER:                  -9.019
REMARK INTRA:                  -1.545
REMARK UNBOUND:                -1.125
REMARK SMILES COc1c(O[C@H]2O[C@H](C(=O)[O-])[C@H](O)[C@@H](O)[C@H]2O)cc(O)c2c(=O)cc(-c3ccccc3)oc12
REMARK SMILES IDX 5 1 6 2 8 3 12 4 7 5 14 6 16 7 9 8 10 9 11 10 13 11 15 13
REMARK SMILES IDX 17 15 4 17 3 18 18 19 33 20 19 21 21 22 32 23 22 24 25 25
REMARK SMILES IDX 24 26 23 27 2 28 1 29 20 30 26 32 27 33 31 34 28 35 30 36
REMARK SMILES IDX 29 37
REMARK H PARENT 13 12 15 14 17 16 20 31
REMARK Flexibility Score: inf
ROOT
ATOM      1  O   UNL     1      -1.922  -1.974  22.669  1.00  0.00    -0.458 OA
ENDROOT
BRANCH   1   2
ATOM      2  C   UNL     1      -2.248  -0.592  22.472  1.00  0.00     0.339 C 
ATOM      3  C   UNL     1      -4.118  -1.105  21.138  1.00  0.00     0.199 C 
ATOM      4  C   UNL     1      -5.129  -0.522  22.148  1.00  0.00     0.180 C 
ATOM      5  O   UNL     1      -2.876  -0.418  21.210  1.00  0.00    -0.328 OA
ATOM      6  C   UNL     1      -4.559  -0.630  23.572  1.00  0.00     0.181 C 
ATOM      7  C   UNL     1      -3.138  -0.026  23.608  1.00  0.00     0.214 C 
BRANCH   3   8
ATOM      8  C   UNL     1      -4.667  -1.004  19.742  1.00  0.00     0.073 C 
ATOM      9  O   UNL     1      -3.931  -1.227  18.741  1.00  0.00    -0.547 OA
ATOM     10  O   UNL     1      -5.994  -0.631  19.549  1.00  0.00    -0.547 OA
ENDBRANCH   3   8
BRANCH   4  11
ATOM     11  O   UNL     1      -5.389   0.824  21.834  1.00  0.00    -0.387 OA
ATOM     12  H   UNL     1      -6.077   0.823  21.117  1.00  0.00     0.211 HD
ENDBRANCH   4  11
BRANCH   6  13
ATOM     13  O   UNL     1      -4.543  -1.981  23.959  1.00  0.00    -0.387 OA
ATOM     14  H   UNL     1      -4.149  -2.496  23.206  1.00  0.00     0.211 HD
ENDBRANCH   6  13
BRANCH   7  15
ATOM     15  O   UNL     1      -2.541  -0.160  24.874  1.00  0.00    -0.384 OA
ATOM     16  H   UNL     1      -2.616  -1.109  25.153  1.00  0.00     0.211 HD
ENDBRANCH   7  15
ENDBRANCH   1   2
BRANCH   1  17
ATOM     17  C   UNL     1      -0.637  -2.516  22.866  1.00  0.00     0.172 A 
ATOM     18  C   UNL     1      -0.251  -2.813  24.176  1.00  0.00     0.205 A 
ATOM     19  C   UNL     1       0.263  -2.744  21.813  1.00  0.00     0.097 A 
ATOM     20  C   UNL     1       0.996  -3.415  24.431  1.00  0.00     0.188 A 
ATOM     21  C   UNL     1       1.538  -3.262  22.049  1.00  0.00     0.134 A 
ATOM     22  C   UNL     1       1.903  -3.662  23.365  1.00  0.00     0.111 A 
ATOM     23  O   UNL     1       1.300  -3.782  25.674  1.00  0.00    -0.452 OA
ATOM     24  C   UNL     1       3.103  -4.341  23.684  1.00  0.00     0.197 A 
ATOM     25  C   UNL     1       2.427  -4.407  26.001  1.00  0.00     0.138 A 
ATOM     26  C   UNL     1       3.370  -4.693  25.005  1.00  0.00     0.100 A 
ATOM     27  O   UNL     1       3.935  -4.676  22.801  1.00  0.00    -0.289 OA
BRANCH  18  28
ATOM     28  O   UNL     1      -1.149  -2.534  25.213  1.00  0.00    -0.490 OA
ATOM     29  C   UNL     1      -2.084  -3.493  25.695  1.00  0.00     0.278 C 
ENDBRANCH  18  28
BRANCH  21  30
ATOM     30  O   UNL     1       2.396  -3.333  20.948  1.00  0.00    -0.507 OA
ATOM     31  H   UNL     1       3.284  -2.858  20.883  1.00  0.00     0.293 HD
ENDBRANCH  21  30
BRANCH  25  32
ATOM     32  C   UNL     1       2.657  -4.796  27.415  1.00  0.00     0.017 A 
ATOM     33  C   UNL     1       3.886  -5.366  27.793  1.00  0.00     0.012 A 
ATOM     34  C   UNL     1       1.678  -4.579  28.405  1.00  0.00     0.012 A 
ATOM     35  C   UNL     1       4.123  -5.726  29.123  1.00  0.00     0.001 A 
ATOM     36  C   UNL     1       1.920  -4.941  29.734  1.00  0.00     0.001 A 
ATOM     37  C   UNL     1       3.141  -5.514  30.093  1.00  0.00     0.000 A 
ENDBRANCH  25  32
ENDBRANCH   1  17
TORSDOF 9
ENDMDL
MODEL 3
REMARK VINA RESULT:    -6.493      2.588      7.133
REMARK INTER + INTRA:         -10.275
REMARK INTER:                  -8.897
REMARK INTRA:                  -1.378
REMARK UNBOUND:                -1.125
REMARK SMILES COc1c(O[C@H]2O[C@H](C(=O)[O-])[C@H](O)[C@@H](O)[C@H]2O)cc(O)c2c(=O)cc(-c3ccccc3)oc12
REMARK SMILES IDX 5 1 6 2 8 3 12 4 7 5 14 6 16 7 9 8 10 9 11 10 13 11 15 13
REMARK SMILES IDX 17 15 4 17 3 18 18 19 33 20 19 21 21 22 32 23 22 24 25 25
REMARK SMILES IDX 24 26 23 27 2 28 1 29 20 30 26 32 27 33 31 34 28 35 30 36
REMARK SMILES IDX 29 37
REMARK H PARENT 13 12 15 14 17 16 20 31
REMARK Flexibility Score: inf
ROOT
ATOM      1  O   UNL     1      -1.856  -1.626  26.326  1.00  0.00    -0.458 OA
ENDROOT
BRANCH   1   2
ATOM      2  C   UNL     1      -2.138  -0.235  26.531  1.00  0.00     0.339 C 
ATOM      3  C   UNL     1      -3.747  -0.191  24.813  1.00  0.00     0.199 C 
ATOM      4  C   UNL     1      -4.917   0.104  25.775  1.00  0.00     0.180 C 
ATOM      5  O   UNL     1      -2.535   0.363  25.305  1.00  0.00    -0.328 OA
ATOM      6  C   UNL     1      -4.606  -0.480  27.164  1.00  0.00     0.181 C 
ATOM      7  C   UNL     1      -3.211  -0.003  27.624  1.00  0.00     0.214 C 
BRANCH   3   8
ATOM      8  C   UNL     1      -4.043   0.376  23.453  1.00  0.00     0.073 C 
ATOM      9  O   UNL     1      -5.230   0.628  23.103  1.00  0.00    -0.547 OA
ATOM     10  O   UNL     1      -3.002   0.600  22.558  1.00  0.00    -0.547 OA
ENDBRANCH   3   8
BRANCH   4  11
ATOM     11  O   UNL     1      -5.114   1.493  25.870  1.00  0.00    -0.387 OA
ATOM     12  H   UNL     1      -4.212   1.909  25.897  1.00  0.00     0.211 HD
ENDBRANCH   4  11
BRANCH   6  13
ATOM     13  O   UNL     1      -4.662  -1.883  27.095  1.00  0.00    -0.387 OA
ATOM     14  H   UNL     1      -4.530  -2.227  28.016  1.00  0.00     0.211 HD
ENDBRANCH   6  13
BRANCH   7  15
ATOM     15  O   UNL     1      -2.845  -0.564  28.861  1.00  0.00    -0.384 OA
ATOM     16  H   UNL     1      -3.476  -1.302  29.065  1.00  0.00     0.211 HD
ENDBRANCH   7  15
ENDBRANCH   1   2
BRANCH   1  17
ATOM     17  C   UNL     1      -0.618  -2.189  25.962  1.00  0.00     0.172 A 
ATOM     18  C   UNL     1      -0.470  -2.638  24.646  1.00  0.00     0.205 A 
ATOM     19  C   UNL     1       0.448  -2.331  26.864  1.00  0.00     0.097 A 
ATOM     20  C   UNL     1       0.765  -3.152  24.205  1.00  0.00     0.188 A 
ATOM     21  C   UNL     1       1.655  -2.916  26.472  1.00  0.00     0.134 A 
ATOM     22  C   UNL     1       1.851  -3.284  25.112  1.00  0.00     0.111 A 
ATOM     23  O   UNL     1       0.912  -3.480  22.923  1.00  0.00    -0.452 OA
ATOM     24  C   UNL     1       3.083  -3.733  24.581  1.00  0.00     0.197 A 
ATOM     25  C   UNL     1       2.055  -3.920  22.404  1.00  0.00     0.138 A 
ATOM     26  C   UNL     1       3.175  -4.069  23.232  1.00  0.00     0.100 A 
ATOM     27  O   UNL     1       4.125  -3.809  25.283  1.00  0.00    -0.289 OA
BRANCH  18  28
ATOM     28  O   UNL     1      -1.563  -2.526  23.779  1.00  0.00    -0.490 OA
ATOM     29  C   UNL     1      -2.613  -3.486  23.745  1.00  0.00     0.278 C 
ENDBRANCH  18  28
BRANCH  21  30
ATOM     30  O   UNL     1       2.604  -3.121  27.479  1.00  0.00    -0.507 OA
ATOM     31  H   UNL     1       3.275  -2.431  27.781  1.00  0.00     0.293 HD
ENDBRANCH  21  30
BRANCH  25  32
ATOM     32  C   UNL     1       2.121  -4.232  20.954  1.00  0.00     0.017 A 
ATOM     33  C   UNL     1       1.685  -3.282  20.013  1.00  0.00     0.012 A 
ATOM     34  C   UNL     1       2.643  -5.456  20.489  1.00  0.00     0.012 A 
ATOM     35  C   UNL     1       1.753  -3.557  18.643  1.00  0.00     0.001 A 
ATOM     36  C   UNL     1       2.709  -5.725  19.120  1.00  0.00     0.001 A 
ATOM     37  C   UNL     1       2.265  -4.777  18.197  1.00  0.00     0.000 A 
ENDBRANCH  25  32
ENDBRANCH   1  17
TORSDOF 9
ENDMDL
MODEL 4
REMARK VINA RESULT:    -6.481      2.639      4.960
REMARK INTER + INTRA:         -10.259
REMARK INTER:                  -9.854
REMARK INTRA:                  -0.404
REMARK UNBOUND:                -1.125
REMARK SMILES COc1c(O[C@H]2O[C@H](C(=O)[O-])[C@H](O)[C@@H](O)[C@H]2O)cc(O)c2c(=O)cc(-c3ccccc3)oc12
REMARK SMILES IDX 5 1 6 2 8 3 12 4 7 5 14 6 16 7 9 8 10 9 11 10 13 11 15 13
REMARK SMILES IDX 17 15 4 17 3 18 18 19 33 20 19 21 21 22 32 23 22 24 25 25
REMARK SMILES IDX 24 26 23 27 2 28 1 29 20 30 26 32 27 33 31 34 28 35 30 36
REMARK SMILES IDX 29 37
REMARK H PARENT 13 12 15 14 17 16 20 31
REMARK Flexibility Score: inf
ROOT
ATOM      1  O   UNL     1      -1.843  -1.279  23.396  1.00  0.00    -0.458 OA
ENDROOT
BRANCH   1   2
ATOM      2  C   UNL     1      -1.697  -2.705  23.379  1.00  0.00     0.339 C 
ATOM      3  C   UNL     1       0.653  -2.579  23.354  1.00  0.00     0.199 C 
ATOM      4  C   UNL     1       0.807  -3.236  24.742  1.00  0.00     0.180 C 
ATOM      5  O   UNL     1      -0.507  -3.062  22.691  1.00  0.00    -0.328 OA
ATOM      6  C   UNL     1      -0.438  -2.942  25.595  1.00  0.00     0.181 C 
ATOM      7  C   UNL     1      -1.709  -3.318  24.803  1.00  0.00     0.214 C 
BRANCH   3   8
ATOM      8  C   UNL     1       1.866  -2.861  22.513  1.00  0.00     0.073 C 
ATOM      9  O   UNL     1       1.914  -3.882  21.771  1.00  0.00    -0.547 OA
ATOM     10  O   UNL     1       2.962  -2.006  22.574  1.00  0.00    -0.547 OA
ENDBRANCH   3   8
BRANCH   4  11
ATOM     11  O   UNL     1       0.972  -4.625  24.593  1.00  0.00    -0.387 OA
ATOM     12  H   UNL     1       1.401  -4.769  23.709  1.00  0.00     0.211 HD
ENDBRANCH   4  11
BRANCH   6  13
ATOM     13  O   UNL     1      -0.444  -1.580  25.943  1.00  0.00    -0.387 OA
ATOM     14  H   UNL     1      -1.388  -1.327  26.116  1.00  0.00     0.211 HD
ENDBRANCH   6  13
BRANCH   7  15
ATOM     15  O   UNL     1      -2.882  -3.005  25.512  1.00  0.00    -0.384 OA
ATOM     16  H   UNL     1      -3.328  -3.854  25.764  1.00  0.00     0.211 HD
ENDBRANCH   7  15
ENDBRANCH   1   2
BRANCH   1  17
ATOM     17  C   UNL     1      -2.978  -0.545  23.003  1.00  0.00     0.172 A 
ATOM     18  C   UNL     1      -3.190  -0.358  21.634  1.00  0.00     0.205 A 
ATOM     19  C   UNL     1      -3.878   0.016  23.923  1.00  0.00     0.097 A 
ATOM     20  C   UNL     1      -4.340   0.313  21.177  1.00  0.00     0.188 A 
ATOM     21  C   UNL     1      -4.982   0.758  23.497  1.00  0.00     0.134 A 
ATOM     22  C   UNL     1      -5.262   0.868  22.106  1.00  0.00     0.111 A 
ATOM     23  O   UNL     1      -4.572   0.390  19.868  1.00  0.00    -0.452 OA
ATOM     24  C   UNL     1      -6.434   1.457  21.577  1.00  0.00     0.197 A 
ATOM     25  C   UNL     1      -5.658   0.953  19.346  1.00  0.00     0.138 A 
ATOM     26  C   UNL     1      -6.618   1.517  20.197  1.00  0.00     0.100 A 
ATOM     27  O   UNL     1      -7.348   1.907  22.316  1.00  0.00    -0.289 OA
BRANCH  18  28
ATOM     28  O   UNL     1      -2.253  -0.888  20.739  1.00  0.00    -0.490 OA
ATOM     29  C   UNL     1      -2.209  -0.513  19.366  1.00  0.00     0.278 C 
ENDBRANCH  18  28
BRANCH  21  30
ATOM     30  O   UNL     1      -5.743   1.374  24.495  1.00  0.00    -0.507 OA
ATOM     31  H   UNL     1      -5.543   2.282  24.887  1.00  0.00     0.293 HD
ENDBRANCH  21  30
BRANCH  25  32
ATOM     32  C   UNL     1      -5.833   0.963  17.872  1.00  0.00     0.017 A 
ATOM     33  C   UNL     1      -6.858   1.734  17.294  1.00  0.00     0.012 A 
ATOM     34  C   UNL     1      -4.971   0.239  17.025  1.00  0.00     0.012 A 
ATOM     35  C   UNL     1      -7.028   1.764  15.906  1.00  0.00     0.001 A 
ATOM     36  C   UNL     1      -5.144   0.273  15.639  1.00  0.00     0.001 A 
ATOM     37  C   UNL     1      -6.172   1.034  15.080  1.00  0.00     0.000 A 
ENDBRANCH  25  32
ENDBRANCH   1  17
TORSDOF 9
ENDMDL
MODEL 5
REMARK VINA RESULT:    -6.122      2.917      6.607
REMARK INTER + INTRA:          -9.752
REMARK INTER:                  -8.704
REMARK INTRA:                  -1.047
REMARK UNBOUND:                -1.125
REMARK SMILES COc1c(O[C@H]2O[C@H](C(=O)[O-])[C@H](O)[C@@H](O)[C@H]2O)cc(O)c2c(=O)cc(-c3ccccc3)oc12
REMARK SMILES IDX 5 1 6 2 8 3 12 4 7 5 14 6 16 7 9 8 10 9 11 10 13 11 15 13
REMARK SMILES IDX 17 15 4 17 3 18 18 19 33 20 19 21 21 22 32 23 22 24 25 25
REMARK SMILES IDX 24 26 23 27 2 28 1 29 20 30 26 32 27 33 31 34 28 35 30 36
REMARK SMILES IDX 29 37
REMARK H PARENT 13 12 15 14 17 16 20 31
REMARK Flexibility Score: inf
ROOT
ATOM      1  O   UNL     1      -0.952  -1.553  25.855  1.00  0.00    -0.458 OA
ENDROOT
BRANCH   1   2
ATOM      2  C   UNL     1      -1.661  -1.624  27.098  1.00  0.00     0.339 C 
ATOM      3  C   UNL     1      -1.118   0.594  27.667  1.00  0.00     0.199 C 
ATOM      4  C   UNL     1      -2.582   1.077  27.612  1.00  0.00     0.180 C 
ATOM      5  O   UNL     1      -1.049  -0.771  28.054  1.00  0.00    -0.328 OA
ATOM      6  C   UNL     1      -3.375   0.215  26.615  1.00  0.00     0.181 C 
ATOM      7  C   UNL     1      -3.164  -1.280  26.943  1.00  0.00     0.214 C 
BRANCH   3   8
ATOM      8  C   UNL     1      -0.335   1.433  28.639  1.00  0.00     0.073 C 
ATOM      9  O   UNL     1       0.646   2.125  28.251  1.00  0.00    -0.547 OA
ATOM     10  O   UNL     1      -0.677   1.423  29.988  1.00  0.00    -0.547 OA
ENDBRANCH   3   8
BRANCH   4  11
ATOM     11  O   UNL     1      -3.159   0.988  28.892  1.00  0.00    -0.387 OA
ATOM     12  H   UNL     1      -2.549   1.464  29.514  1.00  0.00     0.211 HD
ENDBRANCH   4  11
BRANCH   6  13
ATOM     13  O   UNL     1      -2.946   0.511  25.310  1.00  0.00    -0.387 OA
ATOM     14  H   UNL     1      -3.752   0.510  24.730  1.00  0.00     0.211 HD
ENDBRANCH   6  13
BRANCH   7  15
ATOM     15  O   UNL     1      -3.813  -2.117  26.019  1.00  0.00    -0.384 OA
ATOM     16  H   UNL     1      -4.008  -1.587  25.203  1.00  0.00     0.211 HD
ENDBRANCH   7  15
ENDBRANCH   1   2
BRANCH   1  17
ATOM     17  C   UNL     1       0.071  -2.416  25.419  1.00  0.00     0.172 A 
ATOM     18  C   UNL     1       0.128  -2.721  24.056  1.00  0.00     0.205 A 
ATOM     19  C   UNL     1       1.008  -2.990  26.294  1.00  0.00     0.097 A 
ATOM     20  C   UNL     1       1.165  -3.528  23.550  1.00  0.00     0.188 A 
ATOM     21  C   UNL     1       1.995  -3.861  25.828  1.00  0.00     0.134 A 
ATOM     22  C   UNL     1       2.124  -4.097  24.431  1.00  0.00     0.111 A 
ATOM     23  O   UNL     1       1.257  -3.721  22.236  1.00  0.00    -0.452 OA
ATOM     24  C   UNL     1       3.182  -4.831  23.844  1.00  0.00     0.197 A 
ATOM     25  C   UNL     1       2.233  -4.420  21.662  1.00  0.00     0.138 A 
ATOM     26  C   UNL     1       3.221  -5.007  22.463  1.00  0.00     0.100 A 
ATOM     27  O   UNL     1       4.124  -5.309  24.530  1.00  0.00    -0.289 OA
BRANCH  18  28
ATOM     28  O   UNL     1      -0.845  -2.173  23.212  1.00  0.00    -0.490 OA
ATOM     29  C   UNL     1      -2.194  -2.627  23.203  1.00  0.00     0.278 C 
ENDBRANCH  18  28
BRANCH  21  30
ATOM     30  O   UNL     1       2.797  -4.471  26.798  1.00  0.00    -0.507 OA
ATOM     31  H   UNL     1       2.670  -4.365  27.793  1.00  0.00     0.293 HD
ENDBRANCH  21  30
BRANCH  25  32
ATOM     32  C   UNL     1       2.258  -4.553  20.184  1.00  0.00     0.017 A 
ATOM     33  C   UNL     1       2.761  -5.727  19.596  1.00  0.00     0.012 A 
ATOM     34  C   UNL     1       1.756  -3.537  19.346  1.00  0.00     0.012 A 
ATOM     35  C   UNL     1       2.779  -5.874  18.205  1.00  0.00     0.001 A 
ATOM     36  C   UNL     1       1.775  -3.689  17.957  1.00  0.00     0.001 A 
ATOM     37  C   UNL     1       2.287  -4.856  17.387  1.00  0.00     0.000 A 
ENDBRANCH  25  32
ENDBRANCH   1  17
TORSDOF 9
ENDMDL
MODEL 6
REMARK VINA RESULT:    -6.065      2.820      6.475
REMARK INTER + INTRA:          -9.671
REMARK INTER:                  -8.455
REMARK INTRA:                  -1.217
REMARK UNBOUND:                -1.125
REMARK SMILES COc1c(O[C@H]2O[C@H](C(=O)[O-])[C@H](O)[C@@H](O)[C@H]2O)cc(O)c2c(=O)cc(-c3ccccc3)oc12
REMARK SMILES IDX 5 1 6 2 8 3 12 4 7 5 14 6 16 7 9 8 10 9 11 10 13 11 15 13
REMARK SMILES IDX 17 15 4 17 3 18 18 19 33 20 19 21 21 22 32 23 22 24 25 25
REMARK SMILES IDX 24 26 23 27 2 28 1 29 20 30 26 32 27 33 31 34 28 35 30 36
REMARK SMILES IDX 29 37
REMARK H PARENT 13 12 15 14 17 16 20 31
REMARK Flexibility Score: inf
ROOT
ATOM      1  O   UNL     1      -0.966  -1.527  26.125  1.00  0.00    -0.458 OA
ENDROOT
BRANCH   1   2
ATOM      2  C   UNL     1      -1.154  -0.106  26.139  1.00  0.00     0.339 C 
ATOM      3  C   UNL     1      -3.465  -0.302  26.541  1.00  0.00     0.199 C 
ATOM      4  C   UNL     1      -3.384   0.354  27.935  1.00  0.00     0.180 C 
ATOM      5  O   UNL     1      -2.459   0.213  25.680  1.00  0.00    -0.328 OA
ATOM      6  C   UNL     1      -1.996   0.099  28.548  1.00  0.00     0.181 C 
ATOM      7  C   UNL     1      -0.902   0.510  27.539  1.00  0.00     0.214 C 
BRANCH   3   8
ATOM      8  C   UNL     1      -4.819  -0.057  25.935  1.00  0.00     0.073 C 
ATOM      9  O   UNL     1      -4.941   0.181  24.701  1.00  0.00    -0.547 OA
ATOM     10  O   UNL     1      -5.949  -0.062  26.747  1.00  0.00    -0.547 OA
ENDBRANCH   3   8
BRANCH   4  11
ATOM     11  O   UNL     1      -3.613   1.737  27.823  1.00  0.00    -0.387 OA
ATOM     12  H   UNL     1      -3.807   2.070  28.739  1.00  0.00     0.211 HD
ENDBRANCH   4  11
BRANCH   6  13
ATOM     13  O   UNL     1      -1.887  -1.262  28.884  1.00  0.00    -0.387 OA
ATOM     14  H   UNL     1      -2.619  -1.739  28.413  1.00  0.00     0.211 HD
ENDBRANCH   6  13
BRANCH   7  15
ATOM     15  O   UNL     1       0.389   0.233  28.022  1.00  0.00    -0.384 OA
ATOM     16  H   UNL     1       1.047   0.627  27.392  1.00  0.00     0.211 HD
ENDBRANCH   7  15
ENDBRANCH   1   2
BRANCH   1  17
ATOM     17  C   UNL     1       0.043  -2.236  25.445  1.00  0.00     0.172 A 
ATOM     18  C   UNL     1      -0.080  -2.372  24.059  1.00  0.00     0.205 A 
ATOM     19  C   UNL     1       1.138  -2.819  26.101  1.00  0.00     0.097 A 
ATOM     20  C   UNL     1       0.929  -3.014  23.316  1.00  0.00     0.188 A 
ATOM     21  C   UNL     1       2.109  -3.534  25.396  1.00  0.00     0.134 A 
ATOM     22  C   UNL     1       2.048  -3.592  23.975  1.00  0.00     0.111 A 
ATOM     23  O   UNL     1       0.840  -3.043  21.987  1.00  0.00    -0.452 OA
ATOM     24  C   UNL     1       3.059  -4.150  23.159  1.00  0.00     0.197 A 
ATOM     25  C   UNL     1       1.770  -3.577  21.200  1.00  0.00     0.138 A 
ATOM     26  C   UNL     1       2.907  -4.159  21.775  1.00  0.00     0.100 A 
ATOM     27  O   UNL     1       4.125  -4.616  23.642  1.00  0.00    -0.289 OA
BRANCH  18  28
ATOM     28  O   UNL     1      -1.205  -1.821  23.434  1.00  0.00    -0.490 OA
ATOM     29  C   UNL     1      -2.470  -2.473  23.425  1.00  0.00     0.278 C 
ENDBRANCH  18  28
BRANCH  21  30
ATOM     30  O   UNL     1       3.088  -4.176  26.159  1.00  0.00    -0.507 OA
ATOM     31  H   UNL     1       3.620  -3.735  26.895  1.00  0.00     0.293 HD
ENDBRANCH  21  30
BRANCH  25  32
ATOM     32  C   UNL     1       1.586  -3.533  19.728  1.00  0.00     0.017 A 
ATOM     33  C   UNL     1       0.750  -2.557  19.155  1.00  0.00     0.012 A 
ATOM     34  C   UNL     1       2.259  -4.432  18.876  1.00  0.00     0.012 A 
ATOM     35  C   UNL     1       0.577  -2.495  17.769  1.00  0.00     0.001 A 
ATOM     36  C   UNL     1       2.084  -4.365  17.491  1.00  0.00     0.001 A 
ATOM     37  C   UNL     1       1.244  -3.398  16.938  1.00  0.00     0.000 A 
ENDBRANCH  25  32
ENDBRANCH   1  17
TORSDOF 9
ENDMDL
MODEL 7
REMARK VINA RESULT:    -6.039      1.835      3.474
REMARK INTER + INTRA:          -9.635
REMARK INTER:                  -8.369
REMARK INTRA:                  -1.266
REMARK UNBOUND:                -1.125
REMARK SMILES COc1c(O[C@H]2O[C@H](C(=O)[O-])[C@H](O)[C@@H](O)[C@H]2O)cc(O)c2c(=O)cc(-c3ccccc3)oc12
REMARK SMILES IDX 5 1 6 2 8 3 12 4 7 5 14 6 16 7 9 8 10 9 11 10 13 11 15 13
REMARK SMILES IDX 17 15 4 17 3 18 18 19 33 20 19 21 21 22 32 23 22 24 25 25
REMARK SMILES IDX 24 26 23 27 2 28 1 29 20 30 26 32 27 33 31 34 28 35 30 36
REMARK SMILES IDX 29 37
REMARK H PARENT 13 12 15 14 17 16 20 31
REMARK Flexibility Score: inf
ROOT
ATOM      1  O   UNL     1       1.214  -2.655  25.768  1.00  0.00    -0.458 OA
ENDROOT
BRANCH   1   2
ATOM      2  C   UNL     1       1.523  -4.055  25.792  1.00  0.00     0.339 C 
ATOM      3  C   UNL     1       2.527  -3.987  23.664  1.00  0.00     0.199 C 
ATOM      4  C   UNL     1       3.931  -4.337  24.200  1.00  0.00     0.180 C 
ATOM      5  O   UNL     1       1.515  -4.575  24.471  1.00  0.00    -0.328 OA
ATOM      6  C   UNL     1       4.070  -3.842  25.650  1.00  0.00     0.181 C 
ATOM      7  C   UNL     1       2.876  -4.351  26.487  1.00  0.00     0.214 C 
BRANCH   3   8
ATOM      8  C   UNL     1       2.382  -4.467  22.247  1.00  0.00     0.073 C 
ATOM      9  O   UNL     1       2.169  -5.686  21.997  1.00  0.00    -0.547 OA
ATOM     10  O   UNL     1       2.514  -3.565  21.197  1.00  0.00    -0.547 OA
ENDBRANCH   3   8
BRANCH   4  11
ATOM     11  O   UNL     1       4.125  -5.729  24.146  1.00  0.00    -0.387 OA
ATOM     12  H   UNL     1       3.550  -6.070  23.411  1.00  0.00     0.211 HD
ENDBRANCH   4  11
BRANCH   6  13
ATOM     13  O   UNL     1       4.125  -2.437  25.651  1.00  0.00    -0.387 OA
ATOM     14  H   UNL     1       4.767  -2.169  24.943  1.00  0.00     0.211 HD
ENDBRANCH   6  13
BRANCH   7  15
ATOM     15  O   UNL     1       2.917  -3.870  27.808  1.00  0.00    -0.384 OA
ATOM     16  H   UNL     1       2.911  -4.649  28.422  1.00  0.00     0.211 HD
ENDBRANCH   7  15
ENDBRANCH   1   2
BRANCH   1  17
ATOM     17  C   UNL     1      -0.042  -2.067  26.008  1.00  0.00     0.172 A 
ATOM     18  C   UNL     1      -0.787  -1.650  24.901  1.00  0.00     0.205 A 
ATOM     19  C   UNL     1      -0.555  -1.867  27.299  1.00  0.00     0.097 A 
ATOM     20  C   UNL     1      -2.077  -1.113  25.073  1.00  0.00     0.188 A 
ATOM     21  C   UNL     1      -1.796  -1.258  27.500  1.00  0.00     0.134 A 
ATOM     22  C   UNL     1      -2.606  -0.924  26.379  1.00  0.00     0.111 A 
ATOM     23  O   UNL     1      -2.807  -0.817  24.000  1.00  0.00    -0.452 OA
ATOM     24  C   UNL     1      -3.937  -0.454  26.473  1.00  0.00     0.197 A 
ATOM     25  C   UNL     1      -4.054  -0.359  24.063  1.00  0.00     0.138 A 
ATOM     26  C   UNL     1      -4.649  -0.153  25.314  1.00  0.00     0.100 A 
ATOM     27  O   UNL     1      -4.523  -0.327  27.579  1.00  0.00    -0.289 OA
BRANCH  18  28
ATOM     28  O   UNL     1      -0.233  -1.819  23.626  1.00  0.00    -0.490 OA
ATOM     29  C   UNL     1      -0.758  -2.744  22.680  1.00  0.00     0.278 C 
ENDBRANCH  18  28
BRANCH  21  30
ATOM     30  O   UNL     1      -2.156  -0.997  28.825  1.00  0.00    -0.507 OA
ATOM     31  H   UNL     1      -2.681  -1.629  29.411  1.00  0.00     0.293 HD
ENDBRANCH  21  30
BRANCH  25  32
ATOM     32  C   UNL     1      -4.791  -0.085  22.804  1.00  0.00     0.017 A 
ATOM     33  C   UNL     1      -4.892  -1.086  21.820  1.00  0.00     0.012 A 
ATOM     34  C   UNL     1      -5.427   1.152  22.579  1.00  0.00     0.012 A 
ATOM     35  C   UNL     1      -5.595  -0.848  20.635  1.00  0.00     0.001 A 
ATOM     36  C   UNL     1      -6.128   1.385  21.392  1.00  0.00     0.001 A 
ATOM     37  C   UNL     1      -6.212   0.386  20.421  1.00  0.00     0.000 A 
ENDBRANCH  25  32
ENDBRANCH   1  17
TORSDOF 9
ENDMDL
MODEL 8
REMARK VINA RESULT:    -6.028      2.899      6.816
REMARK INTER + INTRA:          -9.619
REMARK INTER:                  -8.617
REMARK INTRA:                  -1.002
REMARK UNBOUND:                -1.125
REMARK SMILES COc1c(O[C@H]2O[C@H](C(=O)[O-])[C@H](O)[C@@H](O)[C@H]2O)cc(O)c2c(=O)cc(-c3ccccc3)oc12
REMARK SMILES IDX 5 1 6 2 8 3 12 4 7 5 14 6 16 7 9 8 10 9 11 10 13 11 15 13
REMARK SMILES IDX 17 15 4 17 3 18 18 19 33 20 19 21 21 22 32 23 22 24 25 25
REMARK SMILES IDX 24 26 23 27 2 28 1 29 20 30 26 32 27 33 31 34 28 35 30 36
REMARK SMILES IDX 29 37
REMARK H PARENT 13 12 15 14 17 16 20 31
REMARK Flexibility Score: inf
ROOT
ATOM      1  O   UNL     1      -0.980  -2.039  25.310  1.00  0.00    -0.458 OA
ENDROOT
BRANCH   1   2
ATOM      2  C   UNL     1      -2.147  -2.463  26.027  1.00  0.00     0.339 C 
ATOM      3  C   UNL     1      -2.866  -0.251  26.390  1.00  0.00     0.199 C 
ATOM      4  C   UNL     1      -4.138  -0.413  25.532  1.00  0.00     0.180 C 
ATOM      5  O   UNL     1      -2.502  -1.485  26.994  1.00  0.00    -0.328 OA
ATOM      6  C   UNL     1      -3.896  -1.472  24.442  1.00  0.00     0.181 C 
ATOM      7  C   UNL     1      -3.343  -2.761  25.088  1.00  0.00     0.214 C 
BRANCH   3   8
ATOM      8  C   UNL     1      -3.094   0.783  27.457  1.00  0.00     0.073 C 
ATOM      9  O   UNL     1      -3.765   1.825  27.215  1.00  0.00    -0.547 OA
ATOM     10  O   UNL     1      -2.534   0.606  28.719  1.00  0.00    -0.547 OA
ENDBRANCH   3   8
BRANCH   4  11
ATOM     11  O   UNL     1      -5.215  -0.800  26.349  1.00  0.00    -0.387 OA
ATOM     12  H   UNL     1      -5.703  -1.514  25.860  1.00  0.00     0.211 HD
ENDBRANCH   4  11
BRANCH   6  13
ATOM     13  O   UNL     1      -2.996  -0.957  23.494  1.00  0.00    -0.387 OA
ATOM     14  H   UNL     1      -2.858   0.002  23.712  1.00  0.00     0.211 HD
ENDBRANCH   6  13
BRANCH   7  15
ATOM     15  O   UNL     1      -3.039  -3.742  24.128  1.00  0.00    -0.384 OA
ATOM     16  H   UNL     1      -2.437  -3.337  23.451  1.00  0.00     0.211 HD
ENDBRANCH   7  15
ENDBRANCH   1   2
BRANCH   1  17
ATOM     17  C   UNL     1       0.049  -2.863  24.816  1.00  0.00     0.172 A 
ATOM     18  C   UNL     1       0.108  -3.072  23.434  1.00  0.00     0.205 A 
ATOM     19  C   UNL     1       0.989  -3.490  25.649  1.00  0.00     0.097 A 
ATOM     20  C   UNL     1       1.151  -3.834  22.874  1.00  0.00     0.188 A 
ATOM     21  C   UNL     1       1.983  -4.319  25.124  1.00  0.00     0.134 A 
ATOM     22  C   UNL     1       2.114  -4.457  23.714  1.00  0.00     0.111 A 
ATOM     23  O   UNL     1       1.244  -3.935  21.550  1.00  0.00    -0.452 OA
ATOM     24  C   UNL     1       3.177  -5.140  23.079  1.00  0.00     0.197 A 
ATOM     25  C   UNL     1       2.225  -4.585  20.930  1.00  0.00     0.138 A 
ATOM     26  C   UNL     1       3.218  -5.219  21.688  1.00  0.00     0.100 A 
ATOM     27  O   UNL     1       4.122  -5.658  23.730  1.00  0.00    -0.289 OA
BRANCH  18  28
ATOM     28  O   UNL     1      -0.869  -2.473  22.630  1.00  0.00    -0.490 OA
ATOM     29  C   UNL     1      -0.590  -1.989  21.321  1.00  0.00     0.278 C 
ENDBRANCH  18  28
BRANCH  21  30
ATOM     30  O   UNL     1       2.789  -4.989  26.050  1.00  0.00    -0.507 OA
ATOM     31  H   UNL     1       3.716  -4.695  26.319  1.00  0.00     0.293 HD
ENDBRANCH  21  30
BRANCH  25  32
ATOM     32  C   UNL     1       2.251  -4.615  19.446  1.00  0.00     0.017 A 
ATOM     33  C   UNL     1       2.695  -5.770  18.777  1.00  0.00     0.012 A 
ATOM     34  C   UNL     1       1.809  -3.517  18.681  1.00  0.00     0.012 A 
ATOM     35  C   UNL     1       2.713  -5.819  17.380  1.00  0.00     0.001 A 
ATOM     36  C   UNL     1       1.828  -3.571  17.285  1.00  0.00     0.001 A 
ATOM     37  C   UNL     1       2.280  -4.720  16.634  1.00  0.00     0.000 A 
ENDBRANCH  25  32
ENDBRANCH   1  17
TORSDOF 9
ENDMDL
MODEL 9
REMARK VINA RESULT:    -6.010      2.544      5.202
REMARK INTER + INTRA:          -9.595
REMARK INTER:                  -8.331
REMARK INTRA:                  -1.264
REMARK UNBOUND:                -1.125
REMARK SMILES COc1c(O[C@H]2O[C@H](C(=O)[O-])[C@H](O)[C@@H](O)[C@H]2O)cc(O)c2c(=O)cc(-c3ccccc3)oc12
REMARK SMILES IDX 5 1 6 2 8 3 12 4 7 5 14 6 16 7 9 8 10 9 11 10 13 11 15 13
REMARK SMILES IDX 17 15 4 17 3 18 18 19 33 20 19 21 21 22 32 23 22 24 25 25
REMARK SMILES IDX 24 26 23 27 2 28 1 29 20 30 26 32 27 33 31 34 28 35 30 36
REMARK SMILES IDX 29 37
REMARK H PARENT 13 12 15 14 17 16 20 31
REMARK Flexibility Score: inf
ROOT
ATOM      1  O   UNL     1      -0.106  -3.172  24.340  1.00  0.00    -0.458 OA
ENDROOT
BRANCH   1   2
ATOM      2  C   UNL     1       1.244  -2.813  24.016  1.00  0.00     0.339 C 
ATOM      3  C   UNL     1       2.144  -4.370  25.534  1.00  0.00     0.199 C 
ATOM      4  C   UNL     1       2.800  -5.225  24.429  1.00  0.00     0.180 C 
ATOM      5  O   UNL     1       2.080  -3.004  25.148  1.00  0.00    -0.328 OA
ATOM      6  C   UNL     1       1.996  -5.091  23.125  1.00  0.00     0.181 C 
ATOM      7  C   UNL     1       1.789  -3.597  22.795  1.00  0.00     0.214 C 
BRANCH   3   8
ATOM      8  C   UNL     1       2.924  -4.495  26.813  1.00  0.00     0.073 C 
ATOM      9  O   UNL     1       2.628  -3.794  27.821  1.00  0.00    -0.547 OA
ATOM     10  O   UNL     1       4.003  -5.370  26.880  1.00  0.00    -0.547 OA
ENDBRANCH   3   8
BRANCH   4  11
ATOM     11  O   UNL     1       4.124  -4.798  24.224  1.00  0.00    -0.387 OA
ATOM     12  H   UNL     1       4.558  -4.771  25.117  1.00  0.00     0.211 HD
ENDBRANCH   4  11
BRANCH   6  13
ATOM     13  O   UNL     1       0.763  -5.750  23.277  1.00  0.00    -0.387 OA
ATOM     14  H   UNL     1       0.838  -6.329  24.081  1.00  0.00     0.211 HD
ENDBRANCH   6  13
BRANCH   7  15
ATOM     15  O   UNL     1       0.999  -3.417  21.646  1.00  0.00    -0.384 OA
ATOM     16  H   UNL     1       0.473  -4.245  21.498  1.00  0.00     0.211 HD
ENDBRANCH   7  15
ENDBRANCH   1   2
BRANCH   1  17
ATOM     17  C   UNL     1      -1.252  -2.371  24.177  1.00  0.00     0.172 A 
ATOM     18  C   UNL     1      -1.955  -2.001  25.327  1.00  0.00     0.205 A 
ATOM     19  C   UNL     1      -1.718  -1.955  22.920  1.00  0.00     0.097 A 
ATOM     20  C   UNL     1      -3.073  -1.149  25.234  1.00  0.00     0.188 A 
ATOM     21  C   UNL     1      -2.872  -1.179  22.795  1.00  0.00     0.134 A 
ATOM     22  C   UNL     1      -3.537  -0.713  23.963  1.00  0.00     0.111 A 
ATOM     23  O   UNL     1      -3.665  -0.729  26.350  1.00  0.00    -0.452 OA
ATOM     24  C   UNL     1      -4.615   0.204  23.951  1.00  0.00     0.197 A 
ATOM     25  C   UNL     1      -4.689   0.120  26.363  1.00  0.00     0.138 A 
ATOM     26  C   UNL     1      -5.200   0.601  25.151  1.00  0.00     0.100 A 
ATOM     27  O   UNL     1      -5.049   0.709  22.883  1.00  0.00    -0.289 OA
BRANCH  18  28
ATOM     28  O   UNL     1      -1.497  -2.466  26.565  1.00  0.00    -0.490 OA
ATOM     29  C   UNL     1      -0.521  -1.769  27.331  1.00  0.00     0.278 C 
ENDBRANCH  18  28
BRANCH  21  30
ATOM     30  O   UNL     1      -3.315  -0.925  21.493  1.00  0.00    -0.507 OA
ATOM     31  H   UNL     1      -3.132  -1.521  20.700  1.00  0.00     0.293 HD
ENDBRANCH  21  30
BRANCH  25  32
ATOM     32  C   UNL     1      -5.261   0.546  27.665  1.00  0.00     0.017 A 
ATOM     33  C   UNL     1      -6.416   1.349  27.692  1.00  0.00     0.012 A 
ATOM     34  C   UNL     1      -4.691   0.138  28.887  1.00  0.00     0.012 A 
ATOM     35  C   UNL     1      -6.975   1.748  28.911  1.00  0.00     0.001 A 
ATOM     36  C   UNL     1      -5.253   0.539  30.102  1.00  0.00     0.001 A 
ATOM     37  C   UNL     1      -6.394   1.343  30.114  1.00  0.00     0.000 A 
ENDBRANCH  25  32
ENDBRANCH   1  17
TORSDOF 9
ENDMDL
