MODEL 1
REMARK VINA RESULT:    -3.418      0.000      0.000
REMARK INTER + INTRA:          -5.634
REMARK INTER:                  -5.016
REMARK INTRA:                  -0.618
REMARK UNBOUND:                -0.618
REMARK SMILES C=C1C=C[C@@H](C(C)C)CCC(C)=CCC1
REMARK SMILES IDX 3 1 4 2 5 3 9 4 10 5 11 6 12 7 13 8 6 10 7 11 8 12 2 13 1 14
REMARK SMILES IDX 15 15 14 16
REMARK H PARENT
REMARK Flexibility Score: 70.00
ROOT
ATOM      1  C   UNL     1     136.577 131.838 135.435  1.00  0.00    -0.001 C 
ATOM      2  C   UNL     1     137.558 132.031 136.335  1.00  0.00    -0.023 C 
ENDROOT
BRANCH   2   3
ATOM      3  C   UNL     1     137.886 133.350 137.007  1.00  0.00     0.014 C 
BRANCH   3   4
ATOM      4  C   UNL     1     139.405 133.694 136.868  1.00  0.00     0.012 C 
BRANCH   4   5
ATOM      5  C   UNL     1     139.975 133.372 135.464  1.00  0.00     0.031 C 
BRANCH   5   6
ATOM      6  C   UNL     1     139.791 134.467 134.415  1.00  0.00    -0.077 C 
ATOM      7  C   UNL     1     140.814 135.579 134.361  1.00  0.00     0.039 C 
ATOM      8  C   UNL     1     138.723 134.578 133.583  1.00  0.00    -0.028 CG0
ATOM      9  G   UNL     1     137.669 133.530 133.316  1.00  0.00     0.000 G0
ENDBRANCH   5   6
ENDBRANCH   4   5
ENDBRANCH   3   4
BRANCH   3  10
ATOM     10  C   UNL     1     137.360 133.378 138.478  1.00  0.00    -0.010 C 
ATOM     11  C   UNL     1     138.150 134.292 139.435  1.00  0.00     0.008 C 
ATOM     12  C   UNL     1     135.863 133.726 138.530  1.00  0.00     0.008 C 
ENDBRANCH   3  10
ENDBRANCH   2   3
BRANCH   1  13
ATOM     13  C   UNL     1     135.723 132.895 134.831  1.00  0.00    -0.055 C 
ATOM     14  C   UNL     1     134.429 132.919 135.160  1.00  0.00     0.012 C 
BRANCH  13  15
ATOM     15  C   UNL     1     136.253 133.907 133.826  1.00  0.00     0.039 C 
BRANCH  15  16
ATOM     16  C   UNL     1     137.650 133.540 133.288  1.00  0.00     0.032 CG0
ATOM     17  G   UNL     1     138.713 134.573 133.576  1.00  0.00     0.000 G0
ENDBRANCH  15  16
ENDBRANCH  13  15
ENDBRANCH   1  13
TORSDOF 1
ENDMDL
MODEL 2
REMARK VINA RESULT:    -3.344      4.883      6.841
REMARK INTER + INTRA:          -5.526
REMARK INTER:                  -4.863
REMARK INTRA:                  -0.663
REMARK UNBOUND:                -0.618
REMARK SMILES C=C1C=C[C@@H](C(C)C)CCC(C)=CCC1
REMARK SMILES IDX 3 1 4 2 5 3 9 4 10 5 11 6 12 7 13 8 6 10 7 11 8 12 2 13 1 14
REMARK SMILES IDX 15 15 14 16
REMARK H PARENT
REMARK Flexibility Score: 70.00
ROOT
ATOM      1  C   UNL     1     139.236 139.838 135.817  1.00  0.00    -0.001 C 
ATOM      2  C   UNL     1     138.116 140.059 135.106  1.00  0.00    -0.023 C 
ENDROOT
BRANCH   2   3
ATOM      3  C   UNL     1     136.794 139.343 135.306  1.00  0.00     0.014 C 
BRANCH   3   4
ATOM      4  C   UNL     1     136.744 138.009 134.491  1.00  0.00     0.012 C 
BRANCH   4   5
ATOM      5  C   UNL     1     136.656 136.751 135.390  1.00  0.00     0.031 C 
BRANCH   5   6
ATOM      6  C   UNL     1     135.876 136.929 136.691  1.00  0.00    -0.077 C 
ATOM      7  C   UNL     1     134.371 136.806 136.641  1.00  0.00     0.039 C 
ATOM      8  C   UNL     1     136.422 137.287 137.883  1.00  0.00    -0.028 CG0
ATOM      9  G   UNL     1     137.889 137.302 138.241  1.00  0.00     0.000 G0
ENDBRANCH   5   6
ENDBRANCH   4   5
ENDBRANCH   3   4
BRANCH   3  10
ATOM     10  C   UNL     1     135.590 140.300 135.034  1.00  0.00    -0.010 C 
ATOM     11  C   UNL     1     134.556 139.774 134.019  1.00  0.00     0.008 C 
ATOM     12  C   UNL     1     134.889 140.701 136.342  1.00  0.00     0.008 C 
ENDBRANCH   3  10
ENDBRANCH   2   3
BRANCH   1  13
ATOM     13  C   UNL     1     139.433 138.768 136.831  1.00  0.00    -0.055 C 
ATOM     14  C   UNL     1     140.360 137.837 136.588  1.00  0.00     0.012 C 
BRANCH  13  15
ATOM     15  C   UNL     1     138.596 138.670 138.097  1.00  0.00     0.039 C 
BRANCH  15  16
ATOM     16  C   UNL     1     137.906 137.301 138.253  1.00  0.00     0.032 CG0
ATOM     17  G   UNL     1     136.440 137.303 137.890  1.00  0.00     0.000 G0
ENDBRANCH  15  16
ENDBRANCH  13  15
ENDBRANCH   1  13
TORSDOF 1
ENDMDL
MODEL 3
REMARK VINA RESULT:    -3.257      4.489      5.953
REMARK INTER + INTRA:          -5.398
REMARK INTER:                  -4.823
REMARK INTRA:                  -0.575
REMARK UNBOUND:                -0.618
REMARK SMILES C=C1C=C[C@@H](C(C)C)CCC(C)=CCC1
REMARK SMILES IDX 3 1 4 2 5 3 9 4 10 5 11 6 12 7 13 8 6 10 7 11 8 12 2 13 1 14
REMARK SMILES IDX 15 15 14 16
REMARK H PARENT
REMARK Flexibility Score: 70.00
ROOT
ATOM      1  C   UNL     1     136.813 140.503 135.134  1.00  0.00    -0.001 C 
ATOM      2  C   UNL     1     138.109 140.197 135.325  1.00  0.00    -0.023 C 
ENDROOT
BRANCH   2   3
ATOM      3  C   UNL     1     138.628 138.889 135.890  1.00  0.00     0.014 C 
BRANCH   3   4
ATOM      4  C   UNL     1     138.619 138.905 137.454  1.00  0.00     0.012 C 
BRANCH   4   5
ATOM      5  C   UNL     1     137.691 137.828 138.068  1.00  0.00     0.031 C 
BRANCH   5   6
ATOM      6  C   UNL     1     137.501 136.569 137.224  1.00  0.00    -0.077 C 
ATOM      7  C   UNL     1     138.545 135.481 137.325  1.00  0.00     0.039 C 
ATOM      8  C   UNL     1     136.513 136.386 136.310  1.00  0.00    -0.028 CG0
ATOM      9  G   UNL     1     135.267 137.223 136.140  1.00  0.00     0.000 G0
ENDBRANCH   5   6
ENDBRANCH   4   5
ENDBRANCH   3   4
BRANCH   3  10
ATOM     10  C   UNL     1     140.010 138.515 135.266  1.00  0.00    -0.010 C 
ATOM     11  C   UNL     1     141.003 137.844 136.236  1.00  0.00     0.008 C 
ATOM     12  C   UNL     1     139.840 137.654 134.005  1.00  0.00     0.008 C 
ENDBRANCH   3  10
ENDBRANCH   2   3
BRANCH   1  13
ATOM     13  C   UNL     1     135.648 139.684 135.562  1.00  0.00    -0.055 C 
ATOM     14  C   UNL     1     134.834 140.190 136.493  1.00  0.00     0.012 C 
BRANCH  13  15
ATOM     15  C   UNL     1     135.379 138.288 135.020  1.00  0.00     0.039 C 
BRANCH  15  16
ATOM     16  C   UNL     1     135.260 137.228 136.132  1.00  0.00     0.032 CG0
ATOM     17  G   UNL     1     136.500 136.386 136.316  1.00  0.00     0.000 G0
ENDBRANCH  15  16
ENDBRANCH  13  15
ENDBRANCH   1  13
TORSDOF 1
ENDMDL
MODEL 4
REMARK VINA RESULT:    -3.253      2.515      4.694
REMARK INTER + INTRA:          -5.393
REMARK INTER:                  -4.808
REMARK INTRA:                  -0.584
REMARK UNBOUND:                -0.618
REMARK SMILES C=C1C=C[C@@H](C(C)C)CCC(C)=CCC1
REMARK SMILES IDX 3 1 4 2 5 3 9 4 10 5 11 6 12 7 13 8 6 10 7 11 8 12 2 13 1 14
REMARK SMILES IDX 15 15 14 16
REMARK H PARENT
REMARK Flexibility Score: 70.00
ROOT
ATOM      1  C   UNL     1     140.495 135.790 134.952  1.00  0.00    -0.001 C 
ATOM      2  C   UNL     1     140.099 134.512 135.091  1.00  0.00    -0.023 C 
ENDROOT
BRANCH   2   3
ATOM      3  C   UNL     1     138.831 134.057 135.788  1.00  0.00     0.014 C 
BRANCH   3   4
ATOM      4  C   UNL     1     139.032 133.984 137.337  1.00  0.00     0.012 C 
BRANCH   4   5
ATOM      5  C   UNL     1     138.322 135.131 138.097  1.00  0.00     0.031 C 
BRANCH   5   6
ATOM      6  C   UNL     1     136.929 135.492 137.586  1.00  0.00    -0.077 C 
ATOM      7  C   UNL     1     135.785 134.565 137.924  1.00  0.00     0.039 C 
ATOM      8  C   UNL     1     136.648 136.537 136.763  1.00  0.00    -0.028 CG0
ATOM      9  G   UNL     1     137.556 137.694 136.423  1.00  0.00     0.000 G0
ENDBRANCH   5   6
ENDBRANCH   4   5
ENDBRANCH   3   4
BRANCH   3  10
ATOM     10  C   UNL     1     138.284 132.738 135.154  1.00  0.00    -0.010 C 
ATOM     11  C   UNL     1     138.031 131.592 136.153  1.00  0.00     0.008 C 
ATOM     12  C   UNL     1     137.019 133.002 134.320  1.00  0.00     0.008 C 
ENDBRANCH   3  10
ENDBRANCH   2   3
BRANCH   1  13
ATOM     13  C   UNL     1     139.846 136.980 135.564  1.00  0.00    -0.055 C 
ATOM     14  C   UNL     1     140.510 137.633 136.522  1.00  0.00     0.012 C 
BRANCH  13  15
ATOM     15  C   UNL     1     138.450 137.446 135.178  1.00  0.00     0.039 C 
BRANCH  15  16
ATOM     16  C   UNL     1     137.544 137.697 136.399  1.00  0.00     0.032 CG0
ATOM     17  G   UNL     1     136.651 136.532 136.753  1.00  0.00     0.000 G0
ENDBRANCH  15  16
ENDBRANCH  13  15
ENDBRANCH   1  13
TORSDOF 1
ENDMDL
MODEL 5
REMARK VINA RESULT:    -3.235      5.530      6.932
REMARK INTER + INTRA:          -5.366
REMARK INTER:                  -4.755
REMARK INTRA:                  -0.612
REMARK UNBOUND:                -0.618
REMARK SMILES C=C1C=C[C@@H](C(C)C)CCC(C)=CCC1
REMARK SMILES IDX 3 1 4 2 5 3 9 4 10 5 11 6 12 7 13 8 6 10 7 11 8 12 2 13 1 14
REMARK SMILES IDX 15 15 14 16
REMARK H PARENT
REMARK Flexibility Score: 70.00
ROOT
ATOM      1  C   UNL     1     135.246 140.883 135.915  1.00  0.00    -0.001 C 
ATOM      2  C   UNL     1     134.646 140.242 136.934  1.00  0.00    -0.023 C 
ENDROOT
BRANCH   2   3
ATOM      3  C   UNL     1     134.711 138.749 137.193  1.00  0.00     0.014 C 
BRANCH   3   4
ATOM      4  C   UNL     1     133.398 138.037 136.729  1.00  0.00     0.012 C 
BRANCH   4   5
ATOM      5  C   UNL     1     133.630 137.023 135.582  1.00  0.00     0.031 C 
BRANCH   5   6
ATOM      6  C   UNL     1     133.038 137.416 134.230  1.00  0.00    -0.077 C 
ATOM      7  C   UNL     1     131.569 137.152 133.993  1.00  0.00     0.039 C 
ATOM      8  C   UNL     1     133.751 137.899 133.179  1.00  0.00    -0.028 CG0
ATOM      9  G   UNL     1     135.172 138.410 133.204  1.00  0.00     0.000 G0
ENDBRANCH   5   6
ENDBRANCH   4   5
ENDBRANCH   3   4
BRANCH   3  10
ATOM     10  C   UNL     1     135.108 138.452 138.675  1.00  0.00    -0.010 C 
ATOM     11  C   UNL     1     135.241 139.695 139.576  1.00  0.00     0.008 C 
ATOM     12  C   UNL     1     134.149 137.435 139.316  1.00  0.00     0.008 C 
ENDBRANCH   3  10
ENDBRANCH   2   3
BRANCH   1  13
ATOM     13  C   UNL     1     135.965 140.243 134.781  1.00  0.00    -0.055 C 
ATOM     14  C   UNL     1     137.268 139.986 134.930  1.00  0.00     0.012 C 
BRANCH  13  15
ATOM     15  C   UNL     1     135.292 139.919 133.456  1.00  0.00     0.039 C 
BRANCH  15  16
ATOM     16  C   UNL     1     135.174 138.403 133.201  1.00  0.00     0.032 CG0
ATOM     17  G   UNL     1     133.754 137.890 133.178  1.00  0.00     0.000 G0
ENDBRANCH  15  16
ENDBRANCH  13  15
ENDBRANCH   1  13
TORSDOF 1
ENDMDL
MODEL 6
REMARK VINA RESULT:    -3.225      3.996      5.924
REMARK INTER + INTRA:          -5.351
REMARK INTER:                  -4.592
REMARK INTRA:                  -0.759
REMARK UNBOUND:                -0.618
REMARK SMILES C=C1C=C[C@@H](C(C)C)CCC(C)=CCC1
REMARK SMILES IDX 3 1 4 2 5 3 9 4 10 5 11 6 12 7 13 8 6 10 7 11 8 12 2 13 1 14
REMARK SMILES IDX 15 15 14 16
REMARK H PARENT
REMARK Flexibility Score: 70.00
ROOT
ATOM      1  C   UNL     1     139.374 139.516 136.744  1.00  0.00    -0.001 C 
ATOM      2  C   UNL     1     139.062 139.775 135.462  1.00  0.00    -0.023 C 
ENDROOT
BRANCH   2   3
ATOM      3  C   UNL     1     138.011 139.045 134.649  1.00  0.00     0.014 C 
BRANCH   3   4
ATOM      4  C   UNL     1     138.660 138.250 133.469  1.00  0.00     0.012 C 
BRANCH   4   5
ATOM      5  C   UNL     1     138.466 136.718 133.589  1.00  0.00     0.031 C 
BRANCH   5   6
ATOM      6  C   UNL     1     139.637 135.955 134.207  1.00  0.00    -0.077 C 
ATOM      7  C   UNL     1     140.758 135.513 133.296  1.00  0.00     0.039 C 
ATOM      8  C   UNL     1     139.707 135.554 135.503  1.00  0.00    -0.028 CG0
ATOM      9  G   UNL     1     138.824 136.005 136.642  1.00  0.00     0.000 G0
ENDBRANCH   5   6
ENDBRANCH   4   5
ENDBRANCH   3   4
BRANCH   3  10
ATOM     10  C   UNL     1     136.866 140.013 134.210  1.00  0.00    -0.010 C 
ATOM     11  C   UNL     1     136.090 139.575 132.952  1.00  0.00     0.008 C 
ATOM     12  C   UNL     1     135.889 140.284 135.366  1.00  0.00     0.008 C 
ENDBRANCH   3  10
ENDBRANCH   2   3
BRANCH   1  13
ATOM     13  C   UNL     1     138.852 138.388 137.562  1.00  0.00    -0.055 C 
ATOM     14  C   UNL     1     137.780 138.612 138.327  1.00  0.00     0.012 C 
BRANCH  13  15
ATOM     15  C   UNL     1     139.514 137.019 137.593  1.00  0.00     0.039 C 
BRANCH  15  16
ATOM     16  C   UNL     1     138.833 136.003 136.656  1.00  0.00     0.032 CG0
ATOM     17  G   UNL     1     139.690 135.566 135.493  1.00  0.00     0.000 G0
ENDBRANCH  15  16
ENDBRANCH  13  15
ENDBRANCH   1  13
TORSDOF 1
ENDMDL
MODEL 7
REMARK VINA RESULT:    -3.222      2.361      4.305
REMARK INTER + INTRA:          -5.348
REMARK INTER:                  -4.591
REMARK INTRA:                  -0.756
REMARK UNBOUND:                -0.618
REMARK SMILES C=C1C=C[C@@H](C(C)C)CCC(C)=CCC1
REMARK SMILES IDX 3 1 4 2 5 3 9 4 10 5 11 6 12 7 13 8 6 10 7 11 8 12 2 13 1 14
REMARK SMILES IDX 15 15 14 16
REMARK H PARENT
REMARK Flexibility Score: 70.00
ROOT
ATOM      1  C   UNL     1     137.012 134.483 136.548  1.00  0.00    -0.001 C 
ATOM      2  C   UNL     1     135.969 134.815 137.329  1.00  0.00    -0.023 C 
ENDROOT
BRANCH   2   3
ATOM      3  C   UNL     1     134.950 133.845 137.893  1.00  0.00     0.014 C 
BRANCH   3   4
ATOM      4  C   UNL     1     133.523 134.123 137.314  1.00  0.00     0.012 C 
BRANCH   4   5
ATOM      5  C   UNL     1     133.130 133.152 136.173  1.00  0.00     0.031 C 
BRANCH   5   6
ATOM      6  C   UNL     1     133.486 133.619 134.763  1.00  0.00    -0.077 C 
ATOM      7  C   UNL     1     132.636 134.700 134.136  1.00  0.00     0.039 C 
ATOM      8  C   UNL     1     134.454 133.071 133.982  1.00  0.00    -0.028 CG0
ATOM      9  G   UNL     1     135.540 132.117 134.418  1.00  0.00     0.000 G0
ENDBRANCH   5   6
ENDBRANCH   4   5
ENDBRANCH   3   4
BRANCH   3  10
ATOM     10  C   UNL     1     135.007 133.811 139.454  1.00  0.00    -0.010 C 
ATOM     11  C   UNL     1     136.320 133.263 140.046  1.00  0.00     0.008 C 
ATOM     12  C   UNL     1     134.692 135.191 140.054  1.00  0.00     0.008 C 
ENDBRANCH   3  10
ENDBRANCH   2   3
BRANCH   1  13
ATOM     13  C   UNL     1     137.285 133.136 135.978  1.00  0.00    -0.055 C 
ATOM     14  C   UNL     1     137.894 132.238 136.758  1.00  0.00     0.012 C 
BRANCH  13  15
ATOM     15  C   UNL     1     136.943 132.764 134.544  1.00  0.00     0.039 C 
BRANCH  15  16
ATOM     16  C   UNL     1     135.554 132.110 134.410  1.00  0.00     0.032 CG0
ATOM     17  G   UNL     1     134.461 133.065 133.995  1.00  0.00     0.000 G0
ENDBRANCH  15  16
ENDBRANCH  13  15
ENDBRANCH   1  13
TORSDOF 1
ENDMDL
MODEL 8
REMARK VINA RESULT:    -3.196      3.161      4.869
REMARK INTER + INTRA:          -5.309
REMARK INTER:                  -4.653
REMARK INTRA:                  -0.656
REMARK UNBOUND:                -0.618
REMARK SMILES C=C1C=C[C@@H](C(C)C)CCC(C)=CCC1
REMARK SMILES IDX 3 1 4 2 5 3 9 4 10 5 11 6 12 7 13 8 6 10 7 11 8 12 2 13 1 14
REMARK SMILES IDX 15 15 14 16
REMARK H PARENT
REMARK Flexibility Score: 70.00
ROOT
ATOM      1  C   UNL     1     132.132 136.138 135.614  1.00  0.00    -0.001 C 
ATOM      2  C   UNL     1     132.198 135.150 136.524  1.00  0.00    -0.023 C 
ENDROOT
BRANCH   2   3
ATOM      3  C   UNL     1     133.377 134.875 137.437  1.00  0.00     0.014 C 
BRANCH   3   4
ATOM      4  C   UNL     1     133.908 133.415 137.251  1.00  0.00     0.012 C 
BRANCH   4   5
ATOM      5  C   UNL     1     133.866 132.936 135.779  1.00  0.00     0.031 C 
BRANCH   5   6
ATOM      6  C   UNL     1     135.103 133.267 134.946  1.00  0.00    -0.077 C 
ATOM      7  C   UNL     1     136.328 132.400 135.119  1.00  0.00     0.039 C 
ATOM      8  C   UNL     1     135.226 134.344 134.128  1.00  0.00    -0.028 CG0
ATOM      9  G   UNL     1     134.118 135.253 133.651  1.00  0.00     0.000 G0
ENDBRANCH   5   6
ENDBRANCH   4   5
ENDBRANCH   3   4
BRANCH   3  10
ATOM     10  C   UNL     1     133.042 135.245 138.917  1.00  0.00    -0.010 C 
ATOM     11  C   UNL     1     133.379 134.156 139.954  1.00  0.00     0.008 C 
ATOM     12  C   UNL     1     133.692 136.579 139.321  1.00  0.00     0.008 C 
ENDBRANCH   3  10
ENDBRANCH   2   3
BRANCH   1  13
ATOM     13  C   UNL     1     133.240 137.055 135.235  1.00  0.00    -0.055 C 
ATOM     14  C   UNL     1     133.319 138.234 135.858  1.00  0.00     0.012 C 
BRANCH  13  15
ATOM     15  C   UNL     1     134.246 136.723 134.144  1.00  0.00     0.039 C 
BRANCH  15  16
ATOM     16  C   UNL     1     134.126 135.271 133.641  1.00  0.00     0.032 CG0
ATOM     17  G   UNL     1     135.222 134.356 134.133  1.00  0.00     0.000 G0
ENDBRANCH  15  16
ENDBRANCH  13  15
ENDBRANCH   1  13
TORSDOF 1
ENDMDL
MODEL 9
REMARK VINA RESULT:    -3.172      5.508      7.662
REMARK INTER + INTRA:          -5.274
REMARK INTER:                  -4.703
REMARK INTRA:                  -0.571
REMARK UNBOUND:                -0.618
REMARK SMILES C=C1C=C[C@@H](C(C)C)CCC(C)=CCC1
REMARK SMILES IDX 3 1 4 2 5 3 9 4 10 5 11 6 12 7 13 8 6 10 7 11 8 12 2 13 1 14
REMARK SMILES IDX 15 15 14 16
REMARK H PARENT
REMARK Flexibility Score: 70.00
ROOT
ATOM      1  C   UNL     1     138.976 137.793 139.857  1.00  0.00    -0.001 C 
ATOM      2  C   UNL     1     139.190 137.695 138.532  1.00  0.00    -0.023 C 
ENDROOT
BRANCH   2   3
ATOM      3  C   UNL     1     138.701 138.681 137.489  1.00  0.00     0.014 C 
BRANCH   3   4
ATOM      4  C   UNL     1     137.349 138.212 136.857  1.00  0.00     0.012 C 
BRANCH   4   5
ATOM      5  C   UNL     1     136.198 139.228 137.061  1.00  0.00     0.031 C 
BRANCH   5   6
ATOM      6  C   UNL     1     134.998 138.711 137.851  1.00  0.00    -0.077 C 
ATOM      7  C   UNL     1     133.940 137.929 137.107  1.00  0.00     0.039 C 
ATOM      8  C   UNL     1     134.752 138.980 139.160  1.00  0.00    -0.028 CG0
ATOM      9  G   UNL     1     135.714 139.578 140.159  1.00  0.00     0.000 G0
ENDBRANCH   5   6
ENDBRANCH   4   5
ENDBRANCH   3   4
BRANCH   3  10
ATOM     10  C   UNL     1     139.817 138.992 136.442  1.00  0.00    -0.010 C 
ATOM     11  C   UNL     1     140.849 137.866 136.235  1.00  0.00     0.008 C 
ATOM     12  C   UNL     1     139.216 139.411 135.091  1.00  0.00     0.008 C 
ENDBRANCH   3  10
ENDBRANCH   2   3
BRANCH   1  13
ATOM     13  C   UNL     1     138.114 138.799 140.532  1.00  0.00    -0.055 C 
ATOM     14  C   UNL     1     138.675 139.950 140.915  1.00  0.00     0.012 C 
BRANCH  13  15
ATOM     15  C   UNL     1     136.646 138.550 140.843  1.00  0.00     0.039 C 
BRANCH  15  16
ATOM     16  C   UNL     1     135.711 139.577 140.175  1.00  0.00     0.032 CG0
ATOM     17  G   UNL     1     134.758 138.979 139.167  1.00  0.00     0.000 G0
ENDBRANCH  15  16
ENDBRANCH  13  15
ENDBRANCH   1  13
TORSDOF 1
ENDMDL
