MODEL 1
REMARK VINA RESULT:    -2.493      0.000      0.000
REMARK INTER + INTRA:          -3.405
REMARK INTER:                  -3.804
REMARK INTRA:                   0.400
REMARK UNBOUND:                 0.400
REMARK SMILES CC1=CCC[C@H](C)C(=O)C[C@H](C(C)C)C(=O)C1
REMARK SMILES IDX 8 1 9 2 6 3 7 4 5 5 4 6 3 7 2 8 1 9 10 11 11 12 15 13 16 14
REMARK SMILES IDX 17 15 12 17 13 18 14 19
REMARK H PARENT
REMARK Flexibility Score: 70.00
ROOT
ATOM      1  C   UNL     1      28.458  37.677  18.880  1.00  0.00     0.136 C 
ATOM      2  O   UNL     1      29.104  36.660  19.089  1.00  0.00    -0.299 OA
ENDROOT
BRANCH   1   3
ATOM      3  C   UNL     1      29.089  38.783  18.050  1.00  0.00     0.053 C 
ATOM      4  C   UNL     1      28.474  38.811  16.648  1.00  0.00     0.016 C 
BRANCH   3   5
ATOM      5  C   UNL     1      28.979  40.164  18.726  1.00  0.00     0.015 C 
BRANCH   5   6
ATOM      6  C   UNL     1      27.752  40.952  18.233  1.00  0.00     0.028 C 
BRANCH   6   7
ATOM      7  C   UNL     1      27.343  42.054  19.178  1.00  0.00    -0.028 C 
ATOM      8  C   UNL     1      26.684  41.891  20.353  1.00  0.00    -0.070 CG0
ATOM      9  C   UNL     1      26.473  43.122  21.201  1.00  0.00     0.039 C 
ATOM     10  G   UNL     1      26.091  40.568  20.830  1.00  0.00     0.000 G0
ENDBRANCH   6   7
ENDBRANCH   5   6
ENDBRANCH   3   5
ENDBRANCH   1   3
BRANCH   1  11
ATOM     11  C   UNL     1      27.039  37.761  19.397  1.00  0.00     0.087 C 
BRANCH  11  12
ATOM     12  C   UNL     1      26.970  38.048  20.923  1.00  0.00     0.066 C 
BRANCH  12  13
ATOM     13  C   UNL     1      27.104  39.527  21.279  1.00  0.00     0.140 C 
ATOM     14  O   UNL     1      27.999  39.863  22.040  1.00  0.00    -0.299 OA
BRANCH  13  15
ATOM     15  C   UNL     1      26.089  40.563  20.855  1.00  0.00     0.106 CG0
ATOM     16  G   UNL     1      26.699  41.870  20.354  1.00  0.00     0.000 G0
ENDBRANCH  13  15
ENDBRANCH  12  13
BRANCH  12  17
ATOM     17  C   UNL     1      25.726  37.411  21.625  1.00  0.00    -0.006 C 
ATOM     18  C   UNL     1      26.122  36.197  22.484  1.00  0.00     0.008 C 
ATOM     19  C   UNL     1      24.592  37.013  20.663  1.00  0.00     0.008 C 
ENDBRANCH  12  17
ENDBRANCH  11  12
ENDBRANCH   1  11
TORSDOF 1
ENDMDL
MODEL 2
REMARK VINA RESULT:    -1.801      2.283      4.244
REMARK INTER + INTRA:          -2.349
REMARK INTER:                  -3.351
REMARK INTRA:                   1.002
REMARK UNBOUND:                 0.400
REMARK SMILES CC1=CCC[C@H](C)C(=O)C[C@H](C(C)C)C(=O)C1
REMARK SMILES IDX 8 1 9 2 6 3 7 4 5 5 4 6 3 7 2 8 1 9 10 11 11 12 15 13 16 14
REMARK SMILES IDX 17 15 12 17 13 18 14 19
REMARK H PARENT
REMARK Flexibility Score: 70.00
ROOT
ATOM      1  C   UNL     1      26.492  41.259  21.167  1.00  0.00     0.136 C 
ATOM      2  O   UNL     1      25.592  42.084  21.234  1.00  0.00    -0.299 OA
ENDROOT
BRANCH   1   3
ATOM      3  C   UNL     1      27.886  41.730  20.785  1.00  0.00     0.053 C 
ATOM      4  C   UNL     1      28.239  43.013  21.544  1.00  0.00     0.016 C 
BRANCH   3   5
ATOM      5  C   UNL     1      28.959  40.646  21.012  1.00  0.00     0.015 C 
BRANCH   5   6
ATOM      6  C   UNL     1      29.102  39.713  19.797  1.00  0.00     0.028 C 
BRANCH   6   7
ATOM      7  C   UNL     1      29.118  38.253  20.175  1.00  0.00    -0.028 C 
ATOM      8  C   UNL     1      28.286  37.297  19.691  1.00  0.00    -0.070 CG0
ATOM      9  C   UNL     1      28.548  35.873  20.119  1.00  0.00     0.039 C 
ATOM     10  G   UNL     1      27.075  37.578  18.805  1.00  0.00     0.000 G0
ENDBRANCH   6   7
ENDBRANCH   5   6
ENDBRANCH   3   5
ENDBRANCH   1   3
BRANCH   1  11
ATOM     11  C   UNL     1      26.195  39.822  21.534  1.00  0.00     0.087 C 
BRANCH  11  12
ATOM     12  C   UNL     1      25.492  39.041  20.387  1.00  0.00     0.066 C 
BRANCH  12  13
ATOM     13  C   UNL     1      26.355  38.871  19.139  1.00  0.00     0.140 C 
ATOM     14  O   UNL     1      26.373  39.775  18.317  1.00  0.00    -0.299 OA
BRANCH  13  15
ATOM     15  C   UNL     1      27.061  37.577  18.806  1.00  0.00     0.106 CG0
ATOM     16  G   UNL     1      28.285  37.289  19.671  1.00  0.00     0.000 G0
ENDBRANCH  13  15
ENDBRANCH  12  13
BRANCH  12  17
ATOM     17  C   UNL     1      24.883  37.674  20.841  1.00  0.00    -0.006 C 
ATOM     18  C   UNL     1      23.428  37.834  21.315  1.00  0.00     0.008 C 
ATOM     19  C   UNL     1      25.701  36.946  21.923  1.00  0.00     0.008 C 
ENDBRANCH  12  17
ENDBRANCH  11  12
ENDBRANCH   1  11
TORSDOF 1
ENDMDL
MODEL 3
REMARK VINA RESULT:    -1.318      1.707      4.413
REMARK INTER + INTRA:          -1.612
REMARK INTER:                  -3.650
REMARK INTRA:                   2.039
REMARK UNBOUND:                 0.400
REMARK SMILES CC1=CCC[C@H](C)C(=O)C[C@H](C(C)C)C(=O)C1
REMARK SMILES IDX 8 1 9 2 6 3 7 4 5 5 4 6 3 7 2 8 1 9 10 11 11 12 15 13 16 14
REMARK SMILES IDX 17 15 12 17 13 18 14 19
REMARK H PARENT
REMARK Flexibility Score: 70.00
ROOT
ATOM      1  C   UNL     1      27.945  41.482  19.670  1.00  0.00     0.136 C 
ATOM      2  O   UNL     1      27.509  41.756  18.562  1.00  0.00    -0.299 OA
ENDROOT
BRANCH   1   3
ATOM      3  C   UNL     1      27.238  42.045  20.892  1.00  0.00     0.053 C 
ATOM      4  C   UNL     1      26.477  43.323  20.523  1.00  0.00     0.016 C 
BRANCH   3   5
ATOM      5  C   UNL     1      26.298  41.019  21.556  1.00  0.00     0.015 C 
BRANCH   5   6
ATOM      6  C   UNL     1      25.450  40.259  20.521  1.00  0.00     0.028 C 
BRANCH   6   7
ATOM      7  C   UNL     1      25.279  38.799  20.860  1.00  0.00    -0.028 C 
ATOM      8  C   UNL     1      26.261  37.957  21.269  1.00  0.00    -0.070 CG0
ATOM      9  C   UNL     1      25.850  36.560  21.667  1.00  0.00     0.039 C 
ATOM     10  G   UNL     1      27.746  38.311  21.287  1.00  0.00     0.000 G0
ENDBRANCH   6   7
ENDBRANCH   5   6
ENDBRANCH   3   5
ENDBRANCH   1   3
BRANCH   1  11
ATOM     11  C   UNL     1      29.125  40.541  19.779  1.00  0.00     0.087 C 
BRANCH  11  12
ATOM     12  C   UNL     1      28.889  39.191  19.047  1.00  0.00     0.066 C 
BRANCH  12  13
ATOM     13  C   UNL     1      28.453  38.057  19.971  1.00  0.00     0.140 C 
ATOM     14  O   UNL     1      28.568  36.906  19.575  1.00  0.00    -0.299 OA
BRANCH  13  15
ATOM     15  C   UNL     1      27.748  38.301  21.285  1.00  0.00     0.106 CG0
ATOM     16  G   UNL     1      26.257  37.971  21.267  1.00  0.00     0.000 G0
ENDBRANCH  13  15
ENDBRANCH  12  13
BRANCH  12  17
ATOM     17  C   UNL     1      27.937  39.306  17.811  1.00  0.00    -0.006 C 
ATOM     18  C   UNL     1      26.645  38.495  18.016  1.00  0.00     0.008 C 
ATOM     19  C   UNL     1      28.588  38.908  16.474  1.00  0.00     0.008 C 
ENDBRANCH  12  17
ENDBRANCH  11  12
ENDBRANCH   1  11
TORSDOF 1
ENDMDL
MODEL 4
REMARK VINA RESULT:    -0.952      1.696      4.565
REMARK INTER + INTRA:          -1.054
REMARK INTER:                  -1.608
REMARK INTRA:                   0.554
REMARK UNBOUND:                 0.400
REMARK SMILES CC1=CCC[C@H](C)C(=O)C[C@H](C(C)C)C(=O)C1
REMARK SMILES IDX 8 1 9 2 6 3 7 4 5 5 4 6 3 7 2 8 1 9 10 11 11 12 15 13 16 14
REMARK SMILES IDX 17 15 12 17 13 18 14 19
REMARK H PARENT
REMARK Flexibility Score: 70.00
ROOT
ATOM      1  C   UNL     1      26.033  38.488  21.250  1.00  0.00     0.136 C 
ATOM      2  O   UNL     1      27.124  38.085  21.625  1.00  0.00    -0.299 OA
ENDROOT
BRANCH   1   3
ATOM      3  C   UNL     1      24.934  37.473  20.980  1.00  0.00     0.053 C 
ATOM      4  C   UNL     1      23.570  38.053  21.366  1.00  0.00     0.016 C 
BRANCH   3   5
ATOM      5  C   UNL     1      24.928  36.982  19.519  1.00  0.00     0.015 C 
BRANCH   5   6
ATOM      6  C   UNL     1      25.258  38.113  18.529  1.00  0.00     0.028 C 
BRANCH   6   7
ATOM      7  C   UNL     1      26.665  38.032  17.991  1.00  0.00    -0.028 C 
ATOM      8  C   UNL     1      27.603  39.010  18.069  1.00  0.00    -0.070 CG0
ATOM      9  C   UNL     1      28.988  38.678  17.566  1.00  0.00     0.039 C 
ATOM     10  G   UNL     1      27.331  40.427  18.566  1.00  0.00     0.000 G0
ENDBRANCH   6   7
ENDBRANCH   5   6
ENDBRANCH   3   5
ENDBRANCH   1   3
BRANCH   1  11
ATOM     11  C   UNL     1      25.803  39.979  21.135  1.00  0.00     0.087 C 
BRANCH  11  12
ATOM     12  C   UNL     1      27.122  40.799  21.209  1.00  0.00     0.066 C 
BRANCH  12  13
ATOM     13  C   UNL     1      27.952  40.746  19.928  1.00  0.00     0.140 C 
ATOM     14  O   UNL     1      29.124  41.090  19.980  1.00  0.00    -0.299 OA
BRANCH  13  15
ATOM     15  C   UNL     1      27.348  40.438  18.578  1.00  0.00     0.106 CG0
ATOM     16  G   UNL     1      27.601  39.014  18.088  1.00  0.00     0.000 G0
ENDBRANCH  13  15
ENDBRANCH  12  13
BRANCH  12  17
ATOM     17  C   UNL     1      26.918  42.274  21.687  1.00  0.00    -0.006 C 
ATOM     18  C   UNL     1      26.760  43.236  20.497  1.00  0.00     0.008 C 
ATOM     19  C   UNL     1      28.023  42.792  22.625  1.00  0.00     0.008 C 
ENDBRANCH  12  17
ENDBRANCH  11  12
ENDBRANCH   1  11
TORSDOF 1
ENDMDL
MODEL 5
REMARK VINA RESULT:    -0.068     11.078     14.135
REMARK INTER + INTRA:           0.296
REMARK INTER:                  -0.360
REMARK INTRA:                   0.656
REMARK UNBOUND:                 0.400
REMARK SMILES CC1=CCC[C@H](C)C(=O)C[C@H](C(C)C)C(=O)C1
REMARK SMILES IDX 8 1 9 2 6 3 7 4 5 5 4 6 3 7 2 8 1 9 10 11 11 12 15 13 16 14
REMARK SMILES IDX 17 15 12 17 13 18 14 19
REMARK H PARENT
REMARK Flexibility Score: 70.00
ROOT
ATOM      1  C   UNL     1      28.330  25.524  26.029  1.00  0.00     0.136 C 
ATOM      2  O   UNL     1      29.122  24.627  26.280  1.00  0.00    -0.299 OA
ENDROOT
BRANCH   1   3
ATOM      3  C   UNL     1      26.852  25.185  25.927  1.00  0.00     0.053 C 
ATOM      4  C   UNL     1      26.657  23.902  25.111  1.00  0.00     0.016 C 
BRANCH   3   5
ATOM      5  C   UNL     1      26.177  25.064  27.308  1.00  0.00     0.015 C 
BRANCH   5   6
ATOM      6  C   UNL     1      24.702  25.501  27.269  1.00  0.00     0.028 C 
BRANCH   6   7
ATOM      7  C   UNL     1      24.448  26.783  28.021  1.00  0.00    -0.028 C 
ATOM      8  C   UNL     1      24.666  28.038  27.551  1.00  0.00    -0.070 CG0
ATOM      9  C   UNL     1      24.236  29.188  28.429  1.00  0.00     0.039 C 
ATOM     10  G   UNL     1      25.371  28.353  26.234  1.00  0.00     0.000 G0
ENDBRANCH   6   7
ENDBRANCH   5   6
ENDBRANCH   3   5
ENDBRANCH   1   3
BRANCH   1  11
ATOM     11  C   UNL     1      28.847  26.940  25.899  1.00  0.00     0.087 C 
BRANCH  11  12
ATOM     12  C   UNL     1      27.802  27.907  25.274  1.00  0.00     0.066 C 
BRANCH  12  13
ATOM     13  C   UNL     1      26.854  28.532  26.295  1.00  0.00     0.140 C 
ATOM     14  O   UNL     1      27.334  29.065  27.284  1.00  0.00    -0.299 OA
BRANCH  13  15
ATOM     15  C   UNL     1      25.353  28.382  26.211  1.00  0.00     0.106 CG0
ATOM     16  G   UNL     1      24.679  28.059  27.543  1.00  0.00     0.000 G0
ENDBRANCH  13  15
ENDBRANCH  12  13
BRANCH  12  17
ATOM     17  C   UNL     1      28.433  29.000  24.350  1.00  0.00    -0.006 C 
ATOM     18  C   UNL     1      27.842  30.391  24.637  1.00  0.00     0.008 C 
ATOM     19  C   UNL     1      28.324  28.694  22.845  1.00  0.00     0.008 C 
ENDBRANCH  12  17
ENDBRANCH  11  12
ENDBRANCH   1  11
TORSDOF 1
ENDMDL
MODEL 6
REMARK VINA RESULT:     0.447      2.197      4.923
REMARK INTER + INTRA:           1.082
REMARK INTER:                   0.938
REMARK INTRA:                   0.144
REMARK UNBOUND:                 0.400
REMARK SMILES CC1=CCC[C@H](C)C(=O)C[C@H](C(C)C)C(=O)C1
REMARK SMILES IDX 8 1 9 2 6 3 7 4 5 5 4 6 3 7 2 8 1 9 10 11 11 12 15 13 16 14
REMARK SMILES IDX 17 15 12 17 13 18 14 19
REMARK H PARENT
REMARK Flexibility Score: 70.00
ROOT
ATOM      1  C   UNL     1      25.055  39.670  21.054  1.00  0.00     0.136 C 
ATOM      2  O   UNL     1      24.297  40.265  21.805  1.00  0.00    -0.299 OA
ENDROOT
BRANCH   1   3
ATOM      3  C   UNL     1      24.872  38.172  20.869  1.00  0.00     0.053 C 
ATOM      4  C   UNL     1      23.553  37.717  21.502  1.00  0.00     0.016 C 
BRANCH   3   5
ATOM      5  C   UNL     1      24.947  37.746  19.390  1.00  0.00     0.015 C 
BRANCH   5   6
ATOM      6  C   UNL     1      26.395  37.719  18.869  1.00  0.00     0.028 C 
BRANCH   6   7
ATOM      7  C   UNL     1      27.344  37.017  19.807  1.00  0.00    -0.028 C 
ATOM      8  C   UNL     1      28.354  37.600  20.500  1.00  0.00    -0.070 CG0
ATOM      9  C   UNL     1      29.114  36.731  21.473  1.00  0.00     0.039 C 
ATOM     10  G   UNL     1      28.806  39.045  20.310  1.00  0.00     0.000 G0
ENDBRANCH   6   7
ENDBRANCH   5   6
ENDBRANCH   3   5
ENDBRANCH   1   3
BRANCH   1  11
ATOM     11  C   UNL     1      26.097  40.458  20.291  1.00  0.00     0.087 C 
BRANCH  11  12
ATOM     12  C   UNL     1      27.232  40.999  21.204  1.00  0.00     0.066 C 
BRANCH  12  13
ATOM     13  C   UNL     1      28.403  40.033  21.368  1.00  0.00     0.140 C 
ATOM     14  O   UNL     1      29.112  40.141  22.358  1.00  0.00    -0.299 OA
BRANCH  13  15
ATOM     15  C   UNL     1      28.812  39.057  20.290  1.00  0.00     0.106 CG0
ATOM     16  G   UNL     1      28.341  37.624  20.530  1.00  0.00     0.000 G0
ENDBRANCH  13  15
ENDBRANCH  12  13
BRANCH  12  17
ATOM     17  C   UNL     1      27.732  42.426  20.806  1.00  0.00    -0.006 C 
ATOM     18  C   UNL     1      26.841  43.525  21.411  1.00  0.00     0.008 C 
ATOM     19  C   UNL     1      27.864  42.649  19.288  1.00  0.00     0.008 C 
ENDBRANCH  12  17
ENDBRANCH  11  12
ENDBRANCH   1  11
TORSDOF 1
ENDMDL
