MODEL 1
REMARK VINA RESULT:    -5.288      0.000      0.000
REMARK INTER + INTRA:          -5.733
REMARK INTER:                  -5.597
REMARK INTRA:                  -0.136
REMARK UNBOUND:                -0.136
REMARK SMILES C=C1CC=C(C(C)C)CC1
REMARK SMILES IDX 5 1 4 2 3 3 2 4 1 5 10 6 9 7 6 8 7 9 8 10
REMARK H PARENT
REMARK Flexibility Score: inf
ROOT
ATOM      1  C   UNL     1       4.930   8.242  12.169  1.00  0.00    -0.071 C 
ATOM      2  C   UNL     1       6.267   8.332  11.996  1.00  0.00    -0.023 C 
ATOM      3  C   UNL     1       7.206   7.346  12.641  1.00  0.00     0.057 C 
ATOM      4  C   UNL     1       6.592   5.962  12.685  1.00  0.00    -0.073 C 
ATOM      5  C   UNL     1       7.380   4.878  12.708  1.00  0.00     0.008 C 
ATOM      6  C   UNL     1       5.086   5.800  12.737  1.00  0.00     0.035 C 
ATOM      7  C   UNL     1       4.387   7.131  13.043  1.00  0.00     0.035 C 
ENDROOT
BRANCH   1   8
ATOM      8  C   UNL     1       3.975   9.212  11.489  1.00  0.00     0.008 C 
ATOM      9  C   UNL     1       2.887   9.693  12.456  1.00  0.00     0.012 C 
ATOM     10  C   UNL     1       4.732  10.395  10.876  1.00  0.00     0.012 C 
ENDBRANCH   1   8
TORSDOF 1
ENDMDL
MODEL 2
REMARK VINA RESULT:    -5.228      1.021      4.194
REMARK INTER + INTRA:          -5.671
REMARK INTER:                  -5.526
REMARK INTRA:                  -0.145
REMARK UNBOUND:                -0.136
REMARK SMILES C=C1CC=C(C(C)C)CC1
REMARK SMILES IDX 5 1 4 2 3 3 2 4 1 5 10 6 9 7 6 8 7 9 8 10
REMARK H PARENT
REMARK Flexibility Score: inf
ROOT
ATOM      1  C   UNL     1       5.996   7.275  12.494  1.00  0.00    -0.071 C 
ATOM      2  C   UNL     1       6.293   8.246  11.602  1.00  0.00    -0.023 C 
ATOM      3  C   UNL     1       5.207   8.996  10.875  1.00  0.00     0.057 C 
ATOM      4  C   UNL     1       4.001   9.203  11.767  1.00  0.00    -0.073 C 
ATOM      5  C   UNL     1       3.180  10.242  11.556  1.00  0.00     0.008 C 
ATOM      6  C   UNL     1       3.700   8.219  12.879  1.00  0.00     0.035 C 
ATOM      7  C   UNL     1       4.540   6.942  12.742  1.00  0.00     0.035 C 
ENDROOT
BRANCH   1   8
ATOM      8  C   UNL     1       7.087   6.540  13.259  1.00  0.00     0.008 C 
ATOM      9  C   UNL     1       7.757   5.472  12.387  1.00  0.00     0.012 C 
ATOM     10  C   UNL     1       8.121   7.520  13.826  1.00  0.00     0.012 C 
ENDBRANCH   1   8
TORSDOF 1
ENDMDL
MODEL 3
REMARK VINA RESULT:    -4.932      0.978      4.564
REMARK INTER + INTRA:          -5.356
REMARK INTER:                  -5.207
REMARK INTRA:                  -0.149
REMARK UNBOUND:                -0.136
REMARK SMILES C=C1CC=C(C(C)C)CC1
REMARK SMILES IDX 5 1 4 2 3 3 2 4 1 5 10 6 9 7 6 8 7 9 8 10
REMARK H PARENT
REMARK Flexibility Score: inf
ROOT
ATOM      1  C   UNL     1       5.820   6.649  12.646  1.00  0.00    -0.071 C 
ATOM      2  C   UNL     1       4.486   6.808  12.788  1.00  0.00    -0.023 C 
ATOM      3  C   UNL     1       3.839   8.159  12.623  1.00  0.00     0.057 C 
ATOM      4  C   UNL     1       4.533   8.965  11.546  1.00  0.00    -0.073 C 
ATOM      5  C   UNL     1       3.861   9.911  10.875  1.00  0.00     0.008 C 
ATOM      6  C   UNL     1       6.000   8.727  11.245  1.00  0.00     0.035 C 
ATOM      7  C   UNL     1       6.664   7.866  12.329  1.00  0.00     0.035 C 
ENDROOT
BRANCH   1   8
ATOM      8  C   UNL     1       6.474   5.282  12.773  1.00  0.00     0.008 C 
ATOM      9  C   UNL     1       7.823   5.239  12.047  1.00  0.00     0.012 C 
ATOM     10  C   UNL     1       6.624   4.875  14.244  1.00  0.00     0.012 C 
ENDBRANCH   1   8
TORSDOF 1
ENDMDL
MODEL 4
REMARK VINA RESULT:    -4.897      0.951      1.873
REMARK INTER + INTRA:          -5.320
REMARK INTER:                  -5.135
REMARK INTRA:                  -0.185
REMARK UNBOUND:                -0.136
REMARK SMILES C=C1CC=C(C(C)C)CC1
REMARK SMILES IDX 5 1 4 2 3 3 2 4 1 5 10 6 9 7 6 8 7 9 8 10
REMARK H PARENT
REMARK Flexibility Score: inf
ROOT
ATOM      1  C   UNL     1       4.472   8.620  11.658  1.00  0.00    -0.071 C 
ATOM      2  C   UNL     1       4.026   7.575  12.389  1.00  0.00    -0.023 C 
ATOM      3  C   UNL     1       4.943   6.442  12.771  1.00  0.00     0.057 C 
ATOM      4  C   UNL     1       6.344   6.947  13.046  1.00  0.00    -0.073 C 
ATOM      5  C   UNL     1       7.152   6.270  13.874  1.00  0.00     0.008 C 
ATOM      6  C   UNL     1       6.848   8.200  12.359  1.00  0.00     0.035 C 
ATOM      7  C   UNL     1       5.920   8.626  11.213  1.00  0.00     0.035 C 
ENDROOT
BRANCH   1   8
ATOM      8  C   UNL     1       3.562   9.785  11.302  1.00  0.00     0.008 C 
ATOM      9  C   UNL     1       2.612  10.125  12.456  1.00  0.00     0.012 C 
ATOM     10  C   UNL     1       4.375  11.013  10.875  1.00  0.00     0.012 C 
ENDBRANCH   1   8
TORSDOF 1
ENDMDL
MODEL 5
REMARK VINA RESULT:    -4.425      1.687      3.219
REMARK INTER + INTRA:          -4.820
REMARK INTER:                  -4.638
REMARK INTRA:                  -0.181
REMARK UNBOUND:                -0.136
REMARK SMILES C=C1CC=C(C(C)C)CC1
REMARK SMILES IDX 5 1 4 2 3 3 2 4 1 5 10 6 9 7 6 8 7 9 8 10
REMARK H PARENT
REMARK Flexibility Score: inf
ROOT
ATOM      1  C   UNL     1       5.701   6.820  12.372  1.00  0.00    -0.071 C 
ATOM      2  C   UNL     1       6.665   5.936  12.708  1.00  0.00    -0.023 C 
ATOM      3  C   UNL     1       8.117   6.339  12.738  1.00  0.00     0.057 C 
ATOM      4  C   UNL     1       8.274   7.768  13.215  1.00  0.00    -0.073 C 
ATOM      5  C   UNL     1       9.409   8.157  13.810  1.00  0.00     0.008 C 
ATOM      6  C   UNL     1       7.159   8.770  12.990  1.00  0.00     0.035 C 
ATOM      7  C   UNL     1       6.108   8.233  12.009  1.00  0.00     0.035 C 
ENDROOT
BRANCH   1   8
ATOM      8  C   UNL     1       4.230   6.429  12.377  1.00  0.00     0.008 C 
ATOM      9  C   UNL     1       4.057   4.910  12.481  1.00  0.00     0.012 C 
ATOM     10  C   UNL     1       3.470   7.151  13.495  1.00  0.00     0.012 C 
ENDBRANCH   1   8
TORSDOF 1
ENDMDL
MODEL 6
REMARK VINA RESULT:    -4.403      1.753      3.568
REMARK INTER + INTRA:          -4.797
REMARK INTER:                  -4.625
REMARK INTRA:                  -0.172
REMARK UNBOUND:                -0.136
REMARK SMILES C=C1CC=C(C(C)C)CC1
REMARK SMILES IDX 5 1 4 2 3 3 2 4 1 5 10 6 9 7 6 8 7 9 8 10
REMARK H PARENT
REMARK Flexibility Score: inf
ROOT
ATOM      1  C   UNL     1       6.945   7.468  12.816  1.00  0.00    -0.071 C 
ATOM      2  C   UNL     1       5.735   7.945  12.450  1.00  0.00    -0.023 C 
ATOM      3  C   UNL     1       4.705   7.050  11.812  1.00  0.00     0.057 C 
ATOM      4  C   UNL     1       4.765   5.652  12.392  1.00  0.00    -0.073 C 
ATOM      5  C   UNL     1       3.673   4.875  12.388  1.00  0.00     0.008 C 
ATOM      6  C   UNL     1       6.068   5.117  12.949  1.00  0.00     0.035 C 
ATOM      7  C   UNL     1       7.255   6.008  12.559  1.00  0.00     0.035 C 
ENDROOT
BRANCH   1   8
ATOM      8  C   UNL     1       7.976   8.357  13.496  1.00  0.00     0.008 C 
ATOM      9  C   UNL     1       7.792   8.361  15.018  1.00  0.00     0.012 C 
ATOM     10  C   UNL     1       9.401   7.945  13.112  1.00  0.00     0.012 C 
ENDBRANCH   1   8
TORSDOF 1
ENDMDL
MODEL 7
REMARK VINA RESULT:    -3.600      1.484      4.974
REMARK INTER + INTRA:          -3.947
REMARK INTER:                  -3.764
REMARK INTRA:                  -0.183
REMARK UNBOUND:                -0.136
REMARK SMILES C=C1CC=C(C(C)C)CC1
REMARK SMILES IDX 5 1 4 2 3 3 2 4 1 5 10 6 9 7 6 8 7 9 8 10
REMARK H PARENT
REMARK Flexibility Score: inf
ROOT
ATOM      1  C   UNL     1       4.254   9.266  11.679  1.00  0.00    -0.071 C 
ATOM      2  C   UNL     1       4.738  10.317  10.982  1.00  0.00    -0.023 C 
ATOM      3  C   UNL     1       3.963  11.605  10.875  1.00  0.00     0.057 C 
ATOM      4  C   UNL     1       3.213  11.895  12.158  1.00  0.00    -0.073 C 
ATOM      5  C   UNL     1       2.913  13.158  12.490  1.00  0.00     0.008 C 
ATOM      6  C   UNL     1       2.769  10.756  13.053  1.00  0.00     0.035 C 
ATOM      7  C   UNL     1       2.900   9.400  12.345  1.00  0.00     0.035 C 
ENDROOT
BRANCH   1   8
ATOM      8  C   UNL     1       5.048   7.976  11.823  1.00  0.00     0.008 C 
ATOM      9  C   UNL     1       6.497   8.257  12.238  1.00  0.00     0.012 C 
ATOM     10  C   UNL     1       4.368   7.014  12.804  1.00  0.00     0.012 C 
ENDBRANCH   1   8
TORSDOF 1
ENDMDL
