MODEL 1
REMARK VINA RESULT:    -3.812      0.000      0.000
REMARK INTER + INTRA:          -4.051
REMARK INTER:                  -4.035
REMARK INTRA:                  -0.016
REMARK UNBOUND:                -0.016
REMARK SMILES O=C([O-])c1cccnc1
REMARK SMILES IDX 4 1 5 2 9 3 6 4 8 5 7 6 2 7 1 8 3 9
REMARK H PARENT
REMARK Flexibility Score: inf
ROOT
ATOM      1  C   UNL     1      18.883  44.114   1.409  1.00  0.00     0.016 A 
ATOM      2  C   UNL     1      17.880  43.798   2.340  1.00  0.00     0.013 A 
ATOM      3  C   UNL     1      18.497  44.608   0.151  1.00  0.00     0.120 A 
ATOM      4  C   UNL     1      16.536  43.977   2.008  1.00  0.00     0.021 A 
ATOM      5  N   UNL     1      17.180  44.772  -0.146  1.00  0.00    -0.264 NA
ATOM      6  C   UNL     1      16.202  44.470   0.747  1.00  0.00     0.111 A 
ENDROOT
BRANCH   1   7
ATOM      7  C   UNL     1      20.312  43.929   1.748  1.00  0.00     0.073 C 
ATOM      8  O   UNL     1      20.943  42.920   1.336  1.00  0.00    -0.545 OA
ATOM      9  O   UNL     1      20.976  44.868   2.530  1.00  0.00    -0.545 OA
ENDBRANCH   1   7
TORSDOF 1
ENDMDL
MODEL 2
REMARK VINA RESULT:    -3.738      1.329      1.758
REMARK INTER + INTRA:          -3.973
REMARK INTER:                  -3.949
REMARK INTRA:                  -0.023
REMARK UNBOUND:                -0.016
REMARK SMILES O=C([O-])c1cccnc1
REMARK SMILES IDX 4 1 5 2 9 3 6 4 8 5 7 6 2 7 1 8 3 9
REMARK H PARENT
REMARK Flexibility Score: inf
ROOT
ATOM      1  C   UNL     1      19.143  43.074   0.972  1.00  0.00     0.016 A 
ATOM      2  C   UNL     1      18.513  43.666   2.079  1.00  0.00     0.013 A 
ATOM      3  C   UNL     1      18.347  42.678  -0.118  1.00  0.00     0.120 A 
ATOM      4  C   UNL     1      17.129  43.850   2.082  1.00  0.00     0.021 A 
ATOM      5  N   UNL     1      17.001  42.869  -0.089  1.00  0.00    -0.264 NA
ATOM      6  C   UNL     1      16.382  43.441   0.977  1.00  0.00     0.111 A 
ENDROOT
BRANCH   1   7
ATOM      7  C   UNL     1      20.608  42.873   0.957  1.00  0.00     0.073 C 
ATOM      8  O   UNL     1      21.351  43.513   1.749  1.00  0.00    -0.545 OA
ATOM      9  O   UNL     1      21.187  41.976   0.066  1.00  0.00    -0.545 OA
ENDBRANCH   1   7
TORSDOF 1
ENDMDL
MODEL 3
REMARK VINA RESULT:    -3.682      3.004      3.841
REMARK INTER + INTRA:          -3.914
REMARK INTER:                  -3.895
REMARK INTRA:                  -0.018
REMARK UNBOUND:                -0.016
REMARK SMILES O=C([O-])c1cccnc1
REMARK SMILES IDX 4 1 5 2 9 3 6 4 8 5 7 6 2 7 1 8 3 9
REMARK H PARENT
REMARK Flexibility Score: inf
ROOT
ATOM      1  C   UNL     1      17.398  44.394   0.763  1.00  0.00     0.016 A 
ATOM      2  C   UNL     1      17.558  43.813   2.032  1.00  0.00     0.013 A 
ATOM      3  C   UNL     1      18.549  44.676   0.006  1.00  0.00     0.120 A 
ATOM      4  C   UNL     1      18.836  43.529   2.515  1.00  0.00     0.021 A 
ATOM      5  N   UNL     1      19.783  44.388   0.502  1.00  0.00    -0.264 NA
ATOM      6  C   UNL     1      19.948  43.826   1.728  1.00  0.00     0.111 A 
ENDROOT
BRANCH   1   7
ATOM      7  C   UNL     1      16.049  44.700   0.238  1.00  0.00     0.073 C 
ATOM      8  O   UNL     1      15.281  45.481   0.862  1.00  0.00    -0.545 OA
ATOM      9  O   UNL     1      15.610  44.129  -0.951  1.00  0.00    -0.545 OA
ENDBRANCH   1   7
TORSDOF 1
ENDMDL
MODEL 4
REMARK VINA RESULT:    -3.626      2.805      3.667
REMARK INTER + INTRA:          -3.855
REMARK INTER:                  -3.834
REMARK INTRA:                  -0.021
REMARK UNBOUND:                -0.016
REMARK SMILES O=C([O-])c1cccnc1
REMARK SMILES IDX 4 1 5 2 9 3 6 4 8 5 7 6 2 7 1 8 3 9
REMARK H PARENT
REMARK Flexibility Score: inf
ROOT
ATOM      1  C   UNL     1      18.054  43.250   1.482  1.00  0.00     0.016 A 
ATOM      2  C   UNL     1      19.064  43.935   2.177  1.00  0.00     0.013 A 
ATOM      3  C   UNL     1      18.421  42.449   0.387  1.00  0.00     0.120 A 
ATOM      4  C   UNL     1      20.396  43.812   1.778  1.00  0.00     0.021 A 
ATOM      5  N   UNL     1      19.726  42.346   0.019  1.00  0.00    -0.264 NA
ATOM      6  C   UNL     1      20.711  43.004   0.685  1.00  0.00     0.111 A 
ENDROOT
BRANCH   1   7
ATOM      7  C   UNL     1      16.639  43.373   1.896  1.00  0.00     0.073 C 
ATOM      8  O   UNL     1      15.858  42.387   1.809  1.00  0.00    -0.545 OA
ATOM      9  O   UNL     1      16.150  44.579   2.386  1.00  0.00    -0.545 OA
ENDBRANCH   1   7
TORSDOF 1
ENDMDL
MODEL 5
REMARK VINA RESULT:    -3.569     22.912     23.550
REMARK INTER + INTRA:          -3.793
REMARK INTER:                  -3.775
REMARK INTRA:                  -0.018
REMARK UNBOUND:                -0.016
REMARK SMILES O=C([O-])c1cccnc1
REMARK SMILES IDX 4 1 5 2 9 3 6 4 8 5 7 6 2 7 1 8 3 9
REMARK H PARENT
REMARK Flexibility Score: inf
ROOT
ATOM      1  C   UNL     1      31.425  58.187 -12.494  1.00  0.00     0.016 A 
ATOM      2  C   UNL     1      30.073  58.566 -12.511  1.00  0.00     0.013 A 
ATOM      3  C   UNL     1      32.200  58.521 -11.370  1.00  0.00     0.120 A 
ATOM      4  C   UNL     1      29.527  59.257 -11.429  1.00  0.00     0.021 A 
ATOM      5  N   UNL     1      31.642  59.196 -10.329  1.00  0.00    -0.264 NA
ATOM      6  C   UNL     1      30.335  59.567 -10.335  1.00  0.00     0.111 A 
ENDROOT
BRANCH   1   7
ATOM      7  C   UNL     1      32.017  57.453 -13.635  1.00  0.00     0.073 C 
ATOM      8  O   UNL     1      31.551  56.337 -13.989  1.00  0.00    -0.545 OA
ATOM      9  O   UNL     1      33.097  57.985 -14.330  1.00  0.00    -0.545 OA
ENDBRANCH   1   7
TORSDOF 1
ENDMDL
MODEL 6
REMARK VINA RESULT:    -3.522      1.734      1.961
REMARK INTER + INTRA:          -3.744
REMARK INTER:                  -3.720
REMARK INTRA:                  -0.024
REMARK UNBOUND:                -0.016
REMARK SMILES O=C([O-])c1cccnc1
REMARK SMILES IDX 4 1 5 2 9 3 6 4 8 5 7 6 2 7 1 8 3 9
REMARK H PARENT
REMARK Flexibility Score: inf
ROOT
ATOM      1  C   UNL     1      18.924  43.203   0.596  1.00  0.00     0.016 A 
ATOM      2  C   UNL     1      18.782  42.028  -0.162  1.00  0.00     0.013 A 
ATOM      3  C   UNL     1      17.839  44.095   0.656  1.00  0.00     0.120 A 
ATOM      4  C   UNL     1      17.587  41.768  -0.832  1.00  0.00     0.021 A 
ATOM      5  N   UNL     1      16.685  43.817  -0.007  1.00  0.00    -0.264 NA
ATOM      6  C   UNL     1      16.538  42.683  -0.743  1.00  0.00     0.111 A 
ENDROOT
BRANCH   1   7
ATOM      7  C   UNL     1      20.186  43.490   1.312  1.00  0.00     0.073 C 
ATOM      8  O   UNL     1      21.190  42.743   1.166  1.00  0.00    -0.545 OA
ATOM      9  O   UNL     1      20.281  44.589   2.158  1.00  0.00    -0.545 OA
ENDBRANCH   1   7
TORSDOF 1
ENDMDL
MODEL 7
REMARK VINA RESULT:    -3.442     22.132     23.137
REMARK INTER + INTRA:          -3.660
REMARK INTER:                  -3.642
REMARK INTRA:                  -0.018
REMARK UNBOUND:                -0.016
REMARK SMILES O=C([O-])c1cccnc1
REMARK SMILES IDX 4 1 5 2 9 3 6 4 8 5 7 6 2 7 1 8 3 9
REMARK H PARENT
REMARK Flexibility Score: inf
ROOT
ATOM      1  C   UNL     1      29.836  59.249 -11.340  1.00  0.00     0.016 A 
ATOM      2  C   UNL     1      30.002  58.650 -12.599  1.00  0.00     0.013 A 
ATOM      3  C   UNL     1      30.980  59.494 -10.560  1.00  0.00     0.120 A 
ATOM      4  C   UNL     1      31.278  58.312 -13.051  1.00  0.00     0.021 A 
ATOM      5  N   UNL     1      32.212  59.154 -11.024  1.00  0.00    -0.264 NA
ATOM      6  C   UNL     1      32.383  58.574 -12.241  1.00  0.00     0.111 A 
ENDROOT
BRANCH   1   7
ATOM      7  C   UNL     1      28.488  59.613 -10.850  1.00  0.00     0.073 C 
ATOM      8  O   UNL     1      28.220  60.803 -10.537  1.00  0.00    -0.545 OA
ATOM      9  O   UNL     1      27.499  58.643 -10.727  1.00  0.00    -0.545 OA
ENDBRANCH   1   7
TORSDOF 1
ENDMDL
MODEL 8
REMARK VINA RESULT:    -3.389     22.773     23.433
REMARK INTER + INTRA:          -3.603
REMARK INTER:                  -3.580
REMARK INTRA:                  -0.024
REMARK UNBOUND:                -0.016
REMARK SMILES O=C([O-])c1cccnc1
REMARK SMILES IDX 4 1 5 2 9 3 6 4 8 5 7 6 2 7 1 8 3 9
REMARK H PARENT
REMARK Flexibility Score: inf
ROOT
ATOM      1  C   UNL     1      30.756  58.509 -12.039  1.00  0.00     0.016 A 
ATOM      2  C   UNL     1      30.277  57.521 -12.916  1.00  0.00     0.013 A 
ATOM      3  C   UNL     1      32.140  58.751 -11.997  1.00  0.00     0.120 A 
ATOM      4  C   UNL     1      31.167  56.807 -13.719  1.00  0.00     0.021 A 
ATOM      5  N   UNL     1      32.985  58.041 -12.790  1.00  0.00    -0.264 NA
ATOM      6  C   UNL     1      32.532  57.084 -13.642  1.00  0.00     0.111 A 
ENDROOT
BRANCH   1   7
ATOM      7  C   UNL     1      29.822  59.273 -11.183  1.00  0.00     0.073 C 
ATOM      8  O   UNL     1      30.242  60.211 -10.455  1.00  0.00    -0.545 OA
ATOM      9  O   UNL     1      28.466  58.963 -11.168  1.00  0.00    -0.545 OA
ENDBRANCH   1   7
TORSDOF 1
ENDMDL
