MODEL 1
REMARK VINA RESULT:    -5.865      0.000      0.000
REMARK INTER + INTRA:          -6.737
REMARK INTER:                  -6.551
REMARK INTRA:                  -0.186
REMARK UNBOUND:                -0.186
REMARK SMILES CC(C)c1ccc(C=O)cc1
REMARK SMILES IDX 4 1 5 2 6 3 7 4 10 5 11 6 2 7 1 8 3 9 8 10 9 11
REMARK H PARENT
REMARK Flexibility Score: inf
ROOT
ATOM      1  C   UNL     1     -13.636  -6.584  38.225  1.00  0.00    -0.045 A 
ATOM      2  C   UNL     1     -12.931  -6.850  39.414  1.00  0.00     0.005 A 
ATOM      3  C   UNL     1     -11.886  -7.779  39.427  1.00  0.00     0.012 A 
ATOM      4  C   UNL     1     -11.527  -8.460  38.253  1.00  0.00     0.014 A 
ATOM      5  C   UNL     1     -12.227  -8.197  37.067  1.00  0.00     0.012 A 
ATOM      6  C   UNL     1     -13.272  -7.268  37.052  1.00  0.00     0.005 A 
ENDROOT
BRANCH   1   7
ATOM      7  C   UNL     1     -14.771  -5.579  38.195  1.00  0.00     0.013 C 
ATOM      8  C   UNL     1     -16.133  -6.282  38.222  1.00  0.00     0.012 C 
ATOM      9  C   UNL     1     -14.648  -4.571  39.344  1.00  0.00     0.012 C 
ENDBRANCH   1   7
BRANCH   4  10
ATOM     10  C   UNL     1     -10.428  -9.443  38.248  1.00  0.00     0.260 C 
ATOM     11  O   UNL     1     -10.056  -9.998  37.179  1.00  0.00    -0.298 OA
ENDBRANCH   4  10
TORSDOF 2
ENDMDL
MODEL 2
REMARK VINA RESULT:    -5.860      0.062      1.462
REMARK INTER + INTRA:          -6.731
REMARK INTER:                  -6.545
REMARK INTRA:                  -0.186
REMARK UNBOUND:                -0.186
REMARK SMILES CC(C)c1ccc(C=O)cc1
REMARK SMILES IDX 4 1 5 2 6 3 7 4 10 5 11 6 2 7 1 8 3 9 8 10 9 11
REMARK H PARENT
REMARK Flexibility Score: inf
ROOT
ATOM      1  C   UNL     1     -13.669  -6.585  38.186  1.00  0.00    -0.045 A 
ATOM      2  C   UNL     1     -13.315  -7.261  37.004  1.00  0.00     0.005 A 
ATOM      3  C   UNL     1     -12.261  -8.179  36.999  1.00  0.00     0.012 A 
ATOM      4  C   UNL     1     -11.540  -8.438  38.177  1.00  0.00     0.014 A 
ATOM      5  C   UNL     1     -11.891  -7.765  39.356  1.00  0.00     0.012 A 
ATOM      6  C   UNL     1     -12.945  -6.847  39.362  1.00  0.00     0.005 A 
ENDROOT
BRANCH   1   7
ATOM      7  C   UNL     1     -14.811  -5.586  38.206  1.00  0.00     0.013 C 
ATOM      8  C   UNL     1     -16.167  -6.297  38.287  1.00  0.00     0.012 C 
ATOM      9  C   UNL     1     -14.646  -4.580  39.352  1.00  0.00     0.012 C 
ENDBRANCH   1   7
BRANCH   4  10
ATOM     10  C   UNL     1     -10.425  -9.402  38.191  1.00  0.00     0.260 C 
ATOM     11  O   UNL     1     -10.047  -9.977  37.135  1.00  0.00    -0.298 OA
ENDBRANCH   4  10
TORSDOF 2
ENDMDL
MODEL 3
REMARK VINA RESULT:    -5.613      1.428      1.739
REMARK INTER + INTRA:          -6.456
REMARK INTER:                  -6.264
REMARK INTRA:                  -0.192
REMARK UNBOUND:                -0.186
REMARK SMILES CC(C)c1ccc(C=O)cc1
REMARK SMILES IDX 4 1 5 2 6 3 7 4 10 5 11 6 2 7 1 8 3 9 8 10 9 11
REMARK H PARENT
REMARK Flexibility Score: inf
ROOT
ATOM      1  C   UNL     1     -12.832  -7.203  38.249  1.00  0.00    -0.045 A 
ATOM      2  C   UNL     1     -12.399  -7.234  39.588  1.00  0.00     0.005 A 
ATOM      3  C   UNL     1     -11.423  -8.147  39.998  1.00  0.00     0.012 A 
ATOM      4  C   UNL     1     -10.862  -9.048  39.078  1.00  0.00     0.014 A 
ATOM      5  C   UNL     1     -11.291  -9.019  37.743  1.00  0.00     0.012 A 
ATOM      6  C   UNL     1     -12.267  -8.106  37.332  1.00  0.00     0.005 A 
ENDROOT
BRANCH   1   7
ATOM      7  C   UNL     1     -13.890  -6.218  37.790  1.00  0.00     0.013 C 
ATOM      8  C   UNL     1     -14.332  -6.512  36.352  1.00  0.00     0.012 C 
ATOM      9  C   UNL     1     -15.089  -6.210  38.746  1.00  0.00     0.012 C 
ENDBRANCH   1   7
BRANCH   4  10
ATOM     10  C   UNL     1      -9.831 -10.017  39.492  1.00  0.00     0.260 C 
ATOM     11  O   UNL     1      -9.877 -10.573  40.621  1.00  0.00    -0.298 OA
ENDBRANCH   4  10
TORSDOF 2
ENDMDL
MODEL 4
REMARK VINA RESULT:    -5.610      2.592      4.734
REMARK INTER + INTRA:          -6.453
REMARK INTER:                  -6.269
REMARK INTRA:                  -0.184
REMARK UNBOUND:                -0.186
REMARK SMILES CC(C)c1ccc(C=O)cc1
REMARK SMILES IDX 4 1 5 2 6 3 7 4 10 5 11 6 2 7 1 8 3 9 8 10 9 11
REMARK H PARENT
REMARK Flexibility Score: inf
ROOT
ATOM      1  C   UNL     1     -12.191  -7.957  37.872  1.00  0.00    -0.045 A 
ATOM      2  C   UNL     1     -12.183  -7.479  39.196  1.00  0.00     0.005 A 
ATOM      3  C   UNL     1     -13.101  -6.507  39.606  1.00  0.00     0.012 A 
ATOM      4  C   UNL     1     -14.043  -5.993  38.700  1.00  0.00     0.014 A 
ATOM      5  C   UNL     1     -14.053  -6.467  37.380  1.00  0.00     0.012 A 
ATOM      6  C   UNL     1     -13.136  -7.439  36.969  1.00  0.00     0.005 A 
ENDROOT
BRANCH   1   7
ATOM      7  C   UNL     1     -11.201  -9.011  37.413  1.00  0.00     0.013 C 
ATOM      8  C   UNL     1     -10.160  -8.414  36.459  1.00  0.00     0.012 C 
ATOM      9  C   UNL     1     -10.527  -9.693  38.609  1.00  0.00     0.012 C 
ENDBRANCH   1   7
BRANCH   4  10
ATOM     10  C   UNL     1     -15.018  -4.968  39.114  1.00  0.00     0.260 C 
ATOM     11  O   UNL     1     -16.254  -5.212  39.123  1.00  0.00    -0.298 OA
ENDBRANCH   4  10
TORSDOF 2
ENDMDL
MODEL 5
REMARK VINA RESULT:    -5.489      2.423      4.962
REMARK INTER + INTRA:          -6.317
REMARK INTER:                  -6.125
REMARK INTRA:                  -0.191
REMARK UNBOUND:                -0.186
REMARK SMILES CC(C)c1ccc(C=O)cc1
REMARK SMILES IDX 4 1 5 2 6 3 7 4 10 5 11 6 2 7 1 8 3 9 8 10 9 11
REMARK H PARENT
REMARK Flexibility Score: inf
ROOT
ATOM      1  C   UNL     1     -11.748  -7.948  38.480  1.00  0.00    -0.045 A 
ATOM      2  C   UNL     1     -12.497  -7.761  37.303  1.00  0.00     0.005 A 
ATOM      3  C   UNL     1     -13.633  -6.946  37.305  1.00  0.00     0.012 A 
ATOM      4  C   UNL     1     -14.043  -6.304  38.485  1.00  0.00     0.014 A 
ATOM      5  C   UNL     1     -13.299  -6.489  39.660  1.00  0.00     0.012 A 
ATOM      6  C   UNL     1     -12.163  -7.303  39.658  1.00  0.00     0.005 A 
ENDROOT
BRANCH   1   7
ATOM      7  C   UNL     1     -10.513  -8.829  38.492  1.00  0.00     0.013 C 
ATOM      8  C   UNL     1     -10.288  -9.447  39.877  1.00  0.00     0.012 C 
ATOM      9  C   UNL     1     -10.597  -9.913  37.411  1.00  0.00     0.012 C 
ENDBRANCH   1   7
BRANCH   4  10
ATOM     10  C   UNL     1     -15.239  -5.442  38.508  1.00  0.00     0.260 C 
ATOM     11  O   UNL     1     -16.394  -5.927  38.375  1.00  0.00    -0.298 OA
ENDBRANCH   4  10
TORSDOF 2
ENDMDL
MODEL 6
REMARK VINA RESULT:    -5.462      2.395      4.780
REMARK INTER + INTRA:          -6.287
REMARK INTER:                  -6.091
REMARK INTRA:                  -0.196
REMARK UNBOUND:                -0.186
REMARK SMILES CC(C)c1ccc(C=O)cc1
REMARK SMILES IDX 4 1 5 2 6 3 7 4 10 5 11 6 2 7 1 8 3 9 8 10 9 11
REMARK H PARENT
REMARK Flexibility Score: inf
ROOT
ATOM      1  C   UNL     1     -11.185  -8.353  39.338  1.00  0.00    -0.045 A 
ATOM      2  C   UNL     1     -11.226  -8.762  37.992  1.00  0.00     0.005 A 
ATOM      3  C   UNL     1     -12.165  -8.214  37.112  1.00  0.00     0.012 A 
ATOM      4  C   UNL     1     -13.081  -7.248  37.563  1.00  0.00     0.014 A 
ATOM      5  C   UNL     1     -13.041  -6.840  38.904  1.00  0.00     0.012 A 
ATOM      6  C   UNL     1     -12.103  -7.387  39.784  1.00  0.00     0.005 A 
ENDROOT
BRANCH   1   7
ATOM      7  C   UNL     1     -10.172  -8.939  40.304  1.00  0.00     0.013 C 
ATOM      8  C   UNL     1     -10.620  -8.749  41.758  1.00  0.00     0.012 C 
ATOM      9  C   UNL     1      -9.907 -10.418  39.997  1.00  0.00     0.012 C 
ENDBRANCH   1   7
BRANCH   4  10
ATOM     10  C   UNL     1     -14.078  -6.660  36.650  1.00  0.00     0.260 C 
ATOM     11  O   UNL     1     -14.833  -5.724  37.027  1.00  0.00    -0.298 OA
ENDBRANCH   4  10
TORSDOF 2
ENDMDL
MODEL 7
REMARK VINA RESULT:    -5.342      2.358      5.015
REMARK INTER + INTRA:          -6.153
REMARK INTER:                  -5.970
REMARK INTRA:                  -0.184
REMARK UNBOUND:                -0.186
REMARK SMILES CC(C)c1ccc(C=O)cc1
REMARK SMILES IDX 4 1 5 2 6 3 7 4 10 5 11 6 2 7 1 8 3 9 8 10 9 11
REMARK H PARENT
REMARK Flexibility Score: inf
ROOT
ATOM      1  C   UNL     1     -10.635  -9.422  39.249  1.00  0.00    -0.045 A 
ATOM      2  C   UNL     1     -11.253  -8.360  39.935  1.00  0.00     0.005 A 
ATOM      3  C   UNL     1     -12.153  -7.517  39.276  1.00  0.00     0.012 A 
ATOM      4  C   UNL     1     -12.450  -7.718  37.918  1.00  0.00     0.014 A 
ATOM      5  C   UNL     1     -11.835  -8.776  37.232  1.00  0.00     0.012 A 
ATOM      6  C   UNL     1     -10.936  -9.620  37.890  1.00  0.00     0.005 A 
ENDROOT
BRANCH   1   7
ATOM      7  C   UNL     1      -9.657 -10.345  39.951  1.00  0.00     0.013 C 
ATOM      8  C   UNL     1      -8.215 -10.057  39.517  1.00  0.00     0.012 C 
ATOM      9  C   UNL     1      -9.804 -10.251  41.474  1.00  0.00     0.012 C 
ENDBRANCH   1   7
BRANCH   4  10
ATOM     10  C   UNL     1     -13.396  -6.839  37.206  1.00  0.00     0.260 C 
ATOM     11  O   UNL     1     -14.555  -6.632  37.653  1.00  0.00    -0.298 OA
ENDBRANCH   4  10
TORSDOF 2
ENDMDL
MODEL 8
REMARK VINA RESULT:    -5.306      3.233      4.717
REMARK INTER + INTRA:          -6.112
REMARK INTER:                  -5.922
REMARK INTRA:                  -0.190
REMARK UNBOUND:                -0.186
REMARK SMILES CC(C)c1ccc(C=O)cc1
REMARK SMILES IDX 4 1 5 2 6 3 7 4 10 5 11 6 2 7 1 8 3 9 8 10 9 11
REMARK H PARENT
REMARK Flexibility Score: inf
ROOT
ATOM      1  C   UNL     1     -16.609  -6.340  40.808  1.00  0.00    -0.045 A 
ATOM      2  C   UNL     1     -17.345  -6.593  39.635  1.00  0.00     0.005 A 
ATOM      3  C   UNL     1     -16.752  -6.444  38.378  1.00  0.00     0.012 A 
ATOM      4  C   UNL     1     -15.411  -6.038  38.270  1.00  0.00     0.014 A 
ATOM      5  C   UNL     1     -14.675  -5.785  39.437  1.00  0.00     0.012 A 
ATOM      6  C   UNL     1     -15.268  -5.934  40.694  1.00  0.00     0.005 A 
ENDROOT
BRANCH   1   7
ATOM      7  C   UNL     1     -17.240  -6.498  42.179  1.00  0.00     0.013 C 
ATOM      8  C   UNL     1     -18.025  -7.811  42.278  1.00  0.00     0.012 C 
ATOM      9  C   UNL     1     -16.185  -6.401  43.287  1.00  0.00     0.012 C 
ENDBRANCH   1   7
BRANCH   4  10
ATOM     10  C   UNL     1     -14.768  -5.875  36.953  1.00  0.00     0.260 C 
ATOM     11  O   UNL     1     -13.835  -6.638  36.585  1.00  0.00    -0.298 OA
ENDBRANCH   4  10
TORSDOF 2
ENDMDL
MODEL 9
REMARK VINA RESULT:    -5.293      1.600      2.471
REMARK INTER + INTRA:          -6.098
REMARK INTER:                  -5.908
REMARK INTRA:                  -0.190
REMARK UNBOUND:                -0.186
REMARK SMILES CC(C)c1ccc(C=O)cc1
REMARK SMILES IDX 4 1 5 2 6 3 7 4 10 5 11 6 2 7 1 8 3 9 8 10 9 11
REMARK H PARENT
REMARK Flexibility Score: inf
ROOT
ATOM      1  C   UNL     1     -13.643  -6.392  38.871  1.00  0.00    -0.045 A 
ATOM      2  C   UNL     1     -12.793  -7.317  38.237  1.00  0.00     0.005 A 
ATOM      3  C   UNL     1     -11.803  -7.986  38.963  1.00  0.00     0.012 A 
ATOM      4  C   UNL     1     -11.644  -7.742  40.337  1.00  0.00     0.014 A 
ATOM      5  C   UNL     1     -12.490  -6.821  40.972  1.00  0.00     0.012 A 
ATOM      6  C   UNL     1     -13.480  -6.151  40.247  1.00  0.00     0.005 A 
ENDROOT
BRANCH   1   7
ATOM      7  C   UNL     1     -14.722  -5.659  38.096  1.00  0.00     0.013 C 
ATOM      8  C   UNL     1     -14.714  -6.066  36.618  1.00  0.00     0.012 C 
ATOM      9  C   UNL     1     -16.103  -5.884  38.722  1.00  0.00     0.012 C 
ENDBRANCH   1   7
BRANCH   4  10
ATOM     10  C   UNL     1     -10.606  -8.437  41.120  1.00  0.00     0.260 C 
ATOM     11  O   UNL     1     -10.175  -9.569  40.769  1.00  0.00    -0.298 OA
ENDBRANCH   4  10
TORSDOF 2
ENDMDL
