MODEL 1
REMARK VINA RESULT:    -4.629      0.000      0.000
REMARK INTER + INTRA:         -10.976
REMARK INTER:                  -8.418
REMARK INTRA:                  -2.558
REMARK UNBOUND:                -2.558
REMARK SMILES CCCCCC=CCC=CCCCCCCCC(=O)[O-]
REMARK SMILES IDX 11 1 12 2 13 3 14 4 15 5 16 6 17 7 18 8 19 9 20 10 10 11
REMARK SMILES IDX 9 12 8 13 7 14 6 15 5 16 4 17 3 18 2 19 1 20
REMARK H PARENT
REMARK Flexibility Score: inf
ROOT
ATOM      1  C   UNL     1       6.449  45.219  16.743  1.00  0.00     0.027 C 
ENDROOT
BRANCH   1   2
ATOM      2  C   UNL     1       5.256  45.045  15.790  1.00  0.00     0.004 C 
BRANCH   2   3
ATOM      3  C   UNL     1       5.475  43.894  14.797  1.00  0.00     0.000 C 
BRANCH   3   4
ATOM      4  C   UNL     1       4.458  42.769  15.024  1.00  0.00     0.000 C 
BRANCH   4   5
ATOM      5  C   UNL     1       5.153  41.486  15.496  1.00  0.00     0.000 C 
BRANCH   5   6
ATOM      6  C   UNL     1       4.755  40.290  14.623  1.00  0.00     0.006 C 
BRANCH   6   7
ATOM      7  C   UNL     1       4.961  40.605  13.138  1.00  0.00     0.053 C 
BRANCH   7   8
ATOM      8  C   UNL     1       3.917  39.929  12.306  1.00  0.00     0.041 C 
ATOM      9  O   UNL     1       2.812  39.602  12.816  1.00  0.00    -0.550 OA
ATOM     10  O   UNL     1       4.178  39.629  10.974  1.00  0.00    -0.550 OA
ENDBRANCH   7   8
ENDBRANCH   6   7
ENDBRANCH   5   6
ENDBRANCH   4   5
ENDBRANCH   3   4
ENDBRANCH   2   3
ENDBRANCH   1   2
BRANCH   1  11
ATOM     11  C   UNL     1       7.609  44.334  16.359  1.00  0.00    -0.031 C 
ATOM     12  C   UNL     1       8.152  43.395  17.156  1.00  0.00    -0.027 C 
BRANCH  12  13
ATOM     13  C   UNL     1       7.737  43.141  18.582  1.00  0.00     0.054 C 
BRANCH  13  14
ATOM     14  C   UNL     1       6.544  42.219  18.611  1.00  0.00    -0.027 C 
ATOM     15  C   UNL     1       5.324  42.538  19.086  1.00  0.00    -0.031 C 
BRANCH  15  16
ATOM     16  C   UNL     1       4.936  43.882  19.655  1.00  0.00     0.027 C 
BRANCH  16  17
ATOM     17  C   UNL     1       3.522  44.309  19.233  1.00  0.00     0.004 C 
BRANCH  17  18
ATOM     18  C   UNL     1       2.902  43.326  18.223  1.00  0.00     0.000 C 
BRANCH  18  19
ATOM     19  C   UNL     1       1.514  42.833  18.660  1.00  0.00    -0.003 C 
ATOM     20  C   UNL     1       1.375  42.730  20.179  1.00  0.00     0.004 C 
ENDBRANCH  18  19
ENDBRANCH  17  18
ENDBRANCH  16  17
ENDBRANCH  15  16
ENDBRANCH  13  14
ENDBRANCH  12  13
ENDBRANCH   1  11
TORSDOF 14
ENDMDL
MODEL 2
REMARK VINA RESULT:    -4.626      3.098      6.691
REMARK INTER + INTRA:         -10.970
REMARK INTER:                  -9.878
REMARK INTRA:                  -1.092
REMARK UNBOUND:                -2.558
REMARK SMILES CCCCCC=CCC=CCCCCCCCC(=O)[O-]
REMARK SMILES IDX 11 1 12 2 13 3 14 4 15 5 16 6 17 7 18 8 19 9 20 10 10 11
REMARK SMILES IDX 9 12 8 13 7 14 6 15 5 16 4 17 3 18 2 19 1 20
REMARK H PARENT
REMARK Flexibility Score: inf
ROOT
ATOM      1  C   UNL     1       3.540  42.957  17.371  1.00  0.00     0.027 C 
ENDROOT
BRANCH   1   2
ATOM      2  C   UNL     1       2.319  43.453  18.161  1.00  0.00     0.004 C 
BRANCH   2   3
ATOM      3  C   UNL     1       2.457  43.182  19.666  1.00  0.00     0.000 C 
BRANCH   3   4
ATOM      4  C   UNL     1       1.092  42.899  20.303  1.00  0.00     0.000 C 
BRANCH   4   5
ATOM      5  C   UNL     1      -0.030  42.980  19.260  1.00  0.00     0.000 C 
BRANCH   5   6
ATOM      6  C   UNL     1      -0.473  41.581  18.817  1.00  0.00     0.006 C 
BRANCH   6   7
ATOM      7  C   UNL     1      -1.935  41.326  19.195  1.00  0.00     0.053 C 
BRANCH   7   8
ATOM      8  C   UNL     1      -2.667  40.677  18.063  1.00  0.00     0.041 C 
ATOM      9  O   UNL     1      -3.877  40.953  17.847  1.00  0.00    -0.550 OA
ATOM     10  O   UNL     1      -2.020  39.740  17.265  1.00  0.00    -0.550 OA
ENDBRANCH   7   8
ENDBRANCH   6   7
ENDBRANCH   5   6
ENDBRANCH   4   5
ENDBRANCH   3   4
ENDBRANCH   2   3
ENDBRANCH   1   2
BRANCH   1  11
ATOM     11  C   UNL     1       4.500  44.078  17.057  1.00  0.00    -0.031 C 
ATOM     12  C   UNL     1       4.913  44.408  15.819  1.00  0.00    -0.027 C 
BRANCH  12  13
ATOM     13  C   UNL     1       4.544  43.655  14.567  1.00  0.00     0.054 C 
BRANCH  13  14
ATOM     14  C   UNL     1       5.746  42.910  14.045  1.00  0.00    -0.027 C 
ATOM     15  C   UNL     1       6.000  41.603  14.246  1.00  0.00    -0.031 C 
BRANCH  15  16
ATOM     16  C   UNL     1       5.115  40.653  15.016  1.00  0.00     0.027 C 
BRANCH  16  17
ATOM     17  C   UNL     1       4.104  39.932  14.111  1.00  0.00     0.004 C 
BRANCH  17  18
ATOM     18  C   UNL     1       4.456  40.085  12.620  1.00  0.00     0.000 C 
BRANCH  18  19
ATOM     19  C   UNL     1       3.222  39.982  11.712  1.00  0.00    -0.003 C 
ATOM     20  C   UNL     1       3.520  39.276  10.388  1.00  0.00     0.004 C 
ENDBRANCH  18  19
ENDBRANCH  17  18
ENDBRANCH  16  17
ENDBRANCH  15  16
ENDBRANCH  13  14
ENDBRANCH  12  13
ENDBRANCH   1  11
TORSDOF 14
ENDMDL
MODEL 3
REMARK VINA RESULT:    -4.491     13.573     16.271
REMARK INTER + INTRA:         -10.724
REMARK INTER:                  -8.157
REMARK INTRA:                  -2.567
REMARK UNBOUND:                -2.558
REMARK SMILES CCCCCC=CCC=CCCCCCCCC(=O)[O-]
REMARK SMILES IDX 11 1 12 2 13 3 14 4 15 5 16 6 17 7 18 8 19 9 20 10 10 11
REMARK SMILES IDX 9 12 8 13 7 14 6 15 5 16 4 17 3 18 2 19 1 20
REMARK H PARENT
REMARK Flexibility Score: inf
ROOT
ATOM      1  C   UNL     1       1.106  33.049   7.610  1.00  0.00     0.027 C 
ENDROOT
BRANCH   1   2
ATOM      2  C   UNL     1       0.010  34.097   7.361  1.00  0.00     0.004 C 
BRANCH   2   3
ATOM      3  C   UNL     1      -0.158  34.412   5.868  1.00  0.00     0.000 C 
BRANCH   3   4
ATOM      4  C   UNL     1      -1.520  33.934   5.353  1.00  0.00     0.000 C 
BRANCH   4   5
ATOM      5  C   UNL     1      -1.356  32.996   4.151  1.00  0.00     0.000 C 
BRANCH   5   6
ATOM      6  C   UNL     1      -1.856  31.585   4.479  1.00  0.00     0.006 C 
BRANCH   6   7
ATOM      7  C   UNL     1      -1.298  30.563   3.484  1.00  0.00     0.053 C 
BRANCH   7   8
ATOM      8  C   UNL     1      -1.615  29.169   3.927  1.00  0.00     0.041 C 
ATOM      9  O   UNL     1      -0.822  28.545   4.680  1.00  0.00    -0.550 OA
ATOM     10  O   UNL     1      -2.773  28.545   3.477  1.00  0.00    -0.550 OA
ENDBRANCH   7   8
ENDBRANCH   6   7
ENDBRANCH   5   6
ENDBRANCH   4   5
ENDBRANCH   3   4
ENDBRANCH   2   3
ENDBRANCH   1   2
BRANCH   1  11
ATOM     11  C   UNL     1       0.605  31.645   7.376  1.00  0.00    -0.031 C 
ATOM     12  C   UNL     1       1.112  30.794   6.465  1.00  0.00    -0.027 C 
BRANCH  12  13
ATOM     13  C   UNL     1       2.202  31.141   5.485  1.00  0.00     0.054 C 
BRANCH  13  14
ATOM     14  C   UNL     1       3.026  29.916   5.179  1.00  0.00    -0.027 C 
ATOM     15  C   UNL     1       3.915  29.347   6.016  1.00  0.00    -0.031 C 
BRANCH  15  16
ATOM     16  C   UNL     1       4.226  29.827   7.412  1.00  0.00     0.027 C 
BRANCH  16  17
ATOM     17  C   UNL     1       5.244  30.979   7.421  1.00  0.00     0.004 C 
BRANCH  17  18
ATOM     18  C   UNL     1       4.805  32.127   8.348  1.00  0.00     0.000 C 
BRANCH  18  19
ATOM     19  C   UNL     1       4.768  33.482   7.627  1.00  0.00    -0.003 C 
ATOM     20  C   UNL     1       5.168  33.379   6.155  1.00  0.00     0.004 C 
ENDBRANCH  18  19
ENDBRANCH  17  18
ENDBRANCH  16  17
ENDBRANCH  15  16
ENDBRANCH  13  14
ENDBRANCH  12  13
ENDBRANCH   1  11
TORSDOF 14
ENDMDL
MODEL 4
REMARK VINA RESULT:    -4.488     13.561     16.143
REMARK INTER + INTRA:         -10.719
REMARK INTER:                  -8.133
REMARK INTRA:                  -2.586
REMARK UNBOUND:                -2.558
REMARK SMILES CCCCCC=CCC=CCCCCCCCC(=O)[O-]
REMARK SMILES IDX 11 1 12 2 13 3 14 4 15 5 16 6 17 7 18 8 19 9 20 10 10 11
REMARK SMILES IDX 9 12 8 13 7 14 6 15 5 16 4 17 3 18 2 19 1 20
REMARK H PARENT
REMARK Flexibility Score: inf
ROOT
ATOM      1  C   UNL     1      -0.392  30.844   4.759  1.00  0.00     0.027 C 
ENDROOT
BRANCH   1   2
ATOM      2  C   UNL     1       0.664  30.382   5.775  1.00  0.00     0.004 C 
BRANCH   2   3
ATOM      3  C   UNL     1       1.662  29.390   5.160  1.00  0.00     0.000 C 
BRANCH   3   4
ATOM      4  C   UNL     1       3.101  29.901   5.291  1.00  0.00     0.000 C 
BRANCH   4   5
ATOM      5  C   UNL     1       3.383  30.390   6.717  1.00  0.00     0.000 C 
BRANCH   5   6
ATOM      6  C   UNL     1       4.849  30.152   7.102  1.00  0.00     0.006 C 
BRANCH   6   7
ATOM      7  C   UNL     1       4.972  29.792   8.586  1.00  0.00     0.053 C 
BRANCH   7   8
ATOM      8  C   UNL     1       5.591  30.920   9.351  1.00  0.00     0.041 C 
ATOM      9  O   UNL     1       6.250  30.690  10.399  1.00  0.00    -0.550 OA
ATOM     10  O   UNL     1       5.408  32.230   8.924  1.00  0.00    -0.550 OA
ENDBRANCH   7   8
ENDBRANCH   6   7
ENDBRANCH   5   6
ENDBRANCH   4   5
ENDBRANCH   3   4
ENDBRANCH   2   3
ENDBRANCH   1   2
BRANCH   1  11
ATOM     11  C   UNL     1       0.205  31.723   3.687  1.00  0.00    -0.031 C 
ATOM     12  C   UNL     1      -0.415  32.781   3.133  1.00  0.00    -0.027 C 
BRANCH  12  13
ATOM     13  C   UNL     1      -1.830  33.198   3.439  1.00  0.00     0.054 C 
BRANCH  13  14
ATOM     14  C   UNL     1      -1.828  34.510   4.182  1.00  0.00    -0.027 C 
ATOM     15  C   UNL     1      -1.955  34.650   5.516  1.00  0.00    -0.031 C 
BRANCH  15  16
ATOM     16  C   UNL     1      -2.102  33.515   6.500  1.00  0.00     0.027 C 
BRANCH  16  17
ATOM     17  C   UNL     1      -0.898  33.402   7.447  1.00  0.00     0.004 C 
BRANCH  17  18
ATOM     18  C   UNL     1       0.209  34.411   7.092  1.00  0.00     0.000 C 
BRANCH  18  19
ATOM     19  C   UNL     1       1.507  33.725   6.642  1.00  0.00    -0.003 C 
ATOM     20  C   UNL     1       2.122  34.379   5.404  1.00  0.00     0.004 C 
ENDBRANCH  18  19
ENDBRANCH  17  18
ENDBRANCH  16  17
ENDBRANCH  15  16
ENDBRANCH  13  14
ENDBRANCH  12  13
ENDBRANCH   1  11
TORSDOF 14
ENDMDL
MODEL 5
REMARK VINA RESULT:    -4.475     13.138     15.237
REMARK INTER + INTRA:         -10.695
REMARK INTER:                  -8.075
REMARK INTRA:                  -2.620
REMARK UNBOUND:                -2.558
REMARK SMILES CCCCCC=CCC=CCCCCCCCC(=O)[O-]
REMARK SMILES IDX 11 1 12 2 13 3 14 4 15 5 16 6 17 7 18 8 19 9 20 10 10 11
REMARK SMILES IDX 9 12 8 13 7 14 6 15 5 16 4 17 3 18 2 19 1 20
REMARK H PARENT
REMARK Flexibility Score: inf
ROOT
ATOM      1  C   UNL     1       5.258  30.245   7.469  1.00  0.00     0.027 C 
ENDROOT
BRANCH   1   2
ATOM      2  C   UNL     1       3.899  29.549   7.306  1.00  0.00     0.004 C 
BRANCH   2   3
ATOM      3  C   UNL     1       3.450  29.496   5.838  1.00  0.00     0.000 C 
BRANCH   3   4
ATOM      4  C   UNL     1       2.761  30.802   5.425  1.00  0.00     0.000 C 
BRANCH   4   5
ATOM      5  C   UNL     1       1.800  31.287   6.517  1.00  0.00     0.000 C 
BRANCH   5   6
ATOM      6  C   UNL     1       0.734  32.224   5.938  1.00  0.00     0.006 C 
BRANCH   6   7
ATOM      7  C   UNL     1       0.253  33.223   6.995  1.00  0.00     0.053 C 
BRANCH   7   8
ATOM      8  C   UNL     1      -1.057  33.825   6.593  1.00  0.00     0.041 C 
ATOM      9  O   UNL     1      -1.113  34.643   5.636  1.00  0.00    -0.550 OA
ATOM     10  O   UNL     1      -2.211  33.511   7.300  1.00  0.00    -0.550 OA
ENDBRANCH   7   8
ENDBRANCH   6   7
ENDBRANCH   5   6
ENDBRANCH   4   5
ENDBRANCH   3   4
ENDBRANCH   2   3
ENDBRANCH   1   2
BRANCH   1  11
ATOM     11  C   UNL     1       5.220  31.311   8.537  1.00  0.00    -0.031 C 
ATOM     12  C   UNL     1       5.113  32.631   8.296  1.00  0.00    -0.027 C 
BRANCH  12  13
ATOM     13  C   UNL     1       5.097  33.251   6.924  1.00  0.00     0.054 C 
BRANCH  13  14
ATOM     14  C   UNL     1       4.147  34.421   6.900  1.00  0.00    -0.027 C 
ATOM     15  C   UNL     1       3.489  34.868   5.814  1.00  0.00    -0.031 C 
BRANCH  15  16
ATOM     16  C   UNL     1       3.576  34.263   4.434  1.00  0.00     0.027 C 
BRANCH  16  17
ATOM     17  C   UNL     1       4.389  35.134   3.464  1.00  0.00     0.004 C 
BRANCH  17  18
ATOM     18  C   UNL     1       5.803  34.570   3.232  1.00  0.00     0.000 C 
BRANCH  18  19
ATOM     19  C   UNL     1       6.854  35.230   4.135  1.00  0.00    -0.003 C 
ATOM     20  C   UNL     1       7.850  34.225   4.715  1.00  0.00     0.004 C 
ENDBRANCH  18  19
ENDBRANCH  17  18
ENDBRANCH  16  17
ENDBRANCH  15  16
ENDBRANCH  13  14
ENDBRANCH  12  13
ENDBRANCH   1  11
TORSDOF 14
ENDMDL
MODEL 6
REMARK VINA RESULT:    -4.466     13.647     15.859
REMARK INTER + INTRA:         -10.680
REMARK INTER:                  -8.516
REMARK INTRA:                  -2.164
REMARK UNBOUND:                -2.558
REMARK SMILES CCCCCC=CCC=CCCCCCCCC(=O)[O-]
REMARK SMILES IDX 11 1 12 2 13 3 14 4 15 5 16 6 17 7 18 8 19 9 20 10 10 11
REMARK SMILES IDX 9 12 8 13 7 14 6 15 5 16 4 17 3 18 2 19 1 20
REMARK H PARENT
REMARK Flexibility Score: inf
ROOT
ATOM      1  C   UNL     1       5.139  30.137   7.757  1.00  0.00     0.027 C 
ENDROOT
BRANCH   1   2
ATOM      2  C   UNL     1       3.702  29.965   7.243  1.00  0.00     0.004 C 
BRANCH   2   3
ATOM      3  C   UNL     1       3.664  29.464   5.792  1.00  0.00     0.000 C 
BRANCH   3   4
ATOM      4  C   UNL     1       2.452  30.030   5.044  1.00  0.00     0.000 C 
BRANCH   4   5
ATOM      5  C   UNL     1       1.190  29.212   5.343  1.00  0.00     0.000 C 
BRANCH   5   6
ATOM      6  C   UNL     1      -0.068  29.938   4.851  1.00  0.00     0.006 C 
BRANCH   6   7
ATOM      7  C   UNL     1      -0.722  29.173   3.696  1.00  0.00     0.053 C 
BRANCH   7   8
ATOM      8  C   UNL     1      -2.204  29.091   3.892  1.00  0.00     0.041 C 
ATOM      9  O   UNL     1      -2.780  27.971   3.917  1.00  0.00    -0.550 OA
ATOM     10  O   UNL     1      -2.954  30.255   4.011  1.00  0.00    -0.550 OA
ENDBRANCH   7   8
ENDBRANCH   6   7
ENDBRANCH   5   6
ENDBRANCH   4   5
ENDBRANCH   3   4
ENDBRANCH   2   3
ENDBRANCH   1   2
BRANCH   1  11
ATOM     11  C   UNL     1       5.268  31.320   8.684  1.00  0.00    -0.031 C 
ATOM     12  C   UNL     1       5.394  32.598   8.280  1.00  0.00    -0.027 C 
BRANCH  12  13
ATOM     13  C   UNL     1       5.510  33.032   6.842  1.00  0.00     0.054 C 
BRANCH  13  14
ATOM     14  C   UNL     1       4.830  34.364   6.652  1.00  0.00    -0.027 C 
ATOM     15  C   UNL     1       3.525  34.539   6.369  1.00  0.00    -0.031 C 
BRANCH  15  16
ATOM     16  C   UNL     1       2.513  33.431   6.211  1.00  0.00     0.027 C 
BRANCH  16  17
ATOM     17  C   UNL     1       1.788  33.110   7.527  1.00  0.00     0.004 C 
BRANCH  17  18
ATOM     18  C   UNL     1       0.334  32.663   7.289  1.00  0.00     0.000 C 
BRANCH  18  19
ATOM     19  C   UNL     1      -0.524  33.769   6.658  1.00  0.00    -0.003 C 
ATOM     20  C   UNL     1      -1.752  33.221   5.931  1.00  0.00     0.004 C 
ENDBRANCH  18  19
ENDBRANCH  17  18
ENDBRANCH  16  17
ENDBRANCH  15  16
ENDBRANCH  13  14
ENDBRANCH  12  13
ENDBRANCH   1  11
TORSDOF 14
ENDMDL
MODEL 7
REMARK VINA RESULT:    -4.458     13.410     15.963
REMARK INTER + INTRA:         -10.664
REMARK INTER:                  -7.967
REMARK INTRA:                  -2.697
REMARK UNBOUND:                -2.558
REMARK SMILES CCCCCC=CCC=CCCCCCCCC(=O)[O-]
REMARK SMILES IDX 11 1 12 2 13 3 14 4 15 5 16 6 17 7 18 8 19 9 20 10 10 11
REMARK SMILES IDX 9 12 8 13 7 14 6 15 5 16 4 17 3 18 2 19 1 20
REMARK H PARENT
REMARK Flexibility Score: inf
ROOT
ATOM      1  C   UNL     1       5.314  32.778   6.694  1.00  0.00     0.027 C 
ENDROOT
BRANCH   1   2
ATOM      2  C   UNL     1       5.637  31.837   7.865  1.00  0.00     0.004 C 
BRANCH   2   3
ATOM      3  C   UNL     1       5.232  30.386   7.567  1.00  0.00     0.000 C 
BRANCH   3   4
ATOM      4  C   UNL     1       3.736  30.285   7.248  1.00  0.00     0.000 C 
BRANCH   4   5
ATOM      5  C   UNL     1       3.504  29.533   5.931  1.00  0.00     0.000 C 
BRANCH   5   6
ATOM      6  C   UNL     1       2.777  30.417   4.911  1.00  0.00     0.006 C 
BRANCH   6   7
ATOM      7  C   UNL     1       1.258  30.292   5.065  1.00  0.00     0.053 C 
BRANCH   7   8
ATOM      8  C   UNL     1       0.764  29.040   4.412  1.00  0.00     0.041 C 
ATOM      9  O   UNL     1       0.746  28.943   3.156  1.00  0.00    -0.550 OA
ATOM     10  O   UNL     1       0.288  27.993   5.191  1.00  0.00    -0.550 OA
ENDBRANCH   7   8
ENDBRANCH   6   7
ENDBRANCH   5   6
ENDBRANCH   4   5
ENDBRANCH   3   4
ENDBRANCH   2   3
ENDBRANCH   1   2
BRANCH   1  11
ATOM     11  C   UNL     1       4.832  34.126   7.172  1.00  0.00    -0.031 C 
ATOM     12  C   UNL     1       3.598  34.618   6.955  1.00  0.00    -0.027 C 
BRANCH  12  13
ATOM     13  C   UNL     1       2.538  33.933   6.132  1.00  0.00     0.054 C 
BRANCH  13  14
ATOM     14  C   UNL     1       2.278  34.721   4.874  1.00  0.00    -0.027 C 
ATOM     15  C   UNL     1       2.890  34.524   3.690  1.00  0.00    -0.031 C 
BRANCH  15  16
ATOM     16  C   UNL     1       3.931  33.466   3.415  1.00  0.00     0.027 C 
BRANCH  16  17
ATOM     17  C   UNL     1       5.243  34.062   2.881  1.00  0.00     0.004 C 
BRANCH  17  18
ATOM     18  C   UNL     1       5.674  35.309   3.674  1.00  0.00     0.000 C 
BRANCH  18  19
ATOM     19  C   UNL     1       6.989  35.094   4.437  1.00  0.00    -0.003 C 
ATOM     20  C   UNL     1       7.870  34.017   3.803  1.00  0.00     0.004 C 
ENDBRANCH  18  19
ENDBRANCH  17  18
ENDBRANCH  16  17
ENDBRANCH  15  16
ENDBRANCH  13  14
ENDBRANCH  12  13
ENDBRANCH   1  11
TORSDOF 14
ENDMDL
MODEL 8
REMARK VINA RESULT:    -4.385     13.566     15.251
REMARK INTER + INTRA:         -10.532
REMARK INTER:                  -7.938
REMARK INTRA:                  -2.594
REMARK UNBOUND:                -2.558
REMARK SMILES CCCCCC=CCC=CCCCCCCCC(=O)[O-]
REMARK SMILES IDX 11 1 12 2 13 3 14 4 15 5 16 6 17 7 18 8 19 9 20 10 10 11
REMARK SMILES IDX 9 12 8 13 7 14 6 15 5 16 4 17 3 18 2 19 1 20
REMARK H PARENT
REMARK Flexibility Score: inf
ROOT
ATOM      1  C   UNL     1       1.452  32.654   7.375  1.00  0.00     0.027 C 
ENDROOT
BRANCH   1   2
ATOM      2  C   UNL     1      -0.038  32.380   7.117  1.00  0.00     0.004 C 
BRANCH   2   3
ATOM      3  C   UNL     1      -0.918  33.583   7.486  1.00  0.00     0.000 C 
BRANCH   3   4
ATOM      4  C   UNL     1      -2.175  33.637   6.611  1.00  0.00     0.000 C 
BRANCH   4   5
ATOM      5  C   UNL     1      -1.856  33.236   5.165  1.00  0.00     0.000 C 
BRANCH   5   6
ATOM      6  C   UNL     1      -1.601  34.471   4.294  1.00  0.00     0.006 C 
BRANCH   6   7
ATOM      7  C   UNL     1      -0.140  34.525   3.837  1.00  0.00     0.053 C 
BRANCH   7   8
ATOM      8  C   UNL     1       0.244  35.922   3.465  1.00  0.00     0.041 C 
ATOM      9  O   UNL     1       1.453  36.278   3.491  1.00  0.00    -0.550 OA
ATOM     10  O   UNL     1      -0.739  36.844   3.123  1.00  0.00    -0.550 OA
ENDBRANCH   7   8
ENDBRANCH   6   7
ENDBRANCH   5   6
ENDBRANCH   4   5
ENDBRANCH   3   4
ENDBRANCH   2   3
ENDBRANCH   1   2
BRANCH   1  11
ATOM     11  C   UNL     1       1.844  34.055   6.972  1.00  0.00    -0.031 C 
ATOM     12  C   UNL     1       2.815  34.352   6.088  1.00  0.00    -0.027 C 
BRANCH  12  13
ATOM     13  C   UNL     1       3.712  33.337   5.430  1.00  0.00     0.054 C 
BRANCH  13  14
ATOM     14  C   UNL     1       5.137  33.547   5.876  1.00  0.00    -0.027 C 
ATOM     15  C   UNL     1       5.700  32.998   6.970  1.00  0.00    -0.031 C 
BRANCH  15  16
ATOM     16  C   UNL     1       5.005  32.063   7.930  1.00  0.00     0.027 C 
BRANCH  16  17
ATOM     17  C   UNL     1       5.274  30.586   7.605  1.00  0.00     0.004 C 
BRANCH  17  18
ATOM     18  C   UNL     1       3.970  29.802   7.369  1.00  0.00     0.000 C 
BRANCH  18  19
ATOM     19  C   UNL     1       3.768  29.430   5.893  1.00  0.00    -0.003 C 
ATOM     20  C   UNL     1       2.364  29.764   5.387  1.00  0.00     0.004 C 
ENDBRANCH  18  19
ENDBRANCH  17  18
ENDBRANCH  16  17
ENDBRANCH  15  16
ENDBRANCH  13  14
ENDBRANCH  12  13
ENDBRANCH   1  11
TORSDOF 14
ENDMDL
MODEL 9
REMARK VINA RESULT:    -4.385     13.146     15.513
REMARK INTER + INTRA:         -10.531
REMARK INTER:                  -7.570
REMARK INTRA:                  -2.961
REMARK UNBOUND:                -2.558
REMARK SMILES CCCCCC=CCC=CCCCCCCCC(=O)[O-]
REMARK SMILES IDX 11 1 12 2 13 3 14 4 15 5 16 6 17 7 18 8 19 9 20 10 10 11
REMARK SMILES IDX 9 12 8 13 7 14 6 15 5 16 4 17 3 18 2 19 1 20
REMARK H PARENT
REMARK Flexibility Score: inf
ROOT
ATOM      1  C   UNL     1       1.327  31.514   6.976  1.00  0.00     0.027 C 
ENDROOT
BRANCH   1   2
ATOM      2  C   UNL     1       2.450  31.193   5.977  1.00  0.00     0.004 C 
BRANCH   2   3
ATOM      3  C   UNL     1       3.048  29.798   6.211  1.00  0.00     0.000 C 
BRANCH   3   4
ATOM      4  C   UNL     1       4.533  29.891   6.584  1.00  0.00     0.000 C 
BRANCH   4   5
ATOM      5  C   UNL     1       4.706  30.297   8.053  1.00  0.00     0.000 C 
BRANCH   5   6
ATOM      6  C   UNL     1       5.688  31.467   8.189  1.00  0.00     0.006 C 
BRANCH   6   7
ATOM      7  C   UNL     1       4.947  32.807   8.157  1.00  0.00     0.053 C 
BRANCH   7   8
ATOM      8  C   UNL     1       5.263  33.554   6.899  1.00  0.00     0.041 C 
ATOM      9  O   UNL     1       6.293  33.268   6.232  1.00  0.00    -0.550 OA
ATOM     10  O   UNL     1       4.438  34.592   6.482  1.00  0.00    -0.550 OA
ENDBRANCH   7   8
ENDBRANCH   6   7
ENDBRANCH   5   6
ENDBRANCH   4   5
ENDBRANCH   3   4
ENDBRANCH   2   3
ENDBRANCH   1   2
BRANCH   1  11
ATOM     11  C   UNL     1       1.374  32.953   7.430  1.00  0.00    -0.031 C 
ATOM     12  C   UNL     1       0.293  33.687   7.755  1.00  0.00    -0.027 C 
BRANCH  12  13
ATOM     13  C   UNL     1      -1.131  33.210   7.635  1.00  0.00     0.054 C 
BRANCH  13  14
ATOM     14  C   UNL     1      -1.845  33.993   6.562  1.00  0.00    -0.027 C 
ATOM     15  C   UNL     1      -2.062  33.569   5.302  1.00  0.00    -0.031 C 
BRANCH  15  16
ATOM     16  C   UNL     1      -1.643  32.227   4.752  1.00  0.00     0.027 C 
BRANCH  16  17
ATOM     17  C   UNL     1      -0.372  32.319   3.893  1.00  0.00     0.004 C 
BRANCH  17  18
ATOM     18  C   UNL     1      -0.095  33.760   3.427  1.00  0.00     0.000 C 
BRANCH  18  19
ATOM     19  C   UNL     1       1.248  34.296   3.942  1.00  0.00    -0.003 C 
ATOM     20  C   UNL     1       1.106  35.616   4.700  1.00  0.00     0.004 C 
ENDBRANCH  18  19
ENDBRANCH  17  18
ENDBRANCH  16  17
ENDBRANCH  15  16
ENDBRANCH  13  14
ENDBRANCH  12  13
ENDBRANCH   1  11
TORSDOF 14
ENDMDL
