MODEL 1
REMARK VINA RESULT:    -6.829      0.000      0.000
REMARK INTER + INTRA:          -8.508
REMARK INTER:                  -8.226
REMARK INTRA:                  -0.282
REMARK UNBOUND:                -0.282
REMARK SMILES O=c1c(O)c(-c2ccc(O)c(O)c2)oc2cc(O)cc(O)c12
REMARK SMILES IDX 5 1 3 2 2 3 1 4 22 5 20 6 19 7 17 8 16 9 15 10 14 11 6 12
REMARK SMILES IDX 7 13 8 14 9 15 13 16 11 17 10 18 12 20 4 22 21 24 18 26
REMARK H PARENT 10 19 12 21 4 23 21 25 18 27
REMARK Flexibility Score: inf
ROOT
ATOM      1  C   UNL     1      12.891  10.094  12.713  1.00  0.00     0.180 A 
ATOM      2  C   UNL     1      12.687  10.429  14.062  1.00  0.00     0.208 A 
ATOM      3  C   UNL     1      11.406  10.273  14.616  1.00  0.00     0.238 A 
ATOM      4  O   UNL     1      11.241  10.523  15.839  1.00  0.00    -0.285 OA
ATOM      5  C   UNL     1      10.343   9.799  13.810  1.00  0.00     0.111 A 
ATOM      6  C   UNL     1       8.997   9.640  14.257  1.00  0.00     0.134 A 
ATOM      7  C   UNL     1       8.055   9.039  13.411  1.00  0.00     0.093 A 
ATOM      8  C   UNL     1       8.396   8.652  12.113  1.00  0.00     0.123 A 
ATOM      9  C   UNL     1       9.693   8.857  11.648  1.00  0.00     0.094 A 
ATOM     10  C   UNL     1      10.664   9.420  12.480  1.00  0.00     0.146 A 
ATOM     11  O   UNL     1      11.890   9.589  12.002  1.00  0.00    -0.452 OA
ENDROOT
BRANCH   1  12
ATOM     12  C   UNL     1      14.206  10.255  12.052  1.00  0.00     0.025 A 
ATOM     13  C   UNL     1      14.636  11.535  11.671  1.00  0.00     0.016 A 
ATOM     14  C   UNL     1      15.883  11.713  11.065  1.00  0.00     0.051 A 
ATOM     15  C   UNL     1      16.725  10.619  10.846  1.00  0.00     0.157 A 
ATOM     16  C   UNL     1      15.064   9.158  11.850  1.00  0.00     0.062 A 
ATOM     17  C   UNL     1      16.316   9.335  11.243  1.00  0.00     0.158 A 
BRANCH  15  18
ATOM     18  O   UNL     1      17.962  10.826  10.236  1.00  0.00    -0.504 OA
ATOM     19  H   UNL     1      18.058  11.362   9.383  1.00  0.00     0.293 HD
ENDBRANCH  15  18
BRANCH  17  20
ATOM     20  O   UNL     1      17.157   8.241  11.040  1.00  0.00    -0.504 OA
ATOM     21  H   UNL     1      18.020   8.131  11.560  1.00  0.00     0.293 HD
ENDBRANCH  17  20
ENDBRANCH   1  12
BRANCH   2  22
ATOM     22  O   UNL     1      13.755  10.875  14.846  1.00  0.00    -0.502 OA
ATOM     23  H   UNL     1      13.682  11.678  15.458  1.00  0.00     0.293 HD
ENDBRANCH   2  22
BRANCH   6  24
ATOM     24  O   UNL     1       8.530  10.077  15.500  1.00  0.00    -0.507 OA
ATOM     25  H   UNL     1       7.642   9.822  15.903  1.00  0.00     0.293 HD
ENDBRANCH   6  24
BRANCH   8  26
ATOM     26  O   UNL     1       7.450   8.070  11.273  1.00  0.00    -0.508 OA
ATOM     27  H   UNL     1       6.462   8.276  11.365  1.00  0.00     0.293 HD
ENDBRANCH   8  26
TORSDOF 6
ENDMDL
MODEL 2
REMARK VINA RESULT:    -6.604      1.518      6.945
REMARK INTER + INTRA:          -8.238
REMARK INTER:                  -7.934
REMARK INTRA:                  -0.303
REMARK UNBOUND:                -0.282
REMARK SMILES O=c1c(O)c(-c2ccc(O)c(O)c2)oc2cc(O)cc(O)c12
REMARK SMILES IDX 5 1 3 2 2 3 1 4 22 5 20 6 19 7 17 8 16 9 15 10 14 11 6 12
REMARK SMILES IDX 7 13 8 14 9 15 13 16 11 17 10 18 12 20 4 22 21 24 18 26
REMARK H PARENT 10 19 12 21 4 23 21 25 18 27
REMARK Flexibility Score: inf
ROOT
ATOM      1  C   UNL     1      12.507  10.355  12.582  1.00  0.00     0.180 A 
ATOM      2  C   UNL     1      12.821  11.658  12.158  1.00  0.00     0.208 A 
ATOM      3  C   UNL     1      14.066  11.897  11.556  1.00  0.00     0.238 A 
ATOM      4  O   UNL     1      14.320  13.054  11.128  1.00  0.00    -0.285 OA
ATOM      5  C   UNL     1      14.988  10.834  11.399  1.00  0.00     0.111 A 
ATOM      6  C   UNL     1      16.293  10.970  10.838  1.00  0.00     0.134 A 
ATOM      7  C   UNL     1      17.071   9.826  10.612  1.00  0.00     0.093 A 
ATOM      8  C   UNL     1      16.615   8.560  10.986  1.00  0.00     0.123 A 
ATOM      9  C   UNL     1      15.367   8.425  11.588  1.00  0.00     0.094 A 
ATOM     10  C   UNL     1      14.553   9.542  11.794  1.00  0.00     0.146 A 
ATOM     11  O   UNL     1      13.366   9.368  12.361  1.00  0.00    -0.452 OA
ENDROOT
BRANCH   1  12
ATOM     12  C   UNL     1      11.225  10.031  13.248  1.00  0.00     0.025 A 
ATOM     13  C   UNL     1      10.222   9.365  12.527  1.00  0.00     0.016 A 
ATOM     14  C   UNL     1       9.012   9.030  13.142  1.00  0.00     0.051 A 
ATOM     15  C   UNL     1       8.792   9.342  14.487  1.00  0.00     0.157 A 
ATOM     16  C   UNL     1      11.010  10.325  14.607  1.00  0.00     0.062 A 
ATOM     17  C   UNL     1       9.797   9.989  15.225  1.00  0.00     0.158 A 
BRANCH  15  18
ATOM     18  O   UNL     1       7.574   8.998  15.072  1.00  0.00    -0.504 OA
ATOM     19  H   UNL     1       7.422   9.058  16.072  1.00  0.00     0.293 HD
ENDBRANCH  15  18
BRANCH  17  20
ATOM     20  O   UNL     1       9.590  10.290  16.571  1.00  0.00    -0.504 OA
ATOM     21  H   UNL     1      10.315  10.714  17.138  1.00  0.00     0.293 HD
ENDBRANCH  17  20
ENDBRANCH   1  12
BRANCH   2  22
ATOM     22  O   UNL     1      11.888  12.689  12.302  1.00  0.00    -0.502 OA
ATOM     23  H   UNL     1      11.173  12.679  13.019  1.00  0.00     0.293 HD
ENDBRANCH   2  22
BRANCH   6  24
ATOM     24  O   UNL     1      16.880  12.197  10.515  1.00  0.00    -0.507 OA
ATOM     25  H   UNL     1      16.417  12.944  10.021  1.00  0.00     0.293 HD
ENDBRANCH   6  24
BRANCH   8  26
ATOM     26  O   UNL     1      17.400   7.430  10.772  1.00  0.00    -0.508 OA
ATOM     27  H   UNL     1      18.244   7.470  10.213  1.00  0.00     0.293 HD
ENDBRANCH   8  26
TORSDOF 6
ENDMDL
MODEL 3
REMARK VINA RESULT:    -6.190      1.534      3.040
REMARK INTER + INTRA:          -7.739
REMARK INTER:                  -7.486
REMARK INTRA:                  -0.253
REMARK UNBOUND:                -0.282
REMARK SMILES O=c1c(O)c(-c2ccc(O)c(O)c2)oc2cc(O)cc(O)c12
REMARK SMILES IDX 5 1 3 2 2 3 1 4 22 5 20 6 19 7 17 8 16 9 15 10 14 11 6 12
REMARK SMILES IDX 7 13 8 14 9 15 13 16 11 17 10 18 12 20 4 22 21 24 18 26
REMARK H PARENT 10 19 12 21 4 23 21 25 18 27
REMARK Flexibility Score: inf
ROOT
ATOM      1  C   UNL     1      12.930  10.643  12.201  1.00  0.00     0.180 A 
ATOM      2  C   UNL     1      12.077  10.000  11.287  1.00  0.00     0.208 A 
ATOM      3  C   UNL     1      10.880   9.435  11.755  1.00  0.00     0.238 A 
ATOM      4  O   UNL     1      10.094   8.908  10.924  1.00  0.00    -0.285 OA
ATOM      5  C   UNL     1      10.559   9.506  13.132  1.00  0.00     0.111 A 
ATOM      6  C   UNL     1       9.391   8.934  13.722  1.00  0.00     0.134 A 
ATOM      7  C   UNL     1       9.110   9.178  15.072  1.00  0.00     0.093 A 
ATOM      8  C   UNL     1       9.986   9.919  15.868  1.00  0.00     0.123 A 
ATOM      9  C   UNL     1      11.157  10.432  15.315  1.00  0.00     0.094 A 
ATOM     10  C   UNL     1      11.448  10.236  13.963  1.00  0.00     0.146 A 
ATOM     11  O   UNL     1      12.569  10.750  13.473  1.00  0.00    -0.452 OA
ENDROOT
BRANCH   1  12
ATOM     12  C   UNL     1      14.220  11.240  11.787  1.00  0.00     0.025 A 
ATOM     13  C   UNL     1      14.226  12.466  11.103  1.00  0.00     0.016 A 
ATOM     14  C   UNL     1      15.434  13.058  10.723  1.00  0.00     0.051 A 
ATOM     15  C   UNL     1      16.651  12.444  11.031  1.00  0.00     0.157 A 
ATOM     16  C   UNL     1      15.447  10.634  12.115  1.00  0.00     0.062 A 
ATOM     17  C   UNL     1      16.659  11.228  11.734  1.00  0.00     0.158 A 
BRANCH  15  18
ATOM     18  O   UNL     1      17.839  13.057  10.635  1.00  0.00    -0.504 OA
ATOM     19  H   UNL     1      18.686  12.995  11.187  1.00  0.00     0.293 HD
ENDBRANCH  15  18
BRANCH  17  20
ATOM     20  O   UNL     1      17.870  10.618  12.058  1.00  0.00    -0.504 OA
ATOM     21  H   UNL     1      18.759  11.068  11.872  1.00  0.00     0.293 HD
ENDBRANCH  17  20
ENDBRANCH   1  12
BRANCH   2  22
ATOM     22  O   UNL     1      12.403   9.960   9.928  1.00  0.00    -0.502 OA
ATOM     23  H   UNL     1      13.203   9.451   9.576  1.00  0.00     0.293 HD
ENDBRANCH   2  22
BRANCH   6  24
ATOM     24  O   UNL     1       8.500   8.101  13.039  1.00  0.00    -0.507 OA
ATOM     25  H   UNL     1       8.759   7.256  12.554  1.00  0.00     0.293 HD
ENDBRANCH   6  24
BRANCH   8  26
ATOM     26  O   UNL     1       9.706  10.145  17.214  1.00  0.00    -0.508 OA
ATOM     27  H   UNL     1      10.430  10.422  17.866  1.00  0.00     0.293 HD
ENDBRANCH   8  26
TORSDOF 6
ENDMDL
MODEL 4
REMARK VINA RESULT:    -6.078      2.187      6.938
REMARK INTER + INTRA:          -7.604
REMARK INTER:                  -7.370
REMARK INTRA:                  -0.234
REMARK UNBOUND:                -0.282
REMARK SMILES O=c1c(O)c(-c2ccc(O)c(O)c2)oc2cc(O)cc(O)c12
REMARK SMILES IDX 5 1 3 2 2 3 1 4 22 5 20 6 19 7 17 8 16 9 15 10 14 11 6 12
REMARK SMILES IDX 7 13 8 14 9 15 13 16 11 17 10 18 12 20 4 22 21 24 18 26
REMARK H PARENT 10 19 12 21 4 23 21 25 18 27
REMARK Flexibility Score: inf
ROOT
ATOM      1  C   UNL     1      14.034   9.549  12.665  1.00  0.00     0.180 A 
ATOM      2  C   UNL     1      14.745  10.306  11.718  1.00  0.00     0.208 A 
ATOM      3  C   UNL     1      15.814   9.708  11.033  1.00  0.00     0.238 A 
ATOM      4  O   UNL     1      16.413  10.373  10.146  1.00  0.00    -0.285 OA
ATOM      5  C   UNL     1      16.169   8.367  11.314  1.00  0.00     0.111 A 
ATOM      6  C   UNL     1      17.260   7.673  10.708  1.00  0.00     0.134 A 
ATOM      7  C   UNL     1      17.439   6.308  10.966  1.00  0.00     0.093 A 
ATOM      8  C   UNL     1      16.605   5.628  11.857  1.00  0.00     0.123 A 
ATOM      9  C   UNL     1      15.575   6.311  12.498  1.00  0.00     0.094 A 
ATOM     10  C   UNL     1      15.349   7.664  12.234  1.00  0.00     0.146 A 
ATOM     11  O   UNL     1      14.349   8.275  12.859  1.00  0.00    -0.452 OA
ENDROOT
BRANCH   1  12
ATOM     12  C   UNL     1      12.912  10.118  13.445  1.00  0.00     0.025 A 
ATOM     13  C   UNL     1      11.612   9.625  13.246  1.00  0.00     0.016 A 
ATOM     14  C   UNL     1      10.541  10.133  13.986  1.00  0.00     0.051 A 
ATOM     15  C   UNL     1      10.753  11.127  14.946  1.00  0.00     0.157 A 
ATOM     16  C   UNL     1      13.126  11.103  14.426  1.00  0.00     0.062 A 
ATOM     17  C   UNL     1      12.052  11.613  15.170  1.00  0.00     0.158 A 
BRANCH  15  18
ATOM     18  O   UNL     1       9.664  11.616  15.667  1.00  0.00    -0.504 OA
ATOM     19  H   UNL     1       8.990  11.002  16.106  1.00  0.00     0.293 HD
ENDBRANCH  15  18
BRANCH  17  20
ATOM     20  O   UNL     1      12.272  12.595  16.136  1.00  0.00    -0.504 OA
ATOM     21  H   UNL     1      13.204  12.933  16.346  1.00  0.00     0.293 HD
ENDBRANCH  17  20
ENDBRANCH   1  12
BRANCH   2  22
ATOM     22  O   UNL     1      14.364  11.622  11.439  1.00  0.00    -0.502 OA
ATOM     23  H   UNL     1      14.914  12.234  10.849  1.00  0.00     0.293 HD
ENDBRANCH   2  22
BRANCH   6  24
ATOM     24  O   UNL     1      18.205   8.280   9.876  1.00  0.00    -0.507 OA
ATOM     25  H   UNL     1      18.399   9.269   9.851  1.00  0.00     0.293 HD
ENDBRANCH   6  24
BRANCH   8  26
ATOM     26  O   UNL     1      16.799   4.274  12.119  1.00  0.00    -0.508 OA
ATOM     27  H   UNL     1      17.484   3.958  12.796  1.00  0.00     0.293 HD
ENDBRANCH   8  26
TORSDOF 6
ENDMDL
MODEL 5
REMARK VINA RESULT:    -5.879      4.086      6.714
REMARK INTER + INTRA:          -7.364
REMARK INTER:                  -7.041
REMARK INTRA:                  -0.323
REMARK UNBOUND:                -0.282
REMARK SMILES O=c1c(O)c(-c2ccc(O)c(O)c2)oc2cc(O)cc(O)c12
REMARK SMILES IDX 5 1 3 2 2 3 1 4 22 5 20 6 19 7 17 8 16 9 15 10 14 11 6 12
REMARK SMILES IDX 7 13 8 14 9 15 13 16 11 17 10 18 12 20 4 22 21 24 18 26
REMARK H PARENT 10 19 12 21 4 23 21 25 18 27
REMARK Flexibility Score: inf
ROOT
ATOM      1  C   UNL     1      15.816   6.370  12.398  1.00  0.00     0.180 A 
ATOM      2  C   UNL     1      15.989   6.989  11.149  1.00  0.00     0.208 A 
ATOM      3  C   UNL     1      15.558   8.315  10.980  1.00  0.00     0.238 A 
ATOM      4  O   UNL     1      15.765   8.883   9.875  1.00  0.00    -0.285 OA
ATOM      5  C   UNL     1      14.947   8.999  12.058  1.00  0.00     0.111 A 
ATOM      6  C   UNL     1      14.437  10.331  11.987  1.00  0.00     0.134 A 
ATOM      7  C   UNL     1      13.970  10.954  13.152  1.00  0.00     0.093 A 
ATOM      8  C   UNL     1      13.935  10.271  14.370  1.00  0.00     0.123 A 
ATOM      9  C   UNL     1      14.376   8.952  14.436  1.00  0.00     0.094 A 
ATOM     10  C   UNL     1      14.881   8.315  13.300  1.00  0.00     0.146 A 
ATOM     11  O   UNL     1      15.300   7.060  13.408  1.00  0.00    -0.452 OA
ENDROOT
BRANCH   1  12
ATOM     12  C   UNL     1      16.222   4.968  12.645  1.00  0.00     0.025 A 
ATOM     13  C   UNL     1      15.326   3.928  12.354  1.00  0.00     0.016 A 
ATOM     14  C   UNL     1      15.696   2.596  12.559  1.00  0.00     0.051 A 
ATOM     15  C   UNL     1      16.970   2.282  13.042  1.00  0.00     0.157 A 
ATOM     16  C   UNL     1      17.511   4.649  13.111  1.00  0.00     0.062 A 
ATOM     17  C   UNL     1      17.884   3.313  13.316  1.00  0.00     0.158 A 
BRANCH  15  18
ATOM     18  O   UNL     1      17.310   0.944  13.239  1.00  0.00    -0.504 OA
ATOM     19  H   UNL     1      18.190   0.669  13.658  1.00  0.00     0.293 HD
ENDBRANCH  15  18
BRANCH  17  20
ATOM     20  O   UNL     1      19.161   3.006  13.785  1.00  0.00    -0.504 OA
ATOM     21  H   UNL     1      19.782   3.723  14.143  1.00  0.00     0.293 HD
ENDBRANCH  17  20
ENDBRANCH   1  12
BRANCH   2  22
ATOM     22  O   UNL     1      16.615   6.304  10.104  1.00  0.00    -0.502 OA
ATOM     23  H   UNL     1      17.351   6.717   9.546  1.00  0.00     0.293 HD
ENDBRANCH   2  22
BRANCH   6  24
ATOM     24  O   UNL     1      14.341  11.068  10.804  1.00  0.00    -0.507 OA
ATOM     25  H   UNL     1      13.671  10.893  10.071  1.00  0.00     0.293 HD
ENDBRANCH   6  24
BRANCH   8  26
ATOM     26  O   UNL     1      13.455  10.893  15.520  1.00  0.00    -0.508 OA
ATOM     27  H   UNL     1      13.367  11.901  15.580  1.00  0.00     0.293 HD
ENDBRANCH   8  26
TORSDOF 6
ENDMDL
MODEL 6
REMARK VINA RESULT:    -5.799      2.908      4.920
REMARK INTER + INTRA:          -7.268
REMARK INTER:                  -7.136
REMARK INTRA:                  -0.133
REMARK UNBOUND:                -0.282
REMARK SMILES O=c1c(O)c(-c2ccc(O)c(O)c2)oc2cc(O)cc(O)c12
REMARK SMILES IDX 5 1 3 2 2 3 1 4 22 5 20 6 19 7 17 8 16 9 15 10 14 11 6 12
REMARK SMILES IDX 7 13 8 14 9 15 13 16 11 17 10 18 12 20 4 22 21 24 18 26
REMARK H PARENT 10 19 12 21 4 23 21 25 18 27
REMARK Flexibility Score: inf
ROOT
ATOM      1  C   UNL     1      14.873   8.351  12.781  1.00  0.00     0.180 A 
ATOM      2  C   UNL     1      15.379   9.409  12.007  1.00  0.00     0.208 A 
ATOM      3  C   UNL     1      14.721  10.648  12.033  1.00  0.00     0.238 A 
ATOM      4  O   UNL     1      15.210  11.608  11.380  1.00  0.00    -0.285 OA
ATOM      5  C   UNL     1      13.557  10.811  12.822  1.00  0.00     0.111 A 
ATOM      6  C   UNL     1      12.788  12.012  12.894  1.00  0.00     0.134 A 
ATOM      7  C   UNL     1      11.729  12.100  13.807  1.00  0.00     0.093 A 
ATOM      8  C   UNL     1      11.373  11.010  14.605  1.00  0.00     0.123 A 
ATOM      9  C   UNL     1      12.080   9.816  14.499  1.00  0.00     0.094 A 
ATOM     10  C   UNL     1      13.164   9.707  13.624  1.00  0.00     0.146 A 
ATOM     11  O   UNL     1      13.818   8.554  13.561  1.00  0.00    -0.452 OA
ENDROOT
BRANCH   1  12
ATOM     12  C   UNL     1      15.497   7.009  12.785  1.00  0.00     0.025 A 
ATOM     13  C   UNL     1      15.919   6.447  14.000  1.00  0.00     0.016 A 
ATOM     14  C   UNL     1      16.491   5.172  14.030  1.00  0.00     0.051 A 
ATOM     15  C   UNL     1      16.636   4.434  12.851  1.00  0.00     0.157 A 
ATOM     16  C   UNL     1      15.625   6.257  11.604  1.00  0.00     0.062 A 
ATOM     17  C   UNL     1      16.198   4.977  11.632  1.00  0.00     0.158 A 
BRANCH  15  18
ATOM     18  O   UNL     1      17.214   3.166  12.911  1.00  0.00    -0.504 OA
ATOM     19  H   UNL     1      17.386   2.614  12.080  1.00  0.00     0.293 HD
ENDBRANCH  15  18
BRANCH  17  20
ATOM     20  O   UNL     1      16.327   4.241  10.454  1.00  0.00    -0.504 OA
ATOM     21  H   UNL     1      15.853   4.516   9.602  1.00  0.00     0.293 HD
ENDBRANCH  17  20
ENDBRANCH   1  12
BRANCH   2  22
ATOM     22  O   UNL     1      16.542   9.234  11.251  1.00  0.00    -0.502 OA
ATOM     23  H   UNL     1      17.379   8.809  11.632  1.00  0.00     0.293 HD
ENDBRANCH   2  22
BRANCH   6  24
ATOM     24  O   UNL     1      13.001  13.125  12.076  1.00  0.00    -0.507 OA
ATOM     25  H   UNL     1      13.847  13.674  12.062  1.00  0.00     0.293 HD
ENDBRANCH   6  24
BRANCH   8  26
ATOM     26  O   UNL     1      10.310  11.102  15.500  1.00  0.00    -0.508 OA
ATOM     27  H   UNL     1       9.627  11.848  15.436  1.00  0.00     0.293 HD
ENDBRANCH   8  26
TORSDOF 6
ENDMDL
MODEL 7
REMARK VINA RESULT:    -5.604      3.734      7.384
REMARK INTER + INTRA:          -7.033
REMARK INTER:                  -7.082
REMARK INTRA:                   0.050
REMARK UNBOUND:                -0.282
REMARK SMILES O=c1c(O)c(-c2ccc(O)c(O)c2)oc2cc(O)cc(O)c12
REMARK SMILES IDX 5 1 3 2 2 3 1 4 22 5 20 6 19 7 17 8 16 9 15 10 14 11 6 12
REMARK SMILES IDX 7 13 8 14 9 15 13 16 11 17 10 18 12 20 4 22 21 24 18 26
REMARK H PARENT 10 19 12 21 4 23 21 25 18 27
REMARK Flexibility Score: inf
ROOT
ATOM      1  C   UNL     1      15.438   7.445  12.172  1.00  0.00     0.180 A 
ATOM      2  C   UNL     1      16.368   7.454  11.119  1.00  0.00     0.208 A 
ATOM      3  C   UNL     1      17.108   6.291  10.854  1.00  0.00     0.238 A 
ATOM      4  O   UNL     1      17.901   6.287   9.875  1.00  0.00    -0.285 OA
ATOM      5  C   UNL     1      16.919   5.139  11.654  1.00  0.00     0.111 A 
ATOM      6  C   UNL     1      17.642   3.917  11.500  1.00  0.00     0.134 A 
ATOM      7  C   UNL     1      17.281   2.800  12.264  1.00  0.00     0.093 A 
ATOM      8  C   UNL     1      16.266   2.878  13.221  1.00  0.00     0.123 A 
ATOM      9  C   UNL     1      15.595   4.082  13.419  1.00  0.00     0.094 A 
ATOM     10  C   UNL     1      15.907   5.204  12.648  1.00  0.00     0.146 A 
ATOM     11  O   UNL     1      15.236   6.330  12.862  1.00  0.00    -0.452 OA
ENDROOT
BRANCH   1  12
ATOM     12  C   UNL     1      14.640   8.641  12.527  1.00  0.00     0.025 A 
ATOM     13  C   UNL     1      13.935   9.324  11.524  1.00  0.00     0.016 A 
ATOM     14  C   UNL     1      13.159  10.442  11.841  1.00  0.00     0.051 A 
ATOM     15  C   UNL     1      13.062  10.884  13.164  1.00  0.00     0.157 A 
ATOM     16  C   UNL     1      14.524   9.074  13.860  1.00  0.00     0.062 A 
ATOM     17  C   UNL     1      13.744  10.196  14.180  1.00  0.00     0.158 A 
BRANCH  15  18
ATOM     18  O   UNL     1      12.282  12.005  13.449  1.00  0.00    -0.504 OA
ATOM     19  H   UNL     1      12.323  12.475  14.345  1.00  0.00     0.293 HD
ENDBRANCH  15  18
BRANCH  17  20
ATOM     20  O   UNL     1      13.641  10.623  15.503  1.00  0.00    -0.504 OA
ATOM     21  H   UNL     1      14.402  10.503  16.161  1.00  0.00     0.293 HD
ENDBRANCH  17  20
ENDBRANCH   1  12
BRANCH   2  22
ATOM     22  O   UNL     1      16.524   8.595  10.327  1.00  0.00    -0.502 OA
ATOM     23  H   UNL     1      17.171   8.634   9.549  1.00  0.00     0.293 HD
ENDBRANCH   2  22
BRANCH   6  24
ATOM     24  O   UNL     1      18.733   3.759  10.640  1.00  0.00    -0.507 OA
ATOM     25  H   UNL     1      19.220   4.515  10.185  1.00  0.00     0.293 HD
ENDBRANCH   6  24
BRANCH   8  26
ATOM     26  O   UNL     1      15.923   1.767  13.986  1.00  0.00    -0.508 OA
ATOM     27  H   UNL     1      16.453   1.507  14.810  1.00  0.00     0.293 HD
ENDBRANCH   8  26
TORSDOF 6
ENDMDL
MODEL 8
REMARK VINA RESULT:    -5.511      2.848      7.137
REMARK INTER + INTRA:          -6.920
REMARK INTER:                  -6.630
REMARK INTRA:                  -0.291
REMARK UNBOUND:                -0.282
REMARK SMILES O=c1c(O)c(-c2ccc(O)c(O)c2)oc2cc(O)cc(O)c12
REMARK SMILES IDX 5 1 3 2 2 3 1 4 22 5 20 6 19 7 17 8 16 9 15 10 14 11 6 12
REMARK SMILES IDX 7 13 8 14 9 15 13 16 11 17 10 18 12 20 4 22 21 24 18 26
REMARK H PARENT 10 19 12 21 4 23 21 25 18 27
REMARK Flexibility Score: inf
ROOT
ATOM      1  C   UNL     1      14.325   8.557  13.003  1.00  0.00     0.180 A 
ATOM      2  C   UNL     1      14.691   8.700  11.653  1.00  0.00     0.208 A 
ATOM      3  C   UNL     1      15.628   7.811  11.104  1.00  0.00     0.238 A 
ATOM      4  O   UNL     1      15.911   7.909   9.881  1.00  0.00    -0.285 OA
ATOM      5  C   UNL     1      16.198   6.799  11.914  1.00  0.00     0.111 A 
ATOM      6  C   UNL     1      17.185   5.868  11.471  1.00  0.00     0.134 A 
ATOM      7  C   UNL     1      17.583   4.827  12.321  1.00  0.00     0.093 A 
ATOM      8  C   UNL     1      17.076   4.723  13.619  1.00  0.00     0.123 A 
ATOM      9  C   UNL     1      16.156   5.662  14.079  1.00  0.00     0.094 A 
ATOM     10  C   UNL     1      15.713   6.690  13.243  1.00  0.00     0.146 A 
ATOM     11  O   UNL     1      14.828   7.558  13.718  1.00  0.00    -0.452 OA
ENDROOT
BRANCH   1  12
ATOM     12  C   UNL     1      13.364   9.472  13.659  1.00  0.00     0.025 A 
ATOM     13  C   UNL     1      13.845  10.540  14.433  1.00  0.00     0.016 A 
ATOM     14  C   UNL     1      12.955  11.428  15.044  1.00  0.00     0.051 A 
ATOM     15  C   UNL     1      11.576  11.273  14.879  1.00  0.00     0.157 A 
ATOM     16  C   UNL     1      11.977   9.330  13.478  1.00  0.00     0.062 A 
ATOM     17  C   UNL     1      11.083  10.222  14.089  1.00  0.00     0.158 A 
BRANCH  15  18
ATOM     18  O   UNL     1      10.713  12.173  15.504  1.00  0.00    -0.504 OA
ATOM     19  H   UNL     1       9.965  12.638  15.002  1.00  0.00     0.293 HD
ENDBRANCH  15  18
BRANCH  17  20
ATOM     20  O   UNL     1       9.708  10.069  13.909  1.00  0.00    -0.504 OA
ATOM     21  H   UNL     1       9.309   9.894  12.994  1.00  0.00     0.293 HD
ENDBRANCH  17  20
ENDBRANCH   1  12
BRANCH   2  22
ATOM     22  O   UNL     1      14.100   9.692  10.866  1.00  0.00    -0.502 OA
ATOM     23  H   UNL     1      13.105   9.722  10.684  1.00  0.00     0.293 HD
ENDBRANCH   2  22
BRANCH   6  24
ATOM     24  O   UNL     1      17.822   5.937  10.229  1.00  0.00    -0.507 OA
ATOM     25  H   UNL     1      17.453   5.557   9.371  1.00  0.00     0.293 HD
ENDBRANCH   6  24
BRANCH   8  26
ATOM     26  O   UNL     1      17.487   3.695  14.462  1.00  0.00    -0.508 OA
ATOM     27  H   UNL     1      18.020   3.881  15.304  1.00  0.00     0.293 HD
ENDBRANCH   8  26
TORSDOF 6
ENDMDL
MODEL 9
REMARK VINA RESULT:    -5.431     14.006     15.953
REMARK INTER + INTRA:          -6.824
REMARK INTER:                  -6.863
REMARK INTRA:                   0.039
REMARK UNBOUND:                -0.282
REMARK SMILES O=c1c(O)c(-c2ccc(O)c(O)c2)oc2cc(O)cc(O)c12
REMARK SMILES IDX 5 1 3 2 2 3 1 4 22 5 20 6 19 7 17 8 16 9 15 10 14 11 6 12
REMARK SMILES IDX 7 13 8 14 9 15 13 16 11 17 10 18 12 20 4 22 21 24 18 26
REMARK H PARENT 10 19 12 21 4 23 21 25 18 27
REMARK Flexibility Score: inf
ROOT
ATOM      1  C   UNL     1       3.919   6.270  24.349  1.00  0.00     0.180 A 
ATOM      2  C   UNL     1       3.887   6.286  22.944  1.00  0.00     0.208 A 
ATOM      3  C   UNL     1       3.709   5.077  22.253  1.00  0.00     0.238 A 
ATOM      4  O   UNL     1       3.627   5.104  20.997  1.00  0.00    -0.285 OA
ATOM      5  C   UNL     1       3.581   3.866  22.975  1.00  0.00     0.111 A 
ATOM      6  C   UNL     1       3.436   2.578  22.377  1.00  0.00     0.134 A 
ATOM      7  C   UNL     1       3.186   1.463  23.189  1.00  0.00     0.093 A 
ATOM      8  C   UNL     1       3.140   1.582  24.580  1.00  0.00     0.123 A 
ATOM      9  C   UNL     1       3.340   2.825  25.175  1.00  0.00     0.094 A 
ATOM     10  C   UNL     1       3.554   3.961  24.391  1.00  0.00     0.146 A 
ATOM     11  O   UNL     1       3.729   5.128  24.998  1.00  0.00    -0.452 OA
ENDROOT
BRANCH   1  12
ATOM     12  C   UNL     1       4.128   7.501  25.145  1.00  0.00     0.025 A 
ATOM     13  C   UNL     1       5.124   7.523  26.134  1.00  0.00     0.016 A 
ATOM     14  C   UNL     1       5.352   8.680  26.883  1.00  0.00     0.051 A 
ATOM     15  C   UNL     1       4.602   9.836  26.646  1.00  0.00     0.157 A 
ATOM     16  C   UNL     1       3.388   8.671  24.894  1.00  0.00     0.062 A 
ATOM     17  C   UNL     1       3.617   9.833  25.645  1.00  0.00     0.158 A 
BRANCH  15  18
ATOM     18  O   UNL     1       4.850  10.975  27.412  1.00  0.00    -0.504 OA
ATOM     19  H   UNL     1       5.392  11.753  27.057  1.00  0.00     0.293 HD
ENDBRANCH  15  18
BRANCH  17  20
ATOM     20  O   UNL     1       2.875  10.987  25.393  1.00  0.00    -0.504 OA
ATOM     21  H   UNL     1       2.292  11.410  26.107  1.00  0.00     0.293 HD
ENDBRANCH  17  20
ENDBRANCH   1  12
BRANCH   2  22
ATOM     22  O   UNL     1       3.994   7.496  22.251  1.00  0.00    -0.502 OA
ATOM     23  H   UNL     1       4.826   8.071  22.286  1.00  0.00     0.293 HD
ENDBRANCH   2  22
BRANCH   6  24
ATOM     24  O   UNL     1       3.556   2.336  21.005  1.00  0.00    -0.507 OA
ATOM     25  H   UNL     1       4.278   2.720  20.415  1.00  0.00     0.293 HD
ENDBRANCH   6  24
BRANCH   8  26
ATOM     26  O   UNL     1       2.907   0.467  25.381  1.00  0.00    -0.508 OA
ATOM     27  H   UNL     1       2.528  -0.392  24.996  1.00  0.00     0.293 HD
ENDBRANCH   8  26
TORSDOF 6
ENDMDL
