MODEL 1
REMARK VINA RESULT:    -3.784      0.000      0.000
REMARK INTER + INTRA:         -12.741
REMARK INTER:                  -8.650
REMARK INTRA:                  -4.091
REMARK UNBOUND:                -4.091
REMARK SMILES CCCCCCCCCCCCCCCCCCCCCCCC(=O)[O-]
REMARK SMILES IDX 13 1 14 2 15 3 16 4 17 5 18 6 19 7 20 8 21 9 22 10 23 11
REMARK SMILES IDX 24 12 25 13 26 14 12 15 11 16 10 17 9 18 8 19 7 20 6 21 5 22
REMARK SMILES IDX 4 23 3 24 2 25 1 26
REMARK H PARENT
REMARK Flexibility Score: inf
ROOT
ATOM      1  C   UNL     1     -23.914   3.635  26.141  1.00  0.00     0.000 C 
ENDROOT
BRANCH   1   2
ATOM      2  C   UNL     1     -25.007   2.663  25.674  1.00  0.00     0.000 C 
BRANCH   2   3
ATOM      3  C   UNL     1     -24.535   1.197  25.657  1.00  0.00     0.000 C 
BRANCH   3   4
ATOM      4  C   UNL     1     -23.861   0.744  24.346  1.00  0.00     0.000 C 
BRANCH   4   5
ATOM      5  C   UNL     1     -24.135   1.641  23.122  1.00  0.00     0.000 C 
BRANCH   5   6
ATOM      6  C   UNL     1     -22.888   2.304  22.510  1.00  0.00     0.000 C 
BRANCH   6   7
ATOM      7  C   UNL     1     -21.670   2.256  23.449  1.00  0.00     0.000 C 
BRANCH   7   8
ATOM      8  C   UNL     1     -20.472   1.517  22.831  1.00  0.00     0.000 C 
BRANCH   8   9
ATOM      9  C   UNL     1     -20.726   1.077  21.378  1.00  0.00     0.000 C 
BRANCH   9  10
ATOM     10  C   UNL     1     -20.642  -0.446  21.196  1.00  0.00     0.006 C 
BRANCH  10  11
ATOM     11  C   UNL     1     -21.998  -1.141  21.377  1.00  0.00     0.053 C 
BRANCH  11  12
ATOM     12  C   UNL     1     -21.902  -2.241  22.387  1.00  0.00     0.041 C 
ATOM     13  O   UNL     1     -20.889  -2.990  22.413  1.00  0.00    -0.550 OA
ATOM     14  O   UNL     1     -22.928  -2.437  23.304  1.00  0.00    -0.550 OA
ENDBRANCH  11  12
ENDBRANCH  10  11
ENDBRANCH   9  10
ENDBRANCH   8   9
ENDBRANCH   7   8
ENDBRANCH   6   7
ENDBRANCH   5   6
ENDBRANCH   4   5
ENDBRANCH   3   4
ENDBRANCH   2   3
ENDBRANCH   1   2
BRANCH   1  15
ATOM     15  C   UNL     1     -23.752   4.798  25.149  1.00  0.00     0.000 C 
BRANCH  15  16
ATOM     16  C   UNL     1     -25.042   5.107  24.375  1.00  0.00     0.000 C 
BRANCH  16  17
ATOM     17  C   UNL     1     -24.822   6.113  23.231  1.00  0.00     0.000 C 
BRANCH  17  18
ATOM     18  C   UNL     1     -23.433   5.970  22.585  1.00  0.00    -0.000 C 
BRANCH  18  19
ATOM     19  C   UNL     1     -22.715   7.320  22.438  1.00  0.00    -0.000 C 
BRANCH  19  20
ATOM     20  C   UNL     1     -22.566   7.702  20.957  1.00  0.00    -0.000 C 
BRANCH  20  21
ATOM     21  C   UNL     1     -21.209   7.282  20.363  1.00  0.00    -0.000 C 
BRANCH  21  22
ATOM     22  C   UNL     1     -21.243   5.997  19.512  1.00  0.00    -0.000 C 
BRANCH  22  23
ATOM     23  C   UNL     1     -20.993   4.694  20.295  1.00  0.00    -0.000 C 
BRANCH  23  24
ATOM     24  C   UNL     1     -19.577   4.606  20.910  1.00  0.00    -0.000 C 
BRANCH  24  25
ATOM     25  C   UNL     1     -19.512   5.091  22.370  1.00  0.00    -0.003 C 
ATOM     26  C   UNL     1     -18.273   4.574  23.101  1.00  0.00     0.004 C 
ENDBRANCH  24  25
ENDBRANCH  23  24
ENDBRANCH  22  23
ENDBRANCH  21  22
ENDBRANCH  20  21
ENDBRANCH  19  20
ENDBRANCH  18  19
ENDBRANCH  17  18
ENDBRANCH  16  17
ENDBRANCH  15  16
ENDBRANCH   1  15
TORSDOF 22
ENDMDL
MODEL 2
REMARK VINA RESULT:    -3.750      1.672      4.551
REMARK INTER + INTRA:         -12.665
REMARK INTER:                  -8.906
REMARK INTRA:                  -3.759
REMARK UNBOUND:                -4.091
REMARK SMILES CCCCCCCCCCCCCCCCCCCCCCCC(=O)[O-]
REMARK SMILES IDX 13 1 14 2 15 3 16 4 17 5 18 6 19 7 20 8 21 9 22 10 23 11
REMARK SMILES IDX 24 12 25 13 26 14 12 15 11 16 10 17 9 18 8 19 7 20 6 21 5 22
REMARK SMILES IDX 4 23 3 24 2 25 1 26
REMARK H PARENT
REMARK Flexibility Score: inf
ROOT
ATOM      1  C   UNL     1     -20.830   6.947  22.931  1.00  0.00     0.000 C 
ENDROOT
BRANCH   1   2
ATOM      2  C   UNL     1     -19.603   6.367  22.215  1.00  0.00     0.000 C 
BRANCH   2   3
ATOM      3  C   UNL     1     -19.868   6.061  20.729  1.00  0.00     0.000 C 
BRANCH   3   4
ATOM      4  C   UNL     1     -20.417   4.648  20.442  1.00  0.00     0.000 C 
BRANCH   4   5
ATOM      5  C   UNL     1     -19.904   3.540  21.384  1.00  0.00     0.000 C 
BRANCH   5   6
ATOM      6  C   UNL     1     -20.862   2.350  21.569  1.00  0.00     0.000 C 
BRANCH   6   7
ATOM      7  C   UNL     1     -22.231   2.772  22.128  1.00  0.00     0.000 C 
BRANCH   7   8
ATOM      8  C   UNL     1     -23.253   1.624  22.128  1.00  0.00     0.000 C 
BRANCH   8   9
ATOM      9  C   UNL     1     -23.180   0.757  23.398  1.00  0.00     0.000 C 
BRANCH   9  10
ATOM     10  C   UNL     1     -22.165  -0.389  23.276  1.00  0.00     0.006 C 
BRANCH  10  11
ATOM     11  C   UNL     1     -22.632  -1.494  22.319  1.00  0.00     0.053 C 
BRANCH  11  12
ATOM     12  C   UNL     1     -21.856  -1.452  21.039  1.00  0.00     0.041 C 
ATOM     13  O   UNL     1     -20.641  -1.118  21.046  1.00  0.00    -0.550 OA
ATOM     14  O   UNL     1     -22.473  -1.785  19.839  1.00  0.00    -0.550 OA
ENDBRANCH  11  12
ENDBRANCH  10  11
ENDBRANCH   9  10
ENDBRANCH   8   9
ENDBRANCH   7   8
ENDBRANCH   6   7
ENDBRANCH   5   6
ENDBRANCH   4   5
ENDBRANCH   3   4
ENDBRANCH   2   3
ENDBRANCH   1   2
BRANCH   1  15
ATOM     15  C   UNL     1     -21.762   7.659  21.938  1.00  0.00     0.000 C 
BRANCH  15  16
ATOM     16  C   UNL     1     -23.248   7.385  22.211  1.00  0.00     0.000 C 
BRANCH  16  17
ATOM     17  C   UNL     1     -23.491   6.004  22.847  1.00  0.00     0.000 C 
BRANCH  17  18
ATOM     18  C   UNL     1     -24.906   5.870  23.434  1.00  0.00    -0.000 C 
BRANCH  18  19
ATOM     19  C   UNL     1     -25.040   4.657  24.367  1.00  0.00    -0.000 C 
BRANCH  19  20
ATOM     20  C   UNL     1     -24.921   5.084  25.839  1.00  0.00    -0.000 C 
BRANCH  20  21
ATOM     21  C   UNL     1     -23.560   4.718  26.460  1.00  0.00    -0.000 C 
BRANCH  21  22
ATOM     22  C   UNL     1     -22.807   3.578  25.745  1.00  0.00    -0.000 C 
BRANCH  22  23
ATOM     23  C   UNL     1     -21.327   3.875  25.436  1.00  0.00    -0.000 C 
BRANCH  23  24
ATOM     24  C   UNL     1     -20.821   5.202  26.048  1.00  0.00    -0.000 C 
BRANCH  24  25
ATOM     25  C   UNL     1     -19.292   5.361  25.985  1.00  0.00    -0.003 C 
ATOM     26  C   UNL     1     -18.639   4.343  25.049  1.00  0.00     0.004 C 
ENDBRANCH  24  25
ENDBRANCH  23  24
ENDBRANCH  22  23
ENDBRANCH  21  22
ENDBRANCH  20  21
ENDBRANCH  19  20
ENDBRANCH  18  19
ENDBRANCH  17  18
ENDBRANCH  16  17
ENDBRANCH  15  16
ENDBRANCH   1  15
TORSDOF 22
ENDMDL
MODEL 3
REMARK VINA RESULT:    -3.746      3.217      7.047
REMARK INTER + INTRA:         -12.655
REMARK INTER:                  -8.733
REMARK INTRA:                  -3.922
REMARK UNBOUND:                -4.091
REMARK SMILES CCCCCCCCCCCCCCCCCCCCCCCC(=O)[O-]
REMARK SMILES IDX 13 1 14 2 15 3 16 4 17 5 18 6 19 7 20 8 21 9 22 10 23 11
REMARK SMILES IDX 24 12 25 13 26 14 12 15 11 16 10 17 9 18 8 19 7 20 6 21 5 22
REMARK SMILES IDX 4 23 3 24 2 25 1 26
REMARK H PARENT
REMARK Flexibility Score: inf
ROOT
ATOM      1  C   UNL     1     -19.780   5.618  21.522  1.00  0.00     0.000 C 
ENDROOT
BRANCH   1   2
ATOM      2  C   UNL     1     -20.278   7.042  21.807  1.00  0.00     0.000 C 
BRANCH   2   3
ATOM      3  C   UNL     1     -21.490   7.072  22.757  1.00  0.00     0.000 C 
BRANCH   3   4
ATOM      4  C   UNL     1     -22.831   7.448  22.094  1.00  0.00     0.000 C 
BRANCH   4   5
ATOM      5  C   UNL     1     -24.027   6.554  22.476  1.00  0.00     0.000 C 
BRANCH   5   6
ATOM      6  C   UNL     1     -23.748   5.540  23.601  1.00  0.00     0.000 C 
BRANCH   6   7
ATOM      7  C   UNL     1     -25.034   5.028  24.271  1.00  0.00     0.000 C 
BRANCH   7   8
ATOM      8  C   UNL     1     -24.888   4.868  25.792  1.00  0.00     0.000 C 
BRANCH   8   9
ATOM      9  C   UNL     1     -24.134   3.586  26.188  1.00  0.00     0.000 C 
BRANCH   9  10
ATOM     10  C   UNL     1     -23.165   3.805  27.360  1.00  0.00     0.006 C 
BRANCH  10  11
ATOM     11  C   UNL     1     -22.202   4.975  27.120  1.00  0.00     0.053 C 
BRANCH  11  12
ATOM     12  C   UNL     1     -22.256   5.949  28.256  1.00  0.00     0.041 C 
ATOM     13  O   UNL     1     -23.365   6.274  28.759  1.00  0.00    -0.550 OA
ATOM     14  O   UNL     1     -21.082   6.495  28.763  1.00  0.00    -0.550 OA
ENDBRANCH  11  12
ENDBRANCH  10  11
ENDBRANCH   9  10
ENDBRANCH   8   9
ENDBRANCH   7   8
ENDBRANCH   6   7
ENDBRANCH   5   6
ENDBRANCH   4   5
ENDBRANCH   3   4
ENDBRANCH   2   3
ENDBRANCH   1   2
BRANCH   1  15
ATOM     15  C   UNL     1     -20.702   4.903  20.523  1.00  0.00     0.000 C 
BRANCH  15  16
ATOM     16  C   UNL     1     -21.421   3.691  21.136  1.00  0.00     0.000 C 
BRANCH  16  17
ATOM     17  C   UNL     1     -20.914   3.351  22.548  1.00  0.00     0.000 C 
BRANCH  17  18
ATOM     18  C   UNL     1     -21.930   2.522  23.352  1.00  0.00    -0.000 C 
BRANCH  18  19
ATOM     19  C   UNL     1     -23.082   2.002  22.479  1.00  0.00    -0.000 C 
BRANCH  19  20
ATOM     20  C   UNL     1     -24.217   1.440  23.350  1.00  0.00    -0.000 C 
BRANCH  20  21
ATOM     21  C   UNL     1     -23.740   0.346  24.323  1.00  0.00    -0.000 C 
BRANCH  21  22
ATOM     22  C   UNL     1     -23.591  -1.056  23.700  1.00  0.00    -0.000 C 
BRANCH  22  23
ATOM     23  C   UNL     1     -22.220  -1.336  23.056  1.00  0.00    -0.000 C 
BRANCH  23  24
ATOM     24  C   UNL     1     -22.284  -1.530  21.524  1.00  0.00    -0.000 C 
BRANCH  24  25
ATOM     25  C   UNL     1     -21.309  -0.625  20.751  1.00  0.00    -0.003 C 
ATOM     26  C   UNL     1     -20.054  -0.296  21.561  1.00  0.00     0.004 C 
ENDBRANCH  24  25
ENDBRANCH  23  24
ENDBRANCH  22  23
ENDBRANCH  21  22
ENDBRANCH  20  21
ENDBRANCH  19  20
ENDBRANCH  18  19
ENDBRANCH  17  18
ENDBRANCH  16  17
ENDBRANCH  15  16
ENDBRANCH   1  15
TORSDOF 22
ENDMDL
MODEL 4
REMARK VINA RESULT:    -3.707      1.748      2.426
REMARK INTER + INTRA:         -12.566
REMARK INTER:                  -8.691
REMARK INTRA:                  -3.875
REMARK UNBOUND:                -4.091
REMARK SMILES CCCCCCCCCCCCCCCCCCCCCCCC(=O)[O-]
REMARK SMILES IDX 13 1 14 2 15 3 16 4 17 5 18 6 19 7 20 8 21 9 22 10 23 11
REMARK SMILES IDX 24 12 25 13 26 14 12 15 11 16 10 17 9 18 8 19 7 20 6 21 5 22
REMARK SMILES IDX 4 23 3 24 2 25 1 26
REMARK H PARENT
REMARK Flexibility Score: inf
ROOT
ATOM      1  C   UNL     1     -24.972   4.167  24.975  1.00  0.00     0.000 C 
ENDROOT
BRANCH   1   2
ATOM      2  C   UNL     1     -23.500   3.917  25.334  1.00  0.00     0.000 C 
BRANCH   2   3
ATOM      3  C   UNL     1     -23.076   2.450  25.131  1.00  0.00     0.000 C 
BRANCH   3   4
ATOM      4  C   UNL     1     -24.193   1.511  24.635  1.00  0.00     0.000 C 
BRANCH   4   5
ATOM      5  C   UNL     1     -24.185   1.222  23.120  1.00  0.00     0.000 C 
BRANCH   5   6
ATOM      6  C   UNL     1     -23.032   1.878  22.340  1.00  0.00     0.000 C 
BRANCH   6   7
ATOM      7  C   UNL     1     -22.037   0.849  21.776  1.00  0.00     0.000 C 
BRANCH   7   8
ATOM      8  C   UNL     1     -22.541  -0.597  21.906  1.00  0.00     0.000 C 
BRANCH   8   9
ATOM      9  C   UNL     1     -21.665  -1.454  22.838  1.00  0.00     0.000 C 
BRANCH   9  10
ATOM     10  C   UNL     1     -20.220  -0.941  22.933  1.00  0.00     0.006 C 
BRANCH  10  11
ATOM     11  C   UNL     1     -19.239  -1.777  22.101  1.00  0.00     0.053 C 
BRANCH  11  12
ATOM     12  C   UNL     1     -18.249  -0.897  21.403  1.00  0.00     0.041 C 
ATOM     13  O   UNL     1     -17.092  -1.325  21.147  1.00  0.00    -0.550 OA
ATOM     14  O   UNL     1     -18.605   0.395  21.032  1.00  0.00    -0.550 OA
ENDBRANCH  11  12
ENDBRANCH  10  11
ENDBRANCH   9  10
ENDBRANCH   8   9
ENDBRANCH   7   8
ENDBRANCH   6   7
ENDBRANCH   5   6
ENDBRANCH   4   5
ENDBRANCH   3   4
ENDBRANCH   2   3
ENDBRANCH   1   2
BRANCH   1  15
ATOM     15  C   UNL     1     -25.112   5.379  24.041  1.00  0.00     0.000 C 
BRANCH  15  16
ATOM     16  C   UNL     1     -23.873   5.601  23.161  1.00  0.00     0.000 C 
BRANCH  16  17
ATOM     17  C   UNL     1     -23.862   6.987  22.490  1.00  0.00     0.000 C 
BRANCH  17  18
ATOM     18  C   UNL     1     -22.435   7.498  22.226  1.00  0.00    -0.000 C 
BRANCH  18  19
ATOM     19  C   UNL     1     -22.164   7.730  20.731  1.00  0.00    -0.000 C 
BRANCH  19  20
ATOM     20  C   UNL     1     -20.903   6.976  20.281  1.00  0.00    -0.000 C 
BRANCH  20  21
ATOM     21  C   UNL     1     -21.220   5.620  19.623  1.00  0.00    -0.000 C 
BRANCH  21  22
ATOM     22  C   UNL     1     -21.220   4.416  20.586  1.00  0.00    -0.000 C 
BRANCH  22  23
ATOM     23  C   UNL     1     -19.838   3.781  20.829  1.00  0.00    -0.000 C 
BRANCH  23  24
ATOM     24  C   UNL     1     -19.377   3.848  22.303  1.00  0.00    -0.000 C 
BRANCH  24  25
ATOM     25  C   UNL     1     -20.468   4.354  23.263  1.00  0.00    -0.003 C 
ATOM     26  C   UNL     1     -19.981   5.508  24.141  1.00  0.00     0.004 C 
ENDBRANCH  24  25
ENDBRANCH  23  24
ENDBRANCH  22  23
ENDBRANCH  21  22
ENDBRANCH  20  21
ENDBRANCH  19  20
ENDBRANCH  18  19
ENDBRANCH  17  18
ENDBRANCH  16  17
ENDBRANCH  15  16
ENDBRANCH   1  15
TORSDOF 22
ENDMDL
MODEL 5
REMARK VINA RESULT:    -3.660      2.215      5.672
REMARK INTER + INTRA:         -12.458
REMARK INTER:                  -8.533
REMARK INTRA:                  -3.925
REMARK UNBOUND:                -4.091
REMARK SMILES CCCCCCCCCCCCCCCCCCCCCCCC(=O)[O-]
REMARK SMILES IDX 13 1 14 2 15 3 16 4 17 5 18 6 19 7 20 8 21 9 22 10 23 11
REMARK SMILES IDX 24 12 25 13 26 14 12 15 11 16 10 17 9 18 8 19 7 20 6 21 5 22
REMARK SMILES IDX 4 23 3 24 2 25 1 26
REMARK H PARENT
REMARK Flexibility Score: inf
ROOT
ATOM      1  C   UNL     1     -23.646   5.312  23.241  1.00  0.00     0.000 C 
ENDROOT
BRANCH   1   2
ATOM      2  C   UNL     1     -23.902   6.630  22.496  1.00  0.00     0.000 C 
BRANCH   2   3
ATOM      3  C   UNL     1     -22.615   7.440  22.254  1.00  0.00     0.000 C 
BRANCH   3   4
ATOM      4  C   UNL     1     -22.319   7.769  20.776  1.00  0.00     0.000 C 
BRANCH   4   5
ATOM      5  C   UNL     1     -21.120   7.017  20.163  1.00  0.00     0.000 C 
BRANCH   5   6
ATOM      6  C   UNL     1     -21.405   5.560  19.758  1.00  0.00     0.000 C 
BRANCH   6   7
ATOM      7  C   UNL     1     -20.795   4.543  20.737  1.00  0.00     0.000 C 
BRANCH   7   8
ATOM      8  C   UNL     1     -19.619   5.123  21.540  1.00  0.00     0.000 C 
BRANCH   8   9
ATOM      9  C   UNL     1     -18.298   4.373  21.293  1.00  0.00     0.000 C 
BRANCH   9  10
ATOM     10  C   UNL     1     -18.502   3.034  20.567  1.00  0.00     0.006 C 
BRANCH  10  11
ATOM     11  C   UNL     1     -18.181   1.824  21.454  1.00  0.00     0.053 C 
BRANCH  11  12
ATOM     12  C   UNL     1     -16.885   1.195  21.047  1.00  0.00     0.041 C 
ATOM     13  O   UNL     1     -16.540   1.185  19.835  1.00  0.00    -0.550 OA
ATOM     14  O   UNL     1     -16.056   0.623  22.005  1.00  0.00    -0.550 OA
ENDBRANCH  11  12
ENDBRANCH  10  11
ENDBRANCH   9  10
ENDBRANCH   8   9
ENDBRANCH   7   8
ENDBRANCH   6   7
ENDBRANCH   5   6
ENDBRANCH   4   5
ENDBRANCH   3   4
ENDBRANCH   2   3
ENDBRANCH   1   2
BRANCH   1  15
ATOM     15  C   UNL     1     -22.303   5.354  23.986  1.00  0.00     0.000 C 
BRANCH  15  16
ATOM     16  C   UNL     1     -22.350   4.635  25.343  1.00  0.00     0.000 C 
BRANCH  16  17
ATOM     17  C   UNL     1     -23.761   4.134  25.701  1.00  0.00     0.000 C 
BRANCH  17  18
ATOM     18  C   UNL     1     -23.769   2.651  26.112  1.00  0.00    -0.000 C 
BRANCH  18  19
ATOM     19  C   UNL     1     -23.291   1.727  24.982  1.00  0.00    -0.000 C 
BRANCH  19  20
ATOM     20  C   UNL     1     -24.308   1.700  23.831  1.00  0.00    -0.000 C 
BRANCH  20  21
ATOM     21  C   UNL     1     -23.642   1.716  22.442  1.00  0.00    -0.000 C 
BRANCH  21  22
ATOM     22  C   UNL     1     -22.101   1.725  22.463  1.00  0.00    -0.000 C 
BRANCH  22  23
ATOM     23  C   UNL     1     -21.439   0.437  21.936  1.00  0.00    -0.000 C 
BRANCH  23  24
ATOM     24  C   UNL     1     -22.440  -0.715  21.689  1.00  0.00    -0.000 C 
BRANCH  24  25
ATOM     25  C   UNL     1     -22.314  -1.864  22.706  1.00  0.00    -0.003 C 
ATOM     26  C   UNL     1     -23.528  -1.957  23.631  1.00  0.00     0.004 C 
ENDBRANCH  24  25
ENDBRANCH  23  24
ENDBRANCH  22  23
ENDBRANCH  21  22
ENDBRANCH  20  21
ENDBRANCH  19  20
ENDBRANCH  18  19
ENDBRANCH  17  18
ENDBRANCH  16  17
ENDBRANCH  15  16
ENDBRANCH   1  15
TORSDOF 22
ENDMDL
MODEL 6
REMARK VINA RESULT:    -3.645      1.159      2.176
REMARK INTER + INTRA:         -12.423
REMARK INTER:                  -8.306
REMARK INTRA:                  -4.117
REMARK UNBOUND:                -4.091
REMARK SMILES CCCCCCCCCCCCCCCCCCCCCCCC(=O)[O-]
REMARK SMILES IDX 13 1 14 2 15 3 16 4 17 5 18 6 19 7 20 8 21 9 22 10 23 11
REMARK SMILES IDX 24 12 25 13 26 14 12 15 11 16 10 17 9 18 8 19 7 20 6 21 5 22
REMARK SMILES IDX 4 23 3 24 2 25 1 26
REMARK H PARENT
REMARK Flexibility Score: inf
ROOT
ATOM      1  C   UNL     1     -25.045   4.658  24.532  1.00  0.00     0.000 C 
ENDROOT
BRANCH   1   2
ATOM      2  C   UNL     1     -24.638   4.749  26.009  1.00  0.00     0.000 C 
BRANCH   2   3
ATOM      3  C   UNL     1     -23.208   4.239  26.269  1.00  0.00     0.000 C 
BRANCH   3   4
ATOM      4  C   UNL     1     -23.099   2.731  26.575  1.00  0.00     0.000 C 
BRANCH   4   5
ATOM      5  C   UNL     1     -22.683   1.846  25.383  1.00  0.00     0.000 C 
BRANCH   5   6
ATOM      6  C   UNL     1     -23.789   0.922  24.842  1.00  0.00     0.000 C 
BRANCH   6   7
ATOM      7  C   UNL     1     -24.304   1.360  23.460  1.00  0.00     0.000 C 
BRANCH   7   8
ATOM      8  C   UNL     1     -23.189   1.913  22.558  1.00  0.00     0.000 C 
BRANCH   8   9
ATOM      9  C   UNL     1     -22.446   0.811  21.782  1.00  0.00     0.000 C 
BRANCH   9  10
ATOM     10  C   UNL     1     -20.980   0.663  22.217  1.00  0.00     0.006 C 
BRANCH  10  11
ATOM     11  C   UNL     1     -20.242  -0.439  21.446  1.00  0.00     0.053 C 
BRANCH  11  12
ATOM     12  C   UNL     1     -20.189  -1.703  22.246  1.00  0.00     0.041 C 
ATOM     13  O   UNL     1     -21.102  -2.564  22.132  1.00  0.00    -0.550 OA
ATOM     14  O   UNL     1     -19.129  -1.934  23.116  1.00  0.00    -0.550 OA
ENDBRANCH  11  12
ENDBRANCH  10  11
ENDBRANCH   9  10
ENDBRANCH   8   9
ENDBRANCH   7   8
ENDBRANCH   6   7
ENDBRANCH   5   6
ENDBRANCH   4   5
ENDBRANCH   3   4
ENDBRANCH   2   3
ENDBRANCH   1   2
BRANCH   1  15
ATOM     15  C   UNL     1     -23.989   5.316  23.630  1.00  0.00     0.000 C 
BRANCH  15  16
ATOM     16  C   UNL     1     -24.528   6.541  22.875  1.00  0.00     0.000 C 
BRANCH  16  17
ATOM     17  C   UNL     1     -23.427   7.301  22.114  1.00  0.00     0.000 C 
BRANCH  17  18
ATOM     18  C   UNL     1     -22.093   7.323  22.880  1.00  0.00    -0.000 C 
BRANCH  18  19
ATOM     19  C   UNL     1     -20.884   7.479  21.945  1.00  0.00    -0.000 C 
BRANCH  19  20
ATOM     20  C   UNL     1     -21.317   7.401  20.473  1.00  0.00    -0.000 C 
BRANCH  20  21
ATOM     21  C   UNL     1     -20.782   6.146  19.758  1.00  0.00    -0.000 C 
BRANCH  21  22
ATOM     22  C   UNL     1     -21.341   4.810  20.288  1.00  0.00    -0.000 C 
BRANCH  22  23
ATOM     23  C   UNL     1     -20.272   3.778  20.695  1.00  0.00    -0.000 C 
BRANCH  23  24
ATOM     24  C   UNL     1     -19.136   4.371  21.558  1.00  0.00    -0.000 C 
BRANCH  24  25
ATOM     25  C   UNL     1     -19.134   3.855  23.008  1.00  0.00    -0.003 C 
ATOM     26  C   UNL     1     -20.454   4.137  23.727  1.00  0.00     0.004 C 
ENDBRANCH  24  25
ENDBRANCH  23  24
ENDBRANCH  22  23
ENDBRANCH  21  22
ENDBRANCH  20  21
ENDBRANCH  19  20
ENDBRANCH  18  19
ENDBRANCH  17  18
ENDBRANCH  16  17
ENDBRANCH  15  16
ENDBRANCH   1  15
TORSDOF 22
ENDMDL
MODEL 7
REMARK VINA RESULT:    -3.639      2.934      6.944
REMARK INTER + INTRA:         -12.410
REMARK INTER:                  -8.430
REMARK INTRA:                  -3.979
REMARK UNBOUND:                -4.091
REMARK SMILES CCCCCCCCCCCCCCCCCCCCCCCC(=O)[O-]
REMARK SMILES IDX 13 1 14 2 15 3 16 4 17 5 18 6 19 7 20 8 21 9 22 10 23 11
REMARK SMILES IDX 24 12 25 13 26 14 12 15 11 16 10 17 9 18 8 19 7 20 6 21 5 22
REMARK SMILES IDX 4 23 3 24 2 25 1 26
REMARK H PARENT
REMARK Flexibility Score: inf
ROOT
ATOM      1  C   UNL     1     -18.393   4.754  22.687  1.00  0.00     0.000 C 
ENDROOT
BRANCH   1   2
ATOM      2  C   UNL     1     -19.013   4.960  24.076  1.00  0.00     0.000 C 
BRANCH   2   3
ATOM      3  C   UNL     1     -20.337   5.744  24.029  1.00  0.00     0.000 C 
BRANCH   3   4
ATOM      4  C   UNL     1     -20.726   6.287  22.639  1.00  0.00     0.000 C 
BRANCH   4   5
ATOM      5  C   UNL     1     -21.675   7.503  22.650  1.00  0.00     0.000 C 
BRANCH   5   6
ATOM      6  C   UNL     1     -23.059   7.252  22.025  1.00  0.00     0.000 C 
BRANCH   6   7
ATOM      7  C   UNL     1     -23.654   5.893  22.429  1.00  0.00     0.000 C 
BRANCH   7   8
ATOM      8  C   UNL     1     -24.858   6.029  23.375  1.00  0.00     0.000 C 
BRANCH   8   9
ATOM      9  C   UNL     1     -25.061   4.792  24.268  1.00  0.00     0.000 C 
BRANCH   9  10
ATOM     10  C   UNL     1     -24.674   5.047  25.733  1.00  0.00     0.006 C 
BRANCH  10  11
ATOM     11  C   UNL     1     -23.266   4.538  26.071  1.00  0.00     0.053 C 
BRANCH  11  12
ATOM     12  C   UNL     1     -22.728   5.231  27.284  1.00  0.00     0.041 C 
ATOM     13  O   UNL     1     -21.484   5.304  27.472  1.00  0.00    -0.550 OA
ATOM     14  O   UNL     1     -23.599   5.801  28.206  1.00  0.00    -0.550 OA
ENDBRANCH  11  12
ENDBRANCH  10  11
ENDBRANCH   9  10
ENDBRANCH   8   9
ENDBRANCH   7   8
ENDBRANCH   6   7
ENDBRANCH   5   6
ENDBRANCH   4   5
ENDBRANCH   3   4
ENDBRANCH   2   3
ENDBRANCH   1   2
BRANCH   1  15
ATOM     15  C   UNL     1     -18.297   3.259  22.344  1.00  0.00     0.000 C 
BRANCH  15  16
ATOM     16  C   UNL     1     -19.080   2.885  21.077  1.00  0.00     0.000 C 
BRANCH  16  17
ATOM     17  C   UNL     1     -20.334   2.046  21.379  1.00  0.00     0.000 C 
BRANCH  17  18
ATOM     18  C   UNL     1     -21.574   2.919  21.639  1.00  0.00    -0.000 C 
BRANCH  18  19
ATOM     19  C   UNL     1     -22.332   2.497  22.907  1.00  0.00    -0.000 C 
BRANCH  19  20
ATOM     20  C   UNL     1     -23.626   1.749  22.547  1.00  0.00    -0.000 C 
BRANCH  20  21
ATOM     21  C   UNL     1     -24.320   1.128  23.773  1.00  0.00    -0.000 C 
BRANCH  21  22
ATOM     22  C   UNL     1     -23.608  -0.104  24.366  1.00  0.00    -0.000 C 
BRANCH  22  23
ATOM     23  C   UNL     1     -23.125  -1.134  23.327  1.00  0.00    -0.000 C 
BRANCH  23  24
ATOM     24  C   UNL     1     -21.589  -1.169  23.159  1.00  0.00    -0.000 C 
BRANCH  24  25
ATOM     25  C   UNL     1     -21.136  -1.653  21.769  1.00  0.00    -0.003 C 
ATOM     26  C   UNL     1     -22.121  -1.259  20.667  1.00  0.00     0.004 C 
ENDBRANCH  24  25
ENDBRANCH  23  24
ENDBRANCH  22  23
ENDBRANCH  21  22
ENDBRANCH  20  21
ENDBRANCH  19  20
ENDBRANCH  18  19
ENDBRANCH  17  18
ENDBRANCH  16  17
ENDBRANCH  15  16
ENDBRANCH   1  15
TORSDOF 22
ENDMDL
MODEL 8
REMARK VINA RESULT:    -3.591      1.512      3.285
REMARK INTER + INTRA:         -12.301
REMARK INTER:                  -8.162
REMARK INTRA:                  -4.138
REMARK UNBOUND:                -4.091
REMARK SMILES CCCCCCCCCCCCCCCCCCCCCCCC(=O)[O-]
REMARK SMILES IDX 13 1 14 2 15 3 16 4 17 5 18 6 19 7 20 8 21 9 22 10 23 11
REMARK SMILES IDX 24 12 25 13 26 14 12 15 11 16 10 17 9 18 8 19 7 20 6 21 5 22
REMARK SMILES IDX 4 23 3 24 2 25 1 26
REMARK H PARENT
REMARK Flexibility Score: inf
ROOT
ATOM      1  C   UNL     1     -23.830   5.131  23.430  1.00  0.00     0.000 C 
ENDROOT
BRANCH   1   2
ATOM      2  C   UNL     1     -24.833   4.480  24.393  1.00  0.00     0.000 C 
BRANCH   2   3
ATOM      3  C   UNL     1     -24.739   5.042  25.824  1.00  0.00     0.000 C 
BRANCH   3   4
ATOM      4  C   UNL     1     -23.690   4.359  26.726  1.00  0.00     0.000 C 
BRANCH   4   5
ATOM      5  C   UNL     1     -22.344   5.102  26.846  1.00  0.00     0.000 C 
BRANCH   5   6
ATOM      6  C   UNL     1     -21.228   4.577  25.925  1.00  0.00     0.000 C 
BRANCH   6   7
ATOM      7  C   UNL     1     -21.304   3.056  25.709  1.00  0.00     0.000 C 
BRANCH   7   8
ATOM      8  C   UNL     1     -21.453   2.673  24.228  1.00  0.00     0.000 C 
BRANCH   8   9
ATOM      9  C   UNL     1     -22.387   1.469  24.012  1.00  0.00     0.000 C 
BRANCH   9  10
ATOM     10  C   UNL     1     -22.913   1.376  22.572  1.00  0.00     0.006 C 
BRANCH  10  11
ATOM     11  C   UNL     1     -21.928   0.675  21.627  1.00  0.00     0.053 C 
BRANCH  11  12
ATOM     12  C   UNL     1     -22.323  -0.753  21.411  1.00  0.00     0.041 C 
ATOM     13  O   UNL     1     -22.864  -1.408  22.341  1.00  0.00    -0.550 OA
ATOM     14  O   UNL     1     -22.097  -1.360  20.180  1.00  0.00    -0.550 OA
ENDBRANCH  11  12
ENDBRANCH  10  11
ENDBRANCH   9  10
ENDBRANCH   8   9
ENDBRANCH   7   8
ENDBRANCH   6   7
ENDBRANCH   5   6
ENDBRANCH   4   5
ENDBRANCH   3   4
ENDBRANCH   2   3
ENDBRANCH   1   2
BRANCH   1  15
ATOM     15  C   UNL     1     -24.379   6.455  22.877  1.00  0.00     0.000 C 
BRANCH  15  16
ATOM     16  C   UNL     1     -23.298   7.315  22.205  1.00  0.00     0.000 C 
BRANCH  16  17
ATOM     17  C   UNL     1     -21.883   6.734  22.378  1.00  0.00     0.000 C 
BRANCH  17  18
ATOM     18  C   UNL     1     -21.049   6.829  21.089  1.00  0.00    -0.000 C 
BRANCH  18  19
ATOM     19  C   UNL     1     -21.402   5.724  20.081  1.00  0.00    -0.000 C 
BRANCH  19  20
ATOM     20  C   UNL     1     -21.097   4.335  20.663  1.00  0.00    -0.000 C 
BRANCH  20  21
ATOM     21  C   UNL     1     -19.595   3.993  20.641  1.00  0.00    -0.000 C 
BRANCH  21  22
ATOM     22  C   UNL     1     -19.125   3.068  21.781  1.00  0.00    -0.000 C 
BRANCH  22  23
ATOM     23  C   UNL     1     -18.239   3.747  22.843  1.00  0.00    -0.000 C 
BRANCH  23  24
ATOM     24  C   UNL     1     -18.135   5.280  22.672  1.00  0.00    -0.000 C 
BRANCH  24  25
ATOM     25  C   UNL     1     -18.592   6.067  23.913  1.00  0.00    -0.003 C 
ATOM     26  C   UNL     1     -18.343   7.570  23.773  1.00  0.00     0.004 C 
ENDBRANCH  24  25
ENDBRANCH  23  24
ENDBRANCH  22  23
ENDBRANCH  21  22
ENDBRANCH  20  21
ENDBRANCH  19  20
ENDBRANCH  18  19
ENDBRANCH  17  18
ENDBRANCH  16  17
ENDBRANCH  15  16
ENDBRANCH   1  15
TORSDOF 22
ENDMDL
MODEL 9
REMARK VINA RESULT:    -3.588      1.337      4.284
REMARK INTER + INTRA:         -12.293
REMARK INTER:                  -7.999
REMARK INTRA:                  -4.294
REMARK UNBOUND:                -4.091
REMARK SMILES CCCCCCCCCCCCCCCCCCCCCCCC(=O)[O-]
REMARK SMILES IDX 13 1 14 2 15 3 16 4 17 5 18 6 19 7 20 8 21 9 22 10 23 11
REMARK SMILES IDX 24 12 25 13 26 14 12 15 11 16 10 17 9 18 8 19 7 20 6 21 5 22
REMARK SMILES IDX 4 23 3 24 2 25 1 26
REMARK H PARENT
REMARK Flexibility Score: inf
ROOT
ATOM      1  C   UNL     1     -20.280   6.263  20.638  1.00  0.00     0.000 C 
ENDROOT
BRANCH   1   2
ATOM      2  C   UNL     1     -20.440   4.737  20.573  1.00  0.00     0.000 C 
BRANCH   2   3
ATOM      3  C   UNL     1     -19.096   3.991  20.672  1.00  0.00     0.000 C 
BRANCH   3   4
ATOM      4  C   UNL     1     -19.205   2.495  21.030  1.00  0.00     0.000 C 
BRANCH   4   5
ATOM      5  C   UNL     1     -20.174   2.165  22.183  1.00  0.00     0.000 C 
BRANCH   5   6
ATOM      6  C   UNL     1     -21.416   1.351  21.776  1.00  0.00     0.000 C 
BRANCH   6   7
ATOM      7  C   UNL     1     -22.729   2.114  22.015  1.00  0.00     0.000 C 
BRANCH   7   8
ATOM      8  C   UNL     1     -23.718   1.335  22.897  1.00  0.00     0.000 C 
BRANCH   8   9
ATOM      9  C   UNL     1     -23.176   1.072  24.313  1.00  0.00     0.000 C 
BRANCH   9  10
ATOM     10  C   UNL     1     -22.976  -0.423  24.604  1.00  0.00     0.006 C 
BRANCH  10  11
ATOM     11  C   UNL     1     -23.477  -1.320  23.464  1.00  0.00     0.053 C 
BRANCH  11  12
ATOM     12  C   UNL     1     -22.355  -2.130  22.893  1.00  0.00     0.041 C 
ATOM     13  O   UNL     1     -21.711  -2.927  23.627  1.00  0.00    -0.550 OA
ATOM     14  O   UNL     1     -22.021  -2.008  21.548  1.00  0.00    -0.550 OA
ENDBRANCH  11  12
ENDBRANCH  10  11
ENDBRANCH   9  10
ENDBRANCH   8   9
ENDBRANCH   7   8
ENDBRANCH   6   7
ENDBRANCH   5   6
ENDBRANCH   4   5
ENDBRANCH   3   4
ENDBRANCH   2   3
ENDBRANCH   1   2
BRANCH   1  15
ATOM     15  C   UNL     1     -21.355   6.965  19.793  1.00  0.00     0.000 C 
BRANCH  15  16
ATOM     16  C   UNL     1     -22.107   8.055  20.571  1.00  0.00     0.000 C 
BRANCH  16  17
ATOM     17  C   UNL     1     -22.263   7.720  22.065  1.00  0.00     0.000 C 
BRANCH  17  18
ATOM     18  C   UNL     1     -23.632   7.096  22.386  1.00  0.00    -0.000 C 
BRANCH  18  19
ATOM     19  C   UNL     1     -23.548   5.576  22.591  1.00  0.00    -0.000 C 
BRANCH  19  20
ATOM     20  C   UNL     1     -24.012   5.189  24.004  1.00  0.00    -0.000 C 
BRANCH  20  21
ATOM     21  C   UNL     1     -22.846   4.790  24.929  1.00  0.00    -0.000 C 
BRANCH  21  22
ATOM     22  C   UNL     1     -21.466   4.735  24.244  1.00  0.00    -0.000 C 
BRANCH  22  23
ATOM     23  C   UNL     1     -20.435   5.745  24.784  1.00  0.00    -0.000 C 
BRANCH  23  24
ATOM     24  C   UNL     1     -19.100   5.742  24.005  1.00  0.00    -0.000 C 
BRANCH  24  25
ATOM     25  C   UNL     1     -18.226   4.508  24.292  1.00  0.00    -0.003 C 
ATOM     26  C   UNL     1     -16.876   4.573  23.577  1.00  0.00     0.004 C 
ENDBRANCH  24  25
ENDBRANCH  23  24
ENDBRANCH  22  23
ENDBRANCH  21  22
ENDBRANCH  20  21
ENDBRANCH  19  20
ENDBRANCH  18  19
ENDBRANCH  17  18
ENDBRANCH  16  17
ENDBRANCH  15  16
ENDBRANCH   1  15
TORSDOF 22
ENDMDL
