MODEL 1
REMARK VINA RESULT:    -3.531      0.000      0.000
REMARK INTER + INTRA:          -5.188
REMARK INTER:                  -4.976
REMARK INTRA:                  -0.211
REMARK UNBOUND:                -0.211
REMARK SMILES CCCCCCCCC(=O)[O-]
REMARK SMILES IDX 6 1 7 2 8 3 9 4 10 5 11 6 5 7 4 8 3 9 2 10 1 11
REMARK H PARENT
REMARK Flexibility Score: inf
ROOT
ATOM      1  C   UNL     1     -31.520 -20.720 -22.355  1.00  0.00     0.000 C 
ENDROOT
BRANCH   1   2
ATOM      2  C   UNL     1     -31.398 -20.331 -23.839  1.00  0.00     0.006 C 
BRANCH   2   3
ATOM      3  C   UNL     1     -30.489 -21.293 -24.615  1.00  0.00     0.053 C 
BRANCH   3   4
ATOM      4  C   UNL     1     -30.544 -21.038 -26.089  1.00  0.00     0.041 C 
ATOM      5  O   UNL     1     -30.689 -21.994 -26.894  1.00  0.00    -0.550 OA
ATOM      6  O   UNL     1     -30.470 -19.737 -26.572  1.00  0.00    -0.550 OA
ENDBRANCH   3   4
ENDBRANCH   2   3
ENDBRANCH   1   2
BRANCH   1   7
ATOM      7  C   UNL     1     -30.869 -22.076 -22.033  1.00  0.00     0.000 C 
BRANCH   7   8
ATOM      8  C   UNL     1     -30.094 -22.124 -20.703  1.00  0.00    -0.000 C 
BRANCH   8   9
ATOM      9  C   UNL     1     -28.573 -21.999 -20.893  1.00  0.00    -0.000 C 
BRANCH   9  10
ATOM     10  C   UNL     1     -28.185 -21.700 -22.349  1.00  0.00    -0.003 C 
ATOM     11  C   UNL     1     -26.753 -22.125 -22.676  1.00  0.00     0.004 C 
ENDBRANCH   9  10
ENDBRANCH   8   9
ENDBRANCH   7   8
ENDBRANCH   1   7
TORSDOF 7
ENDMDL
MODEL 2
REMARK VINA RESULT:    -3.459      3.683      5.389
REMARK INTER + INTRA:          -5.086
REMARK INTER:                  -4.937
REMARK INTRA:                  -0.149
REMARK UNBOUND:                -0.211
REMARK SMILES CCCCCCCCC(=O)[O-]
REMARK SMILES IDX 6 1 7 2 8 3 9 4 10 5 11 6 5 7 4 8 3 9 2 10 1 11
REMARK H PARENT
REMARK Flexibility Score: inf
ROOT
ATOM      1  C   UNL     1     -30.720 -21.985 -21.844  1.00  0.00     0.000 C 
ENDROOT
BRANCH   1   2
ATOM      2  C   UNL     1     -29.185 -22.090 -21.854  1.00  0.00     0.006 C 
BRANCH   2   3
ATOM      3  C   UNL     1     -28.535 -21.168 -20.814  1.00  0.00     0.053 C 
BRANCH   3   4
ATOM      4  C   UNL     1     -28.522 -21.792 -19.453  1.00  0.00     0.041 C 
ATOM      5  O   UNL     1     -29.600 -22.125 -18.896  1.00  0.00    -0.550 OA
ATOM      6  O   UNL     1     -27.312 -22.039 -18.815  1.00  0.00    -0.550 OA
ENDBRANCH   3   4
ENDBRANCH   2   3
ENDBRANCH   1   2
BRANCH   1   7
ATOM      7  C   UNL     1     -31.252 -20.881 -22.776  1.00  0.00     0.000 C 
BRANCH   7   8
ATOM      8  C   UNL     1     -31.183 -21.213 -24.278  1.00  0.00    -0.000 C 
BRANCH   8   9
ATOM      9  C   UNL     1     -30.340 -20.202 -25.074  1.00  0.00    -0.000 C 
BRANCH   9  10
ATOM     10  C   UNL     1     -30.269 -20.544 -26.570  1.00  0.00    -0.003 C 
ATOM     11  C   UNL     1     -30.708 -21.977 -26.869  1.00  0.00     0.004 C 
ENDBRANCH   9  10
ENDBRANCH   8   9
ENDBRANCH   7   8
ENDBRANCH   1   7
TORSDOF 7
ENDMDL
MODEL 3
REMARK VINA RESULT:    -3.458      1.472      2.309
REMARK INTER + INTRA:          -5.085
REMARK INTER:                  -4.843
REMARK INTRA:                  -0.242
REMARK UNBOUND:                -0.211
REMARK SMILES CCCCCCCCC(=O)[O-]
REMARK SMILES IDX 6 1 7 2 8 3 9 4 10 5 11 6 5 7 4 8 3 9 2 10 1 11
REMARK H PARENT
REMARK Flexibility Score: inf
ROOT
ATOM      1  C   UNL     1     -29.082 -21.016 -23.539  1.00  0.00     0.000 C 
ENDROOT
BRANCH   1   2
ATOM      2  C   UNL     1     -30.576 -21.382 -23.556  1.00  0.00     0.006 C 
BRANCH   2   3
ATOM      3  C   UNL     1     -31.339 -20.647 -24.666  1.00  0.00     0.053 C 
BRANCH   3   4
ATOM      4  C   UNL     1     -30.765 -20.938 -26.018  1.00  0.00     0.041 C 
ATOM      5  O   UNL     1     -30.677 -22.125 -26.429  1.00  0.00    -0.550 OA
ATOM      6  O   UNL     1     -30.361 -19.894 -26.840  1.00  0.00    -0.550 OA
ENDBRANCH   3   4
ENDBRANCH   2   3
ENDBRANCH   1   2
BRANCH   1   7
ATOM      7  C   UNL     1     -28.301 -21.733 -22.424  1.00  0.00     0.000 C 
BRANCH   7   8
ATOM      8  C   UNL     1     -29.058 -21.871 -21.090  1.00  0.00    -0.000 C 
BRANCH   8   9
ATOM      9  C   UNL     1     -28.290 -21.266 -19.902  1.00  0.00    -0.000 C 
BRANCH   9  10
ATOM     10  C   UNL     1     -28.396 -22.124 -18.633  1.00  0.00    -0.003 C 
ATOM     11  C   UNL     1     -27.122 -22.088 -17.789  1.00  0.00     0.004 C 
ENDBRANCH   9  10
ENDBRANCH   8   9
ENDBRANCH   7   8
ENDBRANCH   1   7
TORSDOF 7
ENDMDL
MODEL 4
REMARK VINA RESULT:    -3.300      2.856      4.678
REMARK INTER + INTRA:          -4.861
REMARK INTER:                  -4.510
REMARK INTRA:                  -0.352
REMARK UNBOUND:                -0.211
REMARK SMILES CCCCCCCCC(=O)[O-]
REMARK SMILES IDX 6 1 7 2 8 3 9 4 10 5 11 6 5 7 4 8 3 9 2 10 1 11
REMARK H PARENT
REMARK Flexibility Score: inf
ROOT
ATOM      1  C   UNL     1     -31.958 -20.623 -22.309  1.00  0.00     0.000 C 
ENDROOT
BRANCH   1   2
ATOM      2  C   UNL     1     -30.876 -21.702 -22.488  1.00  0.00     0.006 C 
BRANCH   2   3
ATOM      3  C   UNL     1     -30.254 -22.125 -21.151  1.00  0.00     0.053 C 
BRANCH   3   4
ATOM      4  C   UNL     1     -28.813 -21.729 -21.061  1.00  0.00     0.041 C 
ATOM      5  O   UNL     1     -28.158 -21.473 -22.105  1.00  0.00    -0.550 OA
ATOM      6  O   UNL     1     -28.202 -21.608 -19.819  1.00  0.00    -0.550 OA
ENDBRANCH   3   4
ENDBRANCH   2   3
ENDBRANCH   1   2
BRANCH   1   7
ATOM      7  C   UNL     1     -31.811 -19.455 -23.300  1.00  0.00     0.000 C 
BRANCH   7   8
ATOM      8  C   UNL     1     -31.680 -19.872 -24.777  1.00  0.00    -0.000 C 
BRANCH   8   9
ATOM      9  C   UNL     1     -30.222 -19.890 -25.266  1.00  0.00    -0.000 C 
BRANCH   9  10
ATOM     10  C   UNL     1     -29.968 -20.976 -26.322  1.00  0.00    -0.003 C 
ATOM     11  C   UNL     1     -31.054 -22.052 -26.333  1.00  0.00     0.004 C 
ENDBRANCH   9  10
ENDBRANCH   8   9
ENDBRANCH   7   8
ENDBRANCH   1   7
TORSDOF 7
ENDMDL
MODEL 5
REMARK VINA RESULT:    -3.256      4.640      6.367
REMARK INTER + INTRA:          -4.799
REMARK INTER:                  -4.523
REMARK INTRA:                  -0.276
REMARK UNBOUND:                -0.211
REMARK SMILES CCCCCCCCC(=O)[O-]
REMARK SMILES IDX 6 1 7 2 8 3 9 4 10 5 11 6 5 7 4 8 3 9 2 10 1 11
REMARK H PARENT
REMARK Flexibility Score: inf
ROOT
ATOM      1  C   UNL     1     -28.542 -21.181 -21.232  1.00  0.00     0.000 C 
ENDROOT
BRANCH   1   2
ATOM      2  C   UNL     1     -27.867 -21.968 -20.094  1.00  0.00     0.006 C 
BRANCH   2   3
ATOM      3  C   UNL     1     -28.718 -21.984 -18.818  1.00  0.00     0.053 C 
BRANCH   3   4
ATOM      4  C   UNL     1     -27.869 -22.068 -17.587  1.00  0.00     0.041 C 
ATOM      5  O   UNL     1     -28.404 -22.119 -16.449  1.00  0.00    -0.550 OA
ATOM      6  O   UNL     1     -26.486 -22.125 -17.701  1.00  0.00    -0.550 OA
ENDBRANCH   3   4
ENDBRANCH   2   3
ENDBRANCH   1   2
BRANCH   1   7
ATOM      7  C   UNL     1     -27.960 -21.511 -22.617  1.00  0.00     0.000 C 
BRANCH   7   8
ATOM      8  C   UNL     1     -28.910 -21.244 -23.799  1.00  0.00    -0.000 C 
BRANCH   8   9
ATOM      9  C   UNL     1     -30.355 -20.966 -23.352  1.00  0.00    -0.000 C 
BRANCH   9  10
ATOM     10  C   UNL     1     -31.077 -19.974 -24.277  1.00  0.00    -0.003 C 
ATOM     11  C   UNL     1     -30.500 -19.959 -25.691  1.00  0.00     0.004 C 
ENDBRANCH   9  10
ENDBRANCH   8   9
ENDBRANCH   7   8
ENDBRANCH   1   7
TORSDOF 7
ENDMDL
MODEL 6
REMARK VINA RESULT:    -2.557      2.047      4.084
REMARK INTER + INTRA:          -3.814
REMARK INTER:                  -3.659
REMARK INTRA:                  -0.155
REMARK UNBOUND:                -0.211
REMARK SMILES CCCCCCCCC(=O)[O-]
REMARK SMILES IDX 6 1 7 2 8 3 9 4 10 5 11 6 5 7 4 8 3 9 2 10 1 11
REMARK H PARENT
REMARK Flexibility Score: inf
ROOT
ATOM      1  C   UNL     1     -29.049 -21.547 -21.919  1.00  0.00     0.000 C 
ENDROOT
BRANCH   1   2
ATOM      2  C   UNL     1     -30.467 -22.123 -22.071  1.00  0.00     0.006 C 
BRANCH   2   3
ATOM      3  C   UNL     1     -31.534 -21.197 -21.473  1.00  0.00     0.053 C 
BRANCH   3   4
ATOM      4  C   UNL     1     -32.081 -20.250 -22.496  1.00  0.00     0.041 C 
ATOM      5  O   UNL     1     -32.240 -20.624 -23.688  1.00  0.00    -0.550 OA
ATOM      6  O   UNL     1     -32.450 -18.963 -22.124  1.00  0.00    -0.550 OA
ENDBRANCH   3   4
ENDBRANCH   2   3
ENDBRANCH   1   2
BRANCH   1   7
ATOM      7  C   UNL     1     -28.386 -21.220 -23.269  1.00  0.00     0.000 C 
BRANCH   7   8
ATOM      8  C   UNL     1     -29.272 -21.473 -24.503  1.00  0.00    -0.000 C 
BRANCH   8   9
ATOM      9  C   UNL     1     -29.655 -20.177 -25.238  1.00  0.00    -0.000 C 
BRANCH   9  10
ATOM     10  C   UNL     1     -30.357 -20.446 -26.578  1.00  0.00    -0.003 C 
ATOM     11  C   UNL     1     -30.588 -21.936 -26.833  1.00  0.00     0.004 C 
ENDBRANCH   9  10
ENDBRANCH   8   9
ENDBRANCH   7   8
ENDBRANCH   1   7
TORSDOF 7
ENDMDL
MODEL 7
REMARK VINA RESULT:    -2.398      1.811      2.867
REMARK INTER + INTRA:          -3.591
REMARK INTER:                  -3.741
REMARK INTRA:                   0.150
REMARK UNBOUND:                -0.211
REMARK SMILES CCCCCCCCC(=O)[O-]
REMARK SMILES IDX 6 1 7 2 8 3 9 4 10 5 11 6 5 7 4 8 3 9 2 10 1 11
REMARK H PARENT
REMARK Flexibility Score: inf
ROOT
ATOM      1  C   UNL     1     -28.366 -21.067 -23.215  1.00  0.00     0.000 C 
ENDROOT
BRANCH   1   2
ATOM      2  C   UNL     1     -29.240 -21.413 -24.433  1.00  0.00     0.006 C 
BRANCH   2   3
ATOM      3  C   UNL     1     -30.725 -21.528 -24.066  1.00  0.00     0.053 C 
BRANCH   3   4
ATOM      4  C   UNL     1     -31.400 -20.192 -24.068  1.00  0.00     0.041 C 
ATOM      5  O   UNL     1     -31.374 -19.468 -25.097  1.00  0.00    -0.550 OA
ATOM      6  O   UNL     1     -32.090 -19.761 -22.941  1.00  0.00    -0.550 OA
ENDBRANCH   3   4
ENDBRANCH   2   3
ENDBRANCH   1   2
BRANCH   1   7
ATOM      7  C   UNL     1     -28.466 -22.110 -22.088  1.00  0.00     0.000 C 
BRANCH   7   8
ATOM      8  C   UNL     1     -29.792 -22.092 -21.305  1.00  0.00    -0.000 C 
BRANCH   8   9
ATOM      9  C   UNL     1     -29.585 -22.124 -19.781  1.00  0.00    -0.000 C 
BRANCH   9  10
ATOM     10  C   UNL     1     -28.122 -21.882 -19.380  1.00  0.00    -0.003 C 
ATOM     11  C   UNL     1     -27.882 -22.076 -17.883  1.00  0.00     0.004 C 
ENDBRANCH   9  10
ENDBRANCH   8   9
ENDBRANCH   7   8
ENDBRANCH   1   7
TORSDOF 7
ENDMDL
MODEL 8
REMARK VINA RESULT:    -2.271      3.726      5.682
REMARK INTER + INTRA:          -3.411
REMARK INTER:                  -3.510
REMARK INTRA:                   0.099
REMARK UNBOUND:                -0.211
REMARK SMILES CCCCCCCCC(=O)[O-]
REMARK SMILES IDX 6 1 7 2 8 3 9 4 10 5 11 6 5 7 4 8 3 9 2 10 1 11
REMARK H PARENT
REMARK Flexibility Score: inf
ROOT
ATOM      1  C   UNL     1     -29.441 -21.515 -22.915  1.00  0.00     0.000 C 
ENDROOT
BRANCH   1   2
ATOM      2  C   UNL     1     -28.337 -21.539 -21.843  1.00  0.00     0.006 C 
BRANCH   2   3
ATOM      3  C   UNL     1     -28.837 -22.112 -20.511  1.00  0.00     0.053 C 
BRANCH   3   4
ATOM      4  C   UNL     1     -28.236 -21.397 -19.340  1.00  0.00     0.041 C 
ATOM      5  O   UNL     1     -28.132 -20.143 -19.347  1.00  0.00    -0.550 OA
ATOM      6  O   UNL     1     -27.824 -22.116 -18.225  1.00  0.00    -0.550 OA
ENDBRANCH   3   4
ENDBRANCH   2   3
ENDBRANCH   1   2
BRANCH   1   7
ATOM      7  C   UNL     1     -28.947 -20.985 -24.273  1.00  0.00     0.000 C 
BRANCH   7   8
ATOM      8  C   UNL     1     -30.050 -20.419 -25.187  1.00  0.00    -0.000 C 
BRANCH   8   9
ATOM      9  C   UNL     1     -31.452 -20.517 -24.562  1.00  0.00    -0.000 C 
BRANCH   9  10
ATOM     10  C   UNL     1     -31.658 -19.512 -23.419  1.00  0.00    -0.003 C 
ATOM     11  C   UNL     1     -32.675 -19.995 -22.386  1.00  0.00     0.004 C 
ENDBRANCH   9  10
ENDBRANCH   8   9
ENDBRANCH   7   8
ENDBRANCH   1   7
TORSDOF 7
ENDMDL
