MODEL 1
REMARK VINA RESULT:    -3.995      0.000      0.000
REMARK INTER + INTRA:          -4.996
REMARK INTER:                  -4.929
REMARK INTRA:                  -0.066
REMARK UNBOUND:                -0.066
REMARK SMILES CCCCCC(=O)[O-]
REMARK SMILES IDX 4 1 5 2 6 3 7 4 8 5 3 6 2 7 1 8
REMARK H PARENT
REMARK Flexibility Score: inf
ROOT
ATOM      1  C   UNL     1     115.527 164.761 118.757  1.00  0.00     0.006 C 
ENDROOT
BRANCH   1   2
ATOM      2  C   UNL     1     115.956 163.817 119.888  1.00  0.00     0.053 C 
BRANCH   2   3
ATOM      3  C   UNL     1     116.130 164.578 121.165  1.00  0.00     0.041 C 
ATOM      4  O   UNL     1     117.279 164.740 121.655  1.00  0.00    -0.550 OA
ATOM      5  O   UNL     1     115.019 165.065 121.842  1.00  0.00    -0.550 OA
ENDBRANCH   2   3
ENDBRANCH   1   2
BRANCH   1   6
ATOM      6  C   UNL     1     116.664 165.048 117.764  1.00  0.00     0.000 C 
BRANCH   6   7
ATOM      7  C   UNL     1     116.181 165.801 116.516  1.00  0.00    -0.003 C 
ATOM      8  C   UNL     1     116.870 165.278 115.258  1.00  0.00     0.004 C 
ENDBRANCH   6   7
ENDBRANCH   1   6
TORSDOF 4
ENDMDL
MODEL 2
REMARK VINA RESULT:    -3.984      1.524      2.093
REMARK INTER + INTRA:          -4.982
REMARK INTER:                  -4.912
REMARK INTRA:                  -0.070
REMARK UNBOUND:                -0.066
REMARK SMILES CCCCCC(=O)[O-]
REMARK SMILES IDX 4 1 5 2 6 3 7 4 8 5 3 6 2 7 1 8
REMARK H PARENT
REMARK Flexibility Score: inf
ROOT
ATOM      1  C   UNL     1     116.672 165.130 117.603  1.00  0.00     0.006 C 
ENDROOT
BRANCH   1   2
ATOM      2  C   UNL     1     115.554 164.918 118.631  1.00  0.00     0.053 C 
BRANCH   2   3
ATOM      3  C   UNL     1     116.072 164.172 119.820  1.00  0.00     0.041 C 
ATOM      4  O   UNL     1     115.818 162.946 119.959  1.00  0.00    -0.550 OA
ATOM      5  O   UNL     1     116.794 164.841 120.800  1.00  0.00    -0.550 OA
ENDBRANCH   2   3
ENDBRANCH   1   2
BRANCH   1   6
ATOM      6  C   UNL     1     116.170 165.796 116.312  1.00  0.00     0.000 C 
BRANCH   6   7
ATOM      7  C   UNL     1     115.402 167.098 116.579  1.00  0.00    -0.003 C 
ATOM      8  C   UNL     1     115.221 167.902 115.294  1.00  0.00     0.004 C 
ENDBRANCH   6   7
ENDBRANCH   1   6
TORSDOF 4
ENDMDL
MODEL 3
REMARK VINA RESULT:    -3.883     14.228     14.908
REMARK INTER + INTRA:          -4.857
REMARK INTER:                  -4.733
REMARK INTRA:                  -0.125
REMARK UNBOUND:                -0.066
REMARK SMILES CCCCCC(=O)[O-]
REMARK SMILES IDX 4 1 5 2 6 3 7 4 8 5 3 6 2 7 1 8
REMARK H PARENT
REMARK Flexibility Score: inf
ROOT
ATOM      1  C   UNL     1     122.910 176.429 117.441  1.00  0.00     0.006 C 
ENDROOT
BRANCH   1   2
ATOM      2  C   UNL     1     124.163 177.095 118.025  1.00  0.00     0.053 C 
BRANCH   2   3
ATOM      3  C   UNL     1     123.806 177.925 119.217  1.00  0.00     0.041 C 
ATOM      4  O   UNL     1     124.087 179.153 119.241  1.00  0.00    -0.550 OA
ATOM      5  O   UNL     1     123.210 177.334 120.323  1.00  0.00    -0.550 OA
ENDBRANCH   2   3
ENDBRANCH   1   2
BRANCH   1   6
ATOM      6  C   UNL     1     122.132 177.359 116.497  1.00  0.00     0.000 C 
BRANCH   6   7
ATOM      7  C   UNL     1     123.042 178.369 115.782  1.00  0.00    -0.003 C 
ATOM      8  C   UNL     1     122.220 179.439 115.068  1.00  0.00     0.004 C 
ENDBRANCH   6   7
ENDBRANCH   1   6
TORSDOF 4
ENDMDL
MODEL 4
REMARK VINA RESULT:    -3.815     14.428     15.255
REMARK INTER + INTRA:          -4.773
REMARK INTER:                  -4.586
REMARK INTRA:                  -0.188
REMARK UNBOUND:                -0.066
REMARK SMILES CCCCCC(=O)[O-]
REMARK SMILES IDX 4 1 5 2 6 3 7 4 8 5 3 6 2 7 1 8
REMARK H PARENT
REMARK Flexibility Score: inf
ROOT
ATOM      1  C   UNL     1     124.109 177.603 118.070  1.00  0.00     0.006 C 
ENDROOT
BRANCH   1   2
ATOM      2  C   UNL     1     123.795 178.472 116.845  1.00  0.00     0.053 C 
BRANCH   2   3
ATOM      3  C   UNL     1     122.495 178.057 116.230  1.00  0.00     0.041 C 
ATOM      4  O   UNL     1     122.061 176.887 116.395  1.00  0.00    -0.550 OA
ATOM      5  O   UNL     1     121.788 178.947 115.432  1.00  0.00    -0.550 OA
ENDBRANCH   2   3
ENDBRANCH   1   2
BRANCH   1   6
ATOM      6  C   UNL     1     123.947 178.366 119.393  1.00  0.00     0.000 C 
BRANCH   6   7
ATOM      7  C   UNL     1     123.285 177.517 120.488  1.00  0.00    -0.003 C 
ATOM      8  C   UNL     1     122.384 176.445 119.880  1.00  0.00     0.004 C 
ENDBRANCH   6   7
ENDBRANCH   1   6
TORSDOF 4
ENDMDL
MODEL 5
REMARK VINA RESULT:    -3.809     14.176     14.992
REMARK INTER + INTRA:          -4.766
REMARK INTER:                  -4.632
REMARK INTRA:                  -0.133
REMARK UNBOUND:                -0.066
REMARK SMILES CCCCCC(=O)[O-]
REMARK SMILES IDX 4 1 5 2 6 3 7 4 8 5 3 6 2 7 1 8
REMARK H PARENT
REMARK Flexibility Score: inf
ROOT
ATOM      1  C   UNL     1     122.981 176.329 117.646  1.00  0.00     0.006 C 
ENDROOT
BRANCH   1   2
ATOM      2  C   UNL     1     122.095 177.040 116.615  1.00  0.00     0.053 C 
BRANCH   2   3
ATOM      3  C   UNL     1     122.760 178.289 116.128  1.00  0.00     0.041 C 
ATOM      4  O   UNL     1     123.939 178.558 116.480  1.00  0.00    -0.550 OA
ATOM      5  O   UNL     1     122.061 179.182 115.327  1.00  0.00    -0.550 OA
ENDBRANCH   2   3
ENDBRANCH   1   2
BRANCH   1   6
ATOM      6  C   UNL     1     122.412 176.413 119.072  1.00  0.00     0.000 C 
BRANCH   6   7
ATOM      7  C   UNL     1     123.204 177.376 119.968  1.00  0.00    -0.003 C 
ATOM      8  C   UNL     1     122.986 177.057 121.444  1.00  0.00     0.004 C 
ENDBRANCH   6   7
ENDBRANCH   1   6
TORSDOF 4
ENDMDL
MODEL 6
REMARK VINA RESULT:    -3.800     13.818     14.514
REMARK INTER + INTRA:          -4.756
REMARK INTER:                  -4.631
REMARK INTRA:                  -0.125
REMARK UNBOUND:                -0.066
REMARK SMILES CCCCCC(=O)[O-]
REMARK SMILES IDX 4 1 5 2 6 3 7 4 8 5 3 6 2 7 1 8
REMARK H PARENT
REMARK Flexibility Score: inf
ROOT
ATOM      1  C   UNL     1     122.695 176.458 117.782  1.00  0.00     0.006 C 
ENDROOT
BRANCH   1   2
ATOM      2  C   UNL     1     123.747 177.259 118.559  1.00  0.00     0.053 C 
BRANCH   2   3
ATOM      3  C   UNL     1     124.804 176.348 119.099  1.00  0.00     0.041 C 
ATOM      4  O   UNL     1     125.874 176.169 118.459  1.00  0.00    -0.550 OA
ATOM      5  O   UNL     1     124.586 175.657 120.284  1.00  0.00    -0.550 OA
ENDBRANCH   2   3
ENDBRANCH   1   2
BRANCH   1   6
ATOM      6  C   UNL     1     122.210 177.187 116.519  1.00  0.00     0.000 C 
BRANCH   6   7
ATOM      7  C   UNL     1     123.132 178.347 116.117  1.00  0.00    -0.003 C 
ATOM      8  C   UNL     1     122.397 179.350 115.230  1.00  0.00     0.004 C 
ENDBRANCH   6   7
ENDBRANCH   1   6
TORSDOF 4
ENDMDL
MODEL 7
REMARK VINA RESULT:    -3.797      3.004      4.661
REMARK INTER + INTRA:          -4.752
REMARK INTER:                  -4.667
REMARK INTRA:                  -0.085
REMARK UNBOUND:                -0.066
REMARK SMILES CCCCCC(=O)[O-]
REMARK SMILES IDX 4 1 5 2 6 3 7 4 8 5 3 6 2 7 1 8
REMARK H PARENT
REMARK Flexibility Score: inf
ROOT
ATOM      1  C   UNL     1     115.480 164.776 118.648  1.00  0.00     0.006 C 
ENDROOT
BRANCH   1   2
ATOM      2  C   UNL     1     116.638 165.145 117.711  1.00  0.00     0.053 C 
BRANCH   2   3
ATOM      3  C   UNL     1     116.137 165.951 116.554  1.00  0.00     0.041 C 
ATOM      4  O   UNL     1     116.513 165.680 115.383  1.00  0.00    -0.550 OA
ATOM      5  O   UNL     1     115.294 167.033 116.773  1.00  0.00    -0.550 OA
ENDBRANCH   2   3
ENDBRANCH   1   2
BRANCH   1   6
ATOM      6  C   UNL     1     115.936 163.927 119.845  1.00  0.00     0.000 C 
BRANCH   6   7
ATOM      7  C   UNL     1     115.772 164.660 121.185  1.00  0.00    -0.003 C 
ATOM      8  C   UNL     1     117.123 164.875 121.861  1.00  0.00     0.004 C 
ENDBRANCH   6   7
ENDBRANCH   1   6
TORSDOF 4
ENDMDL
MODEL 8
REMARK VINA RESULT:    -3.720     14.692     15.397
REMARK INTER + INTRA:          -4.656
REMARK INTER:                  -4.465
REMARK INTRA:                  -0.191
REMARK UNBOUND:                -0.066
REMARK SMILES CCCCCC(=O)[O-]
REMARK SMILES IDX 4 1 5 2 6 3 7 4 8 5 3 6 2 7 1 8
REMARK H PARENT
REMARK Flexibility Score: inf
ROOT
ATOM      1  C   UNL     1     117.559 178.987 126.607  1.00  0.00     0.006 C 
ENDROOT
BRANCH   1   2
ATOM      2  C   UNL     1     116.196 179.584 126.235  1.00  0.00     0.053 C 
BRANCH   2   3
ATOM      3  C   UNL     1     115.293 178.523 125.688  1.00  0.00     0.041 C 
ATOM      4  O   UNL     1     114.410 178.004 126.420  1.00  0.00    -0.550 OA
ATOM      5  O   UNL     1     115.459 178.073 124.385  1.00  0.00    -0.550 OA
ENDBRANCH   2   3
ENDBRANCH   1   2
BRANCH   1   6
ATOM      6  C   UNL     1     118.654 179.329 125.584  1.00  0.00     0.000 C 
BRANCH   6   7
ATOM      7  C   UNL     1     119.047 178.126 124.715  1.00  0.00    -0.003 C 
ATOM      8  C   UNL     1     119.180 178.528 123.248  1.00  0.00     0.004 C 
ENDBRANCH   6   7
ENDBRANCH   1   6
TORSDOF 4
ENDMDL
MODEL 9
REMARK VINA RESULT:    -3.656     14.073     14.644
REMARK INTER + INTRA:          -4.577
REMARK INTER:                  -4.387
REMARK INTRA:                  -0.190
REMARK UNBOUND:                -0.066
REMARK SMILES CCCCCC(=O)[O-]
REMARK SMILES IDX 4 1 5 2 6 3 7 4 8 5 3 6 2 7 1 8
REMARK H PARENT
REMARK Flexibility Score: inf
ROOT
ATOM      1  C   UNL     1     124.130 178.783 119.016  1.00  0.00     0.006 C 
ENDROOT
BRANCH   1   2
ATOM      2  C   UNL     1     124.164 177.792 120.187  1.00  0.00     0.053 C 
BRANCH   2   3
ATOM      3  C   UNL     1     122.910 176.976 120.217  1.00  0.00     0.041 C 
ATOM      4  O   UNL     1     121.910 177.375 120.870  1.00  0.00    -0.550 OA
ATOM      5  O   UNL     1     122.862 175.751 119.566  1.00  0.00    -0.550 OA
ENDBRANCH   2   3
ENDBRANCH   1   2
BRANCH   1   6
ATOM      6  C   UNL     1     124.459 178.118 117.670  1.00  0.00     0.000 C 
BRANCH   6   7
ATOM      7  C   UNL     1     123.406 178.413 116.593  1.00  0.00    -0.003 C 
ATOM      8  C   UNL     1     122.391 177.277 116.491  1.00  0.00     0.004 C 
ENDBRANCH   6   7
ENDBRANCH   1   6
TORSDOF 4
ENDMDL
