MODEL 1
REMARK VINA RESULT:    -5.939      0.000      0.000
REMARK INTER + INTRA:          -7.648
REMARK INTER:                  -6.981
REMARK INTRA:                  -0.668
REMARK UNBOUND:                -0.668
REMARK SMILES C=C(C)[C@H]1CC[C@@]2(CO)CC[C@@]3(C)[C@@H](CC[C@H]4[C@@]5(C)CC[C@H](O)C(C)(C)[C@H]5CC[C@@]43C)[C@H]12
REMARK SMILES IDX 4 1 5 2 6 3 7 4 32 5 14 6 15 7 16 8 17 9 18 10 20 11 21 12
REMARK SMILES IDX 22 13 24 14 27 15 28 16 29 17 30 18 12 19 11 20 10 21 13 22
REMARK SMILES IDX 31 23 25 24 26 25 19 26 2 27 3 28 1 29 8 30 9 31 23 33
REMARK H PARENT 9 32 23 34
REMARK Flexibility Score: inf
ROOT
ATOM      1  C   UNL     1     480.928  38.046 458.875  1.00  0.00     0.018 C 
ATOM      2  C   UNL     1     480.630  37.733 457.388  1.00  0.00     0.009 C 
ATOM      3  C   UNL     1     481.588  38.596 456.542  1.00  0.00     0.010 C 
ATOM      4  C   UNL     1     482.690  39.053 457.511  1.00  0.00    -0.003 C 
ATOM      5  C   UNL     1     481.882  39.250 458.811  1.00  0.00     0.008 C 
ATOM      6  C   UNL     1     482.820  39.594 459.991  1.00  0.00    -0.000 C 
ATOM      7  C   UNL     1     482.162  39.511 461.381  1.00  0.00     0.005 C 
ATOM      8  C   UNL     1     483.187  39.774 462.500  1.00  0.00     0.005 C 
ATOM      9  C   UNL     1     483.859  41.160 462.311  1.00  0.00     0.002 C 
ATOM     10  C   UNL     1     484.558  41.827 463.589  1.00  0.00    -0.026 C 
ATOM     11  C   UNL     1     485.796  41.023 464.110  1.00  0.00     0.010 C 
ATOM     12  C   UNL     1     487.182  41.494 463.632  1.00  0.00     0.033 C 
ATOM     13  C   UNL     1     487.458  43.013 463.699  1.00  0.00     0.120 C 
ATOM     14  C   UNL     1     486.216  43.903 464.017  1.00  0.00    -0.006 C 
ATOM     15  C   UNL     1     484.910  43.356 463.291  1.00  0.00     0.003 C 
ATOM     16  C   UNL     1     484.775  43.715 461.774  1.00  0.00     0.005 C 
ATOM     17  C   UNL     1     485.333  42.647 460.825  1.00  0.00     0.008 C 
ATOM     18  C   UNL     1     484.626  41.242 460.920  1.00  0.00    -0.024 C 
ATOM     19  C   UNL     1     483.551  40.992 459.730  1.00  0.00    -0.024 C 
ATOM     20  C   UNL     1     484.231  40.967 458.298  1.00  0.00     0.008 C 
ATOM     21  C   UNL     1     483.333  40.414 457.148  1.00  0.00     0.010 C 
ATOM     22  C   UNL     1     482.507  42.168 459.665  1.00  0.00     0.012 C 
ATOM     23  C   UNL     1     485.756  40.145 460.823  1.00  0.00     0.012 C 
ATOM     24  C   UNL     1     485.987  43.986 465.556  1.00  0.00     0.014 C 
ATOM     25  C   UNL     1     486.530  45.364 463.580  1.00  0.00     0.014 C 
ATOM     26  C   UNL     1     483.505  41.811 464.749  1.00  0.00     0.012 C 
ENDROOT
BRANCH   1  27
ATOM     27  C   UNL     1     479.646  38.309 459.666  1.00  0.00    -0.077 C 
ATOM     28  C   UNL     1     478.930  39.638 459.598  1.00  0.00     0.039 C 
ATOM     29  C   UNL     1     479.106  37.332 460.412  1.00  0.00     0.008 C 
ENDBRANCH   1  27
BRANCH   4  30
ATOM     30  C   UNL     1     483.826  37.964 457.534  1.00  0.00     0.163 C 
BRANCH  30  31
ATOM     31  O   UNL     1     484.607  37.953 456.368  1.00  0.00    -0.396 OA
ATOM     32  H   UNL     1     483.984  37.920 455.596  1.00  0.00     0.210 HD
ENDBRANCH  30  31
ENDBRANCH   4  30
BRANCH  13  33
ATOM     33  O   UNL     1     488.496  43.248 464.623  1.00  0.00    -0.393 OA
ATOM     34  H   UNL     1     489.202  42.572 464.456  1.00  0.00     0.210 HD
ENDBRANCH  13  33
TORSDOF 4
ENDMDL
MODEL 2
REMARK VINA RESULT:    -5.725      2.100      3.681
REMARK INTER + INTRA:          -7.396
REMARK INTER:                  -6.729
REMARK INTRA:                  -0.667
REMARK UNBOUND:                -0.668
REMARK SMILES C=C(C)[C@H]1CC[C@@]2(CO)CC[C@@]3(C)[C@@H](CC[C@H]4[C@@]5(C)CC[C@H](O)C(C)(C)[C@H]5CC[C@@]43C)[C@H]12
REMARK SMILES IDX 4 1 5 2 6 3 7 4 32 5 14 6 15 7 16 8 17 9 18 10 20 11 21 12
REMARK SMILES IDX 22 13 24 14 27 15 28 16 29 17 30 18 12 19 11 20 10 21 13 22
REMARK SMILES IDX 31 23 25 24 26 25 19 26 2 27 3 28 1 29 8 30 9 31 23 33
REMARK H PARENT 9 32 23 34
REMARK Flexibility Score: inf
ROOT
ATOM      1  C   UNL     1     481.868  40.851 455.571  1.00  0.00     0.018 C 
ATOM      2  C   UNL     1     481.975  39.942 454.323  1.00  0.00     0.009 C 
ATOM      3  C   UNL     1     482.861  38.740 454.711  1.00  0.00     0.010 C 
ATOM      4  C   UNL     1     482.893  38.736 456.247  1.00  0.00    -0.003 C 
ATOM      5  C   UNL     1     482.890  40.249 456.550  1.00  0.00     0.008 C 
ATOM      6  C   UNL     1     482.789  40.503 458.072  1.00  0.00    -0.000 C 
ATOM      7  C   UNL     1     482.473  41.958 458.462  1.00  0.00     0.005 C 
ATOM      8  C   UNL     1     482.295  42.101 459.986  1.00  0.00     0.005 C 
ATOM      9  C   UNL     1     483.565  41.614 460.732  1.00  0.00     0.002 C 
ATOM     10  C   UNL     1     483.786  42.125 462.234  1.00  0.00    -0.026 C 
ATOM     11  C   UNL     1     482.699  41.605 463.234  1.00  0.00     0.010 C 
ATOM     12  C   UNL     1     483.053  40.351 464.056  1.00  0.00     0.033 C 
ATOM     13  C   UNL     1     484.449  40.329 464.718  1.00  0.00     0.120 C 
ATOM     14  C   UNL     1     485.415  41.472 464.274  1.00  0.00    -0.006 C 
ATOM     15  C   UNL     1     485.268  41.785 462.721  1.00  0.00     0.003 C 
ATOM     16  C   UNL     1     486.002  40.795 461.757  1.00  0.00     0.005 C 
ATOM     17  C   UNL     1     485.123  39.641 461.256  1.00  0.00     0.008 C 
ATOM     18  C   UNL     1     483.864  40.083 460.419  1.00  0.00    -0.024 C 
ATOM     19  C   UNL     1     484.079  39.922 458.819  1.00  0.00    -0.024 C 
ATOM     20  C   UNL     1     484.298  38.413 458.388  1.00  0.00     0.008 C 
ATOM     21  C   UNL     1     484.187  38.139 456.855  1.00  0.00     0.010 C 
ATOM     22  C   UNL     1     485.381  40.674 458.352  1.00  0.00     0.012 C 
ATOM     23  C   UNL     1     482.663  39.161 460.866  1.00  0.00     0.012 C 
ATOM     24  C   UNL     1     485.156  42.759 465.115  1.00  0.00     0.014 C 
ATOM     25  C   UNL     1     486.873  41.052 464.626  1.00  0.00     0.014 C 
ATOM     26  C   UNL     1     483.650  43.685 462.213  1.00  0.00     0.012 C 
ENDROOT
BRANCH   1  27
ATOM     27  C   UNL     1     482.125  42.318 455.228  1.00  0.00    -0.077 C 
ATOM     28  C   UNL     1     481.025  43.351 455.288  1.00  0.00     0.039 C 
ATOM     29  C   UNL     1     483.363  42.725 454.903  1.00  0.00     0.008 C 
ENDBRANCH   1  27
BRANCH   4  30
ATOM     30  C   UNL     1     481.670  37.899 456.776  1.00  0.00     0.163 C 
BRANCH  30  31
ATOM     31  O   UNL     1     481.847  36.513 456.642  1.00  0.00    -0.396 OA
ATOM     32  H   UNL     1     482.318  36.196 457.456  1.00  0.00     0.210 HD
ENDBRANCH  30  31
ENDBRANCH   4  30
BRANCH  13  33
ATOM     33  O   UNL     1     484.291  40.319 466.118  1.00  0.00    -0.393 OA
ATOM     34  H   UNL     1     485.155  40.034 466.513  1.00  0.00     0.210 HD
ENDBRANCH  13  33
TORSDOF 4
ENDMDL
MODEL 3
REMARK VINA RESULT:    -5.507      1.917      3.205
REMARK INTER + INTRA:          -7.140
REMARK INTER:                  -6.468
REMARK INTRA:                  -0.673
REMARK UNBOUND:                -0.668
REMARK SMILES C=C(C)[C@H]1CC[C@@]2(CO)CC[C@@]3(C)[C@@H](CC[C@H]4[C@@]5(C)CC[C@H](O)C(C)(C)[C@H]5CC[C@@]43C)[C@H]12
REMARK SMILES IDX 4 1 5 2 6 3 7 4 32 5 14 6 15 7 16 8 17 9 18 10 20 11 21 12
REMARK SMILES IDX 22 13 24 14 27 15 28 16 29 17 30 18 12 19 11 20 10 21 13 22
REMARK SMILES IDX 31 23 25 24 26 25 19 26 2 27 3 28 1 29 8 30 9 31 23 33
REMARK H PARENT 9 32 23 34
REMARK Flexibility Score: inf
ROOT
ATOM      1  C   UNL     1     480.061  40.245 456.057  1.00  0.00     0.018 C 
ATOM      2  C   UNL     1     479.900  39.317 454.828  1.00  0.00     0.009 C 
ATOM      3  C   UNL     1     481.125  38.380 454.804  1.00  0.00     0.010 C 
ATOM      4  C   UNL     1     481.737  38.471 456.210  1.00  0.00    -0.003 C 
ATOM      5  C   UNL     1     481.489  39.956 456.549  1.00  0.00     0.008 C 
ATOM      6  C   UNL     1     481.915  40.264 458.003  1.00  0.00    -0.000 C 
ATOM      7  C   UNL     1     481.434  41.625 458.539  1.00  0.00     0.005 C 
ATOM      8  C   UNL     1     481.818  41.808 460.020  1.00  0.00     0.005 C 
ATOM      9  C   UNL     1     483.353  41.675 460.206  1.00  0.00     0.002 C 
ATOM     10  C   UNL     1     483.998  42.308 461.529  1.00  0.00    -0.026 C 
ATOM     11  C   UNL     1     483.529  41.606 462.847  1.00  0.00     0.010 C 
ATOM     12  C   UNL     1     484.455  40.519 463.424  1.00  0.00     0.033 C 
ATOM     13  C   UNL     1     485.959  40.862 463.502  1.00  0.00     0.120 C 
ATOM     14  C   UNL     1     486.383  42.172 462.767  1.00  0.00    -0.006 C 
ATOM     15  C   UNL     1     485.589  42.353 461.401  1.00  0.00     0.003 C 
ATOM     16  C   UNL     1     486.115  41.510 460.193  1.00  0.00     0.005 C 
ATOM     17  C   UNL     1     485.414  40.156 460.021  1.00  0.00     0.008 C 
ATOM     18  C   UNL     1     483.866  40.242 459.745  1.00  0.00    -0.024 C 
ATOM     19  C   UNL     1     483.490  40.046 458.178  1.00  0.00    -0.024 C 
ATOM     20  C   UNL     1     483.881  38.608 457.640  1.00  0.00     0.008 C 
ATOM     21  C   UNL     1     483.266  38.229 456.256  1.00  0.00     0.010 C 
ATOM     22  C   UNL     1     484.299  41.054 457.280  1.00  0.00     0.012 C 
ATOM     23  C   UNL     1     483.180  39.091 460.580  1.00  0.00     0.012 C 
ATOM     24  C   UNL     1     486.164  43.408 463.692  1.00  0.00     0.014 C 
ATOM     25  C   UNL     1     487.920  42.126 462.521  1.00  0.00     0.014 C 
ATOM     26  C   UNL     1     483.497  43.790 461.621  1.00  0.00     0.012 C 
ENDROOT
BRANCH   1  27
ATOM     27  C   UNL     1     479.812  41.710 455.698  1.00  0.00    -0.077 C 
ATOM     28  C   UNL     1     480.844  42.535 454.967  1.00  0.00     0.039 C 
ATOM     29  C   UNL     1     478.633  42.282 455.994  1.00  0.00     0.008 C 
ENDBRANCH   1  27
BRANCH   4  30
ATOM     30  C   UNL     1     481.043  37.402 457.134  1.00  0.00     0.163 C 
BRANCH  30  31
ATOM     31  O   UNL     1     481.246  36.082 456.703  1.00  0.00    -0.396 OA
ATOM     32  H   UNL     1     481.131  36.073 455.717  1.00  0.00     0.210 HD
ENDBRANCH  30  31
ENDBRANCH   4  30
BRANCH  13  33
ATOM     33  O   UNL     1     486.350  40.895 464.855  1.00  0.00    -0.393 OA
ATOM     34  H   UNL     1     485.535  40.758 465.404  1.00  0.00     0.210 HD
ENDBRANCH  13  33
TORSDOF 4
ENDMDL
MODEL 4
REMARK VINA RESULT:    -5.405      1.580      7.795
REMARK INTER + INTRA:          -7.021
REMARK INTER:                  -6.352
REMARK INTRA:                  -0.668
REMARK UNBOUND:                -0.668
REMARK SMILES C=C(C)[C@H]1CC[C@@]2(CO)CC[C@@]3(C)[C@@H](CC[C@H]4[C@@]5(C)CC[C@H](O)C(C)(C)[C@H]5CC[C@@]43C)[C@H]12
REMARK SMILES IDX 4 1 5 2 6 3 7 4 32 5 14 6 15 7 16 8 17 9 18 10 20 11 21 12
REMARK SMILES IDX 22 13 24 14 27 15 28 16 29 17 30 18 12 19 11 20 10 21 13 22
REMARK SMILES IDX 31 23 25 24 26 25 19 26 2 27 3 28 1 29 8 30 9 31 23 33
REMARK H PARENT 9 32 23 34
REMARK Flexibility Score: inf
ROOT
ATOM      1  C   UNL     1     486.276  44.939 462.009  1.00  0.00     0.018 C 
ATOM      2  C   UNL     1     487.211  45.130 463.228  1.00  0.00     0.009 C 
ATOM      3  C   UNL     1     487.330  43.761 463.928  1.00  0.00     0.010 C 
ATOM      4  C   UNL     1     486.839  42.732 462.897  1.00  0.00    -0.003 C 
ATOM      5  C   UNL     1     485.712  43.521 462.199  1.00  0.00     0.008 C 
ATOM      6  C   UNL     1     485.138  42.720 461.008  1.00  0.00    -0.000 C 
ATOM      7  C   UNL     1     484.231  43.530 460.065  1.00  0.00     0.005 C 
ATOM      8  C   UNL     1     483.784  42.683 458.858  1.00  0.00     0.005 C 
ATOM      9  C   UNL     1     483.048  41.401 459.333  1.00  0.00     0.002 C 
ATOM     10  C   UNL     1     482.091  40.662 458.283  1.00  0.00    -0.026 C 
ATOM     11  C   UNL     1     482.859  40.065 457.056  1.00  0.00     0.010 C 
ATOM     12  C   UNL     1     483.231  38.572 457.128  1.00  0.00     0.033 C 
ATOM     13  C   UNL     1     482.120  37.603 457.593  1.00  0.00     0.120 C 
ATOM     14  C   UNL     1     480.835  38.286 458.158  1.00  0.00    -0.006 C 
ATOM     15  C   UNL     1     481.195  39.570 459.026  1.00  0.00     0.003 C 
ATOM     16  C   UNL     1     481.684  39.288 460.485  1.00  0.00     0.005 C 
ATOM     17  C   UNL     1     483.208  39.190 460.627  1.00  0.00     0.008 C 
ATOM     18  C   UNL     1     483.995  40.498 460.237  1.00  0.00    -0.024 C 
ATOM     19  C   UNL     1     484.454  41.370 461.526  1.00  0.00    -0.024 C 
ATOM     20  C   UNL     1     485.475  40.587 462.451  1.00  0.00     0.008 C 
ATOM     21  C   UNL     1     486.207  41.462 463.518  1.00  0.00     0.010 C 
ATOM     22  C   UNL     1     483.222  41.686 462.453  1.00  0.00     0.012 C 
ATOM     23  C   UNL     1     485.283  40.045 459.444  1.00  0.00     0.012 C 
ATOM     24  C   UNL     1     479.867  38.667 456.998  1.00  0.00     0.014 C 
ATOM     25  C   UNL     1     480.051  37.239 459.004  1.00  0.00     0.014 C 
ATOM     26  C   UNL     1     481.119  41.746 457.705  1.00  0.00     0.012 C 
ENDROOT
BRANCH   1  27
ATOM     27  C   UNL     1     485.207  46.030 461.939  1.00  0.00    -0.077 C 
ATOM     28  C   UNL     1     485.248  47.114 460.887  1.00  0.00     0.039 C 
ATOM     29  C   UNL     1     484.175  46.016 462.798  1.00  0.00     0.008 C 
ENDBRANCH   1  27
BRANCH   4  30
ATOM     30  C   UNL     1     488.059  42.288 462.006  1.00  0.00     0.163 C 
BRANCH  30  31
ATOM     31  O   UNL     1     489.125  41.759 462.750  1.00  0.00    -0.396 OA
ATOM     32  H   UNL     1     489.903  41.687 462.139  1.00  0.00     0.210 HD
ENDBRANCH  30  31
ENDBRANCH   4  30
BRANCH  13  33
ATOM     33  O   UNL     1     481.802  36.731 456.532  1.00  0.00    -0.393 OA
ATOM     34  H   UNL     1     480.998  37.095 456.079  1.00  0.00     0.210 HD
ENDBRANCH  13  33
TORSDOF 4
ENDMDL
MODEL 5
REMARK VINA RESULT:    -5.378      3.062      5.120
REMARK INTER + INTRA:          -6.989
REMARK INTER:                  -6.773
REMARK INTRA:                  -0.216
REMARK UNBOUND:                -0.668
REMARK SMILES C=C(C)[C@H]1CC[C@@]2(CO)CC[C@@]3(C)[C@@H](CC[C@H]4[C@@]5(C)CC[C@H](O)C(C)(C)[C@H]5CC[C@@]43C)[C@H]12
REMARK SMILES IDX 4 1 5 2 6 3 7 4 32 5 14 6 15 7 16 8 17 9 18 10 20 11 21 12
REMARK SMILES IDX 22 13 24 14 27 15 28 16 29 17 30 18 12 19 11 20 10 21 13 22
REMARK SMILES IDX 31 23 25 24 26 25 19 26 2 27 3 28 1 29 8 30 9 31 23 33
REMARK H PARENT 9 32 23 34
REMARK Flexibility Score: inf
ROOT
ATOM      1  C   UNL     1     477.530  37.959 461.317  1.00  0.00     0.018 C 
ATOM      2  C   UNL     1     476.097  38.002 461.901  1.00  0.00     0.009 C 
ATOM      3  C   UNL     1     476.077  39.109 462.974  1.00  0.00     0.010 C 
ATOM      4  C   UNL     1     477.326  39.962 462.705  1.00  0.00    -0.003 C 
ATOM      5  C   UNL     1     478.332  38.885 462.247  1.00  0.00     0.008 C 
ATOM      6  C   UNL     1     479.658  39.533 461.787  1.00  0.00    -0.000 C 
ATOM      7  C   UNL     1     480.608  38.586 461.032  1.00  0.00     0.005 C 
ATOM      8  C   UNL     1     481.856  39.335 460.527  1.00  0.00     0.005 C 
ATOM      9  C   UNL     1     482.604  40.009 461.708  1.00  0.00     0.002 C 
ATOM     10  C   UNL     1     484.142  40.398 461.489  1.00  0.00    -0.026 C 
ATOM     11  C   UNL     1     484.355  41.503 460.401  1.00  0.00     0.010 C 
ATOM     12  C   UNL     1     484.497  42.953 460.900  1.00  0.00     0.033 C 
ATOM     13  C   UNL     1     485.449  43.183 462.096  1.00  0.00     0.120 C 
ATOM     14  C   UNL     1     485.962  41.886 462.798  1.00  0.00    -0.006 C 
ATOM     15  C   UNL     1     484.819  40.782 462.883  1.00  0.00     0.003 C 
ATOM     16  C   UNL     1     483.767  40.979 464.023  1.00  0.00     0.005 C 
ATOM     17  C   UNL     1     482.513  41.750 463.593  1.00  0.00     0.008 C 
ATOM     18  C   UNL     1     481.672  41.062 462.451  1.00  0.00    -0.024 C 
ATOM     19  C   UNL     1     480.365  40.281 463.011  1.00  0.00    -0.024 C 
ATOM     20  C   UNL     1     479.324  41.261 463.696  1.00  0.00     0.008 C 
ATOM     21  C   UNL     1     477.914  40.647 463.964  1.00  0.00     0.010 C 
ATOM     22  C   UNL     1     480.766  39.257 464.137  1.00  0.00     0.012 C 
ATOM     23  C   UNL     1     481.201  42.204 461.469  1.00  0.00     0.012 C 
ATOM     24  C   UNL     1     487.209  41.322 462.052  1.00  0.00     0.014 C 
ATOM     25  C   UNL     1     486.482  42.265 464.216  1.00  0.00     0.014 C 
ATOM     26  C   UNL     1     484.869  39.116 460.957  1.00  0.00     0.012 C 
ENDROOT
BRANCH   1  27
ATOM     27  C   UNL     1     478.070  36.531 461.244  1.00  0.00    -0.077 C 
ATOM     28  C   UNL     1     478.992  36.086 460.133  1.00  0.00     0.039 C 
ATOM     29  C   UNL     1     477.761  35.647 462.206  1.00  0.00     0.008 C 
ENDBRANCH   1  27
BRANCH   4  30
ATOM     30  C   UNL     1     476.957  41.083 461.663  1.00  0.00     0.163 C 
BRANCH  30  31
ATOM     31  O   UNL     1     475.780  41.775 461.987  1.00  0.00    -0.396 OA
ATOM     32  H   UNL     1     475.586  41.593 462.943  1.00  0.00     0.210 HD
ENDBRANCH  30  31
ENDBRANCH   4  30
BRANCH  13  33
ATOM     33  O   UNL     1     486.526  43.986 461.674  1.00  0.00    -0.393 OA
ATOM     34  H   UNL     1     486.937  43.543 460.887  1.00  0.00     0.210 HD
ENDBRANCH  13  33
TORSDOF 4
ENDMDL
MODEL 6
REMARK VINA RESULT:    -5.118      4.112      7.040
REMARK INTER + INTRA:          -6.683
REMARK INTER:                  -6.045
REMARK INTRA:                  -0.638
REMARK UNBOUND:                -0.668
REMARK SMILES C=C(C)[C@H]1CC[C@@]2(CO)CC[C@@]3(C)[C@@H](CC[C@H]4[C@@]5(C)CC[C@H](O)C(C)(C)[C@H]5CC[C@@]43C)[C@H]12
REMARK SMILES IDX 4 1 5 2 6 3 7 4 32 5 14 6 15 7 16 8 17 9 18 10 20 11 21 12
REMARK SMILES IDX 22 13 24 14 27 15 28 16 29 17 30 18 12 19 11 20 10 21 13 22
REMARK SMILES IDX 31 23 25 24 26 25 19 26 2 27 3 28 1 29 8 30 9 31 23 33
REMARK H PARENT 9 32 23 34
REMARK Flexibility Score: inf
ROOT
ATOM      1  C   UNL     1     483.594  39.442 457.640  1.00  0.00     0.018 C 
ATOM      2  C   UNL     1     483.961  38.877 456.246  1.00  0.00     0.009 C 
ATOM      3  C   UNL     1     482.657  38.356 455.610  1.00  0.00     0.010 C 
ATOM      4  C   UNL     1     481.521  39.000 456.421  1.00  0.00    -0.003 C 
ATOM      5  C   UNL     1     482.133  39.007 457.838  1.00  0.00     0.008 C 
ATOM      6  C   UNL     1     481.203  39.742 458.831  1.00  0.00    -0.000 C 
ATOM      7  C   UNL     1     481.848  40.072 460.190  1.00  0.00     0.005 C 
ATOM      8  C   UNL     1     480.888  40.886 461.079  1.00  0.00     0.005 C 
ATOM      9  C   UNL     1     479.557  40.116 461.294  1.00  0.00     0.002 C 
ATOM     10  C   UNL     1     478.653  40.532 462.548  1.00  0.00    -0.026 C 
ATOM     11  C   UNL     1     478.083  41.987 462.448  1.00  0.00     0.010 C 
ATOM     12  C   UNL     1     476.650  42.136 461.902  1.00  0.00     0.033 C 
ATOM     13  C   UNL     1     475.585  41.178 462.481  1.00  0.00     0.120 C 
ATOM     14  C   UNL     1     476.142  40.022 463.370  1.00  0.00    -0.006 C 
ATOM     15  C   UNL     1     477.506  39.447 462.787  1.00  0.00     0.003 C 
ATOM     16  C   UNL     1     477.366  38.453 461.587  1.00  0.00     0.005 C 
ATOM     17  C   UNL     1     477.456  39.118 460.208  1.00  0.00     0.008 C 
ATOM     18  C   UNL     1     478.823  39.842 459.909  1.00  0.00    -0.024 C 
ATOM     19  C   UNL     1     479.814  38.962 458.972  1.00  0.00    -0.024 C 
ATOM     20  C   UNL     1     479.210  38.706 457.529  1.00  0.00     0.008 C 
ATOM     21  C   UNL     1     480.222  38.158 456.475  1.00  0.00     0.010 C 
ATOM     22  C   UNL     1     480.034  37.529 459.584  1.00  0.00     0.012 C 
ATOM     23  C   UNL     1     478.482  41.190 459.164  1.00  0.00     0.012 C 
ATOM     24  C   UNL     1     476.342  40.512 464.837  1.00  0.00     0.014 C 
ATOM     25  C   UNL     1     475.059  38.906 463.466  1.00  0.00     0.014 C 
ATOM     26  C   UNL     1     479.581  40.512 463.810  1.00  0.00     0.012 C 
ENDROOT
BRANCH   1  27
ATOM     27  C   UNL     1     484.546  38.937 458.725  1.00  0.00    -0.077 C 
ATOM     28  C   UNL     1     485.388  39.885 459.546  1.00  0.00     0.039 C 
ATOM     29  C   UNL     1     484.617  37.624 458.998  1.00  0.00     0.008 C 
ENDBRANCH   1  27
BRANCH   4  30
ATOM     30  C   UNL     1     481.175  40.398 455.785  1.00  0.00     0.163 C 
BRANCH  30  31
ATOM     31  O   UNL     1     481.337  40.428 454.391  1.00  0.00    -0.396 OA
ATOM     32  H   UNL     1     480.444  40.270 453.988  1.00  0.00     0.210 HD
ENDBRANCH  30  31
ENDBRANCH   4  30
BRANCH  13  33
ATOM     33  O   UNL     1     474.624  41.933 463.182  1.00  0.00    -0.393 OA
ATOM     34  H   UNL     1     474.198  41.331 463.846  1.00  0.00     0.210 HD
ENDBRANCH  13  33
TORSDOF 4
ENDMDL
MODEL 7
REMARK VINA RESULT:    -5.104      3.380      7.421
REMARK INTER + INTRA:          -6.667
REMARK INTER:                  -6.087
REMARK INTRA:                  -0.579
REMARK UNBOUND:                -0.668
REMARK SMILES C=C(C)[C@H]1CC[C@@]2(CO)CC[C@@]3(C)[C@@H](CC[C@H]4[C@@]5(C)CC[C@H](O)C(C)(C)[C@H]5CC[C@@]43C)[C@H]12
REMARK SMILES IDX 4 1 5 2 6 3 7 4 32 5 14 6 15 7 16 8 17 9 18 10 20 11 21 12
REMARK SMILES IDX 22 13 24 14 27 15 28 16 29 17 30 18 12 19 11 20 10 21 13 22
REMARK SMILES IDX 31 23 25 24 26 25 19 26 2 27 3 28 1 29 8 30 9 31 23 33
REMARK H PARENT 9 32 23 34
REMARK Flexibility Score: inf
ROOT
ATOM      1  C   UNL     1     483.809  39.731 457.823  1.00  0.00     0.018 C 
ATOM      2  C   UNL     1     485.303  40.046 458.077  1.00  0.00     0.009 C 
ATOM      3  C   UNL     1     485.417  40.571 459.522  1.00  0.00     0.010 C 
ATOM      4  C   UNL     1     484.109  40.155 460.213  1.00  0.00    -0.003 C 
ATOM      5  C   UNL     1     483.098  40.311 459.057  1.00  0.00     0.008 C 
ATOM      6  C   UNL     1     481.697  39.816 459.484  1.00  0.00    -0.000 C 
ATOM      7  C   UNL     1     480.697  39.642 458.327  1.00  0.00     0.005 C 
ATOM      8  C   UNL     1     479.363  39.055 458.827  1.00  0.00     0.005 C 
ATOM      9  C   UNL     1     478.749  39.957 459.931  1.00  0.00     0.002 C 
ATOM     10  C   UNL     1     477.180  39.813 460.221  1.00  0.00    -0.026 C 
ATOM     11  C   UNL     1     476.781  38.413 460.797  1.00  0.00     0.010 C 
ATOM     12  C   UNL     1     476.645  38.303 462.327  1.00  0.00     0.033 C 
ATOM     13  C   UNL     1     475.850  39.423 463.034  1.00  0.00     0.120 C 
ATOM     14  C   UNL     1     475.488  40.650 462.138  1.00  0.00    -0.006 C 
ATOM     15  C   UNL     1     476.676  41.013 461.145  1.00  0.00     0.003 C 
ATOM     16  C   UNL     1     477.860  41.823 461.770  1.00  0.00     0.005 C 
ATOM     17  C   UNL     1     479.014  40.952 462.283  1.00  0.00     0.008 C 
ATOM     18  C   UNL     1     479.725  40.079 461.181  1.00  0.00    -0.024 C 
ATOM     19  C   UNL     1     481.127  40.721 460.673  1.00  0.00    -0.024 C 
ATOM     20  C   UNL     1     482.206  40.805 461.830  1.00  0.00     0.008 C 
ATOM     21  C   UNL     1     483.664  41.101 461.356  1.00  0.00     0.010 C 
ATOM     22  C   UNL     1     480.920  42.207 460.196  1.00  0.00     0.012 C 
ATOM     23  C   UNL     1     480.016  38.667 461.823  1.00  0.00     0.012 C 
ATOM     24  C   UNL     1     474.178  40.372 461.340  1.00  0.00     0.014 C 
ATOM     25  C   UNL     1     475.143  41.853 463.064  1.00  0.00     0.014 C 
ATOM     26  C   UNL     1     476.445  39.945 458.845  1.00  0.00     0.012 C 
ENDROOT
BRANCH   1  27
ATOM     27  C   UNL     1     483.325  40.312 456.495  1.00  0.00    -0.077 C 
ATOM     28  C   UNL     1     482.975  39.427 455.322  1.00  0.00     0.039 C 
ATOM     29  C   UNL     1     483.160  41.638 456.363  1.00  0.00     0.008 C 
ENDBRANCH   1  27
BRANCH   4  30
ATOM     30  C   UNL     1     484.291  38.711 460.812  1.00  0.00     0.163 C 
BRANCH  30  31
ATOM     31  O   UNL     1     485.623  38.271 460.802  1.00  0.00    -0.396 OA
ATOM     32  H   UNL     1     486.189  39.049 460.559  1.00  0.00     0.210 HD
ENDBRANCH  30  31
ENDBRANCH   4  30
BRANCH  13  33
ATOM     33  O   UNL     1     474.693  38.866 463.614  1.00  0.00    -0.393 OA
ATOM     34  H   UNL     1     474.954  38.001 464.025  1.00  0.00     0.210 HD
ENDBRANCH  13  33
TORSDOF 4
ENDMDL
MODEL 8
REMARK VINA RESULT:    -5.082      3.807      8.087
REMARK INTER + INTRA:          -6.641
REMARK INTER:                  -5.971
REMARK INTRA:                  -0.670
REMARK UNBOUND:                -0.668
REMARK SMILES C=C(C)[C@H]1CC[C@@]2(CO)CC[C@@]3(C)[C@@H](CC[C@H]4[C@@]5(C)CC[C@H](O)C(C)(C)[C@H]5CC[C@@]43C)[C@H]12
REMARK SMILES IDX 4 1 5 2 6 3 7 4 32 5 14 6 15 7 16 8 17 9 18 10 20 11 21 12
REMARK SMILES IDX 22 13 24 14 27 15 28 16 29 17 30 18 12 19 11 20 10 21 13 22
REMARK SMILES IDX 31 23 25 24 26 25 19 26 2 27 3 28 1 29 8 30 9 31 23 33
REMARK H PARENT 9 32 23 34
REMARK Flexibility Score: inf
ROOT
ATOM      1  C   UNL     1     484.009  39.133 460.643  1.00  0.00     0.018 C 
ATOM      2  C   UNL     1     485.363  39.505 461.294  1.00  0.00     0.009 C 
ATOM      3  C   UNL     1     485.046  40.303 462.574  1.00  0.00     0.010 C 
ATOM      4  C   UNL     1     483.567  40.018 462.879  1.00  0.00    -0.003 C 
ATOM      5  C   UNL     1     482.979  39.936 461.454  1.00  0.00     0.008 C 
ATOM      6  C   UNL     1     481.491  39.520 461.500  1.00  0.00    -0.000 C 
ATOM      7  C   UNL     1     480.895  39.115 460.139  1.00  0.00     0.005 C 
ATOM      8  C   UNL     1     479.443  38.624 460.291  1.00  0.00     0.005 C 
ATOM      9  C   UNL     1     478.563  39.718 460.952  1.00  0.00     0.002 C 
ATOM     10  C   UNL     1     476.977  39.619 460.751  1.00  0.00    -0.026 C 
ATOM     11  C   UNL     1     476.343  38.354 461.422  1.00  0.00     0.010 C 
ATOM     12  C   UNL     1     475.729  38.544 462.822  1.00  0.00     0.033 C 
ATOM     13  C   UNL     1     474.813  39.773 463.015  1.00  0.00     0.120 C 
ATOM     14  C   UNL     1     474.816  40.798 461.838  1.00  0.00    -0.006 C 
ATOM     15  C   UNL     1     476.274  40.972 461.224  1.00  0.00     0.003 C 
ATOM     16  C   UNL     1     477.243  41.899 462.029  1.00  0.00     0.005 C 
ATOM     17  C   UNL     1     478.130  41.155 463.036  1.00  0.00     0.008 C 
ATOM     18  C   UNL     1     479.103  40.091 462.401  1.00  0.00    -0.024 C 
ATOM     19  C   UNL     1     480.626  40.634 462.253  1.00  0.00    -0.024 C 
ATOM     20  C   UNL     1     481.291  40.953 463.656  1.00  0.00     0.008 C 
ATOM     21  C   UNL     1     482.838  41.164 463.622  1.00  0.00     0.010 C 
ATOM     22  C   UNL     1     480.658  41.997 461.465  1.00  0.00     0.012 C 
ATOM     23  C   UNL     1     479.103  38.834 463.355  1.00  0.00     0.012 C 
ATOM     24  C   UNL     1     473.809  40.357 460.732  1.00  0.00     0.014 C 
ATOM     25  C   UNL     1     474.263  42.156 462.363  1.00  0.00     0.014 C 
ATOM     26  C   UNL     1     476.718  39.473 459.213  1.00  0.00     0.012 C 
ENDROOT
BRANCH   1  27
ATOM     27  C   UNL     1     483.997  39.439 459.145  1.00  0.00    -0.077 C 
ATOM     28  C   UNL     1     483.800  40.843 458.624  1.00  0.00     0.039 C 
ATOM     29  C   UNL     1     484.206  38.454 458.257  1.00  0.00     0.008 C 
ENDBRANCH   1  27
BRANCH   4  30
ATOM     30  C   UNL     1     483.475  38.721 463.766  1.00  0.00     0.163 C 
BRANCH  30  31
ATOM     31  O   UNL     1     483.916  38.917 465.083  1.00  0.00    -0.396 OA
ATOM     32  H   UNL     1     483.111  39.061 465.645  1.00  0.00     0.210 HD
ENDBRANCH  30  31
ENDBRANCH   4  30
BRANCH  13  33
ATOM     33  O   UNL     1     473.505  39.329 463.293  1.00  0.00    -0.393 OA
ATOM     34  H   UNL     1     473.565  38.672 464.034  1.00  0.00     0.210 HD
ENDBRANCH  13  33
TORSDOF 4
ENDMDL
MODEL 9
REMARK VINA RESULT:    -5.015      1.965      7.330
REMARK INTER + INTRA:          -6.562
REMARK INTER:                  -5.896
REMARK INTRA:                  -0.666
REMARK UNBOUND:                -0.668
REMARK SMILES C=C(C)[C@H]1CC[C@@]2(CO)CC[C@@]3(C)[C@@H](CC[C@H]4[C@@]5(C)CC[C@H](O)C(C)(C)[C@H]5CC[C@@]43C)[C@H]12
REMARK SMILES IDX 4 1 5 2 6 3 7 4 32 5 14 6 15 7 16 8 17 9 18 10 20 11 21 12
REMARK SMILES IDX 22 13 24 14 27 15 28 16 29 17 30 18 12 19 11 20 10 21 13 22
REMARK SMILES IDX 31 23 25 24 26 25 19 26 2 27 3 28 1 29 8 30 9 31 23 33
REMARK H PARENT 9 32 23 34
REMARK Flexibility Score: inf
ROOT
ATOM      1  C   UNL     1     483.244  40.821 464.429  1.00  0.00     0.018 C 
ATOM      2  C   UNL     1     484.353  40.981 465.498  1.00  0.00     0.009 C 
ATOM      3  C   UNL     1     485.693  41.108 464.746  1.00  0.00     0.010 C 
ATOM      4  C   UNL     1     485.318  41.452 463.296  1.00  0.00    -0.003 C 
ATOM      5  C   UNL     1     484.026  40.627 463.118  1.00  0.00     0.008 C 
ATOM      6  C   UNL     1     483.376  40.917 461.746  1.00  0.00    -0.000 C 
ATOM      7  C   UNL     1     481.938  40.388 461.591  1.00  0.00     0.005 C 
ATOM      8  C   UNL     1     481.335  40.804 460.235  1.00  0.00     0.005 C 
ATOM      9  C   UNL     1     482.219  40.295 459.065  1.00  0.00     0.002 C 
ATOM     10  C   UNL     1     481.542  40.180 457.618  1.00  0.00    -0.026 C 
ATOM     11  C   UNL     1     481.114  41.562 457.020  1.00  0.00     0.010 C 
ATOM     12  C   UNL     1     482.097  42.231 456.042  1.00  0.00     0.033 C 
ATOM     13  C   UNL     1     482.698  41.329 454.940  1.00  0.00     0.120 C 
ATOM     14  C   UNL     1     482.418  39.802 455.102  1.00  0.00    -0.006 C 
ATOM     15  C   UNL     1     482.488  39.359 456.628  1.00  0.00     0.003 C 
ATOM     16  C   UNL     1     483.926  39.154 457.210  1.00  0.00     0.005 C 
ATOM     17  C   UNL     1     484.505  40.395 457.902  1.00  0.00     0.008 C 
ATOM     18  C   UNL     1     483.688  40.900 459.149  1.00  0.00    -0.024 C 
ATOM     19  C   UNL     1     484.345  40.449 460.563  1.00  0.00    -0.024 C 
ATOM     20  C   UNL     1     485.783  41.075 460.786  1.00  0.00     0.008 C 
ATOM     21  C   UNL     1     486.338  40.958 462.241  1.00  0.00     0.010 C 
ATOM     22  C   UNL     1     484.566  38.891 460.603  1.00  0.00     0.012 C 
ATOM     23  C   UNL     1     483.663  42.477 459.081  1.00  0.00     0.012 C 
ATOM     24  C   UNL     1     481.030  39.437 454.493  1.00  0.00     0.014 C 
ATOM     25  C   UNL     1     483.451  39.016 454.242  1.00  0.00     0.014 C 
ATOM     26  C   UNL     1     480.223  39.352 457.793  1.00  0.00     0.012 C 
ENDROOT
BRANCH   1  27
ATOM     27  C   UNL     1     482.296  39.671 464.764  1.00  0.00    -0.077 C 
ATOM     28  C   UNL     1     480.885  39.919 465.244  1.00  0.00     0.039 C 
ATOM     29  C   UNL     1     482.695  38.400 464.592  1.00  0.00     0.008 C 
ENDBRANCH   1  27
BRANCH   4  30
ATOM     30  C   UNL     1     485.192  43.015 463.164  1.00  0.00     0.163 C 
BRANCH  30  31
ATOM     31  O   UNL     1     486.417  43.684 463.311  1.00  0.00    -0.396 OA
ATOM     32  H   UNL     1     486.414  44.447 462.676  1.00  0.00     0.210 HD
ENDBRANCH  30  31
ENDBRANCH   4  30
BRANCH  13  33
ATOM     33  O   UNL     1     482.259  41.791 453.683  1.00  0.00    -0.393 OA
ATOM     34  H   UNL     1     481.570  42.486 453.845  1.00  0.00     0.210 HD
ENDBRANCH  13  33
TORSDOF 4
ENDMDL
