MODEL 1
REMARK VINA RESULT:    -3.441      0.000      0.000
REMARK INTER + INTRA:          -4.592
REMARK INTER:                  -4.447
REMARK INTRA:                  -0.145
REMARK UNBOUND:                -0.145
REMARK SMILES CCCCCCC(=O)[O-]
REMARK SMILES IDX 5 1 6 2 7 3 8 4 9 5 4 6 3 7 2 8 1 9
REMARK H PARENT
REMARK Flexibility Score: inf
ROOT
ATOM      1  C   UNL     1     181.744 195.323 191.777  1.00  0.00     0.006 C 
ENDROOT
BRANCH   1   2
ATOM      2  C   UNL     1     180.487 194.446 191.851  1.00  0.00     0.053 C 
BRANCH   2   3
ATOM      3  C   UNL     1     179.974 194.387 193.255  1.00  0.00     0.041 C 
ATOM      4  O   UNL     1     178.878 194.932 193.553  1.00  0.00    -0.550 OA
ATOM      5  O   UNL     1     180.682 193.688 194.225  1.00  0.00    -0.550 OA
ENDBRANCH   2   3
ENDBRANCH   1   2
BRANCH   1   6
ATOM      6  C   UNL     1     182.490 195.174 190.443  1.00  0.00     0.000 C 
BRANCH   6   7
ATOM      7  C   UNL     1     183.529 196.288 190.219  1.00  0.00    -0.000 C 
BRANCH   7   8
ATOM      8  C   UNL     1     184.904 195.737 189.812  1.00  0.00    -0.003 C 
ATOM      9  C   UNL     1     185.046 194.241 190.093  1.00  0.00     0.004 C 
ENDBRANCH   7   8
ENDBRANCH   6   7
ENDBRANCH   1   6
TORSDOF 5
ENDMDL
MODEL 2
REMARK VINA RESULT:    -3.388      3.297      5.401
REMARK INTER + INTRA:          -4.523
REMARK INTER:                  -4.429
REMARK INTRA:                  -0.093
REMARK UNBOUND:                -0.145
REMARK SMILES CCCCCCC(=O)[O-]
REMARK SMILES IDX 5 1 6 2 7 3 8 4 9 5 4 6 3 7 2 8 1 9
REMARK H PARENT
REMARK Flexibility Score: inf
ROOT
ATOM      1  C   UNL     1     183.035 195.967 190.802  1.00  0.00     0.006 C 
ENDROOT
BRANCH   1   2
ATOM      2  C   UNL     1     183.763 195.794 189.463  1.00  0.00     0.053 C 
BRANCH   2   3
ATOM      3  C   UNL     1     185.045 195.048 189.658  1.00  0.00     0.041 C 
ATOM      4  O   UNL     1     186.148 195.649 189.569  1.00  0.00    -0.550 OA
ATOM      5  O   UNL     1     185.020 193.698 189.987  1.00  0.00    -0.550 OA
ENDBRANCH   2   3
ENDBRANCH   1   2
BRANCH   1   6
ATOM      6  C   UNL     1     181.863 194.988 190.969  1.00  0.00     0.000 C 
BRANCH   6   7
ATOM      7  C   UNL     1     181.109 195.188 192.295  1.00  0.00    -0.000 C 
BRANCH   7   8
ATOM      8  C   UNL     1     179.836 194.334 192.383  1.00  0.00    -0.003 C 
ATOM      9  C   UNL     1     178.875 194.816 193.469  1.00  0.00     0.004 C 
ENDBRANCH   7   8
ENDBRANCH   6   7
ENDBRANCH   1   6
TORSDOF 5
ENDMDL
MODEL 3
REMARK VINA RESULT:    -3.279     16.488     17.636
REMARK INTER + INTRA:          -4.382
REMARK INTER:                  -4.216
REMARK INTRA:                  -0.166
REMARK UNBOUND:                -0.145
REMARK SMILES CCCCCCC(=O)[O-]
REMARK SMILES IDX 5 1 6 2 7 3 8 4 9 5 4 6 3 7 2 8 1 9
REMARK H PARENT
REMARK Flexibility Score: inf
ROOT
ATOM      1  C   UNL     1     185.661 179.944 201.622  1.00  0.00     0.006 C 
ENDROOT
BRANCH   1   2
ATOM      2  C   UNL     1     186.681 180.980 202.113  1.00  0.00     0.053 C 
BRANCH   2   3
ATOM      3  C   UNL     1     187.323 181.672 200.952  1.00  0.00     0.041 C 
ATOM      4  O   UNL     1     188.030 182.698 201.138  1.00  0.00    -0.550 OA
ATOM      5  O   UNL     1     187.180 181.157 199.670  1.00  0.00    -0.550 OA
ENDBRANCH   2   3
ENDBRANCH   1   2
BRANCH   1   6
ATOM      6  C   UNL     1     184.231 180.258 202.087  1.00  0.00     0.000 C 
BRANCH   6   7
ATOM      7  C   UNL     1     183.512 181.251 201.157  1.00  0.00    -0.000 C 
BRANCH   7   8
ATOM      8  C   UNL     1     182.373 182.001 201.865  1.00  0.00    -0.003 C 
ATOM      9  C   UNL     1     181.096 182.060 201.028  1.00  0.00     0.004 C 
ENDBRANCH   7   8
ENDBRANCH   6   7
ENDBRANCH   1   6
TORSDOF 5
ENDMDL
MODEL 4
REMARK VINA RESULT:    -3.250     10.905     12.276
REMARK INTER + INTRA:          -4.345
REMARK INTER:                  -4.168
REMARK INTRA:                  -0.177
REMARK UNBOUND:                -0.145
REMARK SMILES CCCCCCC(=O)[O-]
REMARK SMILES IDX 5 1 6 2 7 3 8 4 9 5 4 6 3 7 2 8 1 9
REMARK H PARENT
REMARK Flexibility Score: inf
ROOT
ATOM      1  C   UNL     1     186.004 184.157 191.498  1.00  0.00     0.006 C 
ENDROOT
BRANCH   1   2
ATOM      2  C   UNL     1     187.097 184.328 190.434  1.00  0.00     0.053 C 
BRANCH   2   3
ATOM      3  C   UNL     1     188.141 183.266 190.583  1.00  0.00     0.041 C 
ATOM      4  O   UNL     1     187.812 182.094 190.905  1.00  0.00    -0.550 OA
ATOM      5  O   UNL     1     189.473 183.560 190.320  1.00  0.00    -0.550 OA
ENDBRANCH   2   3
ENDBRANCH   1   2
BRANCH   1   6
ATOM      6  C   UNL     1     186.370 184.822 192.833  1.00  0.00     0.000 C 
BRANCH   6   7
ATOM      7  C   UNL     1     185.987 186.312 192.876  1.00  0.00    -0.000 C 
BRANCH   7   8
ATOM      8  C   UNL     1     185.214 186.684 194.151  1.00  0.00    -0.003 C 
ATOM      9  C   UNL     1     183.726 186.352 194.056  1.00  0.00     0.004 C 
ENDBRANCH   7   8
ENDBRANCH   6   7
ENDBRANCH   1   6
TORSDOF 5
ENDMDL
MODEL 5
REMARK VINA RESULT:    -3.236     16.247     17.461
REMARK INTER + INTRA:          -4.326
REMARK INTER:                  -3.918
REMARK INTRA:                  -0.408
REMARK UNBOUND:                -0.145
REMARK SMILES CCCCCCC(=O)[O-]
REMARK SMILES IDX 5 1 6 2 7 3 8 4 9 5 4 6 3 7 2 8 1 9
REMARK H PARENT
REMARK Flexibility Score: inf
ROOT
ATOM      1  C   UNL     1     185.520 182.844 200.980  1.00  0.00     0.006 C 
ENDROOT
BRANCH   1   2
ATOM      2  C   UNL     1     186.869 182.619 200.284  1.00  0.00     0.053 C 
BRANCH   2   3
ATOM      3  C   UNL     1     187.896 182.162 201.272  1.00  0.00     0.041 C 
ATOM      4  O   UNL     1     187.646 181.203 202.048  1.00  0.00    -0.550 OA
ATOM      5  O   UNL     1     189.147 182.764 201.302  1.00  0.00    -0.550 OA
ENDBRANCH   2   3
ENDBRANCH   1   2
BRANCH   1   6
ATOM      6  C   UNL     1     184.449 181.838 200.531  1.00  0.00     0.000 C 
BRANCH   6   7
ATOM      7  C   UNL     1     183.988 180.916 201.674  1.00  0.00    -0.000 C 
BRANCH   7   8
ATOM      8  C   UNL     1     184.643 179.528 201.611  1.00  0.00    -0.003 C 
ATOM      9  C   UNL     1     185.149 179.178 200.212  1.00  0.00     0.004 C 
ENDBRANCH   7   8
ENDBRANCH   6   7
ENDBRANCH   1   6
TORSDOF 5
ENDMDL
MODEL 6
REMARK VINA RESULT:    -3.230     12.939     13.492
REMARK INTER + INTRA:          -4.319
REMARK INTER:                  -4.109
REMARK INTRA:                  -0.210
REMARK UNBOUND:                -0.145
REMARK SMILES CCCCCCC(=O)[O-]
REMARK SMILES IDX 5 1 6 2 7 3 8 4 9 5 4 6 3 7 2 8 1 9
REMARK H PARENT
REMARK Flexibility Score: inf
ROOT
ATOM      1  C   UNL     1     191.249 196.495 201.124  1.00  0.00     0.006 C 
ENDROOT
BRANCH   1   2
ATOM      2  C   UNL     1     189.960 196.825 201.889  1.00  0.00     0.053 C 
BRANCH   2   3
ATOM      3  C   UNL     1     188.877 195.857 201.529  1.00  0.00     0.041 C 
ATOM      4  O   UNL     1     189.133 194.628 201.429  1.00  0.00    -0.550 OA
ATOM      5  O   UNL     1     187.574 196.306 201.352  1.00  0.00    -0.550 OA
ENDBRANCH   2   3
ENDBRANCH   1   2
BRANCH   1   6
ATOM      6  C   UNL     1     191.625 197.580 200.104  1.00  0.00     0.000 C 
BRANCH   6   7
ATOM      7  C   UNL     1     193.139 197.848 200.057  1.00  0.00    -0.000 C 
BRANCH   7   8
ATOM      8  C   UNL     1     193.871 197.310 201.296  1.00  0.00    -0.003 C 
ATOM      9  C   UNL     1     194.521 198.418 202.123  1.00  0.00     0.004 C 
ENDBRANCH   7   8
ENDBRANCH   6   7
ENDBRANCH   1   6
TORSDOF 5
ENDMDL
MODEL 7
REMARK VINA RESULT:    -3.230     15.620     16.731
REMARK INTER + INTRA:          -4.319
REMARK INTER:                  -3.998
REMARK INTRA:                  -0.321
REMARK UNBOUND:                -0.145
REMARK SMILES CCCCCCC(=O)[O-]
REMARK SMILES IDX 5 1 6 2 7 3 8 4 9 5 4 6 3 7 2 8 1 9
REMARK H PARENT
REMARK Flexibility Score: inf
ROOT
ATOM      1  C   UNL     1     183.762 180.910 200.957  1.00  0.00     0.006 C 
ENDROOT
BRANCH   1   2
ATOM      2  C   UNL     1     182.809 181.677 201.883  1.00  0.00     0.053 C 
BRANCH   2   3
ATOM      3  C   UNL     1     183.011 183.152 201.733  1.00  0.00     0.041 C 
ATOM      4  O   UNL     1     182.124 183.956 202.125  1.00  0.00    -0.550 OA
ATOM      5  O   UNL     1     184.199 183.641 201.206  1.00  0.00    -0.550 OA
ENDBRANCH   2   3
ENDBRANCH   1   2
BRANCH   1   6
ATOM      6  C   UNL     1     184.609 179.873 201.709  1.00  0.00     0.000 C 
BRANCH   6   7
ATOM      7  C   UNL     1     186.023 180.389 202.034  1.00  0.00    -0.000 C 
BRANCH   7   8
ATOM      8  C   UNL     1     186.665 181.129 200.851  1.00  0.00    -0.003 C 
ATOM      9  C   UNL     1     187.682 182.179 201.295  1.00  0.00     0.004 C 
ENDBRANCH   7   8
ENDBRANCH   6   7
ENDBRANCH   1   6
TORSDOF 5
ENDMDL
MODEL 8
REMARK VINA RESULT:    -3.200     15.816     17.171
REMARK INTER + INTRA:          -4.279
REMARK INTER:                  -3.897
REMARK INTRA:                  -0.383
REMARK UNBOUND:                -0.145
REMARK SMILES CCCCCCC(=O)[O-]
REMARK SMILES IDX 5 1 6 2 7 3 8 4 9 5 4 6 3 7 2 8 1 9
REMARK H PARENT
REMARK Flexibility Score: inf
ROOT
ATOM      1  C   UNL     1     185.615 180.238 201.489  1.00  0.00     0.006 C 
ENDROOT
BRANCH   1   2
ATOM      2  C   UNL     1     186.782 181.004 202.125  1.00  0.00     0.053 C 
BRANCH   2   3
ATOM      3  C   UNL     1     187.548 181.751 201.079  1.00  0.00     0.041 C 
ATOM      4  O   UNL     1     187.347 181.518 199.858  1.00  0.00    -0.550 OA
ATOM      5  O   UNL     1     188.449 182.741 201.452  1.00  0.00    -0.550 OA
ENDBRANCH   2   3
ENDBRANCH   1   2
BRANCH   1   6
ATOM      6  C   UNL     1     184.253 180.644 202.074  1.00  0.00     0.000 C 
BRANCH   6   7
ATOM      7  C   UNL     1     183.396 181.444 201.077  1.00  0.00    -0.000 C 
BRANCH   7   8
ATOM      8  C   UNL     1     183.796 182.926 201.013  1.00  0.00    -0.003 C 
ATOM      9  C   UNL     1     184.280 183.346 199.626  1.00  0.00     0.004 C 
ENDBRANCH   7   8
ENDBRANCH   6   7
ENDBRANCH   1   6
TORSDOF 5
ENDMDL
MODEL 9
REMARK VINA RESULT:    -3.143     16.243     17.260
REMARK INTER + INTRA:          -4.206
REMARK INTER:                  -3.872
REMARK INTRA:                  -0.334
REMARK UNBOUND:                -0.145
REMARK SMILES CCCCCCC(=O)[O-]
REMARK SMILES IDX 5 1 6 2 7 3 8 4 9 5 4 6 3 7 2 8 1 9
REMARK H PARENT
REMARK Flexibility Score: inf
ROOT
ATOM      1  C   UNL     1     185.434 181.240 199.903  1.00  0.00     0.006 C 
ENDROOT
BRANCH   1   2
ATOM      2  C   UNL     1     186.946 181.502 199.863  1.00  0.00     0.053 C 
BRANCH   2   3
ATOM      3  C   UNL     1     187.322 182.545 200.868  1.00  0.00     0.041 C 
ATOM      4  O   UNL     1     187.121 183.764 200.623  1.00  0.00    -0.550 OA
ATOM      5  O   UNL     1     187.848 182.167 202.097  1.00  0.00    -0.550 OA
ENDBRANCH   2   3
ENDBRANCH   1   2
BRANCH   1   6
ATOM      6  C   UNL     1     185.070 180.014 200.752  1.00  0.00     0.000 C 
BRANCH   6   7
ATOM      7  C   UNL     1     184.424 180.396 202.096  1.00  0.00    -0.000 C 
BRANCH   7   8
ATOM      8  C   UNL     1     183.845 181.818 202.087  1.00  0.00    -0.003 C 
ATOM      9  C   UNL     1     182.317 181.833 202.125  1.00  0.00     0.004 C 
ENDBRANCH   7   8
ENDBRANCH   6   7
ENDBRANCH   1   6
TORSDOF 5
ENDMDL
