MODEL 1
REMARK VINA RESULT:    -3.473      0.000      0.000
REMARK INTER + INTRA:          -4.032
REMARK INTER:                  -3.778
REMARK INTRA:                  -0.255
REMARK UNBOUND:                -0.255
REMARK SMILES O=C([O-])c1ccccc1O
REMARK SMILES IDX 4 1 9 2 5 3 8 4 6 5 7 6 2 7 1 8 3 9 10 10
REMARK H PARENT 10 11
REMARK Flexibility Score: inf
ROOT
ATOM      1  C   UNL     1     -46.298 -21.223  27.445  1.00  0.00     0.039 A 
ATOM      2  C   UNL     1     -47.207 -20.182  27.750  1.00  0.00     0.124 A 
ATOM      3  C   UNL     1     -45.327 -21.005  26.447  1.00  0.00     0.014 A 
ATOM      4  C   UNL     1     -47.128 -18.960  27.062  1.00  0.00     0.047 A 
ATOM      5  C   UNL     1     -45.260 -19.785  25.771  1.00  0.00     0.001 A 
ATOM      6  C   UNL     1     -46.159 -18.764  26.076  1.00  0.00     0.004 A 
ENDROOT
BRANCH   1   7
ATOM      7  C   UNL     1     -46.345 -22.531  28.147  1.00  0.00     0.075 C 
ATOM      8  O   UNL     1     -46.248 -23.607  27.497  1.00  0.00    -0.545 OA
ATOM      9  O   UNL     1     -46.495 -22.600  29.528  1.00  0.00    -0.545 OA
ENDBRANCH   1   7
BRANCH   2  10
ATOM     10  O   UNL     1     -48.185 -20.351  28.729  1.00  0.00    -0.507 OA
ATOM     11  H   UNL     1     -48.755 -19.578  29.052  1.00  0.00     0.293 HD
ENDBRANCH   2  10
TORSDOF 2
ENDMDL
MODEL 2
REMARK VINA RESULT:    -3.332      7.450      8.014
REMARK INTER + INTRA:          -3.879
REMARK INTER:                  -3.664
REMARK INTRA:                  -0.215
REMARK UNBOUND:                -0.255
REMARK SMILES O=C([O-])c1ccccc1O
REMARK SMILES IDX 4 1 9 2 5 3 8 4 6 5 7 6 2 7 1 8 3 9 10 10
REMARK H PARENT 10 11
REMARK Flexibility Score: inf
ROOT
ATOM      1  C   UNL     1     -38.372 -20.944  26.856  1.00  0.00     0.039 A 
ATOM      2  C   UNL     1     -38.988 -20.079  27.790  1.00  0.00     0.124 A 
ATOM      3  C   UNL     1     -38.352 -20.573  25.496  1.00  0.00     0.014 A 
ATOM      4  C   UNL     1     -39.564 -18.875  27.354  1.00  0.00     0.047 A 
ATOM      5  C   UNL     1     -38.929 -19.372  25.077  1.00  0.00     0.001 A 
ATOM      6  C   UNL     1     -39.535 -18.525  26.004  1.00  0.00     0.004 A 
ENDROOT
BRANCH   1   7
ATOM      7  C   UNL     1     -37.749 -22.228  27.273  1.00  0.00     0.075 C 
ATOM      8  O   UNL     1     -36.845 -22.755  26.570  1.00  0.00    -0.545 OA
ATOM      9  O   UNL     1     -38.145 -22.872  28.439  1.00  0.00    -0.545 OA
ENDBRANCH   1   7
BRANCH   2  10
ATOM     10  O   UNL     1     -39.032 -20.404  29.146  1.00  0.00    -0.507 OA
ATOM     11  H   UNL     1     -39.533 -19.833  29.815  1.00  0.00     0.293 HD
ENDBRANCH   2  10
TORSDOF 2
ENDMDL
MODEL 3
REMARK VINA RESULT:    -3.305      1.638      2.471
REMARK INTER + INTRA:          -3.849
REMARK INTER:                  -3.620
REMARK INTRA:                  -0.229
REMARK UNBOUND:                -0.255
REMARK SMILES O=C([O-])c1ccccc1O
REMARK SMILES IDX 4 1 9 2 5 3 8 4 6 5 7 6 2 7 1 8 3 9 10 10
REMARK H PARENT 10 11
REMARK Flexibility Score: inf
ROOT
ATOM      1  C   UNL     1     -45.920 -21.538  27.771  1.00  0.00     0.039 A 
ATOM      2  C   UNL     1     -45.272 -20.673  26.858  1.00  0.00     0.124 A 
ATOM      3  C   UNL     1     -47.249 -21.256  28.147  1.00  0.00     0.014 A 
ATOM      4  C   UNL     1     -45.955 -19.558  26.345  1.00  0.00     0.047 A 
ATOM      5  C   UNL     1     -47.916 -20.144  27.629  1.00  0.00     0.001 A 
ATOM      6  C   UNL     1     -47.270 -19.295  26.730  1.00  0.00     0.004 A 
ENDROOT
BRANCH   1   7
ATOM      7  C   UNL     1     -45.237 -22.729  28.338  1.00  0.00     0.075 C 
ATOM      8  O   UNL     1     -43.998 -22.703  28.568  1.00  0.00    -0.545 OA
ATOM      9  O   UNL     1     -45.942 -23.891  28.628  1.00  0.00    -0.545 OA
ENDBRANCH   1   7
BRANCH   2  10
ATOM     10  O   UNL     1     -43.958 -20.912  26.457  1.00  0.00    -0.507 OA
ATOM     11  H   UNL     1     -43.412 -21.673  26.844  1.00  0.00     0.293 HD
ENDBRANCH   2  10
TORSDOF 2
ENDMDL
MODEL 4
REMARK VINA RESULT:    -3.254      5.477      6.245
REMARK INTER + INTRA:          -3.793
REMARK INTER:                  -3.562
REMARK INTRA:                  -0.231
REMARK UNBOUND:                -0.255
REMARK SMILES O=C([O-])c1ccccc1O
REMARK SMILES IDX 4 1 9 2 5 3 8 4 6 5 7 6 2 7 1 8 3 9 10 10
REMARK H PARENT 10 11
REMARK Flexibility Score: inf
ROOT
ATOM      1  C   UNL     1     -40.740 -20.939  27.837  1.00  0.00     0.039 A 
ATOM      2  C   UNL     1     -39.583 -20.177  28.121  1.00  0.00     0.124 A 
ATOM      3  C   UNL     1     -41.607 -20.503  26.814  1.00  0.00     0.014 A 
ATOM      4  C   UNL     1     -39.317 -19.009  27.388  1.00  0.00     0.047 A 
ATOM      5  C   UNL     1     -41.330 -19.340  26.093  1.00  0.00     0.001 A 
ATOM      6  C   UNL     1     -40.187 -18.593  26.379  1.00  0.00     0.004 A 
ENDROOT
BRANCH   1   7
ATOM      7  C   UNL     1     -41.061 -22.181  28.588  1.00  0.00     0.075 C 
ATOM      8  O   UNL     1     -40.285 -23.173  28.538  1.00  0.00    -0.545 OA
ATOM      9  O   UNL     1     -42.214 -22.277  29.358  1.00  0.00    -0.545 OA
ENDBRANCH   1   7
BRANCH   2  10
ATOM     10  O   UNL     1     -38.697 -20.569  29.124  1.00  0.00    -0.507 OA
ATOM     11  H   UNL     1     -38.756 -21.480  29.562  1.00  0.00     0.293 HD
ENDBRANCH   2  10
TORSDOF 2
ENDMDL
MODEL 5
REMARK VINA RESULT:    -3.219      1.884      3.568
REMARK INTER + INTRA:          -3.756
REMARK INTER:                  -3.507
REMARK INTRA:                  -0.248
REMARK UNBOUND:                -0.255
REMARK SMILES O=C([O-])c1ccccc1O
REMARK SMILES IDX 4 1 9 2 5 3 8 4 6 5 7 6 2 7 1 8 3 9 10 10
REMARK H PARENT 10 11
REMARK Flexibility Score: inf
ROOT
ATOM      1  C   UNL     1     -46.386 -20.082  26.933  1.00  0.00     0.039 A 
ATOM      2  C   UNL     1     -47.192 -20.690  27.924  1.00  0.00     0.124 A 
ATOM      3  C   UNL     1     -45.177 -20.706  26.564  1.00  0.00     0.014 A 
ATOM      4  C   UNL     1     -46.780 -21.893  28.520  1.00  0.00     0.047 A 
ATOM      5  C   UNL     1     -44.779 -21.902  27.165  1.00  0.00     0.001 A 
ATOM      6  C   UNL     1     -45.579 -22.495  28.142  1.00  0.00     0.004 A 
ENDROOT
BRANCH   1   7
ATOM      7  C   UNL     1     -46.783 -18.810  26.276  1.00  0.00     0.075 C 
ATOM      8  O   UNL     1     -47.048 -17.791  26.969  1.00  0.00    -0.545 OA
ATOM      9  O   UNL     1     -46.869 -18.713  24.892  1.00  0.00    -0.545 OA
ENDBRANCH   1   7
BRANCH   2  10
ATOM     10  O   UNL     1     -48.396 -20.109  28.321  1.00  0.00    -0.507 OA
ATOM     11  H   UNL     1     -48.594 -19.129  28.161  1.00  0.00     0.293 HD
ENDBRANCH   2  10
TORSDOF 2
ENDMDL
MODEL 6
REMARK VINA RESULT:    -3.218      7.299      8.171
REMARK INTER + INTRA:          -3.754
REMARK INTER:                  -3.504
REMARK INTRA:                  -0.250
REMARK UNBOUND:                -0.255
REMARK SMILES O=C([O-])c1ccccc1O
REMARK SMILES IDX 4 1 9 2 5 3 8 4 6 5 7 6 2 7 1 8 3 9 10 10
REMARK H PARENT 10 11
REMARK Flexibility Score: inf
ROOT
ATOM      1  C   UNL     1     -38.870 -22.781  28.037  1.00  0.00     0.039 A 
ATOM      2  C   UNL     1     -38.722 -21.406  28.330  1.00  0.00     0.124 A 
ATOM      3  C   UNL     1     -40.123 -23.391  28.257  1.00  0.00     0.014 A 
ATOM      4  C   UNL     1     -39.812 -20.674  28.829  1.00  0.00     0.047 A 
ATOM      5  C   UNL     1     -41.198 -22.652  28.754  1.00  0.00     0.001 A 
ATOM      6  C   UNL     1     -41.043 -21.296  29.041  1.00  0.00     0.004 A 
ENDROOT
BRANCH   1   7
ATOM      7  C   UNL     1     -37.744 -23.594  27.507  1.00  0.00     0.075 C 
ATOM      8  O   UNL     1     -37.046 -23.165  26.549  1.00  0.00    -0.545 OA
ATOM      9  O   UNL     1     -37.436 -24.835  28.052  1.00  0.00    -0.545 OA
ENDBRANCH   1   7
BRANCH   2  10
ATOM     10  O   UNL     1     -37.502 -20.760  28.129  1.00  0.00    -0.507 OA
ATOM     11  H   UNL     1     -37.452 -19.816  27.764  1.00  0.00     0.293 HD
ENDBRANCH   2  10
TORSDOF 2
ENDMDL
MODEL 7
REMARK VINA RESULT:    -3.188      7.859      8.846
REMARK INTER + INTRA:          -3.722
REMARK INTER:                  -3.480
REMARK INTRA:                  -0.243
REMARK UNBOUND:                -0.255
REMARK SMILES O=C([O-])c1ccccc1O
REMARK SMILES IDX 4 1 9 2 5 3 8 4 6 5 7 6 2 7 1 8 3 9 10 10
REMARK H PARENT 10 11
REMARK Flexibility Score: inf
ROOT
ATOM      1  C   UNL     1     -38.441 -20.939  26.208  1.00  0.00     0.039 A 
ATOM      2  C   UNL     1     -37.860 -21.687  27.258  1.00  0.00     0.124 A 
ATOM      3  C   UNL     1     -39.493 -20.050  26.509  1.00  0.00     0.014 A 
ATOM      4  C   UNL     1     -38.333 -21.535  28.571  1.00  0.00     0.047 A 
ATOM      5  C   UNL     1     -39.954 -19.909  27.819  1.00  0.00     0.001 A 
ATOM      6  C   UNL     1     -39.377 -20.651  28.849  1.00  0.00     0.004 A 
ENDROOT
BRANCH   1   7
ATOM      7  C   UNL     1     -37.972 -21.068  24.804  1.00  0.00     0.075 C 
ATOM      8  O   UNL     1     -37.673 -22.199  24.333  1.00  0.00    -0.545 OA
ATOM      9  O   UNL     1     -37.853 -19.953  23.982  1.00  0.00    -0.545 OA
ENDBRANCH   1   7
BRANCH   2  10
ATOM     10  O   UNL     1     -36.817 -22.579  27.008  1.00  0.00    -0.507 OA
ATOM     11  H   UNL     1     -35.920 -22.493  27.471  1.00  0.00     0.293 HD
ENDBRANCH   2  10
TORSDOF 2
ENDMDL
MODEL 8
REMARK VINA RESULT:    -3.133      5.883      6.908
REMARK INTER + INTRA:          -3.663
REMARK INTER:                  -3.462
REMARK INTRA:                  -0.200
REMARK UNBOUND:                -0.255
REMARK SMILES O=C([O-])c1ccccc1O
REMARK SMILES IDX 4 1 9 2 5 3 8 4 6 5 7 6 2 7 1 8 3 9 10 10
REMARK H PARENT 10 11
REMARK Flexibility Score: inf
ROOT
ATOM      1  C   UNL     1     -40.643 -20.341  27.289  1.00  0.00     0.039 A 
ATOM      2  C   UNL     1     -40.338 -20.847  28.575  1.00  0.00     0.124 A 
ATOM      3  C   UNL     1     -41.789 -20.823  26.625  1.00  0.00     0.014 A 
ATOM      4  C   UNL     1     -41.174 -21.809  29.165  1.00  0.00     0.047 A 
ATOM      5  C   UNL     1     -42.611 -21.780  27.223  1.00  0.00     0.001 A 
ATOM      6  C   UNL     1     -42.304 -22.274  28.491  1.00  0.00     0.004 A 
ENDROOT
BRANCH   1   7
ATOM      7  C   UNL     1     -39.787 -19.322  26.628  1.00  0.00     0.075 C 
ATOM      8  O   UNL     1     -39.748 -18.142  27.067  1.00  0.00    -0.545 OA
ATOM      9  O   UNL     1     -39.015 -19.645  25.518  1.00  0.00    -0.545 OA
ENDBRANCH   1   7
BRANCH   2  10
ATOM     10  O   UNL     1     -39.215 -20.401  29.271  1.00  0.00    -0.507 OA
ATOM     11  H   UNL     1     -38.553 -21.046  29.684  1.00  0.00     0.293 HD
ENDBRANCH   2  10
TORSDOF 2
ENDMDL
MODEL 9
REMARK VINA RESULT:    -3.131      1.798      3.061
REMARK INTER + INTRA:          -3.660
REMARK INTER:                  -3.436
REMARK INTRA:                  -0.224
REMARK UNBOUND:                -0.255
REMARK SMILES O=C([O-])c1ccccc1O
REMARK SMILES IDX 4 1 9 2 5 3 8 4 6 5 7 6 2 7 1 8 3 9 10 10
REMARK H PARENT 10 11
REMARK Flexibility Score: inf
ROOT
ATOM      1  C   UNL     1     -46.823 -19.437  26.827  1.00  0.00     0.039 A 
ATOM      2  C   UNL     1     -45.634 -19.925  26.236  1.00  0.00     0.124 A 
ATOM      3  C   UNL     1     -46.995 -18.044  26.957  1.00  0.00     0.014 A 
ATOM      4  C   UNL     1     -44.652 -19.024  25.793  1.00  0.00     0.047 A 
ATOM      5  C   UNL     1     -46.011 -17.159  26.512  1.00  0.00     0.001 A 
ATOM      6  C   UNL     1     -44.841 -17.648  25.932  1.00  0.00     0.004 A 
ENDROOT
BRANCH   1   7
ATOM      7  C   UNL     1     -47.888 -20.354  27.309  1.00  0.00     0.075 C 
ATOM      8  O   UNL     1     -48.215 -20.366  28.527  1.00  0.00    -0.545 OA
ATOM      9  O   UNL     1     -48.546 -21.213  26.436  1.00  0.00    -0.545 OA
ENDBRANCH   1   7
BRANCH   2  10
ATOM     10  O   UNL     1     -45.420 -21.295  26.086  1.00  0.00    -0.507 OA
ATOM     11  H   UNL     1     -44.708 -21.658  25.463  1.00  0.00     0.293 HD
ENDBRANCH   2  10
TORSDOF 2
ENDMDL
