MODEL 1
REMARK VINA RESULT:    -2.967      0.000      0.000
REMARK INTER + INTRA:          -6.600
REMARK INTER:                  -5.049
REMARK INTRA:                  -1.551
REMARK UNBOUND:                -1.551
REMARK SMILES CCCCCCCCCCCCCC(=O)[O-]
REMARK SMILES IDX 8 1 9 2 10 3 11 4 12 5 13 6 14 7 15 8 16 9 7 10 6 11 5 12
REMARK SMILES IDX 4 13 3 14 2 15 1 16
REMARK H PARENT
REMARK Flexibility Score: inf
ROOT
ATOM      1  C   UNL     1      61.966  29.609  59.356  1.00  0.00     0.000 C 
ENDROOT
BRANCH   1   2
ATOM      2  C   UNL     1      60.974  30.626  58.765  1.00  0.00     0.000 C 
BRANCH   2   3
ATOM      3  C   UNL     1      61.605  32.013  58.560  1.00  0.00     0.000 C 
BRANCH   3   4
ATOM      4  C   UNL     1      63.115  32.023  58.855  1.00  0.00     0.000 C 
BRANCH   4   5
ATOM      5  C   UNL     1      63.606  33.375  59.404  1.00  0.00     0.006 C 
BRANCH   5   6
ATOM      6  C   UNL     1      64.802  33.273  60.363  1.00  0.00     0.053 C 
BRANCH   6   7
ATOM      7  C   UNL     1      65.226  34.615  60.875  1.00  0.00     0.041 C 
ATOM      8  O   UNL     1      65.235  34.847  62.113  1.00  0.00    -0.550 OA
ATOM      9  O   UNL     1      65.582  35.619  59.984  1.00  0.00    -0.550 OA
ENDBRANCH   6   7
ENDBRANCH   5   6
ENDBRANCH   4   5
ENDBRANCH   3   4
ENDBRANCH   2   3
ENDBRANCH   1   2
BRANCH   1  10
ATOM     10  C   UNL     1      61.629  29.228  60.807  1.00  0.00     0.000 C 
BRANCH  10  11
ATOM     11  C   UNL     1      62.853  28.713  61.586  1.00  0.00    -0.000 C 
BRANCH  11  12
ATOM     12  C   UNL     1      64.074  29.645  61.436  1.00  0.00    -0.000 C 
BRANCH  12  13
ATOM     13  C   UNL     1      65.352  28.921  60.968  1.00  0.00    -0.000 C 
BRANCH  13  14
ATOM     14  C   UNL     1      66.408  29.831  60.321  1.00  0.00    -0.000 C 
BRANCH  14  15
ATOM     15  C   UNL     1      66.123  30.109  58.837  1.00  0.00    -0.003 C 
ATOM     16  C   UNL     1      67.100  31.137  58.273  1.00  0.00     0.004 C 
ENDBRANCH  14  15
ENDBRANCH  13  14
ENDBRANCH  12  13
ENDBRANCH  11  12
ENDBRANCH  10  11
ENDBRANCH   1  10
TORSDOF 12
ENDMDL
MODEL 2
REMARK VINA RESULT:    -2.920     11.306     13.103
REMARK INTER + INTRA:          -6.520
REMARK INTER:                  -4.913
REMARK INTRA:                  -1.607
REMARK UNBOUND:                -1.551
REMARK SMILES CCCCCCCCCCCCCC(=O)[O-]
REMARK SMILES IDX 8 1 9 2 10 3 11 4 12 5 13 6 14 7 15 8 16 9 7 10 6 11 5 12
REMARK SMILES IDX 4 13 3 14 2 15 1 16
REMARK H PARENT
REMARK Flexibility Score: inf
ROOT
ATOM      1  C   UNL     1      58.104  24.977  51.583  1.00  0.00     0.000 C 
ENDROOT
BRANCH   1   2
ATOM      2  C   UNL     1      58.220  25.285  50.080  1.00  0.00     0.000 C 
BRANCH   2   3
ATOM      3  C   UNL     1      59.679  25.346  49.602  1.00  0.00     0.000 C 
BRANCH   3   4
ATOM      4  C   UNL     1      60.670  24.850  50.670  1.00  0.00     0.000 C 
BRANCH   4   5
ATOM      5  C   UNL     1      61.455  23.604  50.220  1.00  0.00     0.006 C 
BRANCH   5   6
ATOM      6  C   UNL     1      60.822  22.269  50.645  1.00  0.00     0.053 C 
BRANCH   6   7
ATOM      7  C   UNL     1      60.755  21.295  49.509  1.00  0.00     0.041 C 
ATOM      8  O   UNL     1      61.230  21.599  48.384  1.00  0.00    -0.550 OA
ATOM      9  O   UNL     1      60.140  20.062  49.687  1.00  0.00    -0.550 OA
ENDBRANCH   6   7
ENDBRANCH   5   6
ENDBRANCH   4   5
ENDBRANCH   3   4
ENDBRANCH   2   3
ENDBRANCH   1   2
BRANCH   1  10
ATOM     10  C   UNL     1      56.963  25.754  52.260  1.00  0.00     0.000 C 
BRANCH  10  11
ATOM     11  C   UNL     1      57.138  27.280  52.157  1.00  0.00    -0.000 C 
BRANCH  11  12
ATOM     12  C   UNL     1      58.473  27.756  52.770  1.00  0.00    -0.000 C 
BRANCH  12  13
ATOM     13  C   UNL     1      59.198  28.822  51.924  1.00  0.00    -0.000 C 
BRANCH  13  14
ATOM     14  C   UNL     1      60.643  28.466  51.539  1.00  0.00    -0.000 C 
BRANCH  14  15
ATOM     15  C   UNL     1      60.939  28.716  50.053  1.00  0.00    -0.003 C 
ATOM     16  C   UNL     1      62.253  28.060  49.638  1.00  0.00     0.004 C 
ENDBRANCH  14  15
ENDBRANCH  13  14
ENDBRANCH  12  13
ENDBRANCH  11  12
ENDBRANCH  10  11
ENDBRANCH   1  10
TORSDOF 12
ENDMDL
MODEL 3
REMARK VINA RESULT:    -2.920      4.327      6.786
REMARK INTER + INTRA:          -6.519
REMARK INTER:                  -5.889
REMARK INTRA:                  -0.630
REMARK UNBOUND:                -1.551
REMARK SMILES CCCCCCCCCCCCCC(=O)[O-]
REMARK SMILES IDX 8 1 9 2 10 3 11 4 12 5 13 6 14 7 15 8 16 9 7 10 6 11 5 12
REMARK SMILES IDX 4 13 3 14 2 15 1 16
REMARK H PARENT
REMARK Flexibility Score: inf
ROOT
ATOM      1  C   UNL     1      64.647  29.639  61.123  1.00  0.00     0.000 C 
ENDROOT
BRANCH   1   2
ATOM      2  C   UNL     1      63.229  29.496  61.704  1.00  0.00     0.000 C 
BRANCH   2   3
ATOM      3  C   UNL     1      62.375  28.481  60.928  1.00  0.00     0.000 C 
BRANCH   3   4
ATOM      4  C   UNL     1      61.084  29.104  60.366  1.00  0.00     0.000 C 
BRANCH   4   5
ATOM      5  C   UNL     1      60.005  28.052  60.049  1.00  0.00     0.006 C 
BRANCH   5   6
ATOM      6  C   UNL     1      59.514  27.260  61.271  1.00  0.00     0.053 C 
BRANCH   6   7
ATOM      7  C   UNL     1      58.022  27.136  61.296  1.00  0.00     0.041 C 
ATOM      8  O   UNL     1      57.395  26.812  60.253  1.00  0.00    -0.550 OA
ATOM      9  O   UNL     1      57.320  27.409  62.463  1.00  0.00    -0.550 OA
ENDBRANCH   6   7
ENDBRANCH   5   6
ENDBRANCH   4   5
ENDBRANCH   3   4
ENDBRANCH   2   3
ENDBRANCH   1   2
BRANCH   1  10
ATOM     10  C   UNL     1      65.089  31.106  60.994  1.00  0.00     0.000 C 
BRANCH  10  11
ATOM     11  C   UNL     1      65.089  31.602  59.537  1.00  0.00    -0.000 C 
BRANCH  11  12
ATOM     12  C   UNL     1      65.122  33.143  59.446  1.00  0.00    -0.000 C 
BRANCH  12  13
ATOM     13  C   UNL     1      63.803  33.817  59.874  1.00  0.00    -0.000 C 
BRANCH  13  14
ATOM     14  C   UNL     1      63.973  35.045  60.784  1.00  0.00    -0.000 C 
BRANCH  14  15
ATOM     15  C   UNL     1      65.165  34.912  61.743  1.00  0.00    -0.003 C 
ATOM     16  C   UNL     1      65.066  35.921  62.884  1.00  0.00     0.004 C 
ENDBRANCH  14  15
ENDBRANCH  13  14
ENDBRANCH  12  13
ENDBRANCH  11  12
ENDBRANCH  10  11
ENDBRANCH   1  10
TORSDOF 12
ENDMDL
MODEL 4
REMARK VINA RESULT:    -2.918      4.486      6.987
REMARK INTER + INTRA:          -6.515
REMARK INTER:                  -5.709
REMARK INTRA:                  -0.806
REMARK UNBOUND:                -1.551
REMARK SMILES CCCCCCCCCCCCCC(=O)[O-]
REMARK SMILES IDX 8 1 9 2 10 3 11 4 12 5 13 6 14 7 15 8 16 9 7 10 6 11 5 12
REMARK SMILES IDX 4 13 3 14 2 15 1 16
REMARK H PARENT
REMARK Flexibility Score: inf
ROOT
ATOM      1  C   UNL     1      63.211  29.726  60.359  1.00  0.00     0.000 C 
ENDROOT
BRANCH   1   2
ATOM      2  C   UNL     1      62.856  28.246  60.133  1.00  0.00     0.000 C 
BRANCH   2   3
ATOM      3  C   UNL     1      64.101  27.351  60.032  1.00  0.00     0.000 C 
BRANCH   3   4
ATOM      4  C   UNL     1      64.020  26.121  60.955  1.00  0.00     0.000 C 
BRANCH   4   5
ATOM      5  C   UNL     1      62.852  26.204  61.955  1.00  0.00     0.006 C 
BRANCH   5   6
ATOM      6  C   UNL     1      62.273  24.841  62.366  1.00  0.00     0.053 C 
BRANCH   6   7
ATOM      7  C   UNL     1      60.860  24.956  62.851  1.00  0.00     0.041 C 
ATOM      8  O   UNL     1      60.112  25.870  62.414  1.00  0.00    -0.550 OA
ATOM      9  O   UNL     1      60.379  24.071  63.808  1.00  0.00    -0.550 OA
ENDBRANCH   6   7
ENDBRANCH   5   6
ENDBRANCH   4   5
ENDBRANCH   3   4
ENDBRANCH   2   3
ENDBRANCH   1   2
BRANCH   1  10
ATOM     10  C   UNL     1      64.525  29.908  61.136  1.00  0.00     0.000 C 
BRANCH  10  11
ATOM     11  C   UNL     1      65.188  31.272  60.872  1.00  0.00    -0.000 C 
BRANCH  11  12
ATOM     12  C   UNL     1      64.373  32.136  59.886  1.00  0.00    -0.000 C 
BRANCH  12  13
ATOM     13  C   UNL     1      64.771  33.625  59.892  1.00  0.00    -0.000 C 
BRANCH  13  14
ATOM     14  C   UNL     1      63.619  34.599  60.184  1.00  0.00    -0.000 C 
BRANCH  14  15
ATOM     15  C   UNL     1      63.939  35.569  61.331  1.00  0.00    -0.003 C 
ATOM     16  C   UNL     1      65.242  35.183  62.027  1.00  0.00     0.004 C 
ENDBRANCH  14  15
ENDBRANCH  13  14
ENDBRANCH  12  13
ENDBRANCH  11  12
ENDBRANCH  10  11
ENDBRANCH   1  10
TORSDOF 12
ENDMDL
MODEL 5
REMARK VINA RESULT:    -2.906      3.521      6.251
REMARK INTER + INTRA:          -6.495
REMARK INTER:                  -5.511
REMARK INTRA:                  -0.984
REMARK UNBOUND:                -1.551
REMARK SMILES CCCCCCCCCCCCCC(=O)[O-]
REMARK SMILES IDX 8 1 9 2 10 3 11 4 12 5 13 6 14 7 15 8 16 9 7 10 6 11 5 12
REMARK SMILES IDX 4 13 3 14 2 15 1 16
REMARK H PARENT
REMARK Flexibility Score: inf
ROOT
ATOM      1  C   UNL     1      64.804  30.112  60.942  1.00  0.00     0.000 C 
ENDROOT
BRANCH   1   2
ATOM      2  C   UNL     1      63.372  29.730  60.527  1.00  0.00     0.000 C 
BRANCH   2   3
ATOM      3  C   UNL     1      62.614  28.991  61.641  1.00  0.00     0.000 C 
BRANCH   3   4
ATOM      4  C   UNL     1      62.155  27.587  61.210  1.00  0.00     0.000 C 
BRANCH   4   5
ATOM      5  C   UNL     1      62.870  26.463  61.984  1.00  0.00     0.006 C 
BRANCH   5   6
ATOM      6  C   UNL     1      63.685  25.506  61.100  1.00  0.00     0.053 C 
BRANCH   6   7
ATOM      7  C   UNL     1      64.573  26.242  60.145  1.00  0.00     0.041 C 
ATOM      8  O   UNL     1      65.592  26.849  60.566  1.00  0.00    -0.550 OA
ATOM      9  O   UNL     1      64.256  26.284  58.793  1.00  0.00    -0.550 OA
ENDBRANCH   6   7
ENDBRANCH   5   6
ENDBRANCH   4   5
ENDBRANCH   3   4
ENDBRANCH   2   3
ENDBRANCH   1   2
BRANCH   1  10
ATOM     10  C   UNL     1      65.010  31.633  61.030  1.00  0.00     0.000 C 
BRANCH  10  11
ATOM     11  C   UNL     1      65.236  32.284  59.654  1.00  0.00    -0.000 C 
BRANCH  11  12
ATOM     12  C   UNL     1      64.046  33.170  59.226  1.00  0.00    -0.000 C 
BRANCH  12  13
ATOM     13  C   UNL     1      64.224  34.659  59.579  1.00  0.00    -0.000 C 
BRANCH  13  14
ATOM     14  C   UNL     1      63.313  35.167  60.709  1.00  0.00    -0.000 C 
BRANCH  14  15
ATOM     15  C   UNL     1      64.073  35.994  61.756  1.00  0.00    -0.003 C 
ATOM     16  C   UNL     1      65.360  35.291  62.182  1.00  0.00     0.004 C 
ENDBRANCH  14  15
ENDBRANCH  13  14
ENDBRANCH  12  13
ENDBRANCH  11  12
ENDBRANCH  10  11
ENDBRANCH   1  10
TORSDOF 12
ENDMDL
MODEL 6
REMARK VINA RESULT:    -2.875      2.913      5.756
REMARK INTER + INTRA:          -6.443
REMARK INTER:                  -4.860
REMARK INTRA:                  -1.583
REMARK UNBOUND:                -1.551
REMARK SMILES CCCCCCCCCCCCCC(=O)[O-]
REMARK SMILES IDX 8 1 9 2 10 3 11 4 12 5 13 6 14 7 15 8 16 9 7 10 6 11 5 12
REMARK SMILES IDX 4 13 3 14 2 15 1 16
REMARK H PARENT
REMARK Flexibility Score: inf
ROOT
ATOM      1  C   UNL     1      63.578  32.476  59.209  1.00  0.00     0.000 C 
ENDROOT
BRANCH   1   2
ATOM      2  C   UNL     1      64.837  31.653  59.532  1.00  0.00     0.000 C 
BRANCH   2   3
ATOM      3  C   UNL     1      64.850  31.142  60.981  1.00  0.00     0.000 C 
BRANCH   3   4
ATOM      4  C   UNL     1      64.618  29.623  61.073  1.00  0.00     0.000 C 
BRANCH   4   5
ATOM      5  C   UNL     1      63.277  29.265  61.740  1.00  0.00     0.006 C 
BRANCH   5   6
ATOM      6  C   UNL     1      62.325  28.449  60.850  1.00  0.00     0.053 C 
BRANCH   6   7
ATOM      7  C   UNL     1      61.906  29.212  59.632  1.00  0.00     0.041 C 
ATOM      8  O   UNL     1      61.022  30.105  59.716  1.00  0.00    -0.550 OA
ATOM      9  O   UNL     1      62.470  28.916  58.397  1.00  0.00    -0.550 OA
ENDBRANCH   6   7
ENDBRANCH   5   6
ENDBRANCH   4   5
ENDBRANCH   3   4
ENDBRANCH   2   3
ENDBRANCH   1   2
BRANCH   1  10
ATOM     10  C   UNL     1      63.775  33.411  58.004  1.00  0.00     0.000 C 
BRANCH  10  11
ATOM     11  C   UNL     1      63.089  34.776  58.191  1.00  0.00    -0.000 C 
BRANCH  11  12
ATOM     12  C   UNL     1      62.434  34.914  59.583  1.00  0.00    -0.000 C 
BRANCH  12  13
ATOM     13  C   UNL     1      62.943  36.124  60.390  1.00  0.00    -0.000 C 
BRANCH  13  14
ATOM     14  C   UNL     1      63.667  35.768  61.699  1.00  0.00    -0.000 C 
BRANCH  14  15
ATOM     15  C   UNL     1      64.989  35.023  61.461  1.00  0.00    -0.003 C 
ATOM     16  C   UNL     1      65.905  35.814  60.530  1.00  0.00     0.004 C 
ENDBRANCH  14  15
ENDBRANCH  13  14
ENDBRANCH  12  13
ENDBRANCH  11  12
ENDBRANCH  10  11
ENDBRANCH   1  10
TORSDOF 12
ENDMDL
MODEL 7
REMARK VINA RESULT:    -2.863      4.149      6.334
REMARK INTER + INTRA:          -6.422
REMARK INTER:                  -5.441
REMARK INTRA:                  -0.982
REMARK UNBOUND:                -1.551
REMARK SMILES CCCCCCCCCCCCCC(=O)[O-]
REMARK SMILES IDX 8 1 9 2 10 3 11 4 12 5 13 6 14 7 15 8 16 9 7 10 6 11 5 12
REMARK SMILES IDX 4 13 3 14 2 15 1 16
REMARK H PARENT
REMARK Flexibility Score: inf
ROOT
ATOM      1  C   UNL     1      68.607  28.636  61.410  1.00  0.00     0.000 C 
ENDROOT
BRANCH   1   2
ATOM      2  C   UNL     1      67.881  27.480  60.698  1.00  0.00     0.000 C 
BRANCH   2   3
ATOM      3  C   UNL     1      66.612  27.945  59.965  1.00  0.00     0.000 C 
BRANCH   3   4
ATOM      4  C   UNL     1      65.323  27.507  60.683  1.00  0.00     0.000 C 
BRANCH   4   5
ATOM      5  C   UNL     1      64.320  28.662  60.862  1.00  0.00     0.006 C 
BRANCH   5   6
ATOM      6  C   UNL     1      64.941  29.964  61.393  1.00  0.00     0.053 C 
BRANCH   6   7
ATOM      7  C   UNL     1      64.795  31.092  60.419  1.00  0.00     0.041 C 
ATOM      8  O   UNL     1      65.115  32.264  60.754  1.00  0.00    -0.550 OA
ATOM      9  O   UNL     1      64.277  30.856  59.152  1.00  0.00    -0.550 OA
ENDBRANCH   6   7
ENDBRANCH   5   6
ENDBRANCH   4   5
ENDBRANCH   3   4
ENDBRANCH   2   3
ENDBRANCH   1   2
BRANCH   1  10
ATOM     10  C   UNL     1      69.823  29.147  60.622  1.00  0.00     0.000 C 
BRANCH  10  11
ATOM     11  C   UNL     1      70.917  28.077  60.455  1.00  0.00    -0.000 C 
BRANCH  11  12
ATOM     12  C   UNL     1      72.329  28.641  60.724  1.00  0.00    -0.000 C 
BRANCH  12  13
ATOM     13  C   UNL     1      72.330  29.929  61.570  1.00  0.00    -0.000 C 
BRANCH  13  14
ATOM     14  C   UNL     1      73.261  31.038  61.053  1.00  0.00    -0.000 C 
BRANCH  14  15
ATOM     15  C   UNL     1      72.494  32.271  60.554  1.00  0.00    -0.003 C 
ATOM     16  C   UNL     1      71.946  32.043  59.147  1.00  0.00     0.004 C 
ENDBRANCH  14  15
ENDBRANCH  13  14
ENDBRANCH  12  13
ENDBRANCH  11  12
ENDBRANCH  10  11
ENDBRANCH   1  10
TORSDOF 12
ENDMDL
MODEL 8
REMARK VINA RESULT:    -2.843     10.019     11.786
REMARK INTER + INTRA:          -6.388
REMARK INTER:                  -4.744
REMARK INTRA:                  -1.644
REMARK UNBOUND:                -1.551
REMARK SMILES CCCCCCCCCCCCCC(=O)[O-]
REMARK SMILES IDX 8 1 9 2 10 3 11 4 12 5 13 6 14 7 15 8 16 9 7 10 6 11 5 12
REMARK SMILES IDX 4 13 3 14 2 15 1 16
REMARK H PARENT
REMARK Flexibility Score: inf
ROOT
ATOM      1  C   UNL     1      61.063  29.207  51.267  1.00  0.00     0.000 C 
ENDROOT
BRANCH   1   2
ATOM      2  C   UNL     1      60.919  28.984  49.751  1.00  0.00     0.000 C 
BRANCH   2   3
ATOM      3  C   UNL     1      61.257  27.544  49.333  1.00  0.00     0.000 C 
BRANCH   3   4
ATOM      4  C   UNL     1      62.435  26.959  50.132  1.00  0.00     0.000 C 
BRANCH   4   5
ATOM      5  C   UNL     1      63.652  26.634  49.247  1.00  0.00     0.006 C 
BRANCH   5   6
ATOM      6  C   UNL     1      64.771  27.686  49.296  1.00  0.00     0.053 C 
BRANCH   6   7
ATOM      7  C   UNL     1      64.570  28.765  48.277  1.00  0.00     0.041 C 
ATOM      8  O   UNL     1      64.854  28.555  47.068  1.00  0.00    -0.550 OA
ATOM      9  O   UNL     1      64.099  30.012  48.666  1.00  0.00    -0.550 OA
ENDBRANCH   6   7
ENDBRANCH   5   6
ENDBRANCH   4   5
ENDBRANCH   3   4
ENDBRANCH   2   3
ENDBRANCH   1   2
BRANCH   1  10
ATOM     10  C   UNL     1      59.709  29.221  51.994  1.00  0.00     0.000 C 
BRANCH  10  11
ATOM     11  C   UNL     1      59.286  27.827  52.493  1.00  0.00    -0.000 C 
BRANCH  11  12
ATOM     12  C   UNL     1      57.990  27.334  51.813  1.00  0.00    -0.000 C 
BRANCH  12  13
ATOM     13  C   UNL     1      57.920  25.802  51.652  1.00  0.00    -0.000 C 
BRANCH  13  14
ATOM     14  C   UNL     1      58.278  25.285  50.250  1.00  0.00    -0.000 C 
BRANCH  14  15
ATOM     15  C   UNL     1      59.593  24.492  50.229  1.00  0.00    -0.003 C 
ATOM     16  C   UNL     1      60.098  24.229  51.646  1.00  0.00     0.004 C 
ENDBRANCH  14  15
ENDBRANCH  13  14
ENDBRANCH  12  13
ENDBRANCH  11  12
ENDBRANCH  10  11
ENDBRANCH   1  10
TORSDOF 12
ENDMDL
MODEL 9
REMARK VINA RESULT:    -2.822      4.271      5.858
REMARK INTER + INTRA:          -6.353
REMARK INTER:                  -4.445
REMARK INTRA:                  -1.908
REMARK UNBOUND:                -1.551
REMARK SMILES CCCCCCCCCCCCCC(=O)[O-]
REMARK SMILES IDX 8 1 9 2 10 3 11 4 12 5 13 6 14 7 15 8 16 9 7 10 6 11 5 12
REMARK SMILES IDX 4 13 3 14 2 15 1 16
REMARK H PARENT
REMARK Flexibility Score: inf
ROOT
ATOM      1  C   UNL     1      62.816  29.663  58.513  1.00  0.00     0.000 C 
ENDROOT
BRANCH   1   2
ATOM      2  C   UNL     1      61.698  30.228  59.408  1.00  0.00     0.000 C 
BRANCH   2   3
ATOM      3  C   UNL     1      61.283  29.250  60.519  1.00  0.00     0.000 C 
BRANCH   3   4
ATOM      4  C   UNL     1      62.002  27.894  60.409  1.00  0.00     0.000 C 
BRANCH   4   5
ATOM      5  C   UNL     1      62.611  27.433  61.747  1.00  0.00     0.006 C 
BRANCH   5   6
ATOM      6  C   UNL     1      62.525  25.918  61.993  1.00  0.00     0.053 C 
BRANCH   6   7
ATOM      7  C   UNL     1      61.324  25.550  62.808  1.00  0.00     0.041 C 
ATOM      8  O   UNL     1      61.464  25.058  63.958  1.00  0.00    -0.550 OA
ATOM      9  O   UNL     1      60.049  25.722  62.284  1.00  0.00    -0.550 OA
ENDBRANCH   6   7
ENDBRANCH   5   6
ENDBRANCH   4   5
ENDBRANCH   3   4
ENDBRANCH   2   3
ENDBRANCH   1   2
BRANCH   1  10
ATOM     10  C   UNL     1      64.115  30.481  58.601  1.00  0.00     0.000 C 
BRANCH  10  11
ATOM     11  C   UNL     1      64.241  31.257  59.924  1.00  0.00    -0.000 C 
BRANCH  11  12
ATOM     12  C   UNL     1      64.899  30.411  61.036  1.00  0.00    -0.000 C 
BRANCH  12  13
ATOM     13  C   UNL     1      66.133  29.619  60.562  1.00  0.00    -0.000 C 
BRANCH  13  14
ATOM     14  C   UNL     1      66.128  28.129  60.942  1.00  0.00    -0.000 C 
BRANCH  14  15
ATOM     15  C   UNL     1      66.462  27.215  59.754  1.00  0.00    -0.003 C 
ATOM     16  C   UNL     1      65.196  26.800  59.008  1.00  0.00     0.004 C 
ENDBRANCH  14  15
ENDBRANCH  13  14
ENDBRANCH  12  13
ENDBRANCH  11  12
ENDBRANCH  10  11
ENDBRANCH   1  10
TORSDOF 12
ENDMDL
