MODEL 1
REMARK VINA RESULT:    -3.913      0.000      0.000
REMARK INTER + INTRA:          -4.277
REMARK INTER:                  -4.256
REMARK INTRA:                  -0.021
REMARK UNBOUND:                -0.021
REMARK SMILES OCc1ccco1
REMARK SMILES IDX 2 1 3 2 5 3 6 4 4 5 7 6 1 7
REMARK H PARENT 1 8
REMARK Flexibility Score: inf
ROOT
ATOM      1  C   UNL     1      25.514  34.281  30.001  1.00  0.00     0.231 C 
ENDROOT
BRANCH   1   2
ATOM      2  C   UNL     1      26.532  34.483  31.078  1.00  0.00     0.129 A 
ATOM      3  C   UNL     1      27.630  35.273  32.808  1.00  0.00     0.042 A 
ATOM      4  C   UNL     1      28.222  34.123  32.326  1.00  0.00     0.195 A 
ATOM      5  C   UNL     1      26.534  35.506  32.004  1.00  0.00     0.048 A 
ATOM      6  O   UNL     1      27.542  33.673  31.296  1.00  0.00    -0.467 OA
ENDBRANCH   1   2
BRANCH   1   7
ATOM      7  O   UNL     1      25.499  32.939  29.599  1.00  0.00    -0.388 OA
ATOM      8  H   UNL     1      26.215  32.481  30.114  1.00  0.00     0.211 HD
ENDBRANCH   1   7
TORSDOF 2
ENDMDL
MODEL 2
REMARK VINA RESULT:    -3.523      2.265      2.894
REMARK INTER + INTRA:          -3.853
REMARK INTER:                  -3.832
REMARK INTRA:                  -0.021
REMARK UNBOUND:                -0.021
REMARK SMILES OCc1ccco1
REMARK SMILES IDX 2 1 3 2 5 3 6 4 4 5 7 6 1 7
REMARK H PARENT 1 8
REMARK Flexibility Score: inf
ROOT
ATOM      1  C   UNL     1      25.842  33.041  34.547  1.00  0.00     0.231 C 
ENDROOT
BRANCH   1   2
ATOM      2  C   UNL     1      26.260  33.988  33.468  1.00  0.00     0.129 A 
ATOM      3  C   UNL     1      27.081  35.721  32.397  1.00  0.00     0.042 A 
ATOM      4  C   UNL     1      26.635  34.757  31.515  1.00  0.00     0.195 A 
ATOM      5  C   UNL     1      26.842  35.224  33.661  1.00  0.00     0.048 A 
ATOM      6  O   UNL     1      26.154  33.734  32.184  1.00  0.00    -0.467 OA
ENDBRANCH   1   2
BRANCH   1   7
ATOM      7  O   UNL     1      25.157  31.952  33.992  1.00  0.00    -0.388 OA
ATOM      8  H   UNL     1      24.456  31.694  34.647  1.00  0.00     0.211 HD
ENDBRANCH   1   7
TORSDOF 2
ENDMDL
MODEL 3
REMARK VINA RESULT:    -3.349      1.999      3.512
REMARK INTER + INTRA:          -3.663
REMARK INTER:                  -3.648
REMARK INTRA:                  -0.015
REMARK UNBOUND:                -0.021
REMARK SMILES OCc1ccco1
REMARK SMILES IDX 2 1 3 2 5 3 6 4 4 5 7 6 1 7
REMARK H PARENT 1 8
REMARK Flexibility Score: inf
ROOT
ATOM      1  C   UNL     1      28.570  33.571  34.534  1.00  0.00     0.231 C 
ENDROOT
BRANCH   1   2
ATOM      2  C   UNL     1      27.948  34.123  33.292  1.00  0.00     0.129 A 
ATOM      3  C   UNL     1      26.786  35.357  31.894  1.00  0.00     0.042 A 
ATOM      4  C   UNL     1      27.513  34.395  31.222  1.00  0.00     0.195 A 
ATOM      5  C   UNL     1      27.068  35.185  33.233  1.00  0.00     0.048 A 
ATOM      6  O   UNL     1      28.199  33.677  32.083  1.00  0.00    -0.467 OA
ENDBRANCH   1   2
BRANCH   1   7
ATOM      7  O   UNL     1      27.772  33.869  35.646  1.00  0.00    -0.388 OA
ATOM      8  H   UNL     1      28.148  33.358  36.411  1.00  0.00     0.211 HD
ENDBRANCH   1   7
TORSDOF 2
ENDMDL
MODEL 4
REMARK VINA RESULT:    -3.255      2.038      3.296
REMARK INTER + INTRA:          -3.561
REMARK INTER:                  -3.549
REMARK INTRA:                  -0.012
REMARK UNBOUND:                -0.021
REMARK SMILES OCc1ccco1
REMARK SMILES IDX 2 1 3 2 5 3 6 4 4 5 7 6 1 7
REMARK H PARENT 1 8
REMARK Flexibility Score: inf
ROOT
ATOM      1  C   UNL     1      26.858  33.955  34.243  1.00  0.00     0.231 C 
ENDROOT
BRANCH   1   2
ATOM      2  C   UNL     1      26.722  33.978  32.754  1.00  0.00     0.129 A 
ATOM      3  C   UNL     1      27.117  34.271  30.614  1.00  0.00     0.042 A 
ATOM      4  C   UNL     1      25.910  33.631  30.814  1.00  0.00     0.195 A 
ATOM      5  C   UNL     1      27.645  34.494  31.868  1.00  0.00     0.048 A 
ATOM      6  O   UNL     1      25.704  33.467  32.101  1.00  0.00    -0.467 OA
ENDBRANCH   1   2
BRANCH   1   7
ATOM      7  O   UNL     1      26.414  35.167  34.786  1.00  0.00    -0.388 OA
ATOM      8  H   UNL     1      27.071  35.422  35.487  1.00  0.00     0.211 HD
ENDBRANCH   1   7
TORSDOF 2
ENDMDL
MODEL 5
REMARK VINA RESULT:    -3.226      2.610      3.298
REMARK INTER + INTRA:          -3.530
REMARK INTER:                  -3.509
REMARK INTRA:                  -0.022
REMARK UNBOUND:                -0.021
REMARK SMILES OCc1ccco1
REMARK SMILES IDX 2 1 3 2 5 3 6 4 4 5 7 6 1 7
REMARK H PARENT 1 8
REMARK Flexibility Score: inf
ROOT
ATOM      1  C   UNL     1      26.898  35.821  32.736  1.00  0.00     0.231 C 
ENDROOT
BRANCH   1   2
ATOM      2  C   UNL     1      27.030  34.795  33.816  1.00  0.00     0.129 A 
ATOM      3  C   UNL     1      26.601  33.447  35.496  1.00  0.00     0.042 A 
ATOM      4  C   UNL     1      27.880  33.250  35.014  1.00  0.00     0.195 A 
ATOM      5  C   UNL     1      26.049  34.444  34.720  1.00  0.00     0.048 A 
ATOM      6  O   UNL     1      28.105  34.066  34.010  1.00  0.00    -0.467 OA
ENDBRANCH   1   2
BRANCH   1   7
ATOM      7  O   UNL     1      28.046  35.825  31.933  1.00  0.00    -0.388 OA
ATOM      8  H   UNL     1      27.887  35.162  31.209  1.00  0.00     0.211 HD
ENDBRANCH   1   7
TORSDOF 2
ENDMDL
MODEL 6
REMARK VINA RESULT:    -3.185      3.201      4.099
REMARK INTER + INTRA:          -3.485
REMARK INTER:                  -3.472
REMARK INTRA:                  -0.014
REMARK UNBOUND:                -0.021
REMARK SMILES OCc1ccco1
REMARK SMILES IDX 2 1 3 2 5 3 6 4 4 5 7 6 1 7
REMARK H PARENT 1 8
REMARK Flexibility Score: inf
ROOT
ATOM      1  C   UNL     1      25.413  34.067  35.730  1.00  0.00     0.231 C 
ENDROOT
BRANCH   1   2
ATOM      2  C   UNL     1      26.534  34.145  34.743  1.00  0.00     0.129 A 
ATOM      3  C   UNL     1      27.879  34.813  33.140  1.00  0.00     0.042 A 
ATOM      4  C   UNL     1      28.346  33.656  33.731  1.00  0.00     0.195 A 
ATOM      5  C   UNL     1      26.709  35.132  33.796  1.00  0.00     0.048 A 
ATOM      6  O   UNL     1      27.524  33.283  34.686  1.00  0.00    -0.467 OA
ENDBRANCH   1   2
BRANCH   1   7
ATOM      7  O   UNL     1      25.425  35.195  36.560  1.00  0.00    -0.388 OA
ATOM      8  H   UNL     1      26.336  35.248  36.954  1.00  0.00     0.211 HD
ENDBRANCH   1   7
TORSDOF 2
ENDMDL
MODEL 7
REMARK VINA RESULT:    -3.139      3.030      4.041
REMARK INTER + INTRA:          -3.435
REMARK INTER:                  -3.421
REMARK INTRA:                  -0.014
REMARK UNBOUND:                -0.021
REMARK SMILES OCc1ccco1
REMARK SMILES IDX 2 1 3 2 5 3 6 4 4 5 7 6 1 7
REMARK H PARENT 1 8
REMARK Flexibility Score: inf
ROOT
ATOM      1  C   UNL     1      27.305  32.391  35.645  1.00  0.00     0.231 C 
ENDROOT
BRANCH   1   2
ATOM      2  C   UNL     1      27.367  33.493  34.636  1.00  0.00     0.129 A 
ATOM      3  C   UNL     1      27.968  34.764  32.949  1.00  0.00     0.042 A 
ATOM      4  C   UNL     1      26.811  35.234  33.538  1.00  0.00     0.195 A 
ATOM      5  C   UNL     1      28.328  33.636  33.656  1.00  0.00     0.048 A 
ATOM      6  O   UNL     1      26.476  34.452  34.539  1.00  0.00    -0.467 OA
ENDBRANCH   1   2
BRANCH   1   7
ATOM      7  O   UNL     1      26.517  31.339  35.160  1.00  0.00    -0.388 OA
ATOM      8  H   UNL     1      26.896  31.083  34.278  1.00  0.00     0.211 HD
ENDBRANCH   1   7
TORSDOF 2
ENDMDL
MODEL 8
REMARK VINA RESULT:    -2.943      2.803      3.630
REMARK INTER + INTRA:          -3.222
REMARK INTER:                  -3.201
REMARK INTRA:                  -0.021
REMARK UNBOUND:                -0.021
REMARK SMILES OCc1ccco1
REMARK SMILES IDX 2 1 3 2 5 3 6 4 4 5 7 6 1 7
REMARK H PARENT 1 8
REMARK Flexibility Score: inf
ROOT
ATOM      1  C   UNL     1      28.230  34.001  32.804  1.00  0.00     0.231 C 
ENDROOT
BRANCH   1   2
ATOM      2  C   UNL     1      27.296  33.865  33.964  1.00  0.00     0.129 A 
ATOM      3  C   UNL     1      25.683  34.211  35.414  1.00  0.00     0.042 A 
ATOM      4  C   UNL     1      26.334  33.020  35.669  1.00  0.00     0.195 A 
ATOM      5  C   UNL     1      26.303  34.757  34.310  1.00  0.00     0.048 A 
ATOM      6  O   UNL     1      27.288  32.839  34.785  1.00  0.00    -0.467 OA
ENDBRANCH   1   2
BRANCH   1   7
ATOM      7  O   UNL     1      28.951  32.814  32.625  1.00  0.00    -0.388 OA
ATOM      8  H   UNL     1      28.613  32.171  33.303  1.00  0.00     0.211 HD
ENDBRANCH   1   7
TORSDOF 2
ENDMDL
MODEL 9
REMARK VINA RESULT:    -2.865      6.615      7.189
REMARK INTER + INTRA:          -3.137
REMARK INTER:                  -3.115
REMARK INTRA:                  -0.021
REMARK UNBOUND:                -0.021
REMARK SMILES OCc1ccco1
REMARK SMILES IDX 2 1 3 2 5 3 6 4 4 5 7 6 1 7
REMARK H PARENT 1 8
REMARK Flexibility Score: inf
ROOT
ATOM      1  C   UNL     1      30.296  32.308  28.056  1.00  0.00     0.231 C 
ENDROOT
BRANCH   1   2
ATOM      2  C   UNL     1      30.659  30.960  27.520  1.00  0.00     0.129 A 
ATOM      3  C   UNL     1      31.106  28.816  27.356  1.00  0.00     0.042 A 
ATOM      4  C   UNL     1      31.125  29.424  26.117  1.00  0.00     0.195 A 
ATOM      5  C   UNL     1      30.801  29.807  28.265  1.00  0.00     0.048 A 
ATOM      6  O   UNL     1      30.851  30.702  26.246  1.00  0.00    -0.467 OA
ENDBRANCH   1   2
BRANCH   1   7
ATOM      7  O   UNL     1      29.957  33.168  27.004  1.00  0.00    -0.388 OA
ATOM      8  H   UNL     1      30.803  33.590  26.697  1.00  0.00     0.211 HD
ENDBRANCH   1   7
TORSDOF 2
ENDMDL
