MODEL 1
REMARK VINA RESULT:    -6.037      0.000      0.000
REMARK INTER + INTRA:         -12.351
REMARK INTER:                 -10.625
REMARK INTRA:                  -1.726
REMARK UNBOUND:                -1.726
REMARK SMILES CCCCCCCCCCCCCCC(=O)[O-]
REMARK SMILES IDX 9 1 10 2 11 3 12 4 13 5 14 6 15 7 16 8 17 9 8 10 7 11 6 12
REMARK SMILES IDX 5 13 4 14 3 15 2 16 1 17
REMARK H PARENT
REMARK Flexibility Score: inf
ROOT
ATOM      1  C   UNL     1     -19.061  -9.295  -0.495  1.00  0.00     0.000 C 
ENDROOT
BRANCH   1   2
ATOM      2  C   UNL     1     -19.084 -10.641  -1.237  1.00  0.00     0.000 C 
BRANCH   2   3
ATOM      3  C   UNL     1     -18.928 -11.841  -0.286  1.00  0.00     0.000 C 
BRANCH   3   4
ATOM      4  C   UNL     1     -18.486 -13.120  -1.016  1.00  0.00     0.000 C 
BRANCH   4   5
ATOM      5  C   UNL     1     -17.100 -13.613  -0.566  1.00  0.00     0.006 C 
BRANCH   5   6
ATOM      6  C   UNL     1     -16.432 -12.642   0.416  1.00  0.00     0.053 C 
BRANCH   6   7
ATOM      7  C   UNL     1     -15.352 -13.309   1.213  1.00  0.00     0.041 C 
ATOM      8  O   UNL     1     -15.606 -14.344   1.883  1.00  0.00    -0.550 OA
ATOM      9  O   UNL     1     -14.057 -12.805   1.190  1.00  0.00    -0.550 OA
ENDBRANCH   6   7
ENDBRANCH   5   6
ENDBRANCH   4   5
ENDBRANCH   3   4
ENDBRANCH   2   3
ENDBRANCH   1   2
BRANCH   1  10
ATOM     10  C   UNL     1     -18.217  -9.343   0.790  1.00  0.00     0.000 C 
BRANCH  10  11
ATOM     11  C   UNL     1     -17.604  -7.977   1.153  1.00  0.00    -0.000 C 
BRANCH  11  12
ATOM     12  C   UNL     1     -16.156  -7.762   0.670  1.00  0.00    -0.000 C 
BRANCH  12  13
ATOM     13  C   UNL     1     -15.392  -9.047   0.293  1.00  0.00    -0.000 C 
BRANCH  13  14
ATOM     14  C   UNL     1     -15.049  -9.189  -1.202  1.00  0.00    -0.000 C 
BRANCH  14  15
ATOM     15  C   UNL     1     -15.598  -8.031  -2.053  1.00  0.00    -0.000 C 
BRANCH  15  16
ATOM     16  C   UNL     1     -16.708  -8.483  -3.013  1.00  0.00    -0.003 C 
ATOM     17  C   UNL     1     -16.393  -8.165  -4.475  1.00  0.00     0.004 C 
ENDBRANCH  15  16
ENDBRANCH  14  15
ENDBRANCH  13  14
ENDBRANCH  12  13
ENDBRANCH  11  12
ENDBRANCH  10  11
ENDBRANCH   1  10
TORSDOF 13
ENDMDL
MODEL 2
REMARK VINA RESULT:    -5.913      2.049      2.463
REMARK INTER + INTRA:         -12.133
REMARK INTER:                 -10.411
REMARK INTRA:                  -1.722
REMARK UNBOUND:                -1.726
REMARK SMILES CCCCCCCCCCCCCCC(=O)[O-]
REMARK SMILES IDX 9 1 10 2 11 3 12 4 13 5 14 6 15 7 16 8 17 9 8 10 7 11 6 12
REMARK SMILES IDX 5 13 4 14 3 15 2 16 1 17
REMARK H PARENT
REMARK Flexibility Score: inf
ROOT
ATOM      1  C   UNL     1     -18.995  -9.502  -0.595  1.00  0.00     0.000 C 
ENDROOT
BRANCH   1   2
ATOM      2  C   UNL     1     -18.699 -10.848  -1.277  1.00  0.00     0.000 C 
BRANCH   2   3
ATOM      3  C   UNL     1     -18.386 -11.965  -0.267  1.00  0.00     0.000 C 
BRANCH   3   4
ATOM      4  C   UNL     1     -16.931 -12.453  -0.358  1.00  0.00     0.000 C 
BRANCH   4   5
ATOM      5  C   UNL     1     -16.814 -13.986  -0.311  1.00  0.00     0.006 C 
BRANCH   5   6
ATOM      6  C   UNL     1     -16.153 -14.556  -1.573  1.00  0.00     0.053 C 
BRANCH   6   7
ATOM      7  C   UNL     1     -16.952 -14.260  -2.805  1.00  0.00     0.041 C 
ATOM      8  O   UNL     1     -16.450 -13.580  -3.738  1.00  0.00    -0.550 OA
ATOM      9  O   UNL     1     -18.240 -14.764  -2.937  1.00  0.00    -0.550 OA
ENDBRANCH   6   7
ENDBRANCH   5   6
ENDBRANCH   4   5
ENDBRANCH   3   4
ENDBRANCH   2   3
ENDBRANCH   1   2
BRANCH   1  10
ATOM     10  C   UNL     1     -18.327  -9.380   0.785  1.00  0.00     0.000 C 
BRANCH  10  11
ATOM     11  C   UNL     1     -17.815  -7.957   1.076  1.00  0.00    -0.000 C 
BRANCH  11  12
ATOM     12  C   UNL     1     -16.390  -7.660   0.568  1.00  0.00    -0.000 C 
BRANCH  12  13
ATOM     13  C   UNL     1     -15.535  -8.901   0.245  1.00  0.00    -0.000 C 
BRANCH  13  14
ATOM     14  C   UNL     1     -15.227  -9.113  -1.249  1.00  0.00    -0.000 C 
BRANCH  14  15
ATOM     15  C   UNL     1     -15.871  -8.045  -2.147  1.00  0.00    -0.000 C 
BRANCH  15  16
ATOM     16  C   UNL     1     -16.733  -8.656  -3.262  1.00  0.00    -0.003 C 
ATOM     17  C   UNL     1     -16.470  -8.025  -4.630  1.00  0.00     0.004 C 
ENDBRANCH  15  16
ENDBRANCH  14  15
ENDBRANCH  13  14
ENDBRANCH  12  13
ENDBRANCH  11  12
ENDBRANCH  10  11
ENDBRANCH   1  10
TORSDOF 13
ENDMDL
MODEL 3
REMARK VINA RESULT:    -5.910      2.961      5.640
REMARK INTER + INTRA:         -12.127
REMARK INTER:                  -9.746
REMARK INTRA:                  -2.380
REMARK UNBOUND:                -1.726
REMARK SMILES CCCCCCCCCCCCCCC(=O)[O-]
REMARK SMILES IDX 9 1 10 2 11 3 12 4 13 5 14 6 15 7 16 8 17 9 8 10 7 11 6 12
REMARK SMILES IDX 5 13 4 14 3 15 2 16 1 17
REMARK H PARENT
REMARK Flexibility Score: inf
ROOT
ATOM      1  C   UNL     1     -19.122 -12.862  -0.922  1.00  0.00     0.000 C 
ENDROOT
BRANCH   1   2
ATOM      2  C   UNL     1     -18.922 -11.496  -0.245  1.00  0.00     0.000 C 
BRANCH   2   3
ATOM      3  C   UNL     1     -18.927 -10.332  -1.252  1.00  0.00     0.000 C 
BRANCH   3   4
ATOM      4  C   UNL     1     -18.137  -9.113  -0.750  1.00  0.00     0.000 C 
BRANCH   4   5
ATOM      5  C   UNL     1     -16.925  -8.782  -1.638  1.00  0.00     0.006 C 
BRANCH   5   6
ATOM      6  C   UNL     1     -16.998  -9.485  -3.000  1.00  0.00     0.053 C 
BRANCH   6   7
ATOM      7  C   UNL     1     -16.014  -8.916  -3.976  1.00  0.00     0.041 C 
ATOM      8  O   UNL     1     -14.852  -9.396  -4.058  1.00  0.00    -0.550 OA
ATOM      9  O   UNL     1     -16.389  -7.875  -4.817  1.00  0.00    -0.550 OA
ENDBRANCH   6   7
ENDBRANCH   5   6
ENDBRANCH   4   5
ENDBRANCH   3   4
ENDBRANCH   2   3
ENDBRANCH   1   2
BRANCH   1  10
ATOM     10  C   UNL     1     -18.703 -12.854  -2.402  1.00  0.00     0.000 C 
BRANCH  10  11
ATOM     11  C   UNL     1     -18.145 -14.211  -2.870  1.00  0.00    -0.000 C 
BRANCH  11  12
ATOM     12  C   UNL     1     -16.770 -14.147  -3.565  1.00  0.00    -0.000 C 
BRANCH  12  13
ATOM     13  C   UNL     1     -15.910 -12.918  -3.206  1.00  0.00    -0.000 C 
BRANCH  13  14
ATOM     14  C   UNL     1     -15.010 -13.088  -1.968  1.00  0.00    -0.000 C 
BRANCH  14  15
ATOM     15  C   UNL     1     -15.237 -11.994  -0.912  1.00  0.00    -0.000 C 
BRANCH  15  16
ATOM     16  C   UNL     1     -15.416 -12.569   0.501  1.00  0.00    -0.003 C 
ATOM     17  C   UNL     1     -15.940 -14.004   0.496  1.00  0.00     0.004 C 
ENDBRANCH  15  16
ENDBRANCH  14  15
ENDBRANCH  13  14
ENDBRANCH  12  13
ENDBRANCH  11  12
ENDBRANCH  10  11
ENDBRANCH   1  10
TORSDOF 13
ENDMDL
MODEL 4
REMARK VINA RESULT:    -5.896      2.518      5.641
REMARK INTER + INTRA:         -12.103
REMARK INTER:                 -10.668
REMARK INTRA:                  -1.434
REMARK UNBOUND:                -1.726
REMARK SMILES CCCCCCCCCCCCCCC(=O)[O-]
REMARK SMILES IDX 9 1 10 2 11 3 12 4 13 5 14 6 15 7 16 8 17 9 8 10 7 11 6 12
REMARK SMILES IDX 5 13 4 14 3 15 2 16 1 17
REMARK H PARENT
REMARK Flexibility Score: inf
ROOT
ATOM      1  C   UNL     1     -18.094  -9.441   0.711  1.00  0.00     0.000 C 
ENDROOT
BRANCH   1   2
ATOM      2  C   UNL     1     -17.761  -8.005   1.149  1.00  0.00     0.000 C 
BRANCH   2   3
ATOM      3  C   UNL     1     -16.327  -7.592   0.775  1.00  0.00     0.000 C 
BRANCH   3   4
ATOM      4  C   UNL     1     -15.609  -8.654  -0.076  1.00  0.00     0.000 C 
BRANCH   4   5
ATOM      5  C   UNL     1     -15.144  -8.109  -1.437  1.00  0.00     0.006 C 
BRANCH   5   6
ATOM      6  C   UNL     1     -16.299  -7.996  -2.441  1.00  0.00     0.053 C 
BRANCH   6   7
ATOM      7  C   UNL     1     -15.912  -8.499  -3.798  1.00  0.00     0.041 C 
ATOM      8  O   UNL     1     -16.572  -8.155  -4.813  1.00  0.00    -0.550 OA
ATOM      9  O   UNL     1     -14.803  -9.323  -3.945  1.00  0.00    -0.550 OA
ENDBRANCH   6   7
ENDBRANCH   5   6
ENDBRANCH   4   5
ENDBRANCH   3   4
ENDBRANCH   2   3
ENDBRANCH   1   2
BRANCH   1  10
ATOM     10  C   UNL     1     -19.030  -9.484  -0.509  1.00  0.00     0.000 C 
BRANCH  10  11
ATOM     11  C   UNL     1     -18.909 -10.795  -1.308  1.00  0.00    -0.000 C 
BRANCH  11  12
ATOM     12  C   UNL     1     -18.843 -12.077  -0.453  1.00  0.00    -0.000 C 
BRANCH  12  13
ATOM     13  C   UNL     1     -18.247 -13.309  -1.162  1.00  0.00    -0.000 C 
BRANCH  13  14
ATOM     14  C   UNL     1     -16.832 -13.708  -0.701  1.00  0.00    -0.000 C 
BRANCH  14  15
ATOM     15  C   UNL     1     -16.001 -12.507  -0.219  1.00  0.00    -0.000 C 
BRANCH  15  16
ATOM     16  C   UNL     1     -15.043 -12.876   0.924  1.00  0.00    -0.003 C 
ATOM     17  C   UNL     1     -15.562 -14.026   1.786  1.00  0.00     0.004 C 
ENDBRANCH  15  16
ENDBRANCH  14  15
ENDBRANCH  13  14
ENDBRANCH  12  13
ENDBRANCH  11  12
ENDBRANCH  10  11
ENDBRANCH   1  10
TORSDOF 13
ENDMDL
MODEL 5
REMARK VINA RESULT:    -5.852      1.253      1.389
REMARK INTER + INTRA:         -12.026
REMARK INTER:                  -9.981
REMARK INTRA:                  -2.045
REMARK UNBOUND:                -1.726
REMARK SMILES CCCCCCCCCCCCCCC(=O)[O-]
REMARK SMILES IDX 9 1 10 2 11 3 12 4 13 5 14 6 15 7 16 8 17 9 8 10 7 11 6 12
REMARK SMILES IDX 5 13 4 14 3 15 2 16 1 17
REMARK H PARENT
REMARK Flexibility Score: inf
ROOT
ATOM      1  C   UNL     1     -19.003  -9.499  -0.612  1.00  0.00     0.000 C 
ENDROOT
BRANCH   1   2
ATOM      2  C   UNL     1     -18.832 -10.804  -1.406  1.00  0.00     0.000 C 
BRANCH   2   3
ATOM      3  C   UNL     1     -18.870 -12.051  -0.506  1.00  0.00     0.000 C 
BRANCH   3   4
ATOM      4  C   UNL     1     -17.606 -12.917  -0.643  1.00  0.00     0.000 C 
BRANCH   4   5
ATOM      5  C   UNL     1     -16.665 -12.423  -1.755  1.00  0.00     0.006 C 
BRANCH   5   6
ATOM      6  C   UNL     1     -15.271 -12.073  -1.220  1.00  0.00     0.053 C 
BRANCH   6   7
ATOM      7  C   UNL     1     -14.525 -13.291  -0.767  1.00  0.00     0.041 C 
ATOM      8  O   UNL     1     -13.908 -14.004  -1.601  1.00  0.00    -0.550 OA
ATOM      9  O   UNL     1     -14.484 -13.621   0.583  1.00  0.00    -0.550 OA
ENDBRANCH   6   7
ENDBRANCH   5   6
ENDBRANCH   4   5
ENDBRANCH   3   4
ENDBRANCH   2   3
ENDBRANCH   1   2
BRANCH   1  10
ATOM     10  C   UNL     1     -18.247  -9.519   0.727  1.00  0.00     0.000 C 
BRANCH  10  11
ATOM     11  C   UNL     1     -17.900  -8.109   1.238  1.00  0.00    -0.000 C 
BRANCH  11  12
ATOM     12  C   UNL     1     -16.492  -7.606   0.862  1.00  0.00    -0.000 C 
BRANCH  12  13
ATOM     13  C   UNL     1     -15.524  -8.690   0.347  1.00  0.00    -0.000 C 
BRANCH  13  14
ATOM     14  C   UNL     1     -15.048  -8.506  -1.106  1.00  0.00    -0.000 C 
BRANCH  14  15
ATOM     15  C   UNL     1     -16.006  -7.640  -1.941  1.00  0.00    -0.000 C 
BRANCH  15  16
ATOM     16  C   UNL     1     -16.602  -8.404  -3.133  1.00  0.00    -0.003 C 
ATOM     17  C   UNL     1     -15.543  -9.139  -3.956  1.00  0.00     0.004 C 
ENDBRANCH  15  16
ENDBRANCH  14  15
ENDBRANCH  13  14
ENDBRANCH  12  13
ENDBRANCH  11  12
ENDBRANCH  10  11
ENDBRANCH   1  10
TORSDOF 13
ENDMDL
MODEL 6
REMARK VINA RESULT:    -5.818      2.626      5.233
REMARK INTER + INTRA:         -11.966
REMARK INTER:                 -10.059
REMARK INTRA:                  -1.906
REMARK UNBOUND:                -1.726
REMARK SMILES CCCCCCCCCCCCCCC(=O)[O-]
REMARK SMILES IDX 9 1 10 2 11 3 12 4 13 5 14 6 15 7 16 8 17 9 8 10 7 11 6 12
REMARK SMILES IDX 5 13 4 14 3 15 2 16 1 17
REMARK H PARENT
REMARK Flexibility Score: inf
ROOT
ATOM      1  C   UNL     1     -19.064  -9.117  -0.285  1.00  0.00     0.000 C 
ENDROOT
BRANCH   1   2
ATOM      2  C   UNL     1     -18.153  -8.766   0.904  1.00  0.00     0.000 C 
BRANCH   2   3
ATOM      3  C   UNL     1     -16.966  -7.877   0.495  1.00  0.00     0.000 C 
BRANCH   3   4
ATOM      4  C   UNL     1     -15.648  -8.663   0.390  1.00  0.00     0.000 C 
BRANCH   4   5
ATOM      5  C   UNL     1     -15.182  -8.850  -1.064  1.00  0.00     0.006 C 
BRANCH   5   6
ATOM      6  C   UNL     1     -16.007  -8.012  -2.049  1.00  0.00     0.053 C 
BRANCH   6   7
ATOM      7  C   UNL     1     -16.291  -8.759  -3.316  1.00  0.00     0.041 C 
ATOM      8  O   UNL     1     -16.203 -10.014  -3.346  1.00  0.00    -0.550 OA
ATOM      9  O   UNL     1     -16.686  -8.070  -4.457  1.00  0.00    -0.550 OA
ENDBRANCH   6   7
ENDBRANCH   5   6
ENDBRANCH   4   5
ENDBRANCH   3   4
ENDBRANCH   2   3
ENDBRANCH   1   2
BRANCH   1  10
ATOM     10  C   UNL     1     -18.672 -10.444  -0.956  1.00  0.00     0.000 C 
BRANCH  10  11
ATOM     11  C   UNL     1     -18.178 -11.499   0.051  1.00  0.00    -0.000 C 
BRANCH  11  12
ATOM     12  C   UNL     1     -16.810 -12.127  -0.279  1.00  0.00    -0.000 C 
BRANCH  12  13
ATOM     13  C   UNL     1     -16.663 -13.616   0.094  1.00  0.00    -0.000 C 
BRANCH  13  14
ATOM     14  C   UNL     1     -16.336 -14.556  -1.081  1.00  0.00    -0.000 C 
BRANCH  14  15
ATOM     15  C   UNL     1     -16.336 -13.834  -2.439  1.00  0.00    -0.000 C 
BRANCH  15  16
ATOM     16  C   UNL     1     -17.445 -14.340  -3.374  1.00  0.00    -0.003 C 
ATOM     17  C   UNL     1     -18.840 -13.900  -2.933  1.00  0.00     0.004 C 
ENDBRANCH  15  16
ENDBRANCH  14  15
ENDBRANCH  13  14
ENDBRANCH  12  13
ENDBRANCH  11  12
ENDBRANCH  10  11
ENDBRANCH   1  10
TORSDOF 13
ENDMDL
MODEL 7
REMARK VINA RESULT:    -5.803      2.368      3.846
REMARK INTER + INTRA:         -11.939
REMARK INTER:                  -9.766
REMARK INTRA:                  -2.173
REMARK UNBOUND:                -1.726
REMARK SMILES CCCCCCCCCCCCCCC(=O)[O-]
REMARK SMILES IDX 9 1 10 2 11 3 12 4 13 5 14 6 15 7 16 8 17 9 8 10 7 11 6 12
REMARK SMILES IDX 5 13 4 14 3 15 2 16 1 17
REMARK H PARENT
REMARK Flexibility Score: inf
ROOT
ATOM      1  C   UNL     1     -18.034 -11.334  -0.259  1.00  0.00     0.000 C 
ENDROOT
BRANCH   1   2
ATOM      2  C   UNL     1     -16.537 -11.470   0.067  1.00  0.00     0.000 C 
BRANCH   2   3
ATOM      3  C   UNL     1     -16.155 -12.896   0.498  1.00  0.00     0.000 C 
BRANCH   3   4
ATOM      4  C   UNL     1     -14.901 -13.416  -0.226  1.00  0.00     0.000 C 
BRANCH   4   5
ATOM      5  C   UNL     1     -15.215 -13.994  -1.616  1.00  0.00     0.006 C 
BRANCH   5   6
ATOM      6  C   UNL     1     -16.580 -14.691  -1.659  1.00  0.00     0.053 C 
BRANCH   6   7
ATOM      7  C   UNL     1     -17.405 -14.234  -2.823  1.00  0.00     0.041 C 
ATOM      8  O   UNL     1     -16.862 -14.009  -3.936  1.00  0.00    -0.550 OA
ATOM      9  O   UNL     1     -18.780 -14.086  -2.687  1.00  0.00    -0.550 OA
ENDBRANCH   6   7
ENDBRANCH   5   6
ENDBRANCH   4   5
ENDBRANCH   3   4
ENDBRANCH   2   3
ENDBRANCH   1   2
BRANCH   1  10
ATOM     10  C   UNL     1     -18.284 -10.593  -1.583  1.00  0.00     0.000 C 
BRANCH  10  11
ATOM     11  C   UNL     1     -17.076 -10.650  -2.537  1.00  0.00    -0.000 C 
BRANCH  11  12
ATOM     12  C   UNL     1     -16.564  -9.280  -3.024  1.00  0.00    -0.000 C 
BRANCH  12  13
ATOM     13  C   UNL     1     -15.096  -8.964  -2.673  1.00  0.00    -0.000 C 
BRANCH  13  14
ATOM     14  C   UNL     1     -14.873  -8.359  -1.275  1.00  0.00    -0.000 C 
BRANCH  14  15
ATOM     15  C   UNL     1     -16.108  -7.610  -0.746  1.00  0.00    -0.000 C 
BRANCH  15  16
ATOM     16  C   UNL     1     -16.264  -7.735   0.777  1.00  0.00    -0.003 C 
ATOM     17  C   UNL     1     -17.699  -8.047   1.202  1.00  0.00     0.004 C 
ENDBRANCH  15  16
ENDBRANCH  14  15
ENDBRANCH  13  14
ENDBRANCH  12  13
ENDBRANCH  11  12
ENDBRANCH  10  11
ENDBRANCH   1  10
TORSDOF 13
ENDMDL
MODEL 8
REMARK VINA RESULT:    -5.798      2.482      5.752
REMARK INTER + INTRA:         -11.930
REMARK INTER:                 -10.592
REMARK INTRA:                  -1.338
REMARK UNBOUND:                -1.726
REMARK SMILES CCCCCCCCCCCCCCC(=O)[O-]
REMARK SMILES IDX 9 1 10 2 11 3 12 4 13 5 14 6 15 7 16 8 17 9 8 10 7 11 6 12
REMARK SMILES IDX 5 13 4 14 3 15 2 16 1 17
REMARK H PARENT
REMARK Flexibility Score: inf
ROOT
ATOM      1  C   UNL     1     -18.498 -11.658  -1.535  1.00  0.00     0.000 C 
ENDROOT
BRANCH   1   2
ATOM      2  C   UNL     1     -18.517 -10.971  -0.160  1.00  0.00     0.000 C 
BRANCH   2   3
ATOM      3  C   UNL     1     -18.651  -9.441  -0.266  1.00  0.00     0.000 C 
BRANCH   3   4
ATOM      4  C   UNL     1     -18.101  -8.713   0.971  1.00  0.00     0.000 C 
BRANCH   4   5
ATOM      5  C   UNL     1     -16.861  -7.858   0.655  1.00  0.00     0.006 C 
BRANCH   5   6
ATOM      6  C   UNL     1     -15.701  -8.701   0.111  1.00  0.00     0.053 C 
BRANCH   6   7
ATOM      7  C   UNL     1     -15.259  -8.237  -1.243  1.00  0.00     0.041 C 
ATOM      8  O   UNL     1     -16.050  -7.593  -1.981  1.00  0.00    -0.550 OA
ATOM      9  O   UNL     1     -13.963  -8.488  -1.677  1.00  0.00    -0.550 OA
ENDBRANCH   6   7
ENDBRANCH   5   6
ENDBRANCH   4   5
ENDBRANCH   3   4
ENDBRANCH   2   3
ENDBRANCH   1   2
BRANCH   1  10
ATOM     10  C   UNL     1     -18.774 -13.168  -1.445  1.00  0.00     0.000 C 
BRANCH  10  11
ATOM     11  C   UNL     1     -18.477 -13.909  -2.762  1.00  0.00    -0.000 C 
BRANCH  11  12
ATOM     12  C   UNL     1     -17.165 -14.718  -2.775  1.00  0.00    -0.000 C 
BRANCH  12  13
ATOM     13  C   UNL     1     -16.419 -14.780  -1.428  1.00  0.00    -0.000 C 
BRANCH  13  14
ATOM     14  C   UNL     1     -15.081 -14.018  -1.385  1.00  0.00    -0.000 C 
BRANCH  14  15
ATOM     15  C   UNL     1     -14.727 -13.515   0.025  1.00  0.00    -0.000 C 
BRANCH  15  16
ATOM     16  C   UNL     1     -15.925 -13.563   0.985  1.00  0.00    -0.003 C 
ATOM     17  C   UNL     1     -15.614 -14.305   2.286  1.00  0.00     0.004 C 
ENDBRANCH  15  16
ENDBRANCH  14  15
ENDBRANCH  13  14
ENDBRANCH  12  13
ENDBRANCH  11  12
ENDBRANCH  10  11
ENDBRANCH   1  10
TORSDOF 13
ENDMDL
MODEL 9
REMARK VINA RESULT:    -5.791      1.308      3.216
REMARK INTER + INTRA:         -11.918
REMARK INTER:                 -10.196
REMARK INTRA:                  -1.722
REMARK UNBOUND:                -1.726
REMARK SMILES CCCCCCCCCCCCCCC(=O)[O-]
REMARK SMILES IDX 9 1 10 2 11 3 12 4 13 5 14 6 15 7 16 8 17 9 8 10 7 11 6 12
REMARK SMILES IDX 5 13 4 14 3 15 2 16 1 17
REMARK H PARENT
REMARK Flexibility Score: inf
ROOT
ATOM      1  C   UNL     1     -15.608 -10.030  -2.597  1.00  0.00     0.000 C 
ENDROOT
BRANCH   1   2
ATOM      2  C   UNL     1     -16.512 -11.247  -2.853  1.00  0.00     0.000 C 
BRANCH   2   3
ATOM      3  C   UNL     1     -15.746 -12.579  -2.774  1.00  0.00     0.000 C 
BRANCH   3   4
ATOM      4  C   UNL     1     -16.646 -13.754  -2.358  1.00  0.00     0.000 C 
BRANCH   4   5
ATOM      5  C   UNL     1     -16.160 -14.450  -1.075  1.00  0.00     0.006 C 
BRANCH   5   6
ATOM      6  C   UNL     1     -16.539 -13.666   0.188  1.00  0.00     0.053 C 
BRANCH   6   7
ATOM      7  C   UNL     1     -15.426 -13.648   1.191  1.00  0.00     0.041 C 
ATOM      8  O   UNL     1     -14.345 -13.059   0.926  1.00  0.00    -0.550 OA
ATOM      9  O   UNL     1     -15.594 -14.253   2.430  1.00  0.00    -0.550 OA
ENDBRANCH   6   7
ENDBRANCH   5   6
ENDBRANCH   4   5
ENDBRANCH   3   4
ENDBRANCH   2   3
ENDBRANCH   1   2
BRANCH   1  10
ATOM     10  C   UNL     1     -16.314  -8.697  -2.893  1.00  0.00     0.000 C 
BRANCH  10  11
ATOM     11  C   UNL     1     -16.076  -7.640  -1.798  1.00  0.00    -0.000 C 
BRANCH  11  12
ATOM     12  C   UNL     1     -15.690  -8.207  -0.417  1.00  0.00    -0.000 C 
BRANCH  12  13
ATOM     13  C   UNL     1     -16.523  -7.677   0.767  1.00  0.00    -0.000 C 
BRANCH  13  14
ATOM     14  C   UNL     1     -17.888  -8.363   0.966  1.00  0.00    -0.000 C 
BRANCH  14  15
ATOM     15  C   UNL     1     -17.879  -9.841   0.540  1.00  0.00    -0.000 C 
BRANCH  15  16
ATOM     16  C   UNL     1     -18.991 -10.169  -0.468  1.00  0.00    -0.003 C 
ATOM     17  C   UNL     1     -19.352 -11.654  -0.490  1.00  0.00     0.004 C 
ENDBRANCH  15  16
ENDBRANCH  14  15
ENDBRANCH  13  14
ENDBRANCH  12  13
ENDBRANCH  11  12
ENDBRANCH  10  11
ENDBRANCH   1  10
TORSDOF 13
ENDMDL
