MODEL 1
REMARK VINA RESULT:    -4.254      0.000      0.000
REMARK INTER + INTRA:          -9.462
REMARK INTER:                  -7.984
REMARK INTRA:                  -1.478
REMARK UNBOUND:                -1.478
REMARK SMILES CCCCCCCCC=CCCCCCCCC(=O)[O-]
REMARK SMILES IDX 10 1 9 2 11 3 12 4 13 5 14 6 15 7 16 8 17 9 18 10 19 11
REMARK SMILES IDX 20 12 8 13 7 14 6 15 5 16 4 17 3 18 2 19 1 20
REMARK H PARENT
REMARK Flexibility Score: inf
ROOT
ATOM      1  C   UNL     1      41.930  -5.138  -2.209  1.00  0.00    -0.031 C 
ATOM      2  C   UNL     1      42.091  -6.302  -1.552  1.00  0.00    -0.031 C 
ENDROOT
BRANCH   1   3
ATOM      3  C   UNL     1      41.058  -4.936  -3.425  1.00  0.00     0.027 C 
BRANCH   3   4
ATOM      4  C   UNL     1      41.819  -5.227  -4.724  1.00  0.00     0.004 C 
BRANCH   4   5
ATOM      5  C   UNL     1      41.203  -6.400  -5.502  1.00  0.00     0.000 C 
BRANCH   5   6
ATOM      6  C   UNL     1      39.710  -6.195  -5.808  1.00  0.00     0.000 C 
BRANCH   6   7
ATOM      7  C   UNL     1      39.447  -5.184  -6.944  1.00  0.00     0.000 C 
BRANCH   7   8
ATOM      8  C   UNL     1      38.265  -5.606  -7.834  1.00  0.00     0.006 C 
BRANCH   8   9
ATOM      9  C   UNL     1      37.015  -5.955  -7.015  1.00  0.00     0.053 C 
BRANCH   9  10
ATOM     10  C   UNL     1      35.759  -5.522  -7.705  1.00  0.00     0.041 C 
ATOM     11  O   UNL     1      35.445  -4.303  -7.742  1.00  0.00    -0.550 OA
ATOM     12  O   UNL     1      34.953  -6.460  -8.337  1.00  0.00    -0.550 OA
ENDBRANCH   9  10
ENDBRANCH   8   9
ENDBRANCH   7   8
ENDBRANCH   6   7
ENDBRANCH   5   6
ENDBRANCH   4   5
ENDBRANCH   3   4
ENDBRANCH   1   3
BRANCH   2  13
ATOM     13  C   UNL     1      41.404  -7.599  -1.902  1.00  0.00     0.027 C 
BRANCH  13  14
ATOM     14  C   UNL     1      41.107  -8.432  -0.646  1.00  0.00     0.004 C 
BRANCH  14  15
ATOM     15  C   UNL     1      39.751  -9.158  -0.713  1.00  0.00     0.000 C 
BRANCH  15  16
ATOM     16  C   UNL     1      38.760  -8.813   0.419  1.00  0.00     0.000 C 
BRANCH  16  17
ATOM     17  C   UNL     1      39.339  -7.956   1.559  1.00  0.00    -0.000 C 
BRANCH  17  18
ATOM     18  C   UNL     1      38.488  -6.715   1.870  1.00  0.00    -0.000 C 
BRANCH  18  19
ATOM     19  C   UNL     1      39.260  -5.406   1.645  1.00  0.00    -0.003 C 
ATOM     20  C   UNL     1      40.776  -5.592   1.723  1.00  0.00     0.004 C 
ENDBRANCH  18  19
ENDBRANCH  17  18
ENDBRANCH  16  17
ENDBRANCH  15  16
ENDBRANCH  14  15
ENDBRANCH  13  14
ENDBRANCH   2  13
TORSDOF 15
ENDMDL
MODEL 2
REMARK VINA RESULT:    -4.239      3.471      8.007
REMARK INTER + INTRA:          -9.434
REMARK INTER:                  -8.390
REMARK INTRA:                  -1.044
REMARK UNBOUND:                -1.478
REMARK SMILES CCCCCCCCC=CCCCCCCCC(=O)[O-]
REMARK SMILES IDX 10 1 9 2 11 3 12 4 13 5 14 6 15 7 16 8 17 9 18 10 19 11
REMARK SMILES IDX 20 12 8 13 7 14 6 15 5 16 4 17 3 18 2 19 1 20
REMARK H PARENT
REMARK Flexibility Score: inf
ROOT
ATOM      1  C   UNL     1      41.360  -4.889  -2.965  1.00  0.00    -0.031 C 
ATOM      2  C   UNL     1      41.314  -4.743  -4.304  1.00  0.00    -0.031 C 
ENDROOT
BRANCH   1   3
ATOM      3  C   UNL     1      42.112  -5.973  -2.231  1.00  0.00     0.027 C 
BRANCH   3   4
ATOM      4  C   UNL     1      41.316  -7.283  -2.183  1.00  0.00     0.004 C 
BRANCH   4   5
ATOM      5  C   UNL     1      41.194  -7.831  -0.753  1.00  0.00     0.000 C 
BRANCH   5   6
ATOM      6  C   UNL     1      40.085  -8.887  -0.611  1.00  0.00     0.000 C 
BRANCH   6   7
ATOM      7  C   UNL     1      38.995  -8.502   0.411  1.00  0.00     0.000 C 
BRANCH   7   8
ATOM      8  C   UNL     1      39.559  -7.664   1.572  1.00  0.00     0.006 C 
BRANCH   8   9
ATOM      9  C   UNL     1      38.726  -6.403   1.838  1.00  0.00     0.053 C 
BRANCH   9  10
ATOM     10  C   UNL     1      39.571  -5.167   1.828  1.00  0.00     0.041 C 
ATOM     11  O   UNL     1      40.618  -5.120   1.130  1.00  0.00    -0.550 OA
ATOM     12  O   UNL     1      39.183  -4.053   2.562  1.00  0.00    -0.550 OA
ENDBRANCH   9  10
ENDBRANCH   8   9
ENDBRANCH   7   8
ENDBRANCH   6   7
ENDBRANCH   5   6
ENDBRANCH   4   5
ENDBRANCH   3   4
ENDBRANCH   1   3
BRANCH   2  13
ATOM     13  C   UNL     1      42.030  -5.623  -5.298  1.00  0.00     0.027 C 
BRANCH  13  14
ATOM     14  C   UNL     1      41.079  -6.108  -6.402  1.00  0.00     0.004 C 
BRANCH  14  15
ATOM     15  C   UNL     1      39.693  -5.440  -6.338  1.00  0.00     0.000 C 
BRANCH  15  16
ATOM     16  C   UNL     1      38.501  -6.358  -6.681  1.00  0.00     0.000 C 
BRANCH  16  17
ATOM     17  C   UNL     1      37.202  -5.629  -7.068  1.00  0.00    -0.000 C 
BRANCH  17  18
ATOM     18  C   UNL     1      37.314  -4.867  -8.399  1.00  0.00    -0.000 C 
BRANCH  18  19
ATOM     19  C   UNL     1      36.095  -3.968  -8.661  1.00  0.00    -0.003 C 
ATOM     20  C   UNL     1      34.807  -4.526  -8.055  1.00  0.00     0.004 C 
ENDBRANCH  18  19
ENDBRANCH  17  18
ENDBRANCH  16  17
ENDBRANCH  15  16
ENDBRANCH  14  15
ENDBRANCH  13  14
ENDBRANCH   2  13
TORSDOF 15
ENDMDL
MODEL 3
REMARK VINA RESULT:    -4.197      3.592      8.180
REMARK INTER + INTRA:          -9.356
REMARK INTER:                  -7.901
REMARK INTRA:                  -1.455
REMARK UNBOUND:                -1.478
REMARK SMILES CCCCCCCCC=CCCCCCCCC(=O)[O-]
REMARK SMILES IDX 10 1 9 2 11 3 12 4 13 5 14 6 15 7 16 8 17 9 18 10 19 11
REMARK SMILES IDX 20 12 8 13 7 14 6 15 5 16 4 17 3 18 2 19 1 20
REMARK H PARENT
REMARK Flexibility Score: inf
ROOT
ATOM      1  C   UNL     1      40.584  -5.544  -5.397  1.00  0.00    -0.031 C 
ATOM      2  C   UNL     1      40.751  -6.210  -6.556  1.00  0.00    -0.031 C 
ENDROOT
BRANCH   1   3
ATOM      3  C   UNL     1      41.397  -4.353  -4.949  1.00  0.00     0.027 C 
BRANCH   3   4
ATOM      4  C   UNL     1      41.435  -4.233  -3.421  1.00  0.00     0.004 C 
BRANCH   4   5
ATOM      5  C   UNL     1      41.621  -5.597  -2.740  1.00  0.00     0.000 C 
BRANCH   5   6
ATOM      6  C   UNL     1      41.716  -5.491  -1.208  1.00  0.00     0.000 C 
BRANCH   6   7
ATOM      7  C   UNL     1      41.673  -6.858  -0.493  1.00  0.00     0.000 C 
BRANCH   7   8
ATOM      8  C   UNL     1      40.753  -6.839   0.740  1.00  0.00     0.006 C 
BRANCH   8   9
ATOM      9  C   UNL     1      40.774  -5.484   1.461  1.00  0.00     0.053 C 
BRANCH   9  10
ATOM     10  C   UNL     1      39.413  -5.091   1.946  1.00  0.00     0.041 C 
ATOM     11  O   UNL     1      39.237  -3.979   2.508  1.00  0.00    -0.550 OA
ATOM     12  O   UNL     1      38.331  -5.940   1.746  1.00  0.00    -0.550 OA
ENDBRANCH   9  10
ENDBRANCH   8   9
ENDBRANCH   7   8
ENDBRANCH   6   7
ENDBRANCH   5   6
ENDBRANCH   4   5
ENDBRANCH   3   4
ENDBRANCH   1   3
BRANCH   2  13
ATOM     13  C   UNL     1      41.762  -5.859  -7.620  1.00  0.00     0.027 C 
BRANCH  13  14
ATOM     14  C   UNL     1      41.099  -5.141  -8.805  1.00  0.00     0.004 C 
BRANCH  14  15
ATOM     15  C   UNL     1      39.795  -5.818  -9.265  1.00  0.00     0.000 C 
BRANCH  15  16
ATOM     16  C   UNL     1      38.722  -4.867  -9.837  1.00  0.00     0.000 C 
BRANCH  16  17
ATOM     17  C   UNL     1      37.361  -4.907  -9.121  1.00  0.00    -0.000 C 
BRANCH  17  18
ATOM     18  C   UNL     1      37.476  -5.262  -7.630  1.00  0.00    -0.000 C 
BRANCH  18  19
ATOM     19  C   UNL     1      36.647  -6.502  -7.259  1.00  0.00    -0.003 C 
ATOM     20  C   UNL     1      37.285  -7.325  -6.140  1.00  0.00     0.004 C 
ENDBRANCH  18  19
ENDBRANCH  17  18
ENDBRANCH  16  17
ENDBRANCH  15  16
ENDBRANCH  14  15
ENDBRANCH  13  14
ENDBRANCH   2  13
TORSDOF 15
ENDMDL
MODEL 4
REMARK VINA RESULT:    -4.189     18.740     21.267
REMARK INTER + INTRA:          -9.340
REMARK INTER:                  -7.900
REMARK INTRA:                  -1.440
REMARK UNBOUND:                -1.478
REMARK SMILES CCCCCCCCC=CCCCCCCCC(=O)[O-]
REMARK SMILES IDX 10 1 9 2 11 3 12 4 13 5 14 6 15 7 16 8 17 9 18 10 19 11
REMARK SMILES IDX 20 12 8 13 7 14 6 15 5 16 4 17 3 18 2 19 1 20
REMARK H PARENT
REMARK Flexibility Score: inf
ROOT
ATOM      1  C   UNL     1      23.913   2.644   8.924  1.00  0.00    -0.031 C 
ATOM      2  C   UNL     1      22.987   1.667   8.986  1.00  0.00    -0.031 C 
ENDROOT
BRANCH   1   3
ATOM      3  C   UNL     1      25.319   2.550   9.467  1.00  0.00     0.027 C 
BRANCH   3   4
ATOM      4  C   UNL     1      25.835   3.912   9.946  1.00  0.00     0.004 C 
BRANCH   4   5
ATOM      5  C   UNL     1      26.463   4.725   8.803  1.00  0.00     0.000 C 
BRANCH   5   6
ATOM      6  C   UNL     1      26.105   6.219   8.867  1.00  0.00     0.000 C 
BRANCH   6   7
ATOM      7  C   UNL     1      24.701   6.541   8.312  1.00  0.00     0.000 C 
BRANCH   7   8
ATOM      8  C   UNL     1      24.393   5.755   7.026  1.00  0.00     0.006 C 
BRANCH   8   9
ATOM      9  C   UNL     1      23.041   6.146   6.413  1.00  0.00     0.053 C 
BRANCH   9  10
ATOM     10  C   UNL     1      23.193   6.669   5.019  1.00  0.00     0.041 C 
ATOM     11  O   UNL     1      23.210   7.910   4.805  1.00  0.00    -0.550 OA
ATOM     12  O   UNL     1      23.351   5.786   3.957  1.00  0.00    -0.550 OA
ENDBRANCH   9  10
ENDBRANCH   8   9
ENDBRANCH   7   8
ENDBRANCH   6   7
ENDBRANCH   5   6
ENDBRANCH   4   5
ENDBRANCH   3   4
ENDBRANCH   1   3
BRANCH   2  13
ATOM     13  C   UNL     1      23.208   0.300   9.585  1.00  0.00     0.027 C 
BRANCH  13  14
ATOM     14  C   UNL     1      22.422  -0.777   8.823  1.00  0.00     0.004 C 
BRANCH  14  15
ATOM     15  C   UNL     1      22.239  -2.074   9.633  1.00  0.00     0.000 C 
BRANCH  15  16
ATOM     16  C   UNL     1      23.430  -3.054   9.588  1.00  0.00     0.000 C 
BRANCH  16  17
ATOM     17  C   UNL     1      24.347  -2.916   8.360  1.00  0.00    -0.000 C 
BRANCH  17  18
ATOM     18  C   UNL     1      25.841  -3.014   8.710  1.00  0.00    -0.000 C 
BRANCH  18  19
ATOM     19  C   UNL     1      26.254  -2.006   9.793  1.00  0.00    -0.003 C 
ATOM     20  C   UNL     1      27.398  -1.095   9.347  1.00  0.00     0.004 C 
ENDBRANCH  18  19
ENDBRANCH  17  18
ENDBRANCH  16  17
ENDBRANCH  15  16
ENDBRANCH  14  15
ENDBRANCH  13  14
ENDBRANCH   2  13
TORSDOF 15
ENDMDL
MODEL 5
REMARK VINA RESULT:    -4.158      1.337      2.010
REMARK INTER + INTRA:          -9.282
REMARK INTER:                  -7.772
REMARK INTRA:                  -1.510
REMARK UNBOUND:                -1.478
REMARK SMILES CCCCCCCCC=CCCCCCCCC(=O)[O-]
REMARK SMILES IDX 10 1 9 2 11 3 12 4 13 5 14 6 15 7 16 8 17 9 18 10 19 11
REMARK SMILES IDX 20 12 8 13 7 14 6 15 5 16 4 17 3 18 2 19 1 20
REMARK H PARENT
REMARK Flexibility Score: inf
ROOT
ATOM      1  C   UNL     1      41.123  -3.961  -3.637  1.00  0.00    -0.031 C 
ATOM      2  C   UNL     1      41.179  -4.446  -2.382  1.00  0.00    -0.031 C 
ENDROOT
BRANCH   1   3
ATOM      3  C   UNL     1      42.016  -4.388  -4.778  1.00  0.00     0.027 C 
BRANCH   3   4
ATOM      4  C   UNL     1      41.204  -4.889  -5.978  1.00  0.00     0.004 C 
BRANCH   4   5
ATOM      5  C   UNL     1      41.011  -6.413  -5.948  1.00  0.00     0.000 C 
BRANCH   5   6
ATOM      6  C   UNL     1      39.582  -6.841  -6.323  1.00  0.00     0.000 C 
BRANCH   6   7
ATOM      7  C   UNL     1      38.719  -5.687  -6.874  1.00  0.00     0.000 C 
BRANCH   7   8
ATOM      8  C   UNL     1      37.216  -6.015  -6.830  1.00  0.00     0.006 C 
BRANCH   8   9
ATOM      9  C   UNL     1      36.950  -7.474  -6.436  1.00  0.00     0.053 C 
BRANCH   9  10
ATOM     10  C   UNL     1      36.513  -8.295  -7.610  1.00  0.00     0.041 C 
ATOM     11  O   UNL     1      37.258  -9.204  -8.061  1.00  0.00    -0.550 OA
ATOM     12  O   UNL     1      35.266  -8.080  -8.184  1.00  0.00    -0.550 OA
ENDBRANCH   9  10
ENDBRANCH   8   9
ENDBRANCH   7   8
ENDBRANCH   6   7
ENDBRANCH   5   6
ENDBRANCH   4   5
ENDBRANCH   3   4
ENDBRANCH   1   3
BRANCH   2  13
ATOM     13  C   UNL     1      42.125  -5.521  -1.907  1.00  0.00     0.027 C 
BRANCH  13  14
ATOM     14  C   UNL     1      41.576  -6.922  -2.211  1.00  0.00     0.004 C 
BRANCH  14  15
ATOM     15  C   UNL     1      41.726  -7.897  -1.028  1.00  0.00     0.000 C 
BRANCH  15  16
ATOM     16  C   UNL     1      40.403  -8.374  -0.392  1.00  0.00     0.000 C 
BRANCH  16  17
ATOM     17  C   UNL     1      40.215  -8.001   1.088  1.00  0.00    -0.000 C 
BRANCH  17  18
ATOM     18  C   UNL     1      38.830  -7.404   1.387  1.00  0.00    -0.000 C 
BRANCH  18  19
ATOM     19  C   UNL     1      38.911  -5.943   1.854  1.00  0.00    -0.003 C 
ATOM     20  C   UNL     1      40.248  -5.286   1.509  1.00  0.00     0.004 C 
ENDBRANCH  18  19
ENDBRANCH  17  18
ENDBRANCH  16  17
ENDBRANCH  15  16
ENDBRANCH  14  15
ENDBRANCH  13  14
ENDBRANCH   2  13
TORSDOF 15
ENDMDL
MODEL 6
REMARK VINA RESULT:    -4.109      3.741      7.442
REMARK INTER + INTRA:          -9.191
REMARK INTER:                  -7.954
REMARK INTRA:                  -1.237
REMARK UNBOUND:                -1.478
REMARK SMILES CCCCCCCCC=CCCCCCCCC(=O)[O-]
REMARK SMILES IDX 10 1 9 2 11 3 12 4 13 5 14 6 15 7 16 8 17 9 18 10 19 11
REMARK SMILES IDX 20 12 8 13 7 14 6 15 5 16 4 17 3 18 2 19 1 20
REMARK H PARENT
REMARK Flexibility Score: inf
ROOT
ATOM      1  C   UNL     1      41.276  -4.902  -2.329  1.00  0.00    -0.031 C 
ATOM      2  C   UNL     1      41.313  -4.763  -3.668  1.00  0.00    -0.031 C 
ENDROOT
BRANCH   1   3
ATOM      3  C   UNL     1      42.015  -5.956  -1.540  1.00  0.00     0.027 C 
BRANCH   3   4
ATOM      4  C   UNL     1      41.427  -7.353  -1.768  1.00  0.00     0.004 C 
BRANCH   4   5
ATOM      5  C   UNL     1      41.173  -8.095  -0.447  1.00  0.00     0.000 C 
BRANCH   5   6
ATOM      6  C   UNL     1      39.920  -8.986  -0.495  1.00  0.00     0.000 C 
BRANCH   6   7
ATOM      7  C   UNL     1      38.828  -8.567   0.511  1.00  0.00     0.000 C 
BRANCH   7   8
ATOM      8  C   UNL     1      39.371  -7.621   1.597  1.00  0.00     0.006 C 
BRANCH   8   9
ATOM      9  C   UNL     1      38.638  -6.273   1.616  1.00  0.00     0.053 C 
BRANCH   9  10
ATOM     10  C   UNL     1      39.569  -5.138   1.906  1.00  0.00     0.041 C 
ATOM     11  O   UNL     1      40.755  -5.167   1.484  1.00  0.00    -0.550 OA
ATOM     12  O   UNL     1      39.118  -4.031   2.614  1.00  0.00    -0.550 OA
ENDBRANCH   9  10
ENDBRANCH   8   9
ENDBRANCH   7   8
ENDBRANCH   6   7
ENDBRANCH   5   6
ENDBRANCH   4   5
ENDBRANCH   3   4
ENDBRANCH   1   3
BRANCH   2  13
ATOM     13  C   UNL     1      42.124  -5.621  -4.607  1.00  0.00     0.027 C 
BRANCH  13  14
ATOM     14  C   UNL     1      41.238  -6.261  -5.686  1.00  0.00     0.004 C 
BRANCH  14  15
ATOM     15  C   UNL     1      40.134  -5.317  -6.195  1.00  0.00     0.000 C 
BRANCH  15  16
ATOM     16  C   UNL     1      38.741  -5.960  -6.366  1.00  0.00     0.000 C 
BRANCH  16  17
ATOM     17  C   UNL     1      38.750  -7.452  -6.740  1.00  0.00    -0.000 C 
BRANCH  17  18
ATOM     18  C   UNL     1      37.429  -8.164  -6.404  1.00  0.00    -0.000 C 
BRANCH  18  19
ATOM     19  C   UNL     1      37.594  -9.201  -5.283  1.00  0.00    -0.003 C 
ATOM     20  C   UNL     1      36.507  -9.093  -4.213  1.00  0.00     0.004 C 
ENDBRANCH  18  19
ENDBRANCH  17  18
ENDBRANCH  16  17
ENDBRANCH  15  16
ENDBRANCH  14  15
ENDBRANCH  13  14
ENDBRANCH   2  13
TORSDOF 15
ENDMDL
MODEL 7
REMARK VINA RESULT:    -4.067     19.505     21.654
REMARK INTER + INTRA:          -9.112
REMARK INTER:                  -7.654
REMARK INTRA:                  -1.458
REMARK UNBOUND:                -1.478
REMARK SMILES CCCCCCCCC=CCCCCCCCC(=O)[O-]
REMARK SMILES IDX 10 1 9 2 11 3 12 4 13 5 14 6 15 7 16 8 17 9 18 10 19 11
REMARK SMILES IDX 20 12 8 13 7 14 6 15 5 16 4 17 3 18 2 19 1 20
REMARK H PARENT
REMARK Flexibility Score: inf
ROOT
ATOM      1  C   UNL     1      25.030   1.425   9.766  1.00  0.00    -0.031 C 
ATOM      2  C   UNL     1      25.992   2.367   9.732  1.00  0.00    -0.031 C 
ENDROOT
BRANCH   1   3
ATOM      3  C   UNL     1      23.553   1.692   9.931  1.00  0.00     0.027 C 
BRANCH   3   4
ATOM      4  C   UNL     1      22.917   2.193   8.630  1.00  0.00     0.004 C 
BRANCH   4   5
ATOM      5  C   UNL     1      21.990   3.395   8.866  1.00  0.00     0.000 C 
BRANCH   5   6
ATOM      6  C   UNL     1      22.201   4.522   7.841  1.00  0.00     0.000 C 
BRANCH   6   7
ATOM      7  C   UNL     1      22.905   5.765   8.428  1.00  0.00     0.000 C 
BRANCH   7   8
ATOM      8  C   UNL     1      23.461   6.688   7.330  1.00  0.00     0.006 C 
BRANCH   8   9
ATOM      9  C   UNL     1      23.989   5.904   6.121  1.00  0.00     0.053 C 
BRANCH   9  10
ATOM     10  C   UNL     1      23.317   6.323   4.850  1.00  0.00     0.041 C 
ATOM     11  O   UNL     1      23.909   6.191   3.747  1.00  0.00    -0.550 OA
ATOM     12  O   UNL     1      22.023   6.827   4.880  1.00  0.00    -0.550 OA
ENDBRANCH   9  10
ENDBRANCH   8   9
ENDBRANCH   7   8
ENDBRANCH   6   7
ENDBRANCH   5   6
ENDBRANCH   4   5
ENDBRANCH   3   4
ENDBRANCH   1   3
BRANCH   2  13
ATOM     13  C   UNL     1      25.754   3.854   9.825  1.00  0.00     0.027 C 
BRANCH  13  14
ATOM     14  C   UNL     1      26.547   4.615   8.753  1.00  0.00     0.004 C 
BRANCH  14  15
ATOM     15  C   UNL     1      27.613   5.555   9.346  1.00  0.00     0.000 C 
BRANCH  15  16
ATOM     16  C   UNL     1      29.075   5.188   9.015  1.00  0.00     0.000 C 
BRANCH  16  17
ATOM     17  C   UNL     1      30.139   6.122   9.620  1.00  0.00    -0.000 C 
BRANCH  17  18
ATOM     18  C   UNL     1      31.567   5.569   9.493  1.00  0.00    -0.000 C 
BRANCH  18  19
ATOM     19  C   UNL     1      32.624   6.683   9.451  1.00  0.00    -0.003 C 
ATOM     20  C   UNL     1      32.025   8.053   9.130  1.00  0.00     0.004 C 
ENDBRANCH  18  19
ENDBRANCH  17  18
ENDBRANCH  16  17
ENDBRANCH  15  16
ENDBRANCH  14  15
ENDBRANCH  13  14
ENDBRANCH   2  13
TORSDOF 15
ENDMDL
MODEL 8
REMARK VINA RESULT:    -4.035     14.122     17.778
REMARK INTER + INTRA:          -9.052
REMARK INTER:                  -6.568
REMARK INTRA:                  -2.484
REMARK UNBOUND:                -1.478
REMARK SMILES CCCCCCCCC=CCCCCCCCC(=O)[O-]
REMARK SMILES IDX 10 1 9 2 11 3 12 4 13 5 14 6 15 7 16 8 17 9 18 10 19 11
REMARK SMILES IDX 20 12 8 13 7 14 6 15 5 16 4 17 3 18 2 19 1 20
REMARK H PARENT
REMARK Flexibility Score: inf
ROOT
ATOM      1  C   UNL     1      34.152   5.998   9.799  1.00  0.00    -0.031 C 
ATOM      2  C   UNL     1      33.750   7.207   9.363  1.00  0.00    -0.031 C 
ENDROOT
BRANCH   1   3
ATOM      3  C   UNL     1      35.589   5.545   9.914  1.00  0.00     0.027 C 
BRANCH   3   4
ATOM      4  C   UNL     1      35.716   4.022   9.790  1.00  0.00     0.004 C 
BRANCH   4   5
ATOM      5  C   UNL     1      36.545   3.611   8.564  1.00  0.00     0.000 C 
BRANCH   5   6
ATOM      6  C   UNL     1      36.871   4.797   7.639  1.00  0.00     0.000 C 
BRANCH   6   7
ATOM      7  C   UNL     1      38.376   4.943   7.332  1.00  0.00     0.000 C 
BRANCH   7   8
ATOM      8  C   UNL     1      39.170   3.680   7.706  1.00  0.00     0.006 C 
BRANCH   8   9
ATOM      9  C   UNL     1      40.624   3.739   7.219  1.00  0.00     0.053 C 
BRANCH   9  10
ATOM     10  C   UNL     1      40.708   3.769   5.724  1.00  0.00     0.041 C 
ATOM     11  O   UNL     1      41.497   4.564   5.149  1.00  0.00    -0.550 OA
ATOM     12  O   UNL     1      39.939   2.895   4.966  1.00  0.00    -0.550 OA
ENDBRANCH   9  10
ENDBRANCH   8   9
ENDBRANCH   7   8
ENDBRANCH   6   7
ENDBRANCH   5   6
ENDBRANCH   4   5
ENDBRANCH   3   4
ENDBRANCH   1   3
BRANCH   2  13
ATOM     13  C   UNL     1      34.668   8.327   8.940  1.00  0.00     0.027 C 
BRANCH  13  14
ATOM     14  C   UNL     1      35.105   8.169   7.476  1.00  0.00     0.004 C 
BRANCH  14  15
ATOM     15  C   UNL     1      36.559   8.616   7.231  1.00  0.00     0.000 C 
BRANCH  15  16
ATOM     16  C   UNL     1      37.523   8.406   8.418  1.00  0.00     0.000 C 
BRANCH  16  17
ATOM     17  C   UNL     1      38.990   8.783   8.145  1.00  0.00    -0.000 C 
BRANCH  17  18
ATOM     18  C   UNL     1      39.311   8.905   6.647  1.00  0.00    -0.000 C 
BRANCH  18  19
ATOM     19  C   UNL     1      40.307   7.835   6.174  1.00  0.00    -0.003 C 
ATOM     20  C   UNL     1      41.268   7.393   7.277  1.00  0.00     0.004 C 
ENDBRANCH  18  19
ENDBRANCH  17  18
ENDBRANCH  16  17
ENDBRANCH  15  16
ENDBRANCH  14  15
ENDBRANCH  13  14
ENDBRANCH   2  13
TORSDOF 15
ENDMDL
MODEL 9
REMARK VINA RESULT:    -3.981     14.212     16.509
REMARK INTER + INTRA:          -8.950
REMARK INTER:                  -6.136
REMARK INTRA:                  -2.814
REMARK UNBOUND:                -1.478
REMARK SMILES CCCCCCCCC=CCCCCCCCC(=O)[O-]
REMARK SMILES IDX 10 1 9 2 11 3 12 4 13 5 14 6 15 7 16 8 17 9 18 10 19 11
REMARK SMILES IDX 20 12 8 13 7 14 6 15 5 16 4 17 3 18 2 19 1 20
REMARK H PARENT
REMARK Flexibility Score: inf
ROOT
ATOM      1  C   UNL     1      40.271   4.666   5.260  1.00  0.00    -0.031 C 
ATOM      2  C   UNL     1      39.869   5.922   5.536  1.00  0.00    -0.031 C 
ENDROOT
BRANCH   1   3
ATOM      3  C   UNL     1      41.699   4.178   5.301  1.00  0.00     0.027 C 
BRANCH   3   4
ATOM      4  C   UNL     1      41.928   3.188   6.449  1.00  0.00     0.004 C 
BRANCH   4   5
ATOM      5  C   UNL     1      41.937   3.884   7.818  1.00  0.00     0.000 C 
BRANCH   5   6
ATOM      6  C   UNL     1      40.945   3.256   8.812  1.00  0.00     0.000 C 
BRANCH   6   7
ATOM      7  C   UNL     1      39.466   3.521   8.457  1.00  0.00     0.000 C 
BRANCH   7   8
ATOM      8  C   UNL     1      38.510   2.589   9.221  1.00  0.00     0.006 C 
BRANCH   8   9
ATOM      9  C   UNL     1      37.071   2.672   8.694  1.00  0.00     0.053 C 
BRANCH   9  10
ATOM     10  C   UNL     1      36.412   1.327   8.664  1.00  0.00     0.041 C 
ATOM     11  O   UNL     1      35.231   1.209   8.245  1.00  0.00    -0.550 OA
ATOM     12  O   UNL     1      37.115   0.198   9.066  1.00  0.00    -0.550 OA
ENDBRANCH   9  10
ENDBRANCH   8   9
ENDBRANCH   7   8
ENDBRANCH   6   7
ENDBRANCH   5   6
ENDBRANCH   4   5
ENDBRANCH   3   4
ENDBRANCH   1   3
BRANCH   2  13
ATOM     13  C   UNL     1      40.776   7.049   5.963  1.00  0.00     0.027 C 
BRANCH  13  14
ATOM     14  C   UNL     1      40.236   7.759   7.213  1.00  0.00     0.004 C 
BRANCH  14  15
ATOM     15  C   UNL     1      40.660   7.071   8.524  1.00  0.00     0.000 C 
BRANCH  15  16
ATOM     16  C   UNL     1      39.597   7.071   9.643  1.00  0.00     0.000 C 
BRANCH  16  17
ATOM     17  C   UNL     1      38.200   7.561   9.222  1.00  0.00    -0.000 C 
BRANCH  17  18
ATOM     18  C   UNL     1      37.169   6.425   9.121  1.00  0.00    -0.000 C 
BRANCH  18  19
ATOM     19  C   UNL     1      36.824   6.077   7.665  1.00  0.00    -0.003 C 
ATOM     20  C   UNL     1      36.401   7.299   6.849  1.00  0.00     0.004 C 
ENDBRANCH  18  19
ENDBRANCH  17  18
ENDBRANCH  16  17
ENDBRANCH  15  16
ENDBRANCH  14  15
ENDBRANCH  13  14
ENDBRANCH   2  13
TORSDOF 15
ENDMDL
