MODEL 1
REMARK VINA RESULT:    -4.271      0.000      0.000
REMARK INTER + INTRA:          -4.618
REMARK INTER:                  -4.521
REMARK INTRA:                  -0.098
REMARK UNBOUND:                -0.098
REMARK SMILES C=C(C)[C@@H]1CC=C(C)C(=O)C1
REMARK SMILES IDX 8 1 7 2 6 3 5 4 4 5 11 6 9 7 10 8 2 9 1 10 3 11
REMARK H PARENT
REMARK Flexibility Score: inf
ROOT
ATOM      1  C   UNL     1      18.681  25.553  27.899  1.00  0.00     0.048 C 
ATOM      2  C   UNL     1      20.011  26.125  28.304  1.00  0.00    -0.012 C 
ATOM      3  C   UNL     1      20.080  27.343  28.869  1.00  0.00    -0.019 C 
ATOM      4  C   UNL     1      21.378  27.924  29.364  1.00  0.00     0.036 C 
ATOM      5  C   UNL     1      22.569  27.410  28.533  1.00  0.00     0.025 C 
ATOM      6  C   UNL     1      22.587  25.871  28.517  1.00  0.00     0.089 C 
ATOM      7  C   UNL     1      21.247  25.329  28.100  1.00  0.00     0.158 C 
ATOM      8  O   UNL     1      21.178  24.167  27.615  1.00  0.00    -0.295 OA
ENDROOT
BRANCH   5   9
ATOM      9  C   UNL     1      23.888  27.976  29.042  1.00  0.00    -0.077 C 
ATOM     10  C   UNL     1      25.045  27.363  28.740  1.00  0.00     0.008 C 
ATOM     11  C   UNL     1      23.935  29.223  29.890  1.00  0.00     0.039 C 
ENDBRANCH   5   9
TORSDOF 1
ENDMDL
MODEL 2
REMARK VINA RESULT:    -4.229      2.365      4.019
REMARK INTER + INTRA:          -4.574
REMARK INTER:                  -4.475
REMARK INTRA:                  -0.098
REMARK UNBOUND:                -0.098
REMARK SMILES C=C(C)[C@@H]1CC=C(C)C(=O)C1
REMARK SMILES IDX 8 1 7 2 6 3 5 4 4 5 11 6 9 7 10 8 2 9 1 10 3 11
REMARK H PARENT
REMARK Flexibility Score: inf
ROOT
ATOM      1  C   UNL     1      20.866  24.007  27.107  1.00  0.00     0.048 C 
ATOM      2  C   UNL     1      20.210  25.238  27.669  1.00  0.00    -0.012 C 
ATOM      3  C   UNL     1      18.893  25.441  27.495  1.00  0.00    -0.019 C 
ATOM      4  C   UNL     1      18.177  26.617  28.106  1.00  0.00     0.036 C 
ATOM      5  C   UNL     1      19.115  27.830  28.240  1.00  0.00     0.025 C 
ATOM      6  C   UNL     1      20.381  27.445  29.027  1.00  0.00     0.089 C 
ATOM      7  C   UNL     1      21.019  26.216  28.438  1.00  0.00     0.158 C 
ATOM      8  O   UNL     1      22.244  26.002  28.643  1.00  0.00    -0.295 OA
ENDROOT
BRANCH   5   9
ATOM      9  C   UNL     1      18.405  29.016  28.878  1.00  0.00    -0.077 C 
ATOM     10  C   UNL     1      17.164  28.872  29.372  1.00  0.00     0.008 C 
ATOM     11  C   UNL     1      19.063  30.371  28.972  1.00  0.00     0.039 C 
ENDBRANCH   5   9
TORSDOF 1
ENDMDL
MODEL 3
REMARK VINA RESULT:    -4.156      1.810      4.406
REMARK INTER + INTRA:          -4.496
REMARK INTER:                  -4.400
REMARK INTRA:                  -0.097
REMARK UNBOUND:                -0.098
REMARK SMILES C=C(C)[C@@H]1CC=C(C)C(=O)C1
REMARK SMILES IDX 8 1 7 2 6 3 5 4 4 5 11 6 9 7 10 8 2 9 1 10 3 11
REMARK H PARENT
REMARK Flexibility Score: inf
ROOT
ATOM      1  C   UNL     1      24.336  29.799  30.138  1.00  0.00     0.048 C 
ATOM      2  C   UNL     1      23.417  28.780  29.524  1.00  0.00    -0.012 C 
ATOM      3  C   UNL     1      22.088  28.989  29.510  1.00  0.00    -0.019 C 
ATOM      4  C   UNL     1      21.135  28.037  28.838  1.00  0.00     0.036 C 
ATOM      5  C   UNL     1      21.670  26.594  28.879  1.00  0.00     0.025 C 
ATOM      6  C   UNL     1      23.084  26.528  28.274  1.00  0.00     0.089 C 
ATOM      7  C   UNL     1      23.983  27.553  28.913  1.00  0.00     0.158 C 
ATOM      8  O   UNL     1      25.231  27.379  28.883  1.00  0.00    -0.295 OA
ENDROOT
BRANCH   5   9
ATOM      9  C   UNL     1      20.722  25.628  28.180  1.00  0.00    -0.077 C 
ATOM     10  C   UNL     1      19.403  25.876  28.160  1.00  0.00     0.008 C 
ATOM     11  C   UNL     1      21.230  24.380  27.501  1.00  0.00     0.039 C 
ENDBRANCH   5   9
TORSDOF 1
ENDMDL
MODEL 4
REMARK VINA RESULT:    -4.114      9.530     12.430
REMARK INTER + INTRA:          -4.453
REMARK INTER:                  -4.356
REMARK INTRA:                  -0.096
REMARK UNBOUND:                -0.098
REMARK SMILES C=C(C)[C@@H]1CC=C(C)C(=O)C1
REMARK SMILES IDX 8 1 7 2 6 3 5 4 4 5 11 6 9 7 10 8 2 9 1 10 3 11
REMARK H PARENT
REMARK Flexibility Score: inf
ROOT
ATOM      1  C   UNL     1      35.123  32.362  25.666  1.00  0.00     0.048 C 
ATOM      2  C   UNL     1      33.973  31.944  26.540  1.00  0.00    -0.012 C 
ATOM      3  C   UNL     1      33.526  30.676  26.507  1.00  0.00    -0.019 C 
ATOM      4  C   UNL     1      32.431  30.190  27.420  1.00  0.00     0.036 C 
ATOM      5  C   UNL     1      31.451  31.326  27.766  1.00  0.00     0.025 C 
ATOM      6  C   UNL     1      32.210  32.529  28.354  1.00  0.00     0.089 C 
ATOM      7  C   UNL     1      33.349  32.930  27.456  1.00  0.00     0.158 C 
ATOM      8  O   UNL     1      33.798  34.105  27.522  1.00  0.00    -0.295 OA
ENDROOT
BRANCH   5   9
ATOM      9  C   UNL     1      30.353  30.847  28.707  1.00  0.00    -0.077 C 
ATOM     10  C   UNL     1      30.642  30.559  29.987  1.00  0.00     0.008 C 
ATOM     11  C   UNL     1      28.929  30.684  28.236  1.00  0.00     0.039 C 
ENDBRANCH   5   9
TORSDOF 1
ENDMDL
MODEL 5
REMARK VINA RESULT:    -4.044      2.737      4.137
REMARK INTER + INTRA:          -4.378
REMARK INTER:                  -4.280
REMARK INTRA:                  -0.098
REMARK UNBOUND:                -0.098
REMARK SMILES C=C(C)[C@@H]1CC=C(C)C(=O)C1
REMARK SMILES IDX 8 1 7 2 6 3 5 4 4 5 11 6 9 7 10 8 2 9 1 10 3 11
REMARK H PARENT
REMARK Flexibility Score: inf
ROOT
ATOM      1  C   UNL     1      16.597  28.871  29.541  1.00  0.00     0.048 C 
ATOM      2  C   UNL     1      17.760  28.034  29.087  1.00  0.00    -0.012 C 
ATOM      3  C   UNL     1      17.624  27.198  28.042  1.00  0.00    -0.019 C 
ATOM      4  C   UNL     1      18.780  26.399  27.501  1.00  0.00     0.036 C 
ATOM      5  C   UNL     1      19.788  26.057  28.613  1.00  0.00     0.025 C 
ATOM      6  C   UNL     1      20.250  27.338  29.331  1.00  0.00     0.089 C 
ATOM      7  C   UNL     1      19.066  28.151  29.781  1.00  0.00     0.158 C 
ATOM      8  O   UNL     1      19.208  28.969  30.729  1.00  0.00    -0.295 OA
ENDROOT
BRANCH   5   9
ATOM      9  C   UNL     1      20.972  25.268  28.069  1.00  0.00    -0.077 C 
ATOM     10  C   UNL     1      22.200  25.462  28.576  1.00  0.00     0.008 C 
ATOM     11  C   UNL     1      20.803  24.261  26.958  1.00  0.00     0.039 C 
ENDBRANCH   5   9
TORSDOF 1
ENDMDL
MODEL 6
REMARK VINA RESULT:    -4.013      1.905      4.843
REMARK INTER + INTRA:          -4.345
REMARK INTER:                  -4.251
REMARK INTRA:                  -0.094
REMARK UNBOUND:                -0.098
REMARK SMILES C=C(C)[C@@H]1CC=C(C)C(=O)C1
REMARK SMILES IDX 8 1 7 2 6 3 5 4 4 5 11 6 9 7 10 8 2 9 1 10 3 11
REMARK H PARENT
REMARK Flexibility Score: inf
ROOT
ATOM      1  C   UNL     1      23.828  27.011  28.540  1.00  0.00     0.048 C 
ATOM      2  C   UNL     1      22.339  26.805  28.549  1.00  0.00    -0.012 C 
ATOM      3  C   UNL     1      21.827  25.566  28.455  1.00  0.00    -0.019 C 
ATOM      4  C   UNL     1      20.347  25.303  28.540  1.00  0.00     0.036 C 
ATOM      5  C   UNL     1      19.539  26.495  27.995  1.00  0.00     0.025 C 
ATOM      6  C   UNL     1      19.943  27.792  28.718  1.00  0.00     0.089 C 
ATOM      7  C   UNL     1      21.436  27.975  28.686  1.00  0.00     0.158 C 
ATOM      8  O   UNL     1      21.916  29.132  28.823  1.00  0.00    -0.295 OA
ENDROOT
BRANCH   5   9
ATOM      9  C   UNL     1      18.039  26.246  28.098  1.00  0.00    -0.077 C 
ATOM     10  C   UNL     1      17.516  25.093  27.650  1.00  0.00     0.008 C 
ATOM     11  C   UNL     1      17.111  27.273  28.697  1.00  0.00     0.039 C 
ENDBRANCH   5   9
TORSDOF 1
ENDMDL
MODEL 7
REMARK VINA RESULT:    -3.986      2.054      5.606
REMARK INTER + INTRA:          -4.317
REMARK INTER:                  -4.221
REMARK INTRA:                  -0.096
REMARK UNBOUND:                -0.098
REMARK SMILES C=C(C)[C@@H]1CC=C(C)C(=O)C1
REMARK SMILES IDX 8 1 7 2 6 3 5 4 4 5 11 6 9 7 10 8 2 9 1 10 3 11
REMARK H PARENT
REMARK Flexibility Score: inf
ROOT
ATOM      1  C   UNL     1      21.124  27.864  29.169  1.00  0.00     0.048 C 
ATOM      2  C   UNL     1      19.952  27.119  28.594  1.00  0.00    -0.012 C 
ATOM      3  C   UNL     1      18.742  27.703  28.536  1.00  0.00    -0.019 C 
ATOM      4  C   UNL     1      17.558  27.028  27.897  1.00  0.00     0.036 C 
ATOM      5  C   UNL     1      17.650  25.497  28.035  1.00  0.00     0.025 C 
ATOM      6  C   UNL     1      18.987  24.987  27.469  1.00  0.00     0.089 C 
ATOM      7  C   UNL     1      20.141  25.745  28.068  1.00  0.00     0.158 C 
ATOM      8  O   UNL     1      21.284  25.215  28.078  1.00  0.00    -0.295 OA
ENDROOT
BRANCH   5   9
ATOM      9  C   UNL     1      16.466  24.805  27.371  1.00  0.00    -0.077 C 
ATOM     10  C   UNL     1      15.234  25.328  27.480  1.00  0.00     0.008 C 
ATOM     11  C   UNL     1      16.640  23.530  26.584  1.00  0.00     0.039 C 
ENDBRANCH   5   9
TORSDOF 1
ENDMDL
MODEL 8
REMARK VINA RESULT:    -3.961      4.487      5.909
REMARK INTER + INTRA:          -4.291
REMARK INTER:                  -4.192
REMARK INTRA:                  -0.098
REMARK UNBOUND:                -0.098
REMARK SMILES C=C(C)[C@@H]1CC=C(C)C(=O)C1
REMARK SMILES IDX 8 1 7 2 6 3 5 4 4 5 11 6 9 7 10 8 2 9 1 10 3 11
REMARK H PARENT
REMARK Flexibility Score: inf
ROOT
ATOM      1  C   UNL     1      19.857  27.349  28.870  1.00  0.00     0.048 C 
ATOM      2  C   UNL     1      19.351  28.745  29.106  1.00  0.00    -0.012 C 
ATOM      3  C   UNL     1      18.038  28.966  29.289  1.00  0.00    -0.019 C 
ATOM      4  C   UNL     1      17.493  30.334  29.607  1.00  0.00     0.036 C 
ATOM      5  C   UNL     1      18.363  31.438  28.979  1.00  0.00     0.025 C 
ATOM      6  C   UNL     1      19.831  31.278  29.415  1.00  0.00     0.089 C 
ATOM      7  C   UNL     1      20.311  29.875  29.160  1.00  0.00     0.158 C 
ATOM      8  O   UNL     1      21.547  29.662  29.036  1.00  0.00    -0.295 OA
ENDROOT
BRANCH   5   9
ATOM      9  C   UNL     1      17.832  32.825  29.316  1.00  0.00    -0.077 C 
ATOM     10  C   UNL     1      18.679  33.861  29.434  1.00  0.00     0.008 C 
ATOM     11  C   UNL     1      16.358  33.074  29.525  1.00  0.00     0.039 C 
ENDBRANCH   5   9
TORSDOF 1
ENDMDL
MODEL 9
REMARK VINA RESULT:    -3.961      3.887      5.804
REMARK INTER + INTRA:          -4.290
REMARK INTER:                  -4.192
REMARK INTRA:                  -0.098
REMARK UNBOUND:                -0.098
REMARK SMILES C=C(C)[C@@H]1CC=C(C)C(=O)C1
REMARK SMILES IDX 8 1 7 2 6 3 5 4 4 5 11 6 9 7 10 8 2 9 1 10 3 11
REMARK H PARENT
REMARK Flexibility Score: inf
ROOT
ATOM      1  C   UNL     1      18.449  31.870  29.428  1.00  0.00     0.048 C 
ATOM      2  C   UNL     1      18.439  30.396  29.134  1.00  0.00    -0.012 C 
ATOM      3  C   UNL     1      19.547  29.791  28.671  1.00  0.00    -0.019 C 
ATOM      4  C   UNL     1      19.610  28.305  28.438  1.00  0.00     0.036 C 
ATOM      5  C   UNL     1      18.229  27.744  28.053  1.00  0.00     0.025 C 
ATOM      6  C   UNL     1      17.181  28.124  29.114  1.00  0.00     0.089 C 
ATOM      7  C   UNL     1      17.208  29.605  29.381  1.00  0.00     0.158 C 
ATOM      8  O   UNL     1      16.184  30.161  29.861  1.00  0.00    -0.295 OA
ENDROOT
BRANCH   5   9
ATOM      9  C   UNL     1      18.280  26.237  27.838  1.00  0.00    -0.077 C 
ATOM     10  C   UNL     1      17.151  25.511  27.891  1.00  0.00     0.008 C 
ATOM     11  C   UNL     1      19.582  25.525  27.565  1.00  0.00     0.039 C 
ENDBRANCH   5   9
TORSDOF 1
ENDMDL
