MODEL 1
REMARK VINA RESULT:    17.360      0.000      0.000
REMARK INTER + INTRA:          21.246
REMARK INTER:                  20.912
REMARK INTRA:                   0.333
REMARK UNBOUND:                 0.333
REMARK SMILES O=c1c(O)c(-c2ccc(O)cc2O)oc2cc(O)cc(O)c12
REMARK SMILES IDX 5 1 3 2 2 3 1 4 22 5 20 6 19 7 17 8 16 9 15 10 14 11 6 12
REMARK SMILES IDX 8 13 7 14 9 15 11 16 12 17 10 18 13 20 4 22 21 24 18 26
REMARK H PARENT 10 19 13 21 4 23 21 25 18 27
REMARK Flexibility Score: inf
ROOT
ATOM      1  C   UNL     1      13.913   7.434 128.373  1.00  0.00     0.184 A 
ATOM      2  C   UNL     1      13.487   6.504 129.333  1.00  0.00     0.208 A 
ATOM      3  C   UNL     1      13.966   6.614 130.648  1.00  0.00     0.238 A 
ATOM      4  O   UNL     1      13.638   5.733 131.485  1.00  0.00    -0.285 OA
ATOM      5  C   UNL     1      14.822   7.687 130.998  1.00  0.00     0.111 A 
ATOM      6  C   UNL     1      15.334   7.922 132.309  1.00  0.00     0.134 A 
ATOM      7  C   UNL     1      16.259   8.955 132.515  1.00  0.00     0.093 A 
ATOM      8  C   UNL     1      16.641   9.799 131.470  1.00  0.00     0.123 A 
ATOM      9  C   UNL     1      16.105   9.611 130.198  1.00  0.00     0.094 A 
ATOM     10  C   UNL     1      15.211   8.566 129.953  1.00  0.00     0.146 A 
ATOM     11  O   UNL     1      14.741   8.411 128.721  1.00  0.00    -0.451 OA
ENDROOT
BRANCH   1  12
ATOM     12  C   UNL     1      13.453   7.370 126.971  1.00  0.00     0.063 A 
ATOM     13  C   UNL     1      12.533   6.054 125.145  1.00  0.00     0.047 A 
ATOM     14  C   UNL     1      12.980   6.148 126.465  1.00  0.00     0.020 A 
ATOM     15  C   UNL     1      12.539   7.180 124.318  1.00  0.00     0.119 A 
ATOM     16  C   UNL     1      12.986   8.409 124.820  1.00  0.00     0.093 A 
ATOM     17  C   UNL     1      13.433   8.514 126.145  1.00  0.00     0.130 A 
BRANCH  15  18
ATOM     18  O   UNL     1      12.093   7.069 123.003  1.00  0.00    -0.508 OA
ATOM     19  H   UNL     1      11.751   6.189 122.633  1.00  0.00     0.293 HD
ENDBRANCH  15  18
BRANCH  17  20
ATOM     20  O   UNL     1      13.830   9.753 126.649  1.00  0.00    -0.507 OA
ATOM     21  H   UNL     1      13.748  10.600 126.099  1.00  0.00     0.293 HD
ENDBRANCH  17  20
ENDBRANCH   1  12
BRANCH   2  22
ATOM     22  O   UNL     1      12.584   5.497 128.978  1.00  0.00    -0.502 OA
ATOM     23  H   UNL     1      12.635   4.562 129.365  1.00  0.00     0.293 HD
ENDBRANCH   2  22
BRANCH   6  24
ATOM     24  O   UNL     1      14.953   7.196 133.441  1.00  0.00    -0.507 OA
ATOM     25  H   UNL     1      14.321   6.409 133.438  1.00  0.00     0.293 HD
ENDBRANCH   6  24
BRANCH   8  26
ATOM     26  O   UNL     1      17.548  10.834 131.687  1.00  0.00    -0.508 OA
ATOM     27  H   UNL     1      17.242  11.796 131.772  1.00  0.00     0.293 HD
ENDBRANCH   8  26
TORSDOF 6
ENDMDL
MODEL 2
REMARK VINA RESULT:    18.534      3.964      7.738
REMARK INTER + INTRA:          22.660
REMARK INTER:                  22.946
REMARK INTRA:                  -0.286
REMARK UNBOUND:                 0.333
REMARK SMILES O=c1c(O)c(-c2ccc(O)cc2O)oc2cc(O)cc(O)c12
REMARK SMILES IDX 5 1 3 2 2 3 1 4 22 5 20 6 19 7 17 8 16 9 15 10 14 11 6 12
REMARK SMILES IDX 8 13 7 14 9 15 11 16 12 17 10 18 13 20 4 22 21 24 18 26
REMARK H PARENT 10 19 13 21 4 23 21 25 18 27
REMARK Flexibility Score: inf
ROOT
ATOM      1  C   UNL     1      18.310   7.354 131.806  1.00  0.00     0.184 A 
ATOM      2  C   UNL     1      17.882   8.690 131.795  1.00  0.00     0.208 A 
ATOM      3  C   UNL     1      16.515   8.966 131.628  1.00  0.00     0.238 A 
ATOM      4  O   UNL     1      16.148  10.167 131.545  1.00  0.00    -0.285 OA
ATOM      5  C   UNL     1      15.588   7.899 131.530  1.00  0.00     0.111 A 
ATOM      6  C   UNL     1      14.176   8.061 131.402  1.00  0.00     0.134 A 
ATOM      7  C   UNL     1      13.366   6.933 131.206  1.00  0.00     0.093 A 
ATOM      8  C   UNL     1      13.912   5.648 131.197  1.00  0.00     0.123 A 
ATOM      9  C   UNL     1      15.283   5.476 131.376  1.00  0.00     0.094 A 
ATOM     10  C   UNL     1      16.120   6.583 131.535  1.00  0.00     0.146 A 
ATOM     11  O   UNL     1      17.424   6.374 131.681  1.00  0.00    -0.451 OA
ENDROOT
BRANCH   1  12
ATOM     12  C   UNL     1      19.733   6.996 131.970  1.00  0.00     0.063 A 
ATOM     13  C   UNL     1      21.770   6.085 131.004  1.00  0.00     0.047 A 
ATOM     14  C   UNL     1      20.422   6.431 130.884  1.00  0.00     0.020 A 
ATOM     15  C   UNL     1      22.451   6.311 132.202  1.00  0.00     0.119 A 
ATOM     16  C   UNL     1      21.780   6.895 133.284  1.00  0.00     0.093 A 
ATOM     17  C   UNL     1      20.428   7.250 133.171  1.00  0.00     0.130 A 
BRANCH  15  18
ATOM     18  O   UNL     1      23.794   5.957 132.307  1.00  0.00    -0.508 OA
ATOM     19  H   UNL     1      24.165   5.139 131.834  1.00  0.00     0.293 HD
ENDBRANCH  15  18
BRANCH  17  20
ATOM     20  O   UNL     1      19.782   7.876 134.238  1.00  0.00    -0.507 OA
ATOM     21  H   UNL     1      18.865   8.294 134.133  1.00  0.00     0.293 HD
ENDBRANCH  17  20
ENDBRANCH   1  12
BRANCH   2  22
ATOM     22  O   UNL     1      18.809   9.722 131.966  1.00  0.00    -0.502 OA
ATOM     23  H   UNL     1      19.804   9.586 131.829  1.00  0.00     0.293 HD
ENDBRANCH   2  22
BRANCH   6  24
ATOM     24  O   UNL     1      13.517   9.291 131.485  1.00  0.00    -0.507 OA
ATOM     25  H   UNL     1      12.566   9.419 131.795  1.00  0.00     0.293 HD
ENDBRANCH   6  24
BRANCH   8  26
ATOM     26  O   UNL     1      13.098   4.532 131.019  1.00  0.00    -0.508 OA
ATOM     27  H   UNL     1      12.197   4.601 130.559  1.00  0.00     0.293 HD
ENDBRANCH   8  26
TORSDOF 6
ENDMDL
MODEL 3
REMARK VINA RESULT:    18.749      3.132      4.852
REMARK INTER + INTRA:          22.918
REMARK INTER:                  23.235
REMARK INTRA:                  -0.317
REMARK UNBOUND:                 0.333
REMARK SMILES O=c1c(O)c(-c2ccc(O)cc2O)oc2cc(O)cc(O)c12
REMARK SMILES IDX 5 1 3 2 2 3 1 4 22 5 20 6 19 7 17 8 16 9 15 10 14 11 6 12
REMARK SMILES IDX 8 13 7 14 9 15 11 16 12 17 10 18 13 20 4 22 21 24 18 26
REMARK H PARENT 10 19 13 21 4 23 21 25 18 27
REMARK Flexibility Score: inf
ROOT
ATOM      1  C   UNL     1      15.439   6.681 131.383  1.00  0.00     0.184 A 
ATOM      2  C   UNL     1      15.191   7.983 131.844  1.00  0.00     0.208 A 
ATOM      3  C   UNL     1      16.278   8.798 132.200  1.00  0.00     0.238 A 
ATOM      4  O   UNL     1      16.044   9.937 132.682  1.00  0.00    -0.285 OA
ATOM      5  C   UNL     1      17.600   8.319 132.036  1.00  0.00     0.111 A 
ATOM      6  C   UNL     1      18.778   9.073 132.323  1.00  0.00     0.134 A 
ATOM      7  C   UNL     1      20.034   8.458 132.224  1.00  0.00     0.093 A 
ATOM      8  C   UNL     1      20.156   7.137 131.788  1.00  0.00     0.123 A 
ATOM      9  C   UNL     1      19.016   6.409 131.454  1.00  0.00     0.094 A 
ATOM     10  C   UNL     1      17.748   6.982 131.579  1.00  0.00     0.146 A 
ATOM     11  O   UNL     1      16.688   6.246 131.270  1.00  0.00    -0.451 OA
ENDROOT
BRANCH   1  12
ATOM     12  C   UNL     1      14.341   5.770 131.000  1.00  0.00     0.063 A 
ATOM     13  C   UNL     1      13.013   3.794 131.497  1.00  0.00     0.047 A 
ATOM     14  C   UNL     1      14.048   4.672 131.827  1.00  0.00     0.020 A 
ATOM     15  C   UNL     1      12.250   4.008 130.347  1.00  0.00     0.119 A 
ATOM     16  C   UNL     1      12.518   5.112 129.528  1.00  0.00     0.093 A 
ATOM     17  C   UNL     1      13.552   6.002 129.855  1.00  0.00     0.130 A 
BRANCH  15  18
ATOM     18  O   UNL     1      11.223   3.120 130.030  1.00  0.00    -0.508 OA
ATOM     19  H   UNL     1      11.025   2.862 129.069  1.00  0.00     0.293 HD
ENDBRANCH  15  18
BRANCH  17  20
ATOM     20  O   UNL     1      13.779   7.125 129.059  1.00  0.00    -0.507 OA
ATOM     21  H   UNL     1      13.829   8.056 129.456  1.00  0.00     0.293 HD
ENDBRANCH  17  20
ENDBRANCH   1  12
BRANCH   2  22
ATOM     22  O   UNL     1      13.879   8.456 131.928  1.00  0.00    -0.502 OA
ATOM     23  H   UNL     1      13.662   9.417 132.168  1.00  0.00     0.293 HD
ENDBRANCH   2  22
BRANCH   6  24
ATOM     24  O   UNL     1      18.775  10.424 132.681  1.00  0.00    -0.507 OA
ATOM     25  H   UNL     1      18.085  10.865 133.270  1.00  0.00     0.293 HD
ENDBRANCH   6  24
BRANCH   8  26
ATOM     26  O   UNL     1      21.410   6.539 131.676  1.00  0.00    -0.508 OA
ATOM     27  H   UNL     1      21.821   6.338 130.771  1.00  0.00     0.293 HD
ENDBRANCH   8  26
TORSDOF 6
ENDMDL
MODEL 4
REMARK VINA RESULT:    19.774      5.242     10.164
REMARK INTER + INTRA:          24.153
REMARK INTER:                  23.673
REMARK INTRA:                   0.480
REMARK UNBOUND:                 0.333
REMARK SMILES O=c1c(O)c(-c2ccc(O)cc2O)oc2cc(O)cc(O)c12
REMARK SMILES IDX 5 1 3 2 2 3 1 4 22 5 20 6 19 7 17 8 16 9 15 10 14 11 6 12
REMARK SMILES IDX 8 13 7 14 9 15 11 16 12 17 10 18 13 20 4 22 21 24 18 26
REMARK H PARENT 10 19 13 21 4 23 21 25 18 27
REMARK Flexibility Score: inf
ROOT
ATOM      1  C   UNL     1      19.589   7.799 135.062  1.00  0.00     0.184 A 
ATOM      2  C   UNL     1      20.325   7.478 133.912  1.00  0.00     0.208 A 
ATOM      3  C   UNL     1      19.775   7.757 132.650  1.00  0.00     0.238 A 
ATOM      4  O   UNL     1      20.409   7.398 131.624  1.00  0.00    -0.285 OA
ATOM      5  C   UNL     1      18.520   8.406 132.558  1.00  0.00     0.111 A 
ATOM      6  C   UNL     1      17.886   8.777 131.334  1.00  0.00     0.134 A 
ATOM      7  C   UNL     1      16.594   9.319 131.362  1.00  0.00     0.093 A 
ATOM      8  C   UNL     1      15.940   9.561 132.572  1.00  0.00     0.123 A 
ATOM      9  C   UNL     1      16.572   9.253 133.774  1.00  0.00     0.094 A 
ATOM     10  C   UNL     1      17.844   8.675 133.778  1.00  0.00     0.146 A 
ATOM     11  O   UNL     1      18.400   8.378 134.946  1.00  0.00    -0.451 OA
ENDROOT
BRANCH   1  12
ATOM     12  C   UNL     1      20.106   7.524 136.418  1.00  0.00     0.063 A 
ATOM     13  C   UNL     1      21.717   6.378 137.834  1.00  0.00     0.047 A 
ATOM     14  C   UNL     1      21.199   6.655 136.566  1.00  0.00     0.020 A 
ATOM     15  C   UNL     1      21.159   6.974 138.967  1.00  0.00     0.119 A 
ATOM     16  C   UNL     1      20.084   7.861 138.828  1.00  0.00     0.093 A 
ATOM     17  C   UNL     1      19.561   8.149 137.559  1.00  0.00     0.130 A 
BRANCH  15  18
ATOM     18  O   UNL     1      21.684   6.684 140.224  1.00  0.00    -0.508 OA
ATOM     19  H   UNL     1      22.064   5.770 140.441  1.00  0.00     0.293 HD
ENDBRANCH  15  18
BRANCH  17  20
ATOM     20  O   UNL     1      18.522   9.071 137.428  1.00  0.00    -0.507 OA
ATOM     21  H   UNL     1      18.656   9.959 136.960  1.00  0.00     0.293 HD
ENDBRANCH  17  20
ENDBRANCH   1  12
BRANCH   2  22
ATOM     22  O   UNL     1      21.594   6.903 134.032  1.00  0.00    -0.502 OA
ATOM     23  H   UNL     1      21.893   6.123 133.458  1.00  0.00     0.293 HD
ENDBRANCH   2  22
BRANCH   6  24
ATOM     24  O   UNL     1      18.484   8.661 130.076  1.00  0.00    -0.507 OA
ATOM     25  H   UNL     1      19.183   7.977 129.828  1.00  0.00     0.293 HD
ENDBRANCH   6  24
BRANCH   8  26
ATOM     26  O   UNL     1      14.662  10.117 132.590  1.00  0.00    -0.508 OA
ATOM     27  H   UNL     1      14.003   9.904 133.331  1.00  0.00     0.293 HD
ENDBRANCH   8  26
TORSDOF 6
ENDMDL
MODEL 5
REMARK VINA RESULT:    20.244      1.661      3.373
REMARK INTER + INTRA:          24.720
REMARK INTER:                  25.111
REMARK INTRA:                  -0.391
REMARK UNBOUND:                 0.333
REMARK SMILES O=c1c(O)c(-c2ccc(O)cc2O)oc2cc(O)cc(O)c12
REMARK SMILES IDX 5 1 3 2 2 3 1 4 22 5 20 6 19 7 17 8 16 9 15 10 14 11 6 12
REMARK SMILES IDX 8 13 7 14 9 15 11 16 12 17 10 18 13 20 4 22 21 24 18 26
REMARK H PARENT 10 19 13 21 4 23 21 25 18 27
REMARK Flexibility Score: inf
ROOT
ATOM      1  C   UNL     1      13.628   7.269 127.566  1.00  0.00     0.184 A 
ATOM      2  C   UNL     1      14.102   8.448 128.160  1.00  0.00     0.208 A 
ATOM      3  C   UNL     1      14.460   8.430 129.517  1.00  0.00     0.238 A 
ATOM      4  O   UNL     1      14.813   9.509 130.062  1.00  0.00    -0.285 OA
ATOM      5  C   UNL     1      14.393   7.218 130.247  1.00  0.00     0.111 A 
ATOM      6  C   UNL     1      14.772   7.073 131.616  1.00  0.00     0.134 A 
ATOM      7  C   UNL     1      14.562   5.849 132.265  1.00  0.00     0.093 A 
ATOM      8  C   UNL     1      14.046   4.749 131.578  1.00  0.00     0.123 A 
ATOM      9  C   UNL     1      13.723   4.864 130.228  1.00  0.00     0.094 A 
ATOM     10  C   UNL     1      13.885   6.083 129.563  1.00  0.00     0.146 A 
ATOM     11  O   UNL     1      13.545   6.154 128.281  1.00  0.00    -0.451 OA
ENDROOT
BRANCH   1  12
ATOM     12  C   UNL     1      13.227   7.221 126.145  1.00  0.00     0.063 A 
ATOM     13  C   UNL     1      11.680   7.908 124.399  1.00  0.00     0.047 A 
ATOM     14  C   UNL     1      12.084   7.927 125.736  1.00  0.00     0.020 A 
ATOM     15  C   UNL     1      12.419   7.196 123.452  1.00  0.00     0.119 A 
ATOM     16  C   UNL     1      13.574   6.507 123.844  1.00  0.00     0.093 A 
ATOM     17  C   UNL     1      13.990   6.526 125.183  1.00  0.00     0.130 A 
BRANCH  15  18
ATOM     18  O   UNL     1      12.000   7.183 122.123  1.00  0.00    -0.508 OA
ATOM     19  H   UNL     1      11.327   6.503 121.786  1.00  0.00     0.293 HD
ENDBRANCH  15  18
BRANCH  17  20
ATOM     20  O   UNL     1      15.168   5.877 125.553  1.00  0.00    -0.507 OA
ATOM     21  H   UNL     1      15.458   5.815 126.522  1.00  0.00     0.293 HD
ENDBRANCH  17  20
ENDBRANCH   1  12
BRANCH   2  22
ATOM     22  O   UNL     1      14.226   9.613 127.398  1.00  0.00    -0.502 OA
ATOM     23  H   UNL     1      14.557   9.602 126.440  1.00  0.00     0.293 HD
ENDBRANCH   2  22
BRANCH   6  24
ATOM     24  O   UNL     1      15.377   8.081 132.372  1.00  0.00    -0.507 OA
ATOM     25  H   UNL     1      14.964   8.529 133.176  1.00  0.00     0.293 HD
ENDBRANCH   6  24
BRANCH   8  26
ATOM     26  O   UNL     1      13.857   3.530 132.227  1.00  0.00    -0.508 OA
ATOM     27  H   UNL     1      13.838   2.655 131.715  1.00  0.00     0.293 HD
ENDBRANCH   8  26
TORSDOF 6
ENDMDL
