MODEL 1
REMARK VINA RESULT:    -4.445      0.000      0.000
REMARK INTER + INTRA:          -5.079
REMARK INTER:                  -4.965
REMARK INTRA:                  -0.114
REMARK UNBOUND:                -0.114
REMARK SMILES COc1cc2ccc(=O)oc2cc1OC
REMARK SMILES IDX 3 1 13 2 12 3 11 4 5 5 4 6 6 7 7 8 8 9 9 10 10 11 2 12 1 13
REMARK SMILES IDX 14 14 15 15
REMARK H PARENT
REMARK Flexibility Score: inf
ROOT
ATOM      1  C   UNL     1     -19.503 -17.549 -12.052  1.00  0.00     0.161 A 
ATOM      2  C   UNL     1     -19.147 -17.721 -13.400  1.00  0.00     0.164 A 
ATOM      3  C   UNL     1     -17.810 -17.533 -13.800  1.00  0.00     0.098 A 
ATOM      4  C   UNL     1     -16.836 -17.176 -12.865  1.00  0.00     0.142 A 
ATOM      5  C   UNL     1     -17.191 -17.004 -11.512  1.00  0.00     0.022 A 
ATOM      6  C   UNL     1     -18.520 -17.190 -11.109  1.00  0.00     0.062 A 
ATOM      7  C   UNL     1     -16.193 -16.648 -10.600  1.00  0.00     0.019 A 
ATOM      8  C   UNL     1     -14.884 -16.474 -11.050  1.00  0.00     0.094 A 
ATOM      9  C   UNL     1     -14.604 -16.662 -12.407  1.00  0.00     0.336 A 
ATOM     10  O   UNL     1     -13.430 -16.510 -12.834  1.00  0.00    -0.246 OA
ATOM     11  O   UNL     1     -15.573 -17.001 -13.253  1.00  0.00    -0.423 OA
ENDROOT
BRANCH   1  12
ATOM     12  O   UNL     1     -20.846 -17.745 -11.689  1.00  0.00    -0.493 OA
ATOM     13  C   UNL     1     -21.436 -17.264 -10.486  1.00  0.00     0.278 C 
ENDBRANCH   1  12
BRANCH   2  14
ATOM     14  O   UNL     1     -20.152 -18.080 -14.313  1.00  0.00    -0.493 OA
ATOM     15  C   UNL     1     -20.508 -17.319 -15.464  1.00  0.00     0.278 C 
ENDBRANCH   2  14
TORSDOF 2
ENDMDL
MODEL 2
REMARK VINA RESULT:    -4.278      1.765      5.386
REMARK INTER + INTRA:          -4.892
REMARK INTER:                  -4.780
REMARK INTRA:                  -0.113
REMARK UNBOUND:                -0.114
REMARK SMILES COc1cc2ccc(=O)oc2cc1OC
REMARK SMILES IDX 3 1 13 2 12 3 11 4 5 5 4 6 6 7 7 8 8 9 9 10 10 11 2 12 1 13
REMARK SMILES IDX 14 14 15 15
REMARK H PARENT
REMARK Flexibility Score: inf
ROOT
ATOM      1  C   UNL     1     -16.172 -16.899 -12.867  1.00  0.00     0.161 A 
ATOM      2  C   UNL     1     -17.287 -17.420 -12.190  1.00  0.00     0.164 A 
ATOM      3  C   UNL     1     -18.526 -17.518 -12.853  1.00  0.00     0.098 A 
ATOM      4  C   UNL     1     -18.652 -17.100 -14.180  1.00  0.00     0.142 A 
ATOM      5  C   UNL     1     -17.533 -16.579 -14.861  1.00  0.00     0.022 A 
ATOM      6  C   UNL     1     -16.300 -16.480 -14.206  1.00  0.00     0.062 A 
ATOM      7  C   UNL     1     -17.692 -16.171 -16.189  1.00  0.00     0.019 A 
ATOM      8  C   UNL     1     -18.941 -16.289 -16.798  1.00  0.00     0.094 A 
ATOM      9  C   UNL     1     -20.006 -16.817 -16.061  1.00  0.00     0.336 A 
ATOM     10  O   UNL     1     -21.141 -16.933 -16.592  1.00  0.00    -0.246 OA
ATOM     11  O   UNL     1     -19.828 -17.197 -14.799  1.00  0.00    -0.423 OA
ENDROOT
BRANCH   1  12
ATOM     12  O   UNL     1     -14.953 -16.817 -12.175  1.00  0.00    -0.493 OA
ATOM     13  C   UNL     1     -13.701 -16.501 -12.777  1.00  0.00     0.278 C 
ENDBRANCH   1  12
BRANCH   2  14
ATOM     14  O   UNL     1     -17.124 -17.829 -10.856  1.00  0.00    -0.493 OA
ATOM     15  C   UNL     1     -17.477 -17.045  -9.721  1.00  0.00     0.278 C 
ENDBRANCH   2  14
TORSDOF 2
ENDMDL
MODEL 3
REMARK VINA RESULT:    -4.243      1.979      4.768
REMARK INTER + INTRA:          -4.854
REMARK INTER:                  -4.736
REMARK INTRA:                  -0.117
REMARK UNBOUND:                -0.114
REMARK SMILES COc1cc2ccc(=O)oc2cc1OC
REMARK SMILES IDX 3 1 13 2 12 3 11 4 5 5 4 6 6 7 7 8 8 9 9 10 10 11 2 12 1 13
REMARK SMILES IDX 14 14 15 15
REMARK H PARENT
REMARK Flexibility Score: inf
ROOT
ATOM      1  C   UNL     1     -17.334 -17.443 -12.047  1.00  0.00     0.161 A 
ATOM      2  C   UNL     1     -16.252 -16.914 -12.772  1.00  0.00     0.164 A 
ATOM      3  C   UNL     1     -16.431 -16.529 -14.115  1.00  0.00     0.098 A 
ATOM      4  C   UNL     1     -17.676 -16.671 -14.731  1.00  0.00     0.142 A 
ATOM      5  C   UNL     1     -18.762 -17.201 -14.005  1.00  0.00     0.022 A 
ATOM      6  C   UNL     1     -18.590 -17.585 -12.670  1.00  0.00     0.062 A 
ATOM      7  C   UNL     1     -19.996 -17.330 -14.650  1.00  0.00     0.019 A 
ATOM      8  C   UNL     1     -20.118 -16.934 -15.982  1.00  0.00     0.094 A 
ATOM      9  C   UNL     1     -18.997 -16.415 -16.639  1.00  0.00     0.336 A 
ATOM     10  O   UNL     1     -19.085 -16.052 -17.841  1.00  0.00    -0.246 OA
ATOM     11  O   UNL     1     -17.835 -16.304 -16.002  1.00  0.00    -0.423 OA
ENDROOT
BRANCH   1  12
ATOM     12  O   UNL     1     -17.119 -17.816 -10.710  1.00  0.00    -0.493 OA
ATOM     13  C   UNL     1     -17.500 -17.034  -9.583  1.00  0.00     0.278 C 
ENDBRANCH   1  12
BRANCH   2  14
ATOM     14  O   UNL     1     -15.015 -16.786 -12.120  1.00  0.00    -0.493 OA
ATOM     15  C   UNL     1     -13.781 -16.510 -12.777  1.00  0.00     0.278 C 
ENDBRANCH   2  14
TORSDOF 2
ENDMDL
MODEL 4
REMARK VINA RESULT:    -4.119      2.105      2.872
REMARK INTER + INTRA:          -4.715
REMARK INTER:                  -4.584
REMARK INTRA:                  -0.131
REMARK UNBOUND:                -0.114
REMARK SMILES COc1cc2ccc(=O)oc2cc1OC
REMARK SMILES IDX 3 1 13 2 12 3 11 4 5 5 4 6 6 7 7 8 8 9 9 10 10 11 2 12 1 13
REMARK SMILES IDX 14 14 15 15
REMARK H PARENT
REMARK Flexibility Score: inf
ROOT
ATOM      1  C   UNL     1     -19.036 -16.334 -15.090  1.00  0.00     0.161 A 
ATOM      2  C   UNL     1     -18.067 -16.157 -16.091  1.00  0.00     0.164 A 
ATOM      3  C   UNL     1     -16.699 -16.216 -15.760  1.00  0.00     0.098 A 
ATOM      4  C   UNL     1     -16.301 -16.447 -14.441  1.00  0.00     0.142 A 
ATOM      5  C   UNL     1     -17.273 -16.626 -13.435  1.00  0.00     0.022 A 
ATOM      6  C   UNL     1     -18.633 -16.569 -13.760  1.00  0.00     0.062 A 
ATOM      7  C   UNL     1     -16.842 -16.857 -12.125  1.00  0.00     0.019 A 
ATOM      8  C   UNL     1     -15.475 -16.904 -11.851  1.00  0.00     0.094 A 
ATOM      9  C   UNL     1     -14.568 -16.720 -12.900  1.00  0.00     0.336 A 
ATOM     10  O   UNL     1     -13.330 -16.759 -12.675  1.00  0.00    -0.246 OA
ATOM     11  O   UNL     1     -15.005 -16.501 -14.137  1.00  0.00    -0.423 OA
ENDROOT
BRANCH   1  12
ATOM     12  O   UNL     1     -20.390 -16.270 -15.457  1.00  0.00    -0.493 OA
ATOM     13  C   UNL     1     -21.206 -15.109 -15.336  1.00  0.00     0.278 C 
ENDBRANCH   1  12
BRANCH   2  14
ATOM     14  O   UNL     1     -18.503 -15.926 -17.406  1.00  0.00    -0.493 OA
ATOM     15  C   UNL     1     -18.488 -16.899 -18.445  1.00  0.00     0.278 C 
ENDBRANCH   2  14
TORSDOF 2
ENDMDL
MODEL 5
REMARK VINA RESULT:    -4.062      1.370      2.829
REMARK INTER + INTRA:          -4.651
REMARK INTER:                  -4.513
REMARK INTRA:                  -0.138
REMARK UNBOUND:                -0.114
REMARK SMILES COc1cc2ccc(=O)oc2cc1OC
REMARK SMILES IDX 3 1 13 2 12 3 11 4 5 5 4 6 6 7 7 8 8 9 9 10 10 11 2 12 1 13
REMARK SMILES IDX 14 14 15 15
REMARK H PARENT
REMARK Flexibility Score: inf
ROOT
ATOM      1  C   UNL     1     -18.617 -17.240 -13.399  1.00  0.00     0.161 A 
ATOM      2  C   UNL     1     -18.972 -16.509 -12.252  1.00  0.00     0.164 A 
ATOM      3  C   UNL     1     -17.972 -15.875 -11.490  1.00  0.00     0.098 A 
ATOM      4  C   UNL     1     -16.630 -15.968 -11.867  1.00  0.00     0.142 A 
ATOM      5  C   UNL     1     -16.273 -16.700 -13.017  1.00  0.00     0.022 A 
ATOM      6  C   UNL     1     -17.263 -17.333 -13.778  1.00  0.00     0.062 A 
ATOM      7  C   UNL     1     -14.921 -16.774 -13.367  1.00  0.00     0.019 A 
ATOM      8  C   UNL     1     -13.971 -16.127 -12.577  1.00  0.00     0.094 A 
ATOM      9  C   UNL     1     -14.399 -15.418 -11.449  1.00  0.00     0.336 A 
ATOM     10  O   UNL     1     -13.559 -14.827 -10.722  1.00  0.00    -0.246 OA
ATOM     11  O   UNL     1     -15.692 -15.364 -11.138  1.00  0.00    -0.423 OA
ENDROOT
BRANCH   1  12
ATOM     12  O   UNL     1     -19.640 -17.859 -14.135  1.00  0.00    -0.493 OA
ATOM     13  C   UNL     1     -20.179 -17.353 -15.352  1.00  0.00     0.278 C 
ENDBRANCH   1  12
BRANCH   2  14
ATOM     14  O   UNL     1     -20.330 -16.437 -11.904  1.00  0.00    -0.493 OA
ATOM     15  C   UNL     1     -20.944 -17.216 -10.882  1.00  0.00     0.278 C 
ENDBRANCH   2  14
TORSDOF 2
ENDMDL
MODEL 6
REMARK VINA RESULT:    -3.952      2.615      4.116
REMARK INTER + INTRA:          -4.529
REMARK INTER:                  -4.392
REMARK INTRA:                  -0.136
REMARK UNBOUND:                -0.114
REMARK SMILES COc1cc2ccc(=O)oc2cc1OC
REMARK SMILES IDX 3 1 13 2 12 3 11 4 5 5 4 6 6 7 7 8 8 9 9 10 10 11 2 12 1 13
REMARK SMILES IDX 14 14 15 15
REMARK H PARENT
REMARK Flexibility Score: inf
ROOT
ATOM      1  C   UNL     1     -17.144 -16.260 -16.101  1.00  0.00     0.161 A 
ATOM      2  C   UNL     1     -18.435 -16.274 -15.546  1.00  0.00     0.164 A 
ATOM      3  C   UNL     1     -18.597 -16.439 -14.157  1.00  0.00     0.098 A 
ATOM      4  C   UNL     1     -17.482 -16.591 -13.328  1.00  0.00     0.142 A 
ATOM      5  C   UNL     1     -16.187 -16.577 -13.884  1.00  0.00     0.022 A 
ATOM      6  C   UNL     1     -16.021 -16.412 -15.265  1.00  0.00     0.062 A 
ATOM      7  C   UNL     1     -15.092 -16.730 -13.028  1.00  0.00     0.019 A 
ATOM      8  C   UNL     1     -15.309 -16.892 -11.660  1.00  0.00     0.094 A 
ATOM      9  C   UNL     1     -16.623 -16.895 -11.178  1.00  0.00     0.336 A 
ATOM     10  O   UNL     1     -16.841 -17.040  -9.948  1.00  0.00    -0.246 OA
ATOM     11  O   UNL     1     -17.646 -16.748 -12.015  1.00  0.00    -0.423 OA
ENDROOT
BRANCH   1  12
ATOM     12  O   UNL     1     -17.020 -16.091 -17.490  1.00  0.00    -0.493 OA
ATOM     13  C   UNL     1     -16.483 -14.932 -18.119  1.00  0.00     0.278 C 
ENDBRANCH   1  12
BRANCH   2  14
ATOM     14  O   UNL     1     -19.532 -16.118 -16.408  1.00  0.00    -0.493 OA
ATOM     15  C   UNL     1     -20.365 -17.183 -16.856  1.00  0.00     0.278 C 
ENDBRANCH   2  14
TORSDOF 2
ENDMDL
MODEL 7
REMARK VINA RESULT:    -3.907      2.778      4.793
REMARK INTER + INTRA:          -4.478
REMARK INTER:                  -4.316
REMARK INTRA:                  -0.162
REMARK UNBOUND:                -0.114
REMARK SMILES COc1cc2ccc(=O)oc2cc1OC
REMARK SMILES IDX 3 1 13 2 12 3 11 4 5 5 4 6 6 7 7 8 8 9 9 10 10 11 2 12 1 13
REMARK SMILES IDX 14 14 15 15
REMARK H PARENT
REMARK Flexibility Score: inf
ROOT
ATOM      1  C   UNL     1     -20.583 -16.268 -16.762  1.00  0.00     0.161 A 
ATOM      2  C   UNL     1     -19.387 -15.536 -16.667  1.00  0.00     0.164 A 
ATOM      3  C   UNL     1     -18.509 -15.767 -15.591  1.00  0.00     0.098 A 
ATOM      4  C   UNL     1     -18.819 -16.719 -14.617  1.00  0.00     0.142 A 
ATOM      5  C   UNL     1     -20.017 -17.455 -14.711  1.00  0.00     0.022 A 
ATOM      6  C   UNL     1     -20.894 -17.229 -15.779  1.00  0.00     0.062 A 
ATOM      7  C   UNL     1     -20.298 -18.401 -13.721  1.00  0.00     0.019 A 
ATOM      8  C   UNL     1     -19.394 -18.589 -12.676  1.00  0.00     0.094 A 
ATOM      9  C   UNL     1     -18.223 -17.823 -12.648  1.00  0.00     0.336 A 
ATOM     10  O   UNL     1     -17.394 -17.977 -11.714  1.00  0.00    -0.246 OA
ATOM     11  O   UNL     1     -17.981 -16.929 -13.603  1.00  0.00    -0.423 OA
ENDROOT
BRANCH   1  12
ATOM     12  O   UNL     1     -21.435 -16.012 -17.849  1.00  0.00    -0.493 OA
ATOM     13  C   UNL     1     -22.588 -15.179 -17.792  1.00  0.00     0.278 C 
ENDBRANCH   1  12
BRANCH   2  14
ATOM     14  O   UNL     1     -19.108 -14.587 -17.664  1.00  0.00    -0.493 OA
ATOM     15  C   UNL     1     -19.333 -13.186 -17.532  1.00  0.00     0.278 C 
ENDBRANCH   2  14
TORSDOF 2
ENDMDL
MODEL 8
REMARK VINA RESULT:    -3.871      2.703      4.043
REMARK INTER + INTRA:          -4.438
REMARK INTER:                  -4.319
REMARK INTRA:                  -0.119
REMARK UNBOUND:                -0.114
REMARK SMILES COc1cc2ccc(=O)oc2cc1OC
REMARK SMILES IDX 3 1 13 2 12 3 11 4 5 5 4 6 6 7 7 8 8 9 9 10 10 11 2 12 1 13
REMARK SMILES IDX 14 14 15 15
REMARK H PARENT
REMARK Flexibility Score: inf
ROOT
ATOM      1  C   UNL     1     -16.694 -15.796 -11.276  1.00  0.00     0.161 A 
ATOM      2  C   UNL     1     -15.659 -16.262 -12.104  1.00  0.00     0.164 A 
ATOM      3  C   UNL     1     -14.331 -15.861 -11.859  1.00  0.00     0.098 A 
ATOM      4  C   UNL     1     -14.038 -15.000 -10.798  1.00  0.00     0.142 A 
ATOM      5  C   UNL     1     -15.075 -14.532  -9.967  1.00  0.00     0.022 A 
ATOM      6  C   UNL     1     -16.397 -14.928 -10.206  1.00  0.00     0.062 A 
ATOM      7  C   UNL     1     -14.749 -13.672  -8.913  1.00  0.00     0.019 A 
ATOM      8  C   UNL     1     -13.418 -13.305  -8.715  1.00  0.00     0.094 A 
ATOM      9  C   UNL     1     -12.441 -13.810  -9.580  1.00  0.00     0.336 A 
ATOM     10  O   UNL     1     -11.234 -13.491  -9.419  1.00  0.00    -0.246 OA
ATOM     11  O   UNL     1     -12.779 -14.626 -10.575  1.00  0.00    -0.423 OA
ENDROOT
BRANCH   1  12
ATOM     12  O   UNL     1     -18.005 -16.217 -11.550  1.00  0.00    -0.493 OA
ATOM     13  C   UNL     1     -18.987 -16.499 -10.558  1.00  0.00     0.278 C 
ENDBRANCH   1  12
BRANCH   2  14
ATOM     14  O   UNL     1     -15.990 -17.126 -13.161  1.00  0.00    -0.493 OA
ATOM     15  C   UNL     1     -15.755 -16.846 -14.537  1.00  0.00     0.278 C 
ENDBRANCH   2  14
TORSDOF 2
ENDMDL
MODEL 9
REMARK VINA RESULT:    -3.785      7.774      8.905
REMARK INTER + INTRA:          -4.343
REMARK INTER:                  -4.228
REMARK INTRA:                  -0.114
REMARK UNBOUND:                -0.114
REMARK SMILES COc1cc2ccc(=O)oc2cc1OC
REMARK SMILES IDX 3 1 13 2 12 3 11 4 5 5 4 6 6 7 7 8 8 9 9 10 10 11 2 12 1 13
REMARK SMILES IDX 14 14 15 15
REMARK H PARENT
REMARK Flexibility Score: inf
ROOT
ATOM      1  C   UNL     1     -20.877 -16.292 -20.046  1.00  0.00     0.161 A 
ATOM      2  C   UNL     1     -20.523 -15.013 -20.508  1.00  0.00     0.164 A 
ATOM      3  C   UNL     1     -20.917 -13.873 -19.781  1.00  0.00     0.098 A 
ATOM      4  C   UNL     1     -21.659 -14.006 -18.605  1.00  0.00     0.142 A 
ATOM      5  C   UNL     1     -22.014 -15.288 -18.141  1.00  0.00     0.022 A 
ATOM      6  C   UNL     1     -21.625 -16.425 -18.859  1.00  0.00     0.062 A 
ATOM      7  C   UNL     1     -22.757 -15.388 -16.960  1.00  0.00     0.019 A 
ATOM      8  C   UNL     1     -23.122 -14.226 -16.280  1.00  0.00     0.094 A 
ATOM      9  C   UNL     1     -22.732 -12.987 -16.800  1.00  0.00     0.336 A 
ATOM     10  O   UNL     1     -23.051 -11.926 -16.202  1.00  0.00    -0.246 OA
ATOM     11  O   UNL     1     -22.027 -12.921 -17.926  1.00  0.00    -0.423 OA
ENDROOT
BRANCH   1  12
ATOM     12  O   UNL     1     -20.466 -17.407 -20.796  1.00  0.00    -0.493 OA
ATOM     13  C   UNL     1     -21.032 -18.709 -20.683  1.00  0.00     0.278 C 
ENDBRANCH   1  12
BRANCH   2  14
ATOM     14  O   UNL     1     -19.777 -14.917 -21.694  1.00  0.00    -0.493 OA
ATOM     15  C   UNL     1     -18.506 -14.283 -21.800  1.00  0.00     0.278 C 
ENDBRANCH   2  14
TORSDOF 2
ENDMDL
