MODEL 1
REMARK VINA RESULT:    -4.221      0.000      0.000
REMARK INTER + INTRA:          -5.519
REMARK INTER:                  -5.948
REMARK INTRA:                   0.429
REMARK UNBOUND:                 0.429
REMARK SMILES CC1=CCC(=C(C)C)C(=O)CC(C)=CCC1
REMARK SMILES IDX 12 1 14 2 13 3 15 4 16 5 2 6 1 7 3 8 11 10 9 11 10 12 5 13
REMARK SMILES IDX 6 14 7 15 8 16 4 17
REMARK H PARENT
REMARK Flexibility Score: 60.00
ROOT
ATOM      1  C   UNL     1     -17.428  12.289 -29.780  1.00  0.00    -0.070 C 
ATOM      2  C   UNL     1     -17.132  11.050 -29.322  1.00  0.00    -0.027 C 
ATOM      3  C   UNL     1     -18.835  12.535 -30.263  1.00  0.00     0.039 C 
ENDROOT
BRANCH   2   4
ATOM      4  C   UNL     1     -15.829  10.614 -28.696  1.00  0.00     0.032 C 
BRANCH   4   5
ATOM      5  C   UNL     1     -14.807  10.124 -29.740  1.00  0.00     0.034 C 
BRANCH   5   6
ATOM      6  C   UNL     1     -13.473  10.833 -29.610  1.00  0.00    -0.077 C 
ATOM      7  C   UNL     1     -12.592  10.491 -28.435  1.00  0.00     0.039 C 
ATOM      8  C   UNL     1     -13.036  11.776 -30.476  1.00  0.00    -0.023 CG0
ATOM      9  G   UNL     1     -13.786  12.277 -31.687  1.00  0.00     0.000 G0
ENDBRANCH   5   6
ENDBRANCH   4   5
ENDBRANCH   2   4
BRANCH   1  10
ATOM     10  C   UNL     1     -16.446  13.450 -29.768  1.00  0.00     0.111 C 
BRANCH  10  11
ATOM     11  C   UNL     1     -15.861  13.695 -31.136  1.00  0.00     0.163 C 
ATOM     12  O   UNL     1     -16.656  13.906 -32.092  1.00  0.00    -0.294 OA
BRANCH  11  13
ATOM     13  C   UNL     1     -14.387  13.643 -31.389  1.00  0.00    -0.002 C 
ATOM     14  C   UNL     1     -13.601  14.759 -31.297  1.00  0.00    -0.069 C 
ATOM     15  C   UNL     1     -12.118  14.705 -31.591  1.00  0.00     0.039 C 
ATOM     16  C   UNL     1     -14.167  16.093 -30.863  1.00  0.00     0.039 C 
BRANCH  13  17
ATOM     17  C   UNL     1     -13.785  12.281 -31.680  1.00  0.00     0.066 CG0
ATOM     18  G   UNL     1     -13.042  11.779 -30.465  1.00  0.00     0.000 G0
ENDBRANCH  13  17
ENDBRANCH  11  13
ENDBRANCH  10  11
ENDBRANCH   1  10
TORSDOF 0
ENDMDL
MODEL 2
REMARK VINA RESULT:    -3.889      1.728      3.974
REMARK INTER + INTRA:          -5.051
REMARK INTER:                  -5.725
REMARK INTRA:                   0.674
REMARK UNBOUND:                 0.429
REMARK SMILES CC1=CCC(=C(C)C)C(=O)CC(C)=CCC1
REMARK SMILES IDX 12 1 14 2 13 3 15 4 16 5 2 6 1 7 3 8 11 10 9 11 10 12 5 13
REMARK SMILES IDX 6 14 7 15 8 16 4 17
REMARK H PARENT
REMARK Flexibility Score: 60.00
ROOT
ATOM      1  C   UNL     1     -17.080  12.044 -30.431  1.00  0.00    -0.070 C 
ATOM      2  C   UNL     1     -16.491  12.634 -31.498  1.00  0.00    -0.027 C 
ATOM      3  C   UNL     1     -18.492  12.459 -30.099  1.00  0.00     0.039 C 
ENDROOT
BRANCH   2   4
ATOM      4  C   UNL     1     -15.135  12.297 -32.070  1.00  0.00     0.032 C 
BRANCH   4   5
ATOM      5  C   UNL     1     -14.205  13.522 -32.149  1.00  0.00     0.034 C 
BRANCH   5   6
ATOM      6  C   UNL     1     -14.006  14.177 -30.796  1.00  0.00    -0.077 C 
ATOM      7  C   UNL     1     -14.197  15.669 -30.687  1.00  0.00     0.039 C 
ATOM      8  C   UNL     1     -13.640  13.503 -29.682  1.00  0.00    -0.023 CG0
ATOM      9  G   UNL     1     -13.367  12.020 -29.598  1.00  0.00     0.000 G0
ENDBRANCH   5   6
ENDBRANCH   4   5
ENDBRANCH   2   4
BRANCH   1  10
ATOM     10  C   UNL     1     -16.427  10.949 -29.603  1.00  0.00     0.111 C 
BRANCH  10  11
ATOM     11  C   UNL     1     -15.620  11.522 -28.464  1.00  0.00     0.163 C 
ATOM     12  O   UNL     1     -16.235  12.146 -27.557  1.00  0.00    -0.294 OA
BRANCH  11  13
ATOM     13  C   UNL     1     -14.129  11.414 -28.417  1.00  0.00    -0.002 C 
ATOM     14  C   UNL     1     -13.487  10.747 -27.410  1.00  0.00    -0.069 C 
ATOM     15  C   UNL     1     -11.977  10.674 -27.349  1.00  0.00     0.039 C 
ATOM     16  C   UNL     1     -14.254  10.018 -26.329  1.00  0.00     0.039 C 
BRANCH  13  17
ATOM     17  C   UNL     1     -13.356  12.015 -29.577  1.00  0.00     0.066 CG0
ATOM     18  G   UNL     1     -13.637  13.496 -29.665  1.00  0.00     0.000 G0
ENDBRANCH  13  17
ENDBRANCH  11  13
ENDBRANCH  10  11
ENDBRANCH   1  10
TORSDOF 0
ENDMDL
MODEL 3
REMARK VINA RESULT:    -3.668      9.578     12.223
REMARK INTER + INTRA:          -4.740
REMARK INTER:                  -5.444
REMARK INTRA:                   0.704
REMARK UNBOUND:                 0.429
REMARK SMILES CC1=CCC(=C(C)C)C(=O)CC(C)=CCC1
REMARK SMILES IDX 12 1 14 2 13 3 15 4 16 5 2 6 1 7 3 8 11 10 9 11 10 12 5 13
REMARK SMILES IDX 6 14 7 15 8 16 4 17
REMARK H PARENT
REMARK Flexibility Score: 60.00
ROOT
ATOM      1  C   UNL     1     -28.553  13.950 -30.798  1.00  0.00    -0.070 C 
ATOM      2  C   UNL     1     -29.358  13.204 -30.005  1.00  0.00    -0.027 C 
ATOM      3  C   UNL     1     -29.209  14.759 -31.889  1.00  0.00     0.039 C 
ENDROOT
BRANCH   2   4
ATOM      4  C   UNL     1     -28.933  12.407 -28.795  1.00  0.00     0.032 C 
BRANCH   4   5
ATOM      5  C   UNL     1     -28.805  10.901 -29.094  1.00  0.00     0.034 C 
BRANCH   5   6
ATOM      6  C   UNL     1     -27.531  10.310 -28.522  1.00  0.00    -0.077 C 
ATOM      7  C   UNL     1     -27.524   9.889 -27.075  1.00  0.00     0.039 C 
ATOM      8  C   UNL     1     -26.388  10.163 -29.230  1.00  0.00    -0.023 CG0
ATOM      9  G   UNL     1     -26.187  10.557 -30.674  1.00  0.00     0.000 G0
ENDBRANCH   5   6
ENDBRANCH   4   5
ENDBRANCH   2   4
BRANCH   1  10
ATOM     10  C   UNL     1     -27.050  14.066 -30.604  1.00  0.00     0.111 C 
BRANCH  10  11
ATOM     11  C   UNL     1     -26.306  13.020 -31.396  1.00  0.00     0.163 C 
ATOM     12  O   UNL     1     -26.392  13.056 -32.653  1.00  0.00    -0.294 OA
BRANCH  11  13
ATOM     13  C   UNL     1     -25.526  11.930 -30.731  1.00  0.00    -0.002 C 
ATOM     14  C   UNL     1     -24.317  12.168 -30.139  1.00  0.00    -0.069 C 
ATOM     15  C   UNL     1     -23.516  11.053 -29.503  1.00  0.00     0.039 C 
ATOM     16  C   UNL     1     -23.736  13.563 -30.057  1.00  0.00     0.039 C 
BRANCH  13  17
ATOM     17  C   UNL     1     -26.169  10.556 -30.678  1.00  0.00     0.066 CG0
ATOM     18  G   UNL     1     -26.405  10.157 -29.241  1.00  0.00     0.000 G0
ENDBRANCH  13  17
ENDBRANCH  11  13
ENDBRANCH  10  11
ENDBRANCH   1  10
TORSDOF 0
ENDMDL
MODEL 4
REMARK VINA RESULT:    -3.668      1.657      3.725
REMARK INTER + INTRA:          -4.740
REMARK INTER:                  -5.768
REMARK INTRA:                   1.028
REMARK UNBOUND:                 0.429
REMARK SMILES CC1=CCC(=C(C)C)C(=O)CC(C)=CCC1
REMARK SMILES IDX 12 1 14 2 13 3 15 4 16 5 2 6 1 7 3 8 11 10 9 11 10 12 5 13
REMARK SMILES IDX 6 14 7 15 8 16 4 17
REMARK H PARENT
REMARK Flexibility Score: 60.00
ROOT
ATOM      1  C   UNL     1     -13.625  11.501 -28.164  1.00  0.00    -0.070 C 
ATOM      2  C   UNL     1     -14.855  11.197 -27.686  1.00  0.00    -0.027 C 
ATOM      3  C   UNL     1     -12.577  11.928 -27.167  1.00  0.00     0.039 C 
ENDROOT
BRANCH   2   4
ATOM      4  C   UNL     1     -16.015  10.650 -28.483  1.00  0.00     0.032 C 
BRANCH   4   5
ATOM      5  C   UNL     1     -17.278  11.524 -28.363  1.00  0.00     0.034 C 
BRANCH   5   6
ATOM      6  C   UNL     1     -17.635  12.195 -29.675  1.00  0.00    -0.077 C 
ATOM      7  C   UNL     1     -18.797  11.650 -30.466  1.00  0.00     0.039 C 
ATOM      8  C   UNL     1     -16.953  13.242 -30.192  1.00  0.00    -0.023 CG0
ATOM      9  G   UNL     1     -15.745  13.903 -29.570  1.00  0.00     0.000 G0
ENDBRANCH   5   6
ENDBRANCH   4   5
ENDBRANCH   2   4
BRANCH   1  10
ATOM     10  C   UNL     1     -13.231  11.369 -29.627  1.00  0.00     0.111 C 
BRANCH  10  11
ATOM     11  C   UNL     1     -14.197  12.097 -30.528  1.00  0.00     0.163 C 
ATOM     12  O   UNL     1     -14.729  11.452 -31.472  1.00  0.00    -0.294 OA
BRANCH  11  13
ATOM     13  C   UNL     1     -14.492  13.555 -30.360  1.00  0.00    -0.002 C 
ATOM     14  C   UNL     1     -13.714  14.517 -30.941  1.00  0.00    -0.069 C 
ATOM     15  C   UNL     1     -13.996  15.990 -30.735  1.00  0.00     0.039 C 
ATOM     16  C   UNL     1     -12.556  14.161 -31.847  1.00  0.00     0.039 C 
BRANCH  13  17
ATOM     17  C   UNL     1     -15.739  13.920 -29.575  1.00  0.00     0.066 CG0
ATOM     18  G   UNL     1     -16.944  13.247 -30.187  1.00  0.00     0.000 G0
ENDBRANCH  13  17
ENDBRANCH  11  13
ENDBRANCH  10  11
ENDBRANCH   1  10
TORSDOF 0
ENDMDL
MODEL 5
REMARK VINA RESULT:    -3.645      1.424      4.017
REMARK INTER + INTRA:          -4.707
REMARK INTER:                  -6.248
REMARK INTRA:                   1.541
REMARK UNBOUND:                 0.429
REMARK SMILES CC1=CCC(=C(C)C)C(=O)CC(C)=CCC1
REMARK SMILES IDX 12 1 14 2 13 3 15 4 16 5 2 6 1 7 3 8 11 10 9 11 10 12 5 13
REMARK SMILES IDX 6 14 7 15 8 16 4 17
REMARK H PARENT
REMARK Flexibility Score: 60.00
ROOT
ATOM      1  C   UNL     1     -14.349  14.358 -30.533  1.00  0.00    -0.070 C 
ATOM      2  C   UNL     1     -13.465  13.437 -30.985  1.00  0.00    -0.027 C 
ATOM      3  C   UNL     1     -14.030  15.810 -30.786  1.00  0.00     0.039 C 
ENDROOT
BRANCH   2   4
ATOM      4  C   UNL     1     -13.632  11.937 -30.936  1.00  0.00     0.032 C 
BRANCH   4   5
ATOM      5  C   UNL     1     -12.892  11.297 -29.746  1.00  0.00     0.034 C 
BRANCH   5   6
ATOM      6  C   UNL     1     -13.744  11.266 -28.492  1.00  0.00    -0.077 C 
ATOM      7  C   UNL     1     -13.084  11.565 -27.170  1.00  0.00     0.039 C 
ATOM      8  C   UNL     1     -15.061  10.959 -28.487  1.00  0.00    -0.023 CG0
ATOM      9  G   UNL     1     -15.888  10.598 -29.699  1.00  0.00     0.000 G0
ENDBRANCH   5   6
ENDBRANCH   4   5
ENDBRANCH   2   4
BRANCH   1  10
ATOM     10  C   UNL     1     -15.662  14.005 -29.853  1.00  0.00     0.111 C 
BRANCH  10  11
ATOM     11  C   UNL     1     -16.416  12.947 -30.619  1.00  0.00     0.163 C 
ATOM     12  O   UNL     1     -16.659  13.157 -31.838  1.00  0.00    -0.294 OA
BRANCH  11  13
ATOM     13  C   UNL     1     -16.917  11.699 -29.962  1.00  0.00    -0.002 C 
ATOM     14  C   UNL     1     -18.240  11.522 -29.668  1.00  0.00    -0.069 C 
ATOM     15  C   UNL     1     -18.733  10.274 -28.969  1.00  0.00     0.039 C 
ATOM     16  C   UNL     1     -19.282  12.547 -30.059  1.00  0.00     0.039 C 
BRANCH  13  17
ATOM     17  C   UNL     1     -15.901  10.602 -29.700  1.00  0.00     0.066 CG0
ATOM     18  G   UNL     1     -15.062  10.959 -28.496  1.00  0.00     0.000 G0
ENDBRANCH  13  17
ENDBRANCH  11  13
ENDBRANCH  10  11
ENDBRANCH   1  10
TORSDOF 0
ENDMDL
MODEL 6
REMARK VINA RESULT:    -3.486      2.077      4.502
REMARK INTER + INTRA:          -4.483
REMARK INTER:                  -5.308
REMARK INTRA:                   0.825
REMARK UNBOUND:                 0.429
REMARK SMILES CC1=CCC(=C(C)C)C(=O)CC(C)=CCC1
REMARK SMILES IDX 12 1 14 2 13 3 15 4 16 5 2 6 1 7 3 8 11 10 9 11 10 12 5 13
REMARK SMILES IDX 6 14 7 15 8 16 4 17
REMARK H PARENT
REMARK Flexibility Score: 60.00
ROOT
ATOM      1  C   UNL     1     -14.974  13.445 -30.977  1.00  0.00    -0.070 C 
ATOM      2  C   UNL     1     -16.279  13.784 -30.856  1.00  0.00    -0.027 C 
ATOM      3  C   UNL     1     -13.948  14.505 -30.660  1.00  0.00     0.039 C 
ENDROOT
BRANCH   2   4
ATOM      4  C   UNL     1     -17.462  12.860 -31.017  1.00  0.00     0.032 C 
BRANCH   4   5
ATOM      5  C   UNL     1     -18.296  12.734 -29.728  1.00  0.00     0.034 C 
BRANCH   5   6
ATOM      6  C   UNL     1     -18.135  11.377 -29.073  1.00  0.00    -0.077 C 
ATOM      7  C   UNL     1     -19.254  10.376 -29.214  1.00  0.00     0.039 C 
ATOM      8  C   UNL     1     -17.053  11.018 -28.343  1.00  0.00    -0.023 CG0
ATOM      9  G   UNL     1     -15.853  11.890 -28.059  1.00  0.00     0.000 G0
ENDBRANCH   5   6
ENDBRANCH   4   5
ENDBRANCH   2   4
BRANCH   1  10
ATOM     10  C   UNL     1     -14.495  12.050 -31.345  1.00  0.00     0.111 C 
BRANCH  10  11
ATOM     11  C   UNL     1     -14.822  11.049 -30.265  1.00  0.00     0.163 C 
ATOM     12  O   UNL     1     -15.307   9.938 -30.613  1.00  0.00    -0.294 OA
BRANCH  11  13
ATOM     13  C   UNL     1     -14.636  11.360 -28.813  1.00  0.00    -0.002 C 
ATOM     14  C   UNL     1     -13.419  11.241 -28.202  1.00  0.00    -0.069 C 
ATOM     15  C   UNL     1     -13.247  11.521 -26.725  1.00  0.00     0.039 C 
ATOM     16  C   UNL     1     -12.177  10.858 -28.977  1.00  0.00     0.039 C 
BRANCH  13  17
ATOM     17  C   UNL     1     -15.844  11.887 -28.060  1.00  0.00     0.066 CG0
ATOM     18  G   UNL     1     -17.044  11.016 -28.344  1.00  0.00     0.000 G0
ENDBRANCH  13  17
ENDBRANCH  11  13
ENDBRANCH  10  11
ENDBRANCH   1  10
TORSDOF 0
ENDMDL
MODEL 7
REMARK VINA RESULT:    -3.247     10.139     12.269
REMARK INTER + INTRA:          -4.146
REMARK INTER:                  -4.832
REMARK INTRA:                   0.686
REMARK UNBOUND:                 0.429
REMARK SMILES CC1=CCC(=C(C)C)C(=O)CC(C)=CCC1
REMARK SMILES IDX 12 1 14 2 13 3 15 4 16 5 2 6 1 7 3 8 11 10 9 11 10 12 5 13
REMARK SMILES IDX 6 14 7 15 8 16 4 17
REMARK H PARENT
REMARK Flexibility Score: 60.00
ROOT
ATOM      1  C   UNL     1     -25.263  13.265 -30.312  1.00  0.00    -0.070 C 
ATOM      2  C   UNL     1     -24.509  12.407 -29.584  1.00  0.00    -0.027 C 
ATOM      3  C   UNL     1     -25.696  14.547 -29.645  1.00  0.00     0.039 C 
ENDROOT
BRANCH   2   4
ATOM      4  C   UNL     1     -23.881  11.127 -30.080  1.00  0.00     0.032 C 
BRANCH   4   5
ATOM      5  C   UNL     1     -24.660   9.875 -29.633  1.00  0.00     0.034 C 
BRANCH   5   6
ATOM      6  C   UNL     1     -25.690  10.193 -28.567  1.00  0.00    -0.077 C 
ATOM      7  C   UNL     1     -25.238  10.256 -27.130  1.00  0.00     0.039 C 
ATOM      8  C   UNL     1     -27.001  10.397 -28.828  1.00  0.00    -0.023 CG0
ATOM      9  G   UNL     1     -27.649  10.339 -30.191  1.00  0.00     0.000 G0
ENDBRANCH   5   6
ENDBRANCH   4   5
ENDBRANCH   2   4
BRANCH   1  10
ATOM     10  C   UNL     1     -25.633  13.038 -31.768  1.00  0.00     0.111 C 
BRANCH  10  11
ATOM     11  C   UNL     1     -26.713  11.994 -31.909  1.00  0.00     0.163 C 
ATOM     12  O   UNL     1     -26.799  11.373 -33.002  1.00  0.00    -0.294 OA
BRANCH  11  13
ATOM     13  C   UNL     1     -27.700  11.723 -30.817  1.00  0.00    -0.002 C 
ATOM     14  C   UNL     1     -28.634  12.649 -30.445  1.00  0.00    -0.069 C 
ATOM     15  C   UNL     1     -29.603  12.382 -29.314  1.00  0.00     0.039 C 
ATOM     16  C   UNL     1     -28.771  13.971 -31.168  1.00  0.00     0.039 C 
BRANCH  13  17
ATOM     17  C   UNL     1     -27.668  10.343 -30.185  1.00  0.00     0.066 CG0
ATOM     18  G   UNL     1     -27.000  10.415 -28.832  1.00  0.00     0.000 G0
ENDBRANCH  13  17
ENDBRANCH  11  13
ENDBRANCH  10  11
ENDBRANCH   1  10
TORSDOF 0
ENDMDL
MODEL 8
REMARK VINA RESULT:    -3.009      8.926     12.262
REMARK INTER + INTRA:          -3.811
REMARK INTER:                  -5.537
REMARK INTRA:                   1.726
REMARK UNBOUND:                 0.429
REMARK SMILES CC1=CCC(=C(C)C)C(=O)CC(C)=CCC1
REMARK SMILES IDX 12 1 14 2 13 3 15 4 16 5 2 6 1 7 3 8 11 10 9 11 10 12 5 13
REMARK SMILES IDX 6 14 7 15 8 16 4 17
REMARK H PARENT
REMARK Flexibility Score: 60.00
ROOT
ATOM      1  C   UNL     1     -27.270  13.468 -31.234  1.00  0.00    -0.070 C 
ATOM      2  C   UNL     1     -28.573  13.110 -31.140  1.00  0.00    -0.027 C 
ATOM      3  C   UNL     1     -26.618  13.370 -32.590  1.00  0.00     0.039 C 
ENDROOT
BRANCH   2   4
ATOM      4  C   UNL     1     -29.447  13.228 -29.915  1.00  0.00     0.032 C 
BRANCH   4   5
ATOM      5  C   UNL     1     -29.253  12.056 -28.935  1.00  0.00     0.034 C 
BRANCH   5   6
ATOM      6  C   UNL     1     -28.486  10.908 -29.560  1.00  0.00    -0.077 C 
ATOM      7  C   UNL     1     -29.235   9.946 -30.448  1.00  0.00     0.039 C 
ATOM      8  C   UNL     1     -27.170  10.680 -29.347  1.00  0.00    -0.023 CG0
ATOM      9  G   UNL     1     -26.263  11.506 -28.467  1.00  0.00     0.000 G0
ENDBRANCH   5   6
ENDBRANCH   4   5
ENDBRANCH   2   4
BRANCH   1  10
ATOM     10  C   UNL     1     -26.461  14.022 -30.072  1.00  0.00     0.111 C 
BRANCH  10  11
ATOM     11  C   UNL     1     -25.144  13.303 -29.921  1.00  0.00     0.163 C 
ATOM     12  O   UNL     1     -24.118  13.833 -30.425  1.00  0.00    -0.294 OA
BRANCH  11  13
ATOM     13  C   UNL     1     -25.042  11.973 -29.242  1.00  0.00    -0.002 C 
ATOM     14  C   UNL     1     -23.890  11.237 -29.272  1.00  0.00    -0.069 C 
ATOM     15  C   UNL     1     -23.806   9.876 -28.616  1.00  0.00     0.039 C 
ATOM     16  C   UNL     1     -22.632  11.761 -29.929  1.00  0.00     0.039 C 
BRANCH  13  17
ATOM     17  C   UNL     1     -26.252  11.505 -28.454  1.00  0.00     0.066 CG0
ATOM     18  G   UNL     1     -27.160  10.693 -29.347  1.00  0.00     0.000 G0
ENDBRANCH  13  17
ENDBRANCH  11  13
ENDBRANCH  10  11
ENDBRANCH   1  10
TORSDOF 0
ENDMDL
MODEL 9
REMARK VINA RESULT:    -2.935     10.770     12.691
REMARK INTER + INTRA:          -3.707
REMARK INTER:                  -4.424
REMARK INTRA:                   0.717
REMARK UNBOUND:                 0.429
REMARK SMILES CC1=CCC(=C(C)C)C(=O)CC(C)=CCC1
REMARK SMILES IDX 12 1 14 2 13 3 15 4 16 5 2 6 1 7 3 8 11 10 9 11 10 12 5 13
REMARK SMILES IDX 6 14 7 15 8 16 4 17
REMARK H PARENT
REMARK Flexibility Score: 60.00
ROOT
ATOM      1  C   UNL     1     -28.775  12.889 -29.485  1.00  0.00    -0.070 C 
ATOM      2  C   UNL     1     -28.242  13.855 -30.271  1.00  0.00    -0.027 C 
ATOM      3  C   UNL     1     -28.996  13.221 -28.030  1.00  0.00     0.039 C 
ENDROOT
BRANCH   2   4
ATOM      4  C   UNL     1     -28.035  13.779 -31.765  1.00  0.00     0.032 C 
BRANCH   4   5
ATOM      5  C   UNL     1     -26.628  13.278 -32.142  1.00  0.00     0.034 C 
BRANCH   5   6
ATOM      6  C   UNL     1     -25.632  13.468 -31.014  1.00  0.00    -0.077 C 
ATOM      7  C   UNL     1     -25.130  14.861 -30.730  1.00  0.00     0.039 C 
ATOM      8  C   UNL     1     -25.146  12.454 -30.263  1.00  0.00    -0.023 CG0
ATOM      9  G   UNL     1     -25.499  10.994 -30.418  1.00  0.00     0.000 G0
ENDBRANCH   5   6
ENDBRANCH   4   5
ENDBRANCH   2   4
BRANCH   1  10
ATOM     10  C   UNL     1     -29.219  11.530 -30.001  1.00  0.00     0.111 C 
BRANCH  10  11
ATOM     11  C   UNL     1     -28.041  10.684 -30.417  1.00  0.00     0.163 C 
ATOM     12  O   UNL     1     -28.173   9.940 -31.426  1.00  0.00    -0.294 OA
BRANCH  11  13
ATOM     13  C   UNL     1     -26.762  10.670 -29.641  1.00  0.00    -0.002 C 
ATOM     14  C   UNL     1     -26.727  10.335 -28.316  1.00  0.00    -0.069 C 
ATOM     15  C   UNL     1     -25.435  10.360 -27.529  1.00  0.00     0.039 C 
ATOM     16  C   UNL     1     -27.971   9.886 -27.580  1.00  0.00     0.039 C 
BRANCH  13  17
ATOM     17  C   UNL     1     -25.487  10.975 -30.407  1.00  0.00     0.066 CG0
ATOM     18  G   UNL     1     -25.142  12.438 -30.264  1.00  0.00     0.000 G0
ENDBRANCH  13  17
ENDBRANCH  11  13
ENDBRANCH  10  11
ENDBRANCH   1  10
TORSDOF 0
ENDMDL
