MODEL 1
REMARK VINA RESULT:    -4.133      0.000      0.000
REMARK INTER + INTRA:          -5.673
REMARK INTER:                  -5.825
REMARK INTRA:                   0.152
REMARK UNBOUND:                 0.152
REMARK SMILES CC1=CCC(=C(C)C)C(=O)CC(C)=CCC1
REMARK SMILES IDX 12 1 14 2 13 3 15 4 16 5 2 6 1 7 3 8 11 10 9 11 10 12 5 13
REMARK SMILES IDX 6 14 7 15 8 16 4 17
REMARK H PARENT
REMARK Flexibility Score: 60.00
ROOT
ATOM      1  C   UNL     1       7.154 -16.099  22.953  1.00  0.00    -0.070 C 
ATOM      2  C   UNL     1       8.032 -15.251  23.534  1.00  0.00    -0.027 C 
ATOM      3  C   UNL     1       6.814 -15.889  21.499  1.00  0.00     0.039 C 
ENDROOT
BRANCH   2   4
ATOM      4  C   UNL     1       8.584 -15.382  24.934  1.00  0.00     0.032 C 
BRANCH   4   5
ATOM      5  C   UNL     1      10.086 -15.693  25.020  1.00  0.00     0.034 C 
BRANCH   5   6
ATOM      6  C   UNL     1      10.703 -16.128  23.704  1.00  0.00    -0.077 C 
ATOM      7  C   UNL     1      11.503 -15.108  22.933  1.00  0.00     0.039 C 
ATOM      8  C   UNL     1      10.527 -17.346  23.133  1.00  0.00    -0.023 CG0
ATOM      9  G   UNL     1       9.897 -18.588  23.735  1.00  0.00     0.000 G0
ENDBRANCH   5   6
ENDBRANCH   4   5
ENDBRANCH   2   4
BRANCH   1  10
ATOM     10  C   UNL     1       6.430 -17.195  23.706  1.00  0.00     0.111 C 
BRANCH  10  11
ATOM     11  C   UNL     1       7.399 -18.220  24.238  1.00  0.00     0.163 C 
ATOM     12  O   UNL     1       7.349 -18.532  25.458  1.00  0.00    -0.294 OA
BRANCH  11  13
ATOM     13  C   UNL     1       8.422 -18.867  23.374  1.00  0.00    -0.002 C 
ATOM     14  C   UNL     1       8.047 -19.766  22.421  1.00  0.00    -0.069 C 
ATOM     15  C   UNL     1       9.068 -20.537  21.618  1.00  0.00     0.039 C 
ATOM     16  C   UNL     1       6.586 -20.003  22.120  1.00  0.00     0.039 C 
BRANCH  13  17
ATOM     17  C   UNL     1       9.876 -18.614  23.722  1.00  0.00     0.066 CG0
ATOM     18  G   UNL     1      10.521 -17.368  23.145  1.00  0.00     0.000 G0
ENDBRANCH  13  17
ENDBRANCH  11  13
ENDBRANCH  10  11
ENDBRANCH   1  10
TORSDOF 0
ENDMDL
MODEL 2
REMARK VINA RESULT:    -4.115      2.540      3.669
REMARK INTER + INTRA:          -5.648
REMARK INTER:                  -5.480
REMARK INTRA:                  -0.168
REMARK UNBOUND:                 0.152
REMARK SMILES CC1=CCC(=C(C)C)C(=O)CC(C)=CCC1
REMARK SMILES IDX 12 1 14 2 13 3 15 4 16 5 2 6 1 7 3 8 11 10 9 11 10 12 5 13
REMARK SMILES IDX 6 14 7 15 8 16 4 17
REMARK H PARENT
REMARK Flexibility Score: 60.00
ROOT
ATOM      1  C   UNL     1       6.839 -18.486  24.138  1.00  0.00    -0.070 C 
ATOM      2  C   UNL     1       6.647 -17.147  24.157  1.00  0.00    -0.027 C 
ATOM      3  C   UNL     1       7.137 -19.184  25.440  1.00  0.00     0.039 C 
ENDROOT
BRANCH   2   4
ATOM      4  C   UNL     1       6.217 -16.304  22.980  1.00  0.00     0.032 C 
BRANCH   4   5
ATOM      5  C   UNL     1       7.362 -15.732  22.131  1.00  0.00     0.034 C 
BRANCH   5   6
ATOM      6  C   UNL     1       7.153 -15.874  20.635  1.00  0.00    -0.077 C 
ATOM      7  C   UNL     1       6.195 -14.920  19.966  1.00  0.00     0.039 C 
ATOM      8  C   UNL     1       7.710 -16.843  19.866  1.00  0.00    -0.023 CG0
ATOM      9  G   UNL     1       8.798 -17.834  20.237  1.00  0.00     0.000 G0
ENDBRANCH   5   6
ENDBRANCH   4   5
ENDBRANCH   2   4
BRANCH   1  10
ATOM     10  C   UNL     1       6.853 -19.307  22.866  1.00  0.00     0.111 C 
BRANCH  10  11
ATOM     11  C   UNL     1       8.219 -19.296  22.227  1.00  0.00     0.163 C 
ATOM     12  O   UNL     1       9.238 -19.369  22.965  1.00  0.00    -0.294 OA
BRANCH  11  13
ATOM     13  C   UNL     1       8.404 -19.190  20.755  1.00  0.00    -0.002 C 
ATOM     14  C   UNL     1       8.348 -20.304  19.974  1.00  0.00    -0.069 C 
ATOM     15  C   UNL     1       8.662 -20.250  18.497  1.00  0.00     0.039 C 
ATOM     16  C   UNL     1       7.943 -21.636  20.561  1.00  0.00     0.039 C 
BRANCH  13  17
ATOM     17  C   UNL     1       8.826 -17.838  20.211  1.00  0.00     0.066 CG0
ATOM     18  G   UNL     1       7.723 -16.852  19.875  1.00  0.00     0.000 G0
ENDBRANCH  13  17
ENDBRANCH  11  13
ENDBRANCH  10  11
ENDBRANCH   1  10
TORSDOF 0
ENDMDL
MODEL 3
REMARK VINA RESULT:    -4.088      1.640      4.244
REMARK INTER + INTRA:          -5.610
REMARK INTER:                  -5.598
REMARK INTRA:                  -0.012
REMARK UNBOUND:                 0.152
REMARK SMILES CC1=CCC(=C(C)C)C(=O)CC(C)=CCC1
REMARK SMILES IDX 12 1 14 2 13 3 15 4 16 5 2 6 1 7 3 8 11 10 9 11 10 12 5 13
REMARK SMILES IDX 6 14 7 15 8 16 4 17
REMARK H PARENT
REMARK Flexibility Score: 60.00
ROOT
ATOM      1  C   UNL     1       7.231 -18.276  24.536  1.00  0.00    -0.070 C 
ATOM      2  C   UNL     1       7.120 -19.405  23.799  1.00  0.00    -0.027 C 
ATOM      3  C   UNL     1       8.094 -18.312  25.771  1.00  0.00     0.039 C 
ENDROOT
BRANCH   2   4
ATOM      4  C   UNL     1       6.407 -19.521  22.473  1.00  0.00     0.032 C 
BRANCH   4   5
ATOM      5  C   UNL     1       7.290 -19.312  21.234  1.00  0.00     0.034 C 
BRANCH   5   6
ATOM      6  C   UNL     1       8.779 -19.353  21.522  1.00  0.00    -0.077 C 
ATOM      7  C   UNL     1       9.445 -20.706  21.579  1.00  0.00     0.039 C 
ATOM      8  C   UNL     1       9.541 -18.267  21.804  1.00  0.00    -0.023 CG0
ATOM      9  G   UNL     1       9.175 -16.800  21.686  1.00  0.00     0.000 G0
ENDBRANCH   5   6
ENDBRANCH   4   5
ENDBRANCH   2   4
BRANCH   1  10
ATOM     10  C   UNL     1       6.467 -17.005  24.233  1.00  0.00     0.111 C 
BRANCH  10  11
ATOM     11  C   UNL     1       7.108 -16.243  23.100  1.00  0.00     0.163 C 
ATOM     12  O   UNL     1       6.369 -15.661  22.261  1.00  0.00    -0.294 OA
BRANCH  11  13
ATOM     13  C   UNL     1       8.583 -16.165  22.933  1.00  0.00    -0.002 C 
ATOM     14  C   UNL     1       9.331 -15.404  23.778  1.00  0.00    -0.069 C 
ATOM     15  C   UNL     1      10.811 -15.198  23.557  1.00  0.00     0.039 C 
ATOM     16  C   UNL     1       8.702 -14.755  24.990  1.00  0.00     0.039 C 
BRANCH  13  17
ATOM     17  C   UNL     1       9.170 -16.816  21.695  1.00  0.00     0.066 CG0
ATOM     18  G   UNL     1       9.554 -18.280  21.798  1.00  0.00     0.000 G0
ENDBRANCH  13  17
ENDBRANCH  11  13
ENDBRANCH  10  11
ENDBRANCH   1  10
TORSDOF 0
ENDMDL
MODEL 4
REMARK VINA RESULT:    -4.050      9.990     11.739
REMARK INTER + INTRA:          -5.556
REMARK INTER:                  -5.732
REMARK INTRA:                   0.175
REMARK UNBOUND:                 0.152
REMARK SMILES CC1=CCC(=C(C)C)C(=O)CC(C)=CCC1
REMARK SMILES IDX 12 1 14 2 13 3 15 4 16 5 2 6 1 7 3 8 11 10 9 11 10 12 5 13
REMARK SMILES IDX 6 14 7 15 8 16 4 17
REMARK H PARENT
REMARK Flexibility Score: 60.00
ROOT
ATOM      1  C   UNL     1      19.306 -18.889  22.464  1.00  0.00    -0.070 C 
ATOM      2  C   UNL     1      17.968 -18.874  22.265  1.00  0.00    -0.027 C 
ATOM      3  C   UNL     1      20.187 -18.210  21.447  1.00  0.00     0.039 C 
ENDROOT
BRANCH   2   4
ATOM      4  C   UNL     1      16.931 -19.388  23.235  1.00  0.00     0.032 C 
BRANCH   4   5
ATOM      5  C   UNL     1      16.502 -20.847  23.023  1.00  0.00     0.034 C 
BRANCH   5   6
ATOM      6  C   UNL     1      16.726 -21.738  24.230  1.00  0.00    -0.077 C 
ATOM      7  C   UNL     1      15.681 -21.721  25.318  1.00  0.00     0.039 C 
ATOM      8  C   UNL     1      17.832 -22.496  24.436  1.00  0.00    -0.023 CG0
ATOM      9  G   UNL     1      18.957 -22.807  23.468  1.00  0.00     0.000 G0
ENDBRANCH   5   6
ENDBRANCH   4   5
ENDBRANCH   2   4
BRANCH   1  10
ATOM     10  C   UNL     1      19.970 -19.625  23.609  1.00  0.00     0.111 C 
BRANCH  10  11
ATOM     11  C   UNL     1      20.625 -20.896  23.131  1.00  0.00     0.163 C 
ATOM     12  O   UNL     1      21.446 -20.838  22.176  1.00  0.00    -0.294 OA
BRANCH  11  13
ATOM     13  C   UNL     1      20.326 -22.219  23.740  1.00  0.00    -0.002 C 
ATOM     14  C   UNL     1      21.301 -22.913  24.390  1.00  0.00    -0.069 C 
ATOM     15  C   UNL     1      21.065 -24.313  24.904  1.00  0.00     0.039 C 
ATOM     16  C   UNL     1      22.653 -22.287  24.639  1.00  0.00     0.039 C 
BRANCH  13  17
ATOM     17  C   UNL     1      18.961 -22.816  23.451  1.00  0.00     0.066 CG0
ATOM     18  G   UNL     1      17.843 -22.493  24.423  1.00  0.00     0.000 G0
ENDBRANCH  13  17
ENDBRANCH  11  13
ENDBRANCH  10  11
ENDBRANCH   1  10
TORSDOF 0
ENDMDL
MODEL 5
REMARK VINA RESULT:    -3.927      2.573      3.476
REMARK INTER + INTRA:          -5.383
REMARK INTER:                  -5.268
REMARK INTRA:                  -0.115
REMARK UNBOUND:                 0.152
REMARK SMILES CC1=CCC(=C(C)C)C(=O)CC(C)=CCC1
REMARK SMILES IDX 12 1 14 2 13 3 15 4 16 5 2 6 1 7 3 8 11 10 9 11 10 12 5 13
REMARK SMILES IDX 6 14 7 15 8 16 4 17
REMARK H PARENT
REMARK Flexibility Score: 60.00
ROOT
ATOM      1  C   UNL     1       7.087 -15.584  21.043  1.00  0.00    -0.070 C 
ATOM      2  C   UNL     1       6.661 -15.403  22.315  1.00  0.00    -0.027 C 
ATOM      3  C   UNL     1       6.380 -14.837  19.941  1.00  0.00     0.039 C 
ENDROOT
BRANCH   2   4
ATOM      4  C   UNL     1       7.324 -15.964  23.550  1.00  0.00     0.032 C 
BRANCH   4   5
ATOM      5  C   UNL     1       6.607 -17.161  24.191  1.00  0.00     0.034 C 
BRANCH   5   6
ATOM      6  C   UNL     1       7.508 -18.354  24.450  1.00  0.00    -0.077 C 
ATOM      7  C   UNL     1       8.182 -18.447  25.796  1.00  0.00     0.039 C 
ATOM      8  C   UNL     1       7.809 -19.308  23.533  1.00  0.00    -0.023 CG0
ATOM      9  G   UNL     1       7.182 -19.539  22.171  1.00  0.00     0.000 G0
ENDBRANCH   5   6
ENDBRANCH   4   5
ENDBRANCH   2   4
BRANCH   1  10
ATOM     10  C   UNL     1       8.179 -16.559  20.661  1.00  0.00     0.111 C 
BRANCH  10  11
ATOM     11  C   UNL     1       7.601 -17.895  20.266  1.00  0.00     0.163 C 
ATOM     12  O   UNL     1       6.749 -17.941  19.339  1.00  0.00    -0.294 OA
BRANCH  11  13
ATOM     13  C   UNL     1       7.995 -19.159  20.943  1.00  0.00    -0.002 C 
ATOM     14  C   UNL     1       8.929 -19.976  20.383  1.00  0.00    -0.069 C 
ATOM     15  C   UNL     1       9.255 -21.327  20.976  1.00  0.00     0.039 C 
ATOM     16  C   UNL     1       9.694 -19.541  19.155  1.00  0.00     0.039 C 
BRANCH  13  17
ATOM     17  C   UNL     1       7.190 -19.565  22.163  1.00  0.00     0.066 CG0
ATOM     18  G   UNL     1       7.814 -19.309  23.522  1.00  0.00     0.000 G0
ENDBRANCH  13  17
ENDBRANCH  11  13
ENDBRANCH  10  11
ENDBRANCH   1  10
TORSDOF 0
ENDMDL
MODEL 6
REMARK VINA RESULT:    -3.908      1.970      4.400
REMARK INTER + INTRA:          -5.356
REMARK INTER:                  -5.313
REMARK INTRA:                  -0.043
REMARK UNBOUND:                 0.152
REMARK SMILES CC1=CCC(=C(C)C)C(=O)CC(C)=CCC1
REMARK SMILES IDX 12 1 14 2 13 3 15 4 16 5 2 6 1 7 3 8 11 10 9 11 10 12 5 13
REMARK SMILES IDX 6 14 7 15 8 16 4 17
REMARK H PARENT
REMARK Flexibility Score: 60.00
ROOT
ATOM      1  C   UNL     1      10.188 -17.742  25.169  1.00  0.00    -0.070 C 
ATOM      2  C   UNL     1       8.952 -18.265  25.336  1.00  0.00    -0.027 C 
ATOM      3  C   UNL     1      11.341 -18.689  24.954  1.00  0.00     0.039 C 
ENDROOT
BRANCH   2   4
ATOM      4  C   UNL     1       7.670 -17.473  25.436  1.00  0.00     0.032 C 
BRANCH   4   5
ATOM      5  C   UNL     1       6.854 -17.380  24.138  1.00  0.00     0.034 C 
BRANCH   5   6
ATOM      6  C   UNL     1       7.391 -18.239  23.008  1.00  0.00    -0.077 C 
ATOM      7  C   UNL     1       6.892 -19.659  22.907  1.00  0.00     0.039 C 
ATOM      8  C   UNL     1       8.343 -17.846  22.125  1.00  0.00    -0.023 CG0
ATOM      9  G   UNL     1       8.915 -16.457  21.909  1.00  0.00     0.000 G0
ENDBRANCH   5   6
ENDBRANCH   4   5
ENDBRANCH   2   4
BRANCH   1  10
ATOM     10  C   UNL     1      10.488 -16.262  25.271  1.00  0.00     0.111 C 
BRANCH  10  11
ATOM     11  C   UNL     1      10.036 -15.529  24.033  1.00  0.00     0.163 C 
ATOM     12  O   UNL     1       9.499 -14.396  24.156  1.00  0.00    -0.294 OA
BRANCH  11  13
ATOM     13  C   UNL     1      10.191 -16.105  22.671  1.00  0.00    -0.002 C 
ATOM     14  C   UNL     1      11.418 -16.159  22.083  1.00  0.00    -0.069 C 
ATOM     15  C   UNL     1      11.591 -16.615  20.653  1.00  0.00     0.039 C 
ATOM     16  C   UNL     1      12.659 -15.783  22.859  1.00  0.00     0.039 C 
BRANCH  13  17
ATOM     17  C   UNL     1       8.918 -16.454  21.922  1.00  0.00     0.066 CG0
ATOM     18  G   UNL     1       8.363 -17.853  22.114  1.00  0.00     0.000 G0
ENDBRANCH  13  17
ENDBRANCH  11  13
ENDBRANCH  10  11
ENDBRANCH   1  10
TORSDOF 0
ENDMDL
MODEL 7
REMARK VINA RESULT:    -3.855     12.883     14.350
REMARK INTER + INTRA:          -5.281
REMARK INTER:                  -5.127
REMARK INTRA:                  -0.154
REMARK UNBOUND:                 0.152
REMARK SMILES CC1=CCC(=C(C)C)C(=O)CC(C)=CCC1
REMARK SMILES IDX 12 1 14 2 13 3 15 4 16 5 2 6 1 7 3 8 11 10 9 11 10 12 5 13
REMARK SMILES IDX 6 14 7 15 8 16 4 17
REMARK H PARENT
REMARK Flexibility Score: 60.00
ROOT
ATOM      1  C   UNL     1      18.047 -25.433  24.591  1.00  0.00    -0.070 C 
ATOM      2  C   UNL     1      17.900 -24.103  24.395  1.00  0.00    -0.027 C 
ATOM      3  C   UNL     1      16.910 -26.192  25.226  1.00  0.00     0.039 C 
ENDROOT
BRANCH   2   4
ATOM      4  C   UNL     1      18.874 -23.210  23.665  1.00  0.00     0.032 C 
BRANCH   4   5
ATOM      5  C   UNL     1      19.786 -22.362  24.564  1.00  0.00     0.034 C 
BRANCH   5   6
ATOM      6  C   UNL     1      21.251 -22.406  24.174  1.00  0.00    -0.077 C 
ATOM      7  C   UNL     1      21.733 -21.420  23.140  1.00  0.00     0.039 C 
ATOM      8  C   UNL     1      22.146 -23.316  24.635  1.00  0.00    -0.023 CG0
ATOM      9  G   UNL     1      21.978 -24.317  25.762  1.00  0.00     0.000 G0
ENDBRANCH   5   6
ENDBRANCH   4   5
ENDBRANCH   2   4
BRANCH   1  10
ATOM     10  C   UNL     1      19.326 -26.184  24.285  1.00  0.00     0.111 C 
BRANCH  10  11
ATOM     11  C   UNL     1      20.250 -26.192  25.476  1.00  0.00     0.163 C 
ATOM     12  O   UNL     1      19.802 -26.566  26.593  1.00  0.00    -0.294 OA
BRANCH  11  13
ATOM     13  C   UNL     1      21.670 -25.763  25.379  1.00  0.00    -0.002 C 
ATOM     14  C   UNL     1      22.647 -26.673  25.112  1.00  0.00    -0.069 C 
ATOM     15  C   UNL     1      24.109 -26.294  25.137  1.00  0.00     0.039 C 
ATOM     16  C   UNL     1      22.293 -28.098  24.754  1.00  0.00     0.039 C 
BRANCH  13  17
ATOM     17  C   UNL     1      21.982 -24.328  25.763  1.00  0.00     0.066 CG0
ATOM     18  G   UNL     1      22.148 -23.329  24.633  1.00  0.00     0.000 G0
ENDBRANCH  13  17
ENDBRANCH  11  13
ENDBRANCH  10  11
ENDBRANCH   1  10
TORSDOF 0
ENDMDL
MODEL 8
REMARK VINA RESULT:    -3.794      2.182      3.880
REMARK INTER + INTRA:          -5.195
REMARK INTER:                  -5.059
REMARK INTRA:                  -0.135
REMARK UNBOUND:                 0.152
REMARK SMILES CC1=CCC(=C(C)C)C(=O)CC(C)=CCC1
REMARK SMILES IDX 12 1 14 2 13 3 15 4 16 5 2 6 1 7 3 8 11 10 9 11 10 12 5 13
REMARK SMILES IDX 6 14 7 15 8 16 4 17
REMARK H PARENT
REMARK Flexibility Score: 60.00
ROOT
ATOM      1  C   UNL     1       9.801 -16.529  24.269  1.00  0.00    -0.070 C 
ATOM      2  C   UNL     1       9.056 -16.467  25.396  1.00  0.00    -0.027 C 
ATOM      3  C   UNL     1      10.443 -15.261  23.766  1.00  0.00     0.039 C 
ENDROOT
BRANCH   2   4
ATOM      4  C   UNL     1       8.447 -17.648  26.112  1.00  0.00     0.032 C 
BRANCH   4   5
ATOM      5  C   UNL     1       7.038 -18.044  25.643  1.00  0.00     0.034 C 
BRANCH   5   6
ATOM      6  C   UNL     1       6.878 -19.524  25.351  1.00  0.00    -0.077 C 
ATOM      7  C   UNL     1       6.776 -20.465  26.525  1.00  0.00     0.039 C 
ATOM      8  C   UNL     1       6.891 -20.072  24.110  1.00  0.00    -0.023 CG0
ATOM      9  G   UNL     1       6.843 -19.368  22.767  1.00  0.00     0.000 G0
ENDBRANCH   5   6
ENDBRANCH   4   5
ENDBRANCH   2   4
BRANCH   1  10
ATOM     10  C   UNL     1       9.956 -17.787  23.440  1.00  0.00     0.111 C 
BRANCH  10  11
ATOM     11  C   UNL     1       8.892 -17.870  22.375  1.00  0.00     0.163 C 
ATOM     12  O   UNL     1       8.588 -16.828  21.734  1.00  0.00    -0.294 OA
BRANCH  11  13
ATOM     13  C   UNL     1       8.181 -19.138  22.063  1.00  0.00    -0.002 C 
ATOM     14  C   UNL     1       8.639 -19.958  21.077  1.00  0.00    -0.069 C 
ATOM     15  C   UNL     1       7.868 -21.184  20.647  1.00  0.00     0.039 C 
ATOM     16  C   UNL     1       9.956 -19.677  20.392  1.00  0.00     0.039 C 
BRANCH  13  17
ATOM     17  C   UNL     1       6.855 -19.372  22.761  1.00  0.00     0.066 CG0
ATOM     18  G   UNL     1       6.894 -20.070  24.107  1.00  0.00     0.000 G0
ENDBRANCH  13  17
ENDBRANCH  11  13
ENDBRANCH  10  11
ENDBRANCH   1  10
TORSDOF 0
ENDMDL
MODEL 9
REMARK VINA RESULT:    -3.764      2.167      3.215
REMARK INTER + INTRA:          -5.153
REMARK INTER:                  -5.369
REMARK INTRA:                   0.216
REMARK UNBOUND:                 0.152
REMARK SMILES CC1=CCC(=C(C)C)C(=O)CC(C)=CCC1
REMARK SMILES IDX 12 1 14 2 13 3 15 4 16 5 2 6 1 7 3 8 11 10 9 11 10 12 5 13
REMARK SMILES IDX 6 14 7 15 8 16 4 17
REMARK H PARENT
REMARK Flexibility Score: 60.00
ROOT
ATOM      1  C   UNL     1       6.760 -18.900  23.709  1.00  0.00    -0.070 C 
ATOM      2  C   UNL     1       6.712 -17.614  24.124  1.00  0.00    -0.027 C 
ATOM      3  C   UNL     1       6.943 -19.979  24.746  1.00  0.00     0.039 C 
ENDROOT
BRANCH   2   4
ATOM      4  C   UNL     1       6.410 -16.420  23.250  1.00  0.00     0.032 C 
BRANCH   4   5
ATOM      5  C   UNL     1       7.507 -15.346  23.206  1.00  0.00     0.034 C 
BRANCH   5   6
ATOM      6  C   UNL     1       8.908 -15.901  23.038  1.00  0.00    -0.077 C 
ATOM      7  C   UNL     1       9.888 -15.687  24.165  1.00  0.00     0.039 C 
ATOM      8  C   UNL     1       9.368 -16.513  21.918  1.00  0.00    -0.023 CG0
ATOM      9  G   UNL     1       8.582 -16.977  20.706  1.00  0.00     0.000 G0
ENDBRANCH   5   6
ENDBRANCH   4   5
ENDBRANCH   2   4
BRANCH   1  10
ATOM     10  C   UNL     1       6.723 -19.308  22.251  1.00  0.00     0.111 C 
BRANCH  10  11
ATOM     11  C   UNL     1       8.107 -19.309  21.653  1.00  0.00     0.163 C 
ATOM     12  O   UNL     1       8.997 -20.033  22.175  1.00  0.00    -0.294 OA
BRANCH  11  13
ATOM     13  C   UNL     1       8.460 -18.476  20.473  1.00  0.00    -0.002 C 
ATOM     14  C   UNL     1       8.816 -19.065  19.298  1.00  0.00    -0.069 C 
ATOM     15  C   UNL     1       9.306 -18.251  18.123  1.00  0.00     0.039 C 
ATOM     16  C   UNL     1       8.706 -20.561  19.123  1.00  0.00     0.039 C 
BRANCH  13  17
ATOM     17  C   UNL     1       8.574 -16.980  20.698  1.00  0.00     0.066 CG0
ATOM     18  G   UNL     1       9.360 -16.519  21.911  1.00  0.00     0.000 G0
ENDBRANCH  13  17
ENDBRANCH  11  13
ENDBRANCH  10  11
ENDBRANCH   1  10
TORSDOF 0
ENDMDL
