MODEL 1
REMARK VINA RESULT:    -4.530      0.000      0.000
REMARK INTER + INTRA:         -11.817
REMARK INTER:                  -9.826
REMARK INTRA:                  -1.991
REMARK UNBOUND:                -1.991
REMARK SMILES CCCCCCCCCCCCCCCCCCCCCC(=O)[O-]
REMARK SMILES IDX 12 1 11 2 10 3 9 4 8 5 7 6 6 7 5 8 4 9 3 10 2 11 1 12 13 13
REMARK SMILES IDX 14 14 15 15 16 16 17 17 18 18 19 19 20 20 21 21 22 22 23 23
REMARK SMILES IDX 24 24
REMARK H PARENT
REMARK Flexibility Score: inf
ROOT
ATOM      1  C   UNL     1     -10.979   6.007  29.278  1.00  0.00     0.000 C 
ENDROOT
BRANCH   1   2
ATOM      2  C   UNL     1     -12.017   5.418  30.246  1.00  0.00     0.000 C 
BRANCH   2   3
ATOM      3  C   UNL     1     -11.367   4.642  31.405  1.00  0.00     0.000 C 
BRANCH   3   4
ATOM      4  C   UNL     1     -11.041   3.186  31.030  1.00  0.00    -0.000 C 
BRANCH   4   5
ATOM      5  C   UNL     1      -9.531   2.909  30.993  1.00  0.00    -0.000 C 
BRANCH   5   6
ATOM      6  C   UNL     1      -8.815   3.619  32.148  1.00  0.00    -0.000 C 
BRANCH   6   7
ATOM      7  C   UNL     1      -7.926   4.759  31.630  1.00  0.00    -0.000 C 
BRANCH   7   8
ATOM      8  C   UNL     1      -6.428   4.406  31.639  1.00  0.00    -0.000 C 
BRANCH   8   9
ATOM      9  C   UNL     1      -5.489   5.562  32.029  1.00  0.00    -0.000 C 
BRANCH   9  10
ATOM     10  C   UNL     1      -5.236   5.645  33.541  1.00  0.00    -0.000 C 
BRANCH  10  11
ATOM     11  C   UNL     1      -3.804   6.109  33.832  1.00  0.00    -0.003 C 
ATOM     12  C   UNL     1      -3.690   7.628  33.752  1.00  0.00     0.004 C 
ENDBRANCH  10  11
ENDBRANCH   9  10
ENDBRANCH   8   9
ENDBRANCH   7   8
ENDBRANCH   6   7
ENDBRANCH   5   6
ENDBRANCH   4   5
ENDBRANCH   3   4
ENDBRANCH   2   3
ENDBRANCH   1   2
BRANCH   1  13
ATOM     13  C   UNL     1     -10.248   7.228  29.864  1.00  0.00     0.000 C 
BRANCH  13  14
ATOM     14  C   UNL     1     -10.907   8.564  29.477  1.00  0.00     0.000 C 
BRANCH  14  15
ATOM     15  C   UNL     1     -11.878   8.489  28.285  1.00  0.00     0.000 C 
BRANCH  15  16
ATOM     16  C   UNL     1     -13.325   8.848  28.667  1.00  0.00     0.000 C 
BRANCH  16  17
ATOM     17  C   UNL     1     -14.280   7.648  28.556  1.00  0.00     0.000 C 
BRANCH  17  18
ATOM     18  C   UNL     1     -15.152   7.462  29.806  1.00  0.00     0.000 C 
BRANCH  18  19
ATOM     19  C   UNL     1     -15.780   6.061  29.833  1.00  0.00     0.000 C 
BRANCH  19  20
ATOM     20  C   UNL     1     -16.077   5.565  31.260  1.00  0.00     0.006 C 
BRANCH  20  21
ATOM     21  C   UNL     1     -15.258   4.336  31.688  1.00  0.00     0.053 C 
BRANCH  21  22
ATOM     22  C   UNL     1     -15.950   3.544  32.754  1.00  0.00     0.041 C 
ATOM     23  O   UNL     1     -17.121   3.844  33.109  1.00  0.00    -0.550 OA
ATOM     24  O   UNL     1     -15.315   2.451  33.331  1.00  0.00    -0.550 OA
ENDBRANCH  21  22
ENDBRANCH  20  21
ENDBRANCH  19  20
ENDBRANCH  18  19
ENDBRANCH  17  18
ENDBRANCH  16  17
ENDBRANCH  15  16
ENDBRANCH  14  15
ENDBRANCH  13  14
ENDBRANCH   1  13
TORSDOF 20
ENDMDL
MODEL 2
REMARK VINA RESULT:    -4.463      3.029      7.870
REMARK INTER + INTRA:         -11.673
REMARK INTER:                  -8.974
REMARK INTRA:                  -2.699
REMARK UNBOUND:                -1.991
REMARK SMILES CCCCCCCCCCCCCCCCCCCCCC(=O)[O-]
REMARK SMILES IDX 12 1 11 2 10 3 9 4 8 5 7 6 6 7 5 8 4 9 3 10 2 11 1 12 13 13
REMARK SMILES IDX 14 14 15 15 16 16 17 17 18 18 19 19 20 20 21 21 22 22 23 23
REMARK SMILES IDX 24 24
REMARK H PARENT
REMARK Flexibility Score: inf
ROOT
ATOM      1  C   UNL     1     -11.643   6.179  27.853  1.00  0.00     0.000 C 
ENDROOT
BRANCH   1   2
ATOM      2  C   UNL     1     -12.489   6.770  28.992  1.00  0.00     0.000 C 
BRANCH   2   3
ATOM      3  C   UNL     1     -13.439   7.878  28.508  1.00  0.00     0.000 C 
BRANCH   3   4
ATOM      4  C   UNL     1     -14.814   7.818  29.193  1.00  0.00    -0.000 C 
BRANCH   4   5
ATOM      5  C   UNL     1     -15.040   6.502  29.952  1.00  0.00    -0.000 C 
BRANCH   5   6
ATOM      6  C   UNL     1     -16.346   6.549  30.754  1.00  0.00    -0.000 C 
BRANCH   6   7
ATOM      7  C   UNL     1     -16.493   5.305  31.643  1.00  0.00    -0.000 C 
BRANCH   7   8
ATOM      8  C   UNL     1     -15.305   4.334  31.520  1.00  0.00    -0.000 C 
BRANCH   8   9
ATOM      9  C   UNL     1     -15.506   2.970  32.207  1.00  0.00    -0.000 C 
BRANCH   9  10
ATOM     10  C   UNL     1     -15.440   3.056  33.739  1.00  0.00    -0.000 C 
BRANCH  10  11
ATOM     11  C   UNL     1     -16.297   1.962  34.386  1.00  0.00    -0.003 C 
ATOM     12  C   UNL     1     -16.481   0.777  33.443  1.00  0.00     0.004 C 
ENDBRANCH  10  11
ENDBRANCH   9  10
ENDBRANCH   8   9
ENDBRANCH   7   8
ENDBRANCH   6   7
ENDBRANCH   5   6
ENDBRANCH   4   5
ENDBRANCH   3   4
ENDBRANCH   2   3
ENDBRANCH   1   2
BRANCH   1  13
ATOM     13  C   UNL     1     -11.805   4.654  27.726  1.00  0.00     0.000 C 
BRANCH  13  14
ATOM     14  C   UNL     1     -12.515   4.024  28.937  1.00  0.00     0.000 C 
BRANCH  14  15
ATOM     15  C   UNL     1     -11.596   3.256  29.905  1.00  0.00     0.000 C 
BRANCH  15  16
ATOM     16  C   UNL     1     -11.546   3.884  31.308  1.00  0.00     0.000 C 
BRANCH  16  17
ATOM     17  C   UNL     1     -10.647   5.130  31.366  1.00  0.00     0.000 C 
BRANCH  17  18
ATOM     18  C   UNL     1      -9.202   4.844  30.931  1.00  0.00     0.000 C 
BRANCH  18  19
ATOM     19  C   UNL     1      -8.414   4.163  32.060  1.00  0.00     0.000 C 
BRANCH  19  20
ATOM     20  C   UNL     1      -7.743   2.851  31.614  1.00  0.00     0.006 C 
BRANCH  20  21
ATOM     21  C   UNL     1      -8.373   1.582  32.211  1.00  0.00     0.053 C 
BRANCH  21  22
ATOM     22  C   UNL     1      -9.091   0.771  31.176  1.00  0.00     0.041 C 
ATOM     23  O   UNL     1      -8.546   0.533  30.066  1.00  0.00    -0.550 OA
ATOM     24  O   UNL     1     -10.349   0.250  31.451  1.00  0.00    -0.550 OA
ENDBRANCH  21  22
ENDBRANCH  20  21
ENDBRANCH  19  20
ENDBRANCH  18  19
ENDBRANCH  17  18
ENDBRANCH  16  17
ENDBRANCH  15  16
ENDBRANCH  14  15
ENDBRANCH  13  14
ENDBRANCH   1  13
TORSDOF 20
ENDMDL
MODEL 3
REMARK VINA RESULT:    -4.435      3.162      6.734
REMARK INTER + INTRA:         -11.611
REMARK INTER:                  -8.967
REMARK INTRA:                  -2.644
REMARK UNBOUND:                -1.991
REMARK SMILES CCCCCCCCCCCCCCCCCCCCCC(=O)[O-]
REMARK SMILES IDX 12 1 11 2 10 3 9 4 8 5 7 6 6 7 5 8 4 9 3 10 2 11 1 12 13 13
REMARK SMILES IDX 14 14 15 15 16 16 17 17 18 18 19 19 20 20 21 21 22 22 23 23
REMARK SMILES IDX 24 24
REMARK H PARENT
REMARK Flexibility Score: inf
ROOT
ATOM      1  C   UNL     1     -14.787   7.189  29.445  1.00  0.00     0.000 C 
ENDROOT
BRANCH   1   2
ATOM      2  C   UNL     1     -15.974   6.861  30.363  1.00  0.00     0.000 C 
BRANCH   2   3
ATOM      3  C   UNL     1     -16.385   5.380  30.289  1.00  0.00     0.000 C 
BRANCH   3   4
ATOM      4  C   UNL     1     -16.481   4.724  31.677  1.00  0.00    -0.000 C 
BRANCH   4   5
ATOM      5  C   UNL     1     -15.126   4.210  32.183  1.00  0.00    -0.000 C 
BRANCH   5   6
ATOM      6  C   UNL     1     -15.287   2.876  32.922  1.00  0.00    -0.000 C 
BRANCH   6   7
ATOM      7  C   UNL     1     -14.980   1.690  31.995  1.00  0.00    -0.000 C 
BRANCH   7   8
ATOM      8  C   UNL     1     -14.037   2.061  30.837  1.00  0.00    -0.000 C 
BRANCH   8   9
ATOM      9  C   UNL     1     -12.585   1.572  30.998  1.00  0.00    -0.000 C 
BRANCH   9  10
ATOM     10  C   UNL     1     -11.569   2.721  31.059  1.00  0.00    -0.000 C 
BRANCH  10  11
ATOM     11  C   UNL     1     -11.944   3.836  30.074  1.00  0.00    -0.003 C 
ATOM     12  C   UNL     1     -12.001   5.191  30.773  1.00  0.00     0.004 C 
ENDBRANCH  10  11
ENDBRANCH   9  10
ENDBRANCH   8   9
ENDBRANCH   7   8
ENDBRANCH   6   7
ENDBRANCH   5   6
ENDBRANCH   4   5
ENDBRANCH   3   4
ENDBRANCH   2   3
ENDBRANCH   1   2
BRANCH   1  13
ATOM     13  C   UNL     1     -14.767   8.664  29.008  1.00  0.00     0.000 C 
BRANCH  13  14
ATOM     14  C   UNL     1     -13.478   9.049  28.259  1.00  0.00     0.000 C 
BRANCH  14  15
ATOM     15  C   UNL     1     -12.259   8.157  28.558  1.00  0.00     0.000 C 
BRANCH  15  16
ATOM     16  C   UNL     1     -10.989   8.966  28.874  1.00  0.00     0.000 C 
BRANCH  16  17
ATOM     17  C   UNL     1     -10.108   8.291  29.938  1.00  0.00     0.000 C 
BRANCH  17  18
ATOM     18  C   UNL     1      -8.830   7.674  29.350  1.00  0.00     0.000 C 
BRANCH  18  19
ATOM     19  C   UNL     1      -8.831   6.147  29.518  1.00  0.00     0.000 C 
BRANCH  19  20
ATOM     20  C   UNL     1      -7.794   5.658  30.545  1.00  0.00     0.006 C 
BRANCH  20  21
ATOM     21  C   UNL     1      -8.330   4.619  31.544  1.00  0.00     0.053 C 
BRANCH  21  22
ATOM     22  C   UNL     1      -7.672   3.285  31.373  1.00  0.00     0.041 C 
ATOM     23  O   UNL     1      -8.112   2.277  31.987  1.00  0.00    -0.550 OA
ATOM     24  O   UNL     1      -6.593   3.147  30.509  1.00  0.00    -0.550 OA
ENDBRANCH  21  22
ENDBRANCH  20  21
ENDBRANCH  19  20
ENDBRANCH  18  19
ENDBRANCH  17  18
ENDBRANCH  16  17
ENDBRANCH  15  16
ENDBRANCH  14  15
ENDBRANCH  13  14
ENDBRANCH   1  13
TORSDOF 20
ENDMDL
MODEL 4
REMARK VINA RESULT:    -4.417      3.258      8.050
REMARK INTER + INTRA:         -11.573
REMARK INTER:                  -8.764
REMARK INTRA:                  -2.810
REMARK UNBOUND:                -1.991
REMARK SMILES CCCCCCCCCCCCCCCCCCCCCC(=O)[O-]
REMARK SMILES IDX 12 1 11 2 10 3 9 4 8 5 7 6 6 7 5 8 4 9 3 10 2 11 1 12 13 13
REMARK SMILES IDX 14 14 15 15 16 16 17 17 18 18 19 19 20 20 21 21 22 22 23 23
REMARK SMILES IDX 24 24
REMARK H PARENT
REMARK Flexibility Score: inf
ROOT
ATOM      1  C   UNL     1     -12.290   6.668  28.942  1.00  0.00     0.000 C 
ENDROOT
BRANCH   1   2
ATOM      2  C   UNL     1     -12.929   8.023  28.599  1.00  0.00     0.000 C 
BRANCH   2   3
ATOM      3  C   UNL     1     -14.412   8.094  29.003  1.00  0.00     0.000 C 
BRANCH   3   4
ATOM      4  C   UNL     1     -14.912   6.790  29.646  1.00  0.00    -0.000 C 
BRANCH   4   5
ATOM      5  C   UNL     1     -16.185   6.993  30.482  1.00  0.00    -0.000 C 
BRANCH   5   6
ATOM      6  C   UNL     1     -16.455   5.775  31.374  1.00  0.00    -0.000 C 
BRANCH   6   7
ATOM      7  C   UNL     1     -15.474   4.634  31.063  1.00  0.00    -0.000 C 
BRANCH   7   8
ATOM      8  C   UNL     1     -15.018   3.874  32.321  1.00  0.00    -0.000 C 
BRANCH   8   9
ATOM      9  C   UNL     1     -14.507   2.444  32.066  1.00  0.00    -0.000 C 
BRANCH   9  10
ATOM     10  C   UNL     1     -15.028   1.846  30.751  1.00  0.00    -0.000 C 
BRANCH  10  11
ATOM     11  C   UNL     1     -13.939   1.023  30.054  1.00  0.00    -0.003 C 
ATOM     12  C   UNL     1     -13.460  -0.121  30.942  1.00  0.00     0.004 C 
ENDBRANCH  10  11
ENDBRANCH   9  10
ENDBRANCH   8   9
ENDBRANCH   7   8
ENDBRANCH   6   7
ENDBRANCH   5   6
ENDBRANCH   4   5
ENDBRANCH   3   4
ENDBRANCH   2   3
ENDBRANCH   1   2
BRANCH   1  13
ATOM     13  C   UNL     1     -10.909   6.816  29.603  1.00  0.00     0.000 C 
BRANCH  13  14
ATOM     14  C   UNL     1     -10.740   5.921  30.844  1.00  0.00     0.000 C 
BRANCH  14  15
ATOM     15  C   UNL     1     -11.760   4.774  30.963  1.00  0.00     0.000 C 
BRANCH  15  16
ATOM     16  C   UNL     1     -11.274   3.469  30.310  1.00  0.00     0.000 C 
BRANCH  16  17
ATOM     17  C   UNL     1     -10.642   2.500  31.323  1.00  0.00     0.000 C 
BRANCH  17  18
ATOM     18  C   UNL     1      -9.113   2.424  31.203  1.00  0.00     0.000 C 
BRANCH  18  19
ATOM     19  C   UNL     1      -8.439   2.836  32.521  1.00  0.00     0.000 C 
BRANCH  19  20
ATOM     20  C   UNL     1      -7.938   4.292  32.506  1.00  0.00     0.006 C 
BRANCH  20  21
ATOM     21  C   UNL     1      -6.564   4.484  31.844  1.00  0.00     0.053 C 
BRANCH  21  22
ATOM     22  C   UNL     1      -6.589   5.557  30.799  1.00  0.00     0.041 C 
ATOM     23  O   UNL     1      -5.782   6.522  30.861  1.00  0.00    -0.550 OA
ATOM     24  O   UNL     1      -7.482   5.474  29.739  1.00  0.00    -0.550 OA
ENDBRANCH  21  22
ENDBRANCH  20  21
ENDBRANCH  19  20
ENDBRANCH  18  19
ENDBRANCH  17  18
ENDBRANCH  16  17
ENDBRANCH  15  16
ENDBRANCH  14  15
ENDBRANCH  13  14
ENDBRANCH   1  13
TORSDOF 20
ENDMDL
MODEL 5
REMARK VINA RESULT:    -4.385      1.709      3.106
REMARK INTER + INTRA:         -11.503
REMARK INTER:                  -9.193
REMARK INTRA:                  -2.310
REMARK UNBOUND:                -1.991
REMARK SMILES CCCCCCCCCCCCCCCCCCCCCC(=O)[O-]
REMARK SMILES IDX 12 1 11 2 10 3 9 4 8 5 7 6 6 7 5 8 4 9 3 10 2 11 1 12 13 13
REMARK SMILES IDX 14 14 15 15 16 16 17 17 18 18 19 19 20 20 21 21 22 22 23 23
REMARK SMILES IDX 24 24
REMARK H PARENT
REMARK Flexibility Score: inf
ROOT
ATOM      1  C   UNL     1     -11.698   8.107  28.407  1.00  0.00     0.000 C 
ENDROOT
BRANCH   1   2
ATOM      2  C   UNL     1     -10.531   8.418  29.357  1.00  0.00     0.000 C 
BRANCH   2   3
ATOM      3  C   UNL     1      -9.893   7.147  29.943  1.00  0.00     0.000 C 
BRANCH   3   4
ATOM      4  C   UNL     1     -10.934   6.178  30.527  1.00  0.00    -0.000 C 
BRANCH   4   5
ATOM      5  C   UNL     1     -10.741   4.736  30.037  1.00  0.00    -0.000 C 
BRANCH   5   6
ATOM      6  C   UNL     1     -11.534   3.751  30.904  1.00  0.00    -0.000 C 
BRANCH   6   7
ATOM      7  C   UNL     1     -10.613   2.682  31.510  1.00  0.00    -0.000 C 
BRANCH   7   8
ATOM      8  C   UNL     1      -9.252   2.587  30.797  1.00  0.00    -0.000 C 
BRANCH   8   9
ATOM      9  C   UNL     1      -8.025   2.706  31.720  1.00  0.00    -0.000 C 
BRANCH   9  10
ATOM     10  C   UNL     1      -8.155   3.841  32.746  1.00  0.00    -0.000 C 
BRANCH  10  11
ATOM     11  C   UNL     1      -6.940   4.776  32.686  1.00  0.00    -0.003 C 
ATOM     12  C   UNL     1      -6.577   5.115  31.243  1.00  0.00     0.004 C 
ENDBRANCH  10  11
ENDBRANCH   9  10
ENDBRANCH   8   9
ENDBRANCH   7   8
ENDBRANCH   6   7
ENDBRANCH   5   6
ENDBRANCH   4   5
ENDBRANCH   3   4
ENDBRANCH   2   3
ENDBRANCH   1   2
BRANCH   1  13
ATOM     13  C   UNL     1     -12.846   9.125  28.527  1.00  0.00     0.000 C 
BRANCH  13  14
ATOM     14  C   UNL     1     -14.233   8.459  28.582  1.00  0.00     0.000 C 
BRANCH  14  15
ATOM     15  C   UNL     1     -14.218   6.919  28.551  1.00  0.00     0.000 C 
BRANCH  15  16
ATOM     16  C   UNL     1     -14.619   6.289  29.895  1.00  0.00     0.000 C 
BRANCH  16  17
ATOM     17  C   UNL     1     -15.945   6.846  30.438  1.00  0.00     0.000 C 
BRANCH  17  18
ATOM     18  C   UNL     1     -16.692   5.845  31.332  1.00  0.00     0.000 C 
BRANCH  18  19
ATOM     19  C   UNL     1     -16.102   4.434  31.185  1.00  0.00     0.000 C 
BRANCH  19  20
ATOM     20  C   UNL     1     -15.899   3.727  32.537  1.00  0.00     0.006 C 
BRANCH  20  21
ATOM     21  C   UNL     1     -16.982   2.690  32.880  1.00  0.00     0.053 C 
BRANCH  21  22
ATOM     22  C   UNL     1     -16.590   1.308  32.457  1.00  0.00     0.041 C 
ATOM     23  O   UNL     1     -16.683   0.964  31.250  1.00  0.00    -0.550 OA
ATOM     24  O   UNL     1     -16.090   0.410  33.392  1.00  0.00    -0.550 OA
ENDBRANCH  21  22
ENDBRANCH  20  21
ENDBRANCH  19  20
ENDBRANCH  18  19
ENDBRANCH  17  18
ENDBRANCH  16  17
ENDBRANCH  15  16
ENDBRANCH  14  15
ENDBRANCH  13  14
ENDBRANCH   1  13
TORSDOF 20
ENDMDL
MODEL 6
REMARK VINA RESULT:    -4.381      4.292      9.345
REMARK INTER + INTRA:         -11.495
REMARK INTER:                  -9.719
REMARK INTRA:                  -1.776
REMARK UNBOUND:                -1.991
REMARK SMILES CCCCCCCCCCCCCCCCCCCCCC(=O)[O-]
REMARK SMILES IDX 12 1 11 2 10 3 9 4 8 5 7 6 6 7 5 8 4 9 3 10 2 11 1 12 13 13
REMARK SMILES IDX 14 14 15 15 16 16 17 17 18 18 19 19 20 20 21 21 22 22 23 23
REMARK SMILES IDX 24 24
REMARK H PARENT
REMARK Flexibility Score: inf
ROOT
ATOM      1  C   UNL     1     -10.693   6.452  28.910  1.00  0.00     0.000 C 
ENDROOT
BRANCH   1   2
ATOM      2  C   UNL     1     -10.554   7.979  29.009  1.00  0.00     0.000 C 
BRANCH   2   3
ATOM      3  C   UNL     1     -11.890   8.709  28.785  1.00  0.00     0.000 C 
BRANCH   3   4
ATOM      4  C   UNL     1     -12.683   8.135  27.600  1.00  0.00    -0.000 C 
BRANCH   4   5
ATOM      5  C   UNL     1     -14.177   8.487  27.662  1.00  0.00    -0.000 C 
BRANCH   5   6
ATOM      6  C   UNL     1     -14.678   8.498  29.112  1.00  0.00    -0.000 C 
BRANCH   6   7
ATOM      7  C   UNL     1     -14.954   7.072  29.611  1.00  0.00    -0.000 C 
BRANCH   7   8
ATOM      8  C   UNL     1     -16.216   6.976  30.486  1.00  0.00    -0.000 C 
BRANCH   8   9
ATOM      9  C   UNL     1     -16.335   5.684  31.316  1.00  0.00    -0.000 C 
BRANCH   9  10
ATOM     10  C   UNL     1     -15.406   4.566  30.820  1.00  0.00    -0.000 C 
BRANCH  10  11
ATOM     11  C   UNL     1     -14.500   4.065  31.952  1.00  0.00    -0.003 C 
ATOM     12  C   UNL     1     -13.497   3.036  31.440  1.00  0.00     0.004 C 
ENDBRANCH  10  11
ENDBRANCH   9  10
ENDBRANCH   8   9
ENDBRANCH   7   8
ENDBRANCH   6   7
ENDBRANCH   5   6
ENDBRANCH   4   5
ENDBRANCH   3   4
ENDBRANCH   2   3
ENDBRANCH   1   2
BRANCH   1  13
ATOM     13  C   UNL     1     -11.482   5.852  30.088  1.00  0.00     0.000 C 
BRANCH  13  14
ATOM     14  C   UNL     1     -10.574   5.387  31.241  1.00  0.00     0.000 C 
BRANCH  14  15
ATOM     15  C   UNL     1      -9.519   4.334  30.855  1.00  0.00     0.000 C 
BRANCH  15  16
ATOM     16  C   UNL     1      -9.317   3.263  31.941  1.00  0.00     0.000 C 
BRANCH  16  17
ATOM     17  C   UNL     1      -8.191   3.623  32.924  1.00  0.00     0.000 C 
BRANCH  17  18
ATOM     18  C   UNL     1      -7.196   4.640  32.345  1.00  0.00     0.000 C 
BRANCH  18  19
ATOM     19  C   UNL     1      -6.208   5.113  33.422  1.00  0.00     0.000 C 
BRANCH  19  20
ATOM     20  C   UNL     1      -4.882   5.629  32.831  1.00  0.00     0.006 C 
BRANCH  20  21
ATOM     21  C   UNL     1      -3.649   5.358  33.709  1.00  0.00     0.053 C 
BRANCH  21  22
ATOM     22  C   UNL     1      -2.450   6.125  33.244  1.00  0.00     0.041 C 
ATOM     23  O   UNL     1      -1.566   6.482  34.067  1.00  0.00    -0.550 OA
ATOM     24  O   UNL     1      -2.291   6.417  31.895  1.00  0.00    -0.550 OA
ENDBRANCH  21  22
ENDBRANCH  20  21
ENDBRANCH  19  20
ENDBRANCH  18  19
ENDBRANCH  17  18
ENDBRANCH  16  17
ENDBRANCH  15  16
ENDBRANCH  14  15
ENDBRANCH  13  14
ENDBRANCH   1  13
TORSDOF 20
ENDMDL
MODEL 7
REMARK VINA RESULT:    -4.371      3.721      8.062
REMARK INTER + INTRA:         -11.473
REMARK INTER:                  -8.802
REMARK INTRA:                  -2.671
REMARK UNBOUND:                -1.991
REMARK SMILES CCCCCCCCCCCCCCCCCCCCCC(=O)[O-]
REMARK SMILES IDX 12 1 11 2 10 3 9 4 8 5 7 6 6 7 5 8 4 9 3 10 2 11 1 12 13 13
REMARK SMILES IDX 14 14 15 15 16 16 17 17 18 18 19 19 20 20 21 21 22 22 23 23
REMARK SMILES IDX 24 24
REMARK H PARENT
REMARK Flexibility Score: inf
ROOT
ATOM      1  C   UNL     1     -11.987   8.501  28.199  1.00  0.00     0.000 C 
ENDROOT
BRANCH   1   2
ATOM      2  C   UNL     1     -13.352   9.063  28.626  1.00  0.00     0.000 C 
BRANCH   2   3
ATOM      3  C   UNL     1     -14.493   8.049  28.432  1.00  0.00     0.000 C 
BRANCH   3   4
ATOM      4  C   UNL     1     -15.237   7.742  29.742  1.00  0.00    -0.000 C 
BRANCH   4   5
ATOM      5  C   UNL     1     -15.682   6.275  29.839  1.00  0.00    -0.000 C 
BRANCH   5   6
ATOM      6  C   UNL     1     -16.398   6.006  31.168  1.00  0.00    -0.000 C 
BRANCH   6   7
ATOM      7  C   UNL     1     -16.319   4.519  31.547  1.00  0.00    -0.000 C 
BRANCH   7   8
ATOM      8  C   UNL     1     -14.974   4.134  32.190  1.00  0.00    -0.000 C 
BRANCH   8   9
ATOM      9  C   UNL     1     -14.079   3.224  31.329  1.00  0.00    -0.000 C 
BRANCH   9  10
ATOM     10  C   UNL     1     -12.602   3.644  31.349  1.00  0.00    -0.000 C 
BRANCH  10  11
ATOM     11  C   UNL     1     -12.406   4.990  30.642  1.00  0.00    -0.003 C 
ATOM     12  C   UNL     1     -12.363   4.815  29.127  1.00  0.00     0.004 C 
ENDBRANCH  10  11
ENDBRANCH   9  10
ENDBRANCH   8   9
ENDBRANCH   7   8
ENDBRANCH   6   7
ENDBRANCH   5   6
ENDBRANCH   4   5
ENDBRANCH   3   4
ENDBRANCH   2   3
ENDBRANCH   1   2
BRANCH   1  13
ATOM     13  C   UNL     1     -11.019   8.336  29.384  1.00  0.00     0.000 C 
BRANCH  13  14
ATOM     14  C   UNL     1      -9.553   8.175  28.941  1.00  0.00     0.000 C 
BRANCH  14  15
ATOM     15  C   UNL     1      -9.029   6.727  28.935  1.00  0.00     0.000 C 
BRANCH  15  16
ATOM     16  C   UNL     1      -9.023   6.086  30.333  1.00  0.00     0.000 C 
BRANCH  16  17
ATOM     17  C   UNL     1      -8.592   4.611  30.306  1.00  0.00     0.000 C 
BRANCH  17  18
ATOM     18  C   UNL     1      -8.913   3.871  31.613  1.00  0.00     0.000 C 
BRANCH  18  19
ATOM     19  C   UNL     1      -7.850   4.164  32.683  1.00  0.00     0.000 C 
BRANCH  19  20
ATOM     20  C   UNL     1      -6.453   4.413  32.085  1.00  0.00     0.006 C 
BRANCH  20  21
ATOM     21  C   UNL     1      -5.677   5.566  32.743  1.00  0.00     0.053 C 
BRANCH  21  22
ATOM     22  C   UNL     1      -4.602   6.101  31.849  1.00  0.00     0.041 C 
ATOM     23  O   UNL     1      -3.465   5.560  31.828  1.00  0.00    -0.550 OA
ATOM     24  O   UNL     1      -4.866   7.178  31.012  1.00  0.00    -0.550 OA
ENDBRANCH  21  22
ENDBRANCH  20  21
ENDBRANCH  19  20
ENDBRANCH  18  19
ENDBRANCH  17  18
ENDBRANCH  16  17
ENDBRANCH  15  16
ENDBRANCH  14  15
ENDBRANCH  13  14
ENDBRANCH   1  13
TORSDOF 20
ENDMDL
MODEL 8
REMARK VINA RESULT:    -4.355     17.919     20.865
REMARK INTER + INTRA:         -11.437
REMARK INTER:                  -7.735
REMARK INTRA:                  -3.702
REMARK UNBOUND:                -1.991
REMARK SMILES CCCCCCCCCCCCCCCCCCCCCC(=O)[O-]
REMARK SMILES IDX 12 1 11 2 10 3 9 4 8 5 7 6 6 7 5 8 4 9 3 10 2 11 1 12 13 13
REMARK SMILES IDX 14 14 15 15 16 16 17 17 18 18 19 19 20 20 21 21 22 22 23 23
REMARK SMILES IDX 24 24
REMARK H PARENT
REMARK Flexibility Score: inf
ROOT
ATOM      1  C   UNL     1       0.942  -7.451  21.420  1.00  0.00     0.000 C 
ENDROOT
BRANCH   1   2
ATOM      2  C   UNL     1       1.988  -6.343  21.226  1.00  0.00     0.000 C 
BRANCH   2   3
ATOM      3  C   UNL     1       1.652  -5.415  20.046  1.00  0.00     0.000 C 
BRANCH   3   4
ATOM      4  C   UNL     1       2.321  -4.036  20.171  1.00  0.00    -0.000 C 
BRANCH   4   5
ATOM      5  C   UNL     1       2.378  -3.536  21.622  1.00  0.00    -0.000 C 
BRANCH   5   6
ATOM      6  C   UNL     1       2.159  -2.019  21.688  1.00  0.00    -0.000 C 
BRANCH   6   7
ATOM      7  C   UNL     1       1.706  -1.467  20.328  1.00  0.00    -0.000 C 
BRANCH   7   8
ATOM      8  C   UNL     1       0.211  -1.101  20.295  1.00  0.00    -0.000 C 
BRANCH   8   9
ATOM      9  C   UNL     1      -0.582  -1.712  19.126  1.00  0.00    -0.000 C 
BRANCH   9  10
ATOM     10  C   UNL     1      -1.204  -3.073  19.470  1.00  0.00    -0.000 C 
BRANCH  10  11
ATOM     11  C   UNL     1      -1.405  -3.216  20.983  1.00  0.00    -0.003 C 
ATOM     12  C   UNL     1      -1.710  -4.662  21.364  1.00  0.00     0.004 C 
ENDBRANCH  10  11
ENDBRANCH   9  10
ENDBRANCH   8   9
ENDBRANCH   7   8
ENDBRANCH   6   7
ENDBRANCH   5   6
ENDBRANCH   4   5
ENDBRANCH   3   4
ENDBRANCH   2   3
ENDBRANCH   1   2
BRANCH   1  13
ATOM     13  C   UNL     1       1.560  -8.860  21.400  1.00  0.00     0.000 C 
BRANCH  13  14
ATOM     14  C   UNL     1       2.907  -8.911  20.655  1.00  0.00     0.000 C 
BRANCH  14  15
ATOM     15  C   UNL     1       2.868  -9.614  19.286  1.00  0.00     0.000 C 
BRANCH  15  16
ATOM     16  C   UNL     1       1.466 -10.127  18.916  1.00  0.00     0.000 C 
BRANCH  16  17
ATOM     17  C   UNL     1       0.967  -9.569  17.573  1.00  0.00     0.000 C 
BRANCH  17  18
ATOM     18  C   UNL     1       0.913  -8.034  17.549  1.00  0.00     0.000 C 
BRANCH  18  19
ATOM     19  C   UNL     1      -0.516  -7.540  17.272  1.00  0.00     0.000 C 
BRANCH  19  20
ATOM     20  C   UNL     1      -1.228  -7.032  18.539  1.00  0.00     0.006 C 
BRANCH  20  21
ATOM     21  C   UNL     1      -2.476  -7.840  18.932  1.00  0.00     0.053 C 
BRANCH  21  22
ATOM     22  C   UNL     1      -3.466  -7.924  17.812  1.00  0.00     0.041 C 
ATOM     23  O   UNL     1      -3.848  -9.046  17.385  1.00  0.00    -0.550 OA
ATOM     24  O   UNL     1      -3.994  -6.763  17.262  1.00  0.00    -0.550 OA
ENDBRANCH  21  22
ENDBRANCH  20  21
ENDBRANCH  19  20
ENDBRANCH  18  19
ENDBRANCH  17  18
ENDBRANCH  16  17
ENDBRANCH  15  16
ENDBRANCH  14  15
ENDBRANCH  13  14
ENDBRANCH   1  13
TORSDOF 20
ENDMDL
MODEL 9
REMARK VINA RESULT:    -4.281      1.922      3.189
REMARK INTER + INTRA:         -11.278
REMARK INTER:                  -8.175
REMARK INTRA:                  -3.103
REMARK UNBOUND:                -1.991
REMARK SMILES CCCCCCCCCCCCCCCCCCCCCC(=O)[O-]
REMARK SMILES IDX 12 1 11 2 10 3 9 4 8 5 7 6 6 7 5 8 4 9 3 10 2 11 1 12 13 13
REMARK SMILES IDX 14 14 15 15 16 16 17 17 18 18 19 19 20 20 21 21 22 22 23 23
REMARK SMILES IDX 24 24
REMARK H PARENT
REMARK Flexibility Score: inf
ROOT
ATOM      1  C   UNL     1      -9.410   6.408  29.671  1.00  0.00     0.000 C 
ENDROOT
BRANCH   1   2
ATOM      2  C   UNL     1     -10.359   5.201  29.719  1.00  0.00     0.000 C 
BRANCH   2   3
ATOM      3  C   UNL     1     -11.105   5.091  31.060  1.00  0.00     0.000 C 
BRANCH   3   4
ATOM      4  C   UNL     1     -12.616   4.872  30.879  1.00  0.00    -0.000 C 
BRANCH   4   5
ATOM      5  C   UNL     1     -12.953   3.462  30.372  1.00  0.00    -0.000 C 
BRANCH   5   6
ATOM      6  C   UNL     1     -12.313   2.392  31.263  1.00  0.00    -0.000 C 
BRANCH   6   7
ATOM      7  C   UNL     1     -11.662   1.287  30.417  1.00  0.00    -0.000 C 
BRANCH   7   8
ATOM      8  C   UNL     1     -10.327   0.789  31.002  1.00  0.00    -0.000 C 
BRANCH   8   9
ATOM      9  C   UNL     1      -9.112   1.687  30.704  1.00  0.00    -0.000 C 
BRANCH   9  10
ATOM     10  C   UNL     1      -8.555   2.376  31.957  1.00  0.00    -0.000 C 
BRANCH  10  11
ATOM     11  C   UNL     1      -7.370   3.284  31.602  1.00  0.00    -0.003 C 
ATOM     12  C   UNL     1      -7.435   4.599  32.372  1.00  0.00     0.004 C 
ENDBRANCH  10  11
ENDBRANCH   9  10
ENDBRANCH   8   9
ENDBRANCH   7   8
ENDBRANCH   6   7
ENDBRANCH   5   6
ENDBRANCH   4   5
ENDBRANCH   3   4
ENDBRANCH   2   3
ENDBRANCH   1   2
BRANCH   1  13
ATOM     13  C   UNL     1     -10.158   7.752  29.703  1.00  0.00     0.000 C 
BRANCH  13  14
ATOM     14  C   UNL     1     -10.958   8.022  28.415  1.00  0.00     0.000 C 
BRANCH  14  15
ATOM     15  C   UNL     1     -12.408   8.489  28.634  1.00  0.00     0.000 C 
BRANCH  15  16
ATOM     16  C   UNL     1     -13.424   7.335  28.582  1.00  0.00     0.000 C 
BRANCH  16  17
ATOM     17  C   UNL     1     -14.669   7.603  29.443  1.00  0.00     0.000 C 
BRANCH  17  18
ATOM     18  C   UNL     1     -15.595   6.383  29.549  1.00  0.00     0.000 C 
BRANCH  18  19
ATOM     19  C   UNL     1     -16.343   6.378  30.891  1.00  0.00     0.000 C 
BRANCH  19  20
ATOM     20  C   UNL     1     -16.063   5.116  31.727  1.00  0.00     0.006 C 
BRANCH  20  21
ATOM     21  C   UNL     1     -17.125   4.013  31.588  1.00  0.00     0.053 C 
BRANCH  21  22
ATOM     22  C   UNL     1     -16.661   2.895  30.706  1.00  0.00     0.041 C 
ATOM     23  O   UNL     1     -16.174   1.848  31.212  1.00  0.00    -0.550 OA
ATOM     24  O   UNL     1     -16.796   2.994  29.327  1.00  0.00    -0.550 OA
ENDBRANCH  21  22
ENDBRANCH  20  21
ENDBRANCH  19  20
ENDBRANCH  18  19
ENDBRANCH  17  18
ENDBRANCH  16  17
ENDBRANCH  15  16
ENDBRANCH  14  15
ENDBRANCH  13  14
ENDBRANCH   1  13
TORSDOF 20
ENDMDL
