MODEL 1
REMARK VINA RESULT:    -4.760      0.000      0.000
REMARK INTER + INTRA:         -10.066
REMARK INTER:                  -8.655
REMARK INTRA:                  -1.411
REMARK UNBOUND:                -1.411
REMARK SMILES CCCCCC=CCC=CCCCCCCCC(=O)[O-]
REMARK SMILES IDX 11 1 12 2 13 3 14 4 15 5 16 6 17 7 18 8 19 9 20 10 10 11
REMARK SMILES IDX 9 12 8 13 7 14 6 15 5 16 4 17 3 18 2 19 1 20
REMARK H PARENT
REMARK Flexibility Score: inf
ROOT
ATOM      1  C   UNL     1      10.537   0.344  13.568  1.00  0.00     0.027 C 
ENDROOT
BRANCH   1   2
ATOM      2  C   UNL     1       9.055  -0.056  13.633  1.00  0.00     0.004 C 
BRANCH   2   3
ATOM      3  C   UNL     1       8.295   0.710  14.728  1.00  0.00     0.000 C 
BRANCH   3   4
ATOM      4  C   UNL     1       8.004  -0.199  15.933  1.00  0.00     0.000 C 
BRANCH   4   5
ATOM      5  C   UNL     1       6.837   0.314  16.791  1.00  0.00     0.000 C 
BRANCH   5   6
ATOM      6  C   UNL     1       6.094   1.491  16.137  1.00  0.00     0.006 C 
BRANCH   6   7
ATOM      7  C   UNL     1       6.378   2.822  16.847  1.00  0.00     0.053 C 
BRANCH   7   8
ATOM      8  C   UNL     1       5.329   3.849  16.549  1.00  0.00     0.041 C 
ATOM      9  O   UNL     1       4.109   3.536  16.575  1.00  0.00    -0.550 OA
ATOM     10  O   UNL     1       5.696   5.160  16.271  1.00  0.00    -0.550 OA
ENDBRANCH   7   8
ENDBRANCH   6   7
ENDBRANCH   5   6
ENDBRANCH   4   5
ENDBRANCH   3   4
ENDBRANCH   2   3
ENDBRANCH   1   2
BRANCH   1  11
ATOM     11  C   UNL     1      11.444  -0.861  13.508  1.00  0.00    -0.031 C 
ATOM     12  C   UNL     1      12.165  -1.319  14.545  1.00  0.00    -0.027 C 
BRANCH  12  13
ATOM     13  C   UNL     1      12.108  -0.727  15.930  1.00  0.00     0.054 C 
BRANCH  13  14
ATOM     14  C   UNL     1      13.497  -0.478  16.456  1.00  0.00    -0.027 C 
ATOM     15  C   UNL     1      14.027  -1.056  17.550  1.00  0.00    -0.031 C 
BRANCH  15  16
ATOM     16  C   UNL     1      13.299  -2.003  18.472  1.00  0.00     0.027 C 
BRANCH  16  17
ATOM     17  C   UNL     1      12.750  -1.282  19.713  1.00  0.00     0.004 C 
BRANCH  17  18
ATOM     18  C   UNL     1      11.453  -1.917  20.238  1.00  0.00     0.000 C 
BRANCH  18  19
ATOM     19  C   UNL     1      10.372  -0.871  20.555  1.00  0.00    -0.003 C 
ATOM     20  C   UNL     1       9.960  -0.113  19.295  1.00  0.00     0.004 C 
ENDBRANCH  18  19
ENDBRANCH  17  18
ENDBRANCH  16  17
ENDBRANCH  15  16
ENDBRANCH  13  14
ENDBRANCH  12  13
ENDBRANCH   1  11
TORSDOF 14
ENDMDL
MODEL 2
REMARK VINA RESULT:    -4.743      4.061      6.365
REMARK INTER + INTRA:         -10.036
REMARK INTER:                  -8.460
REMARK INTRA:                  -1.576
REMARK UNBOUND:                -1.411
REMARK SMILES CCCCCC=CCC=CCCCCCCCC(=O)[O-]
REMARK SMILES IDX 11 1 12 2 13 3 14 4 15 5 16 6 17 7 18 8 19 9 20 10 10 11
REMARK SMILES IDX 9 12 8 13 7 14 6 15 5 16 4 17 3 18 2 19 1 20
REMARK H PARENT
REMARK Flexibility Score: inf
ROOT
ATOM      1  C   UNL     1       7.782  -0.155  16.519  1.00  0.00     0.027 C 
ENDROOT
BRANCH   1   2
ATOM      2  C   UNL     1       7.592   0.851  15.373  1.00  0.00     0.004 C 
BRANCH   2   3
ATOM      3  C   UNL     1       8.586   0.616  14.224  1.00  0.00     0.000 C 
BRANCH   3   4
ATOM      4  C   UNL     1       9.430  -0.644  14.476  1.00  0.00     0.000 C 
BRANCH   4   5
ATOM      5  C   UNL     1      10.940  -0.363  14.419  1.00  0.00     0.000 C 
BRANCH   5   6
ATOM      6  C   UNL     1      11.642  -1.132  13.286  1.00  0.00     0.006 C 
BRANCH   6   7
ATOM      7  C   UNL     1      11.628  -2.649  13.519  1.00  0.00     0.053 C 
BRANCH   7   8
ATOM      8  C   UNL     1      12.973  -3.264  13.280  1.00  0.00     0.041 C 
ATOM      9  O   UNL     1      13.836  -2.654  12.595  1.00  0.00    -0.550 OA
ATOM     10  O   UNL     1      13.284  -4.498  13.838  1.00  0.00    -0.550 OA
ENDBRANCH   7   8
ENDBRANCH   6   7
ENDBRANCH   5   6
ENDBRANCH   4   5
ENDBRANCH   3   4
ENDBRANCH   2   3
ENDBRANCH   1   2
BRANCH   1  11
ATOM     11  C   UNL     1       7.307   0.399  17.840  1.00  0.00    -0.031 C 
ATOM     12  C   UNL     1       8.068   0.486  18.944  1.00  0.00    -0.027 C 
BRANCH  12  13
ATOM     13  C   UNL     1       9.526   0.104  18.986  1.00  0.00     0.054 C 
BRANCH  13  14
ATOM     14  C   UNL     1       9.797  -0.818  20.147  1.00  0.00    -0.027 C 
ATOM     15  C   UNL     1      11.018  -1.165  20.593  1.00  0.00    -0.031 C 
BRANCH  15  16
ATOM     16  C   UNL     1      12.325  -0.742  19.968  1.00  0.00     0.027 C 
BRANCH  16  17
ATOM     17  C   UNL     1      12.767  -1.709  18.859  1.00  0.00     0.004 C 
BRANCH  17  18
ATOM     18  C   UNL     1      12.901  -1.020  17.493  1.00  0.00     0.000 C 
BRANCH  18  19
ATOM     19  C   UNL     1      14.358  -0.944  17.010  1.00  0.00    -0.003 C 
ATOM     20  C   UNL     1      14.787  -2.258  16.361  1.00  0.00     0.004 C 
ENDBRANCH  18  19
ENDBRANCH  17  18
ENDBRANCH  16  17
ENDBRANCH  15  16
ENDBRANCH  13  14
ENDBRANCH  12  13
ENDBRANCH   1  11
TORSDOF 14
ENDMDL
MODEL 3
REMARK VINA RESULT:    -4.719      5.091      8.287
REMARK INTER + INTRA:          -9.992
REMARK INTER:                  -8.453
REMARK INTRA:                  -1.540
REMARK UNBOUND:                -1.411
REMARK SMILES CCCCCC=CCC=CCCCCCCCC(=O)[O-]
REMARK SMILES IDX 11 1 12 2 13 3 14 4 15 5 16 6 17 7 18 8 19 9 20 10 10 11
REMARK SMILES IDX 9 12 8 13 7 14 6 15 5 16 4 17 3 18 2 19 1 20
REMARK H PARENT
REMARK Flexibility Score: inf
ROOT
ATOM      1  C   UNL     1       9.548   0.003  18.702  1.00  0.00     0.027 C 
ENDROOT
BRANCH   1   2
ATOM      2  C   UNL     1      10.034  -0.303  20.127  1.00  0.00     0.004 C 
BRANCH   2   3
ATOM      3  C   UNL     1      11.449  -0.903  20.141  1.00  0.00     0.000 C 
BRANCH   3   4
ATOM      4  C   UNL     1      11.416  -2.380  20.568  1.00  0.00     0.000 C 
BRANCH   4   5
ATOM      5  C   UNL     1      12.691  -3.139  20.168  1.00  0.00     0.000 C 
BRANCH   5   6
ATOM      6  C   UNL     1      12.498  -4.665  20.176  1.00  0.00     0.006 C 
BRANCH   6   7
ATOM      7  C   UNL     1      13.403  -5.369  19.157  1.00  0.00     0.053 C 
BRANCH   7   8
ATOM      8  C   UNL     1      14.629  -5.943  19.799  1.00  0.00     0.041 C 
ATOM      9  O   UNL     1      14.735  -5.969  21.054  1.00  0.00    -0.550 OA
ATOM     10  O   UNL     1      15.644  -6.475  19.013  1.00  0.00    -0.550 OA
ENDBRANCH   7   8
ENDBRANCH   6   7
ENDBRANCH   5   6
ENDBRANCH   4   5
ENDBRANCH   3   4
ENDBRANCH   2   3
ENDBRANCH   1   2
BRANCH   1  11
ATOM     11  C   UNL     1       8.133   0.526  18.689  1.00  0.00    -0.031 C 
ATOM     12  C   UNL     1       7.291   0.412  17.648  1.00  0.00    -0.027 C 
BRANCH  12  13
ATOM     13  C   UNL     1       7.631  -0.321  16.375  1.00  0.00     0.054 C 
BRANCH  13  14
ATOM     14  C   UNL     1       8.044   0.650  15.301  1.00  0.00    -0.027 C 
ATOM     15  C   UNL     1       9.064   0.468  14.441  1.00  0.00    -0.031 C 
BRANCH  15  16
ATOM     16  C   UNL     1      10.006  -0.711  14.447  1.00  0.00     0.027 C 
BRANCH  16  17
ATOM     17  C   UNL     1      11.452  -0.286  14.742  1.00  0.00     0.004 C 
BRANCH  17  18
ATOM     18  C   UNL     1      11.896  -0.650  16.166  1.00  0.00     0.000 C 
BRANCH  18  19
ATOM     19  C   UNL     1      13.392  -0.386  16.403  1.00  0.00    -0.003 C 
ATOM     20  C   UNL     1      14.057  -1.584  17.076  1.00  0.00     0.004 C 
ENDBRANCH  18  19
ENDBRANCH  17  18
ENDBRANCH  16  17
ENDBRANCH  15  16
ENDBRANCH  13  14
ENDBRANCH  12  13
ENDBRANCH   1  11
TORSDOF 14
ENDMDL
MODEL 4
REMARK VINA RESULT:    -4.690      4.059      6.397
REMARK INTER + INTRA:          -9.940
REMARK INTER:                  -8.695
REMARK INTRA:                  -1.245
REMARK UNBOUND:                -1.411
REMARK SMILES CCCCCC=CCC=CCCCCCCCC(=O)[O-]
REMARK SMILES IDX 11 1 12 2 13 3 14 4 15 5 16 6 17 7 18 8 19 9 20 10 10 11
REMARK SMILES IDX 9 12 8 13 7 14 6 15 5 16 4 17 3 18 2 19 1 20
REMARK H PARENT
REMARK Flexibility Score: inf
ROOT
ATOM      1  C   UNL     1       8.588  -0.004  15.088  1.00  0.00     0.027 C 
ENDROOT
BRANCH   1   2
ATOM      2  C   UNL     1       8.973   0.171  13.611  1.00  0.00     0.004 C 
BRANCH   2   3
ATOM      3  C   UNL     1      10.448  -0.175  13.350  1.00  0.00     0.000 C 
BRANCH   3   4
ATOM      4  C   UNL     1      11.331   0.256  14.532  1.00  0.00     0.000 C 
BRANCH   4   5
ATOM      5  C   UNL     1      12.277  -0.860  15.000  1.00  0.00     0.000 C 
BRANCH   5   6
ATOM      6  C   UNL     1      12.691  -0.706  16.473  1.00  0.00     0.006 C 
BRANCH   6   7
ATOM      7  C   UNL     1      14.191  -0.953  16.684  1.00  0.00     0.053 C 
BRANCH   7   8
ATOM      8  C   UNL     1      14.573  -2.370  16.384  1.00  0.00     0.041 C 
ATOM      9  O   UNL     1      15.179  -2.651  15.316  1.00  0.00    -0.550 OA
ATOM     10  O   UNL     1      14.284  -3.377  17.296  1.00  0.00    -0.550 OA
ENDBRANCH   7   8
ENDBRANCH   6   7
ENDBRANCH   5   6
ENDBRANCH   4   5
ENDBRANCH   3   4
ENDBRANCH   2   3
ENDBRANCH   1   2
BRANCH   1  11
ATOM     11  C   UNL     1       7.357   0.790  15.448  1.00  0.00    -0.031 C 
ATOM     12  C   UNL     1       6.788   0.798  16.665  1.00  0.00    -0.027 C 
BRANCH  12  13
ATOM     13  C   UNL     1       7.352   0.066  17.856  1.00  0.00     0.054 C 
BRANCH  13  14
ATOM     14  C   UNL     1       8.039   1.027  18.791  1.00  0.00    -0.027 C 
ATOM     15  C   UNL     1       9.149   0.757  19.503  1.00  0.00    -0.031 C 
BRANCH  15  16
ATOM     16  C   UNL     1       9.858  -0.575  19.536  1.00  0.00     0.027 C 
BRANCH  16  17
ATOM     17  C   UNL     1      11.015  -0.582  20.546  1.00  0.00     0.004 C 
BRANCH  17  18
ATOM     18  C   UNL     1      12.324  -1.110  19.941  1.00  0.00     0.000 C 
BRANCH  18  19
ATOM     19  C   UNL     1      12.569  -2.592  20.267  1.00  0.00    -0.003 C 
ATOM     20  C   UNL     1      11.358  -3.204  20.966  1.00  0.00     0.004 C 
ENDBRANCH  18  19
ENDBRANCH  17  18
ENDBRANCH  16  17
ENDBRANCH  15  16
ENDBRANCH  13  14
ENDBRANCH  12  13
ENDBRANCH   1  11
TORSDOF 14
ENDMDL
MODEL 5
REMARK VINA RESULT:    -4.542      4.457      8.448
REMARK INTER + INTRA:          -9.671
REMARK INTER:                  -8.360
REMARK INTRA:                  -1.311
REMARK UNBOUND:                -1.411
REMARK SMILES CCCCCC=CCC=CCCCCCCCC(=O)[O-]
REMARK SMILES IDX 11 1 12 2 13 3 14 4 15 5 16 6 17 7 18 8 19 9 20 10 10 11
REMARK SMILES IDX 9 12 8 13 7 14 6 15 5 16 4 17 3 18 2 19 1 20
REMARK H PARENT
REMARK Flexibility Score: inf
ROOT
ATOM      1  C   UNL     1      10.726  -0.418  19.247  1.00  0.00     0.027 C 
ENDROOT
BRANCH   1   2
ATOM      2  C   UNL     1      11.347  -1.495  20.151  1.00  0.00     0.004 C 
BRANCH   2   3
ATOM      3  C   UNL     1      10.341  -2.042  21.176  1.00  0.00     0.000 C 
BRANCH   3   4
ATOM      4  C   UNL     1      10.616  -3.523  21.481  1.00  0.00     0.000 C 
BRANCH   4   5
ATOM      5  C   UNL     1      11.801  -4.081  20.676  1.00  0.00     0.000 C 
BRANCH   5   6
ATOM      6  C   UNL     1      11.555  -5.515  20.177  1.00  0.00     0.006 C 
BRANCH   6   7
ATOM      7  C   UNL     1      10.368  -6.180  20.887  1.00  0.00     0.053 C 
BRANCH   7   8
ATOM      8  C   UNL     1       9.513  -6.960  19.936  1.00  0.00     0.041 C 
ATOM      9  O   UNL     1       8.267  -7.020  20.106  1.00  0.00    -0.550 OA
ATOM     10  O   UNL     1      10.089  -7.599  18.844  1.00  0.00    -0.550 OA
ENDBRANCH   7   8
ENDBRANCH   6   7
ENDBRANCH   5   6
ENDBRANCH   4   5
ENDBRANCH   3   4
ENDBRANCH   2   3
ENDBRANCH   1   2
BRANCH   1  11
ATOM     11  C   UNL     1       9.425   0.105  19.805  1.00  0.00    -0.031 C 
ATOM     12  C   UNL     1       8.355   0.428  19.059  1.00  0.00    -0.027 C 
BRANCH  12  13
ATOM     13  C   UNL     1       8.291   0.243  17.564  1.00  0.00     0.054 C 
BRANCH  13  14
ATOM     14  C   UNL     1       6.859   0.141  17.106  1.00  0.00    -0.027 C 
ATOM     15  C   UNL     1       6.298   0.895  16.143  1.00  0.00    -0.031 C 
BRANCH  15  16
ATOM     16  C   UNL     1       6.988   2.016  15.404  1.00  0.00     0.027 C 
BRANCH  16  17
ATOM     17  C   UNL     1       6.965   1.796  13.883  1.00  0.00     0.004 C 
BRANCH  17  18
ATOM     18  C   UNL     1       8.372   1.634  13.289  1.00  0.00     0.000 C 
BRANCH  18  19
ATOM     19  C   UNL     1       9.313   0.842  14.210  1.00  0.00    -0.003 C 
ATOM     20  C   UNL     1       9.426  -0.612  13.756  1.00  0.00     0.004 C 
ENDBRANCH  18  19
ENDBRANCH  17  18
ENDBRANCH  16  17
ENDBRANCH  15  16
ENDBRANCH  13  14
ENDBRANCH  12  13
ENDBRANCH   1  11
TORSDOF 14
ENDMDL
MODEL 6
REMARK VINA RESULT:    -4.541      4.000      6.062
REMARK INTER + INTRA:          -9.670
REMARK INTER:                  -8.510
REMARK INTRA:                  -1.160
REMARK UNBOUND:                -1.411
REMARK SMILES CCCCCC=CCC=CCCCCCCCC(=O)[O-]
REMARK SMILES IDX 11 1 12 2 13 3 14 4 15 5 16 6 17 7 18 8 19 9 20 10 10 11
REMARK SMILES IDX 9 12 8 13 7 14 6 15 5 16 4 17 3 18 2 19 1 20
REMARK H PARENT
REMARK Flexibility Score: inf
ROOT
ATOM      1  C   UNL     1       7.429  -0.173  16.548  1.00  0.00     0.027 C 
ENDROOT
BRANCH   1   2
ATOM      2  C   UNL     1       7.290   0.838  15.399  1.00  0.00     0.004 C 
BRANCH   2   3
ATOM      3  C   UNL     1       8.425   0.709  14.371  1.00  0.00     0.000 C 
BRANCH   3   4
ATOM      4  C   UNL     1       9.194  -0.608  14.564  1.00  0.00     0.000 C 
BRANCH   4   5
ATOM      5  C   UNL     1      10.599  -0.392  15.148  1.00  0.00     0.000 C 
BRANCH   5   6
ATOM      6  C   UNL     1      11.710  -0.580  14.102  1.00  0.00     0.006 C 
BRANCH   6   7
ATOM      7  C   UNL     1      12.431  -1.926  14.258  1.00  0.00     0.053 C 
BRANCH   7   8
ATOM      8  C   UNL     1      12.514  -2.670  12.960  1.00  0.00     0.041 C 
ATOM      9  O   UNL     1      13.004  -2.115  11.941  1.00  0.00    -0.550 OA
ATOM     10  O   UNL     1      12.077  -3.987  12.882  1.00  0.00    -0.550 OA
ENDBRANCH   7   8
ENDBRANCH   6   7
ENDBRANCH   5   6
ENDBRANCH   4   5
ENDBRANCH   3   4
ENDBRANCH   2   3
ENDBRANCH   1   2
BRANCH   1  11
ATOM     11  C   UNL     1       7.179   0.465  17.893  1.00  0.00    -0.031 C 
ATOM     12  C   UNL     1       8.074   0.498  18.895  1.00  0.00    -0.027 C 
BRANCH  12  13
ATOM     13  C   UNL     1       9.478  -0.040  18.780  1.00  0.00     0.054 C 
BRANCH  13  14
ATOM     14  C   UNL     1      10.292   0.349  19.987  1.00  0.00    -0.027 C 
ATOM     15  C   UNL     1      11.253  -0.407  20.549  1.00  0.00    -0.031 C 
BRANCH  15  16
ATOM     16  C   UNL     1      11.635  -1.798  20.107  1.00  0.00     0.027 C 
BRANCH  16  17
ATOM     17  C   UNL     1      10.945  -2.878  20.955  1.00  0.00     0.004 C 
BRANCH  17  18
ATOM     18  C   UNL     1      11.560  -4.271  20.752  1.00  0.00     0.000 C 
BRANCH  18  19
ATOM     19  C   UNL     1      13.078  -4.216  20.520  1.00  0.00    -0.003 C 
ATOM     20  C   UNL     1      13.460  -4.943  19.232  1.00  0.00     0.004 C 
ENDBRANCH  18  19
ENDBRANCH  17  18
ENDBRANCH  16  17
ENDBRANCH  15  16
ENDBRANCH  13  14
ENDBRANCH  12  13
ENDBRANCH   1  11
TORSDOF 14
ENDMDL
MODEL 7
REMARK VINA RESULT:    -4.490      4.363      7.226
REMARK INTER + INTRA:          -9.577
REMARK INTER:                  -7.906
REMARK INTRA:                  -1.672
REMARK UNBOUND:                -1.411
REMARK SMILES CCCCCC=CCC=CCCCCCCCC(=O)[O-]
REMARK SMILES IDX 11 1 12 2 13 3 14 4 15 5 16 6 17 7 18 8 19 9 20 10 10 11
REMARK SMILES IDX 9 12 8 13 7 14 6 15 5 16 4 17 3 18 2 19 1 20
REMARK H PARENT
REMARK Flexibility Score: inf
ROOT
ATOM      1  C   UNL     1      15.175  -1.711  16.494  1.00  0.00     0.027 C 
ENDROOT
BRANCH   1   2
ATOM      2  C   UNL     1      14.131  -0.743  17.072  1.00  0.00     0.004 C 
BRANCH   2   3
ATOM      3  C   UNL     1      12.985  -1.481  17.782  1.00  0.00     0.000 C 
BRANCH   3   4
ATOM      4  C   UNL     1      12.979  -1.169  19.287  1.00  0.00     0.000 C 
BRANCH   4   5
ATOM      5  C   UNL     1      11.589  -1.343  19.920  1.00  0.00     0.000 C 
BRANCH   5   6
ATOM      6  C   UNL     1      11.448  -2.674  20.680  1.00  0.00     0.006 C 
BRANCH   6   7
ATOM      7  C   UNL     1      12.747  -3.490  20.666  1.00  0.00     0.053 C 
BRANCH   7   8
ATOM      8  C   UNL     1      12.576  -4.802  19.962  1.00  0.00     0.041 C 
ATOM      9  O   UNL     1      13.453  -5.207  19.154  1.00  0.00    -0.550 OA
ATOM     10  O   UNL     1      11.461  -5.591  20.220  1.00  0.00    -0.550 OA
ENDBRANCH   7   8
ENDBRANCH   6   7
ENDBRANCH   5   6
ENDBRANCH   4   5
ENDBRANCH   3   4
ENDBRANCH   2   3
ENDBRANCH   1   2
BRANCH   1  11
ATOM     11  C   UNL     1      14.705  -3.144  16.547  1.00  0.00    -0.031 C 
ATOM     12  C   UNL     1      14.239  -3.830  15.490  1.00  0.00    -0.027 C 
BRANCH  12  13
ATOM     13  C   UNL     1      14.191  -3.275  14.089  1.00  0.00     0.054 C 
BRANCH  13  14
ATOM     14  C   UNL     1      12.824  -3.473  13.489  1.00  0.00    -0.027 C 
ATOM     15  C   UNL     1      11.826  -2.571  13.518  1.00  0.00    -0.031 C 
BRANCH  15  16
ATOM     16  C   UNL     1      11.885  -1.232  14.213  1.00  0.00     0.027 C 
BRANCH  16  17
ATOM     17  C   UNL     1      10.585  -0.433  14.025  1.00  0.00     0.004 C 
BRANCH  17  18
ATOM     18  C   UNL     1       9.828  -0.221  15.344  1.00  0.00     0.000 C 
BRANCH  18  19
ATOM     19  C   UNL     1       8.309  -0.105  15.139  1.00  0.00    -0.003 C 
ATOM     20  C   UNL     1       7.573  -0.145  16.476  1.00  0.00     0.004 C 
ENDBRANCH  18  19
ENDBRANCH  17  18
ENDBRANCH  16  17
ENDBRANCH  15  16
ENDBRANCH  13  14
ENDBRANCH  12  13
ENDBRANCH   1  11
TORSDOF 14
ENDMDL
MODEL 8
REMARK VINA RESULT:    -4.462      2.660      4.719
REMARK INTER + INTRA:          -9.525
REMARK INTER:                  -7.947
REMARK INTRA:                  -1.577
REMARK UNBOUND:                -1.411
REMARK SMILES CCCCCC=CCC=CCCCCCCCC(=O)[O-]
REMARK SMILES IDX 11 1 12 2 13 3 14 4 15 5 16 6 17 7 18 8 19 9 20 10 10 11
REMARK SMILES IDX 9 12 8 13 7 14 6 15 5 16 4 17 3 18 2 19 1 20
REMARK H PARENT
REMARK Flexibility Score: inf
ROOT
ATOM      1  C   UNL     1      14.558  -2.942  16.044  1.00  0.00     0.027 C 
ENDROOT
BRANCH   1   2
ATOM      2  C   UNL     1      14.699  -1.528  16.628  1.00  0.00     0.004 C 
BRANCH   2   3
ATOM      3  C   UNL     1      13.335  -0.877  16.907  1.00  0.00     0.000 C 
BRANCH   3   4
ATOM      4  C   UNL     1      12.628  -0.497  15.595  1.00  0.00     0.000 C 
BRANCH   4   5
ATOM      5  C   UNL     1      11.106  -0.369  15.761  1.00  0.00     0.000 C 
BRANCH   5   6
ATOM      6  C   UNL     1      10.358  -0.427  14.418  1.00  0.00     0.006 C 
BRANCH   6   7
ATOM      7  C   UNL     1       8.925  -0.951  14.574  1.00  0.00     0.053 C 
BRANCH   7   8
ATOM      8  C   UNL     1       8.056   0.010  15.326  1.00  0.00     0.041 C 
ATOM      9  O   UNL     1       7.592  -0.303  16.454  1.00  0.00    -0.550 OA
ATOM     10  O   UNL     1       7.781   1.264  14.793  1.00  0.00    -0.550 OA
ENDBRANCH   7   8
ENDBRANCH   6   7
ENDBRANCH   5   6
ENDBRANCH   4   5
ENDBRANCH   3   4
ENDBRANCH   2   3
ENDBRANCH   1   2
BRANCH   1  11
ATOM     11  C   UNL     1      15.688  -3.845  16.473  1.00  0.00    -0.031 C 
ATOM     12  C   UNL     1      15.544  -4.914  17.274  1.00  0.00    -0.027 C 
BRANCH  12  13
ATOM     13  C   UNL     1      14.213  -5.395  17.795  1.00  0.00     0.054 C 
BRANCH  13  14
ATOM     14  C   UNL     1      14.306  -5.714  19.264  1.00  0.00    -0.027 C 
ATOM     15  C   UNL     1      13.433  -5.304  20.203  1.00  0.00    -0.031 C 
BRANCH  15  16
ATOM     16  C   UNL     1      12.249  -4.402  19.955  1.00  0.00     0.027 C 
BRANCH  16  17
ATOM     17  C   UNL     1      12.607  -2.921  20.153  1.00  0.00     0.004 C 
BRANCH  17  18
ATOM     18  C   UNL     1      11.420  -2.090  20.661  1.00  0.00     0.000 C 
BRANCH  18  19
ATOM     19  C   UNL     1      11.473  -0.631  20.179  1.00  0.00    -0.003 C 
ATOM     20  C   UNL     1      10.278  -0.308  19.285  1.00  0.00     0.004 C 
ENDBRANCH  18  19
ENDBRANCH  17  18
ENDBRANCH  16  17
ENDBRANCH  15  16
ENDBRANCH  13  14
ENDBRANCH  12  13
ENDBRANCH   1  11
TORSDOF 14
ENDMDL
MODEL 9
REMARK VINA RESULT:    -4.399      3.160      4.406
REMARK INTER + INTRA:          -9.411
REMARK INTER:                  -7.796
REMARK INTRA:                  -1.615
REMARK UNBOUND:                -1.411
REMARK SMILES CCCCCC=CCC=CCCCCCCCC(=O)[O-]
REMARK SMILES IDX 11 1 12 2 13 3 14 4 15 5 16 6 17 7 18 8 19 9 20 10 10 11
REMARK SMILES IDX 9 12 8 13 7 14 6 15 5 16 4 17 3 18 2 19 1 20
REMARK H PARENT
REMARK Flexibility Score: inf
ROOT
ATOM      1  C   UNL     1      13.845  -3.609  13.518  1.00  0.00     0.027 C 
ENDROOT
BRANCH   1   2
ATOM      2  C   UNL     1      13.581  -2.606  12.384  1.00  0.00     0.004 C 
BRANCH   2   3
ATOM      3  C   UNL     1      12.093  -2.241  12.267  1.00  0.00     0.000 C 
BRANCH   3   4
ATOM      4  C   UNL     1      11.420  -2.225  13.649  1.00  0.00     0.000 C 
BRANCH   4   5
ATOM      5  C   UNL     1      11.909  -1.065  14.530  1.00  0.00     0.000 C 
BRANCH   5   6
ATOM      6  C   UNL     1      10.798  -0.045  14.835  1.00  0.00     0.006 C 
BRANCH   6   7
ATOM      7  C   UNL     1      10.843   1.162  13.889  1.00  0.00     0.053 C 
BRANCH   7   8
ATOM      8  C   UNL     1       9.653   1.205  12.979  1.00  0.00     0.041 C 
ATOM      9  O   UNL     1       9.548   0.379  12.034  1.00  0.00    -0.550 OA
ATOM     10  O   UNL     1       8.646   2.138  13.192  1.00  0.00    -0.550 OA
ENDBRANCH   7   8
ENDBRANCH   6   7
ENDBRANCH   5   6
ENDBRANCH   4   5
ENDBRANCH   3   4
ENDBRANCH   2   3
ENDBRANCH   1   2
BRANCH   1  11
ATOM     11  C   UNL     1      15.273  -3.549  14.003  1.00  0.00    -0.031 C 
ATOM     12  C   UNL     1      15.637  -3.196  15.248  1.00  0.00    -0.027 C 
BRANCH  12  13
ATOM     13  C   UNL     1      14.656  -2.881  16.348  1.00  0.00     0.054 C 
BRANCH  13  14
ATOM     14  C   UNL     1      14.778  -1.439  16.767  1.00  0.00    -0.027 C 
ATOM     15  C   UNL     1      13.936  -0.800  17.601  1.00  0.00    -0.031 C 
BRANCH  15  16
ATOM     16  C   UNL     1      12.691  -1.400  18.207  1.00  0.00     0.027 C 
BRANCH  16  17
ATOM     17  C   UNL     1      12.723  -1.355  19.742  1.00  0.00     0.004 C 
BRANCH  17  18
ATOM     18  C   UNL     1      11.574  -0.524  20.333  1.00  0.00     0.000 C 
BRANCH  18  19
ATOM     19  C   UNL     1      10.372  -1.390  20.744  1.00  0.00    -0.003 C 
ATOM     20  C   UNL     1      10.818  -2.802  21.115  1.00  0.00     0.004 C 
ENDBRANCH  18  19
ENDBRANCH  17  18
ENDBRANCH  16  17
ENDBRANCH  15  16
ENDBRANCH  13  14
ENDBRANCH  12  13
ENDBRANCH   1  11
TORSDOF 14
ENDMDL
