MODEL 1
REMARK VINA RESULT:    -2.208      0.000      0.000
REMARK INTER + INTRA:          -2.208
REMARK INTER:                  -2.208
REMARK INTRA:                   0.000
REMARK UNBOUND:                 0.000
REMARK SMILES CC(=O)[O-]
REMARK SMILES IDX 1 1 2 2 3 3 4 4
REMARK H PARENT
REMARK Flexibility Score: inf
ROOT
ATOM      1  C   UNL     1      -0.765   0.091   7.007  1.00  0.00     0.063 C 
ATOM      2  C   UNL     1      -0.449   1.331   6.242  1.00  0.00     0.038 C 
ATOM      3  O   UNL     1       0.564   1.373   5.497  1.00  0.00    -0.550 OA
ATOM      4  O   UNL     1      -1.302   2.426   6.309  1.00  0.00    -0.550 OA
ENDROOT
TORSDOF 0
ENDMDL
MODEL 2
REMARK VINA RESULT:    -2.139      0.335      1.653
REMARK INTER + INTRA:          -2.139
REMARK INTER:                  -2.139
REMARK INTRA:                   0.000
REMARK UNBOUND:                 0.000
REMARK SMILES CC(=O)[O-]
REMARK SMILES IDX 1 1 2 2 3 3 4 4
REMARK H PARENT
REMARK Flexibility Score: inf
ROOT
ATOM      1  C   UNL     1      -1.224   0.294   7.109  1.00  0.00     0.063 C 
ATOM      2  C   UNL     1      -0.782   1.448   6.276  1.00  0.00     0.038 C 
ATOM      3  O   UNL     1      -1.448   2.516   6.271  1.00  0.00    -0.550 OA
ATOM      4  O   UNL     1       0.395   1.367   5.542  1.00  0.00    -0.550 OA
ENDROOT
TORSDOF 0
ENDMDL
MODEL 3
REMARK VINA RESULT:    -2.027      1.382      1.752
REMARK INTER + INTRA:          -2.027
REMARK INTER:                  -2.027
REMARK INTRA:                   0.000
REMARK UNBOUND:                 0.000
REMARK SMILES CC(=O)[O-]
REMARK SMILES IDX 1 1 2 2 3 3 4 4
REMARK H PARENT
REMARK Flexibility Score: inf
ROOT
ATOM      1  C   UNL     1      -1.355   2.286   6.882  1.00  0.00     0.063 C 
ATOM      2  C   UNL     1      -0.515   1.187   6.326  1.00  0.00     0.038 C 
ATOM      3  O   UNL     1       0.408   1.448   5.511  1.00  0.00    -0.550 OA
ATOM      4  O   UNL     1      -0.713  -0.122   6.747  1.00  0.00    -0.550 OA
ENDROOT
TORSDOF 0
ENDMDL
MODEL 4
REMARK VINA RESULT:    -1.957     13.651     13.759
REMARK INTER + INTRA:          -1.957
REMARK INTER:                  -1.957
REMARK INTRA:                   0.000
REMARK UNBOUND:                 0.000
REMARK SMILES CC(=O)[O-]
REMARK SMILES IDX 1 1 2 2 3 3 4 4
REMARK H PARENT
REMARK Flexibility Score: inf
ROOT
ATOM      1  C   UNL     1      -5.812  -2.525  -4.313  1.00  0.00     0.063 C 
ATOM      2  C   UNL     1      -5.864  -3.590  -5.355  1.00  0.00     0.038 C 
ATOM      3  O   UNL     1      -4.819  -4.215  -5.673  1.00  0.00    -0.550 OA
ATOM      4  O   UNL     1      -7.076  -3.931  -5.942  1.00  0.00    -0.550 OA
ENDROOT
TORSDOF 0
ENDMDL
MODEL 5
REMARK VINA RESULT:    -1.880     12.888     12.962
REMARK INTER + INTRA:          -1.880
REMARK INTER:                  -1.880
REMARK INTRA:                   0.000
REMARK UNBOUND:                 0.000
REMARK SMILES CC(=O)[O-]
REMARK SMILES IDX 1 1 2 2 3 3 4 4
REMARK H PARENT
REMARK Flexibility Score: inf
ROOT
ATOM      1  C   UNL     1      -6.597  -3.837  -3.766  1.00  0.00     0.063 C 
ATOM      2  C   UNL     1      -5.606  -3.256  -4.717  1.00  0.00     0.038 C 
ATOM      3  O   UNL     1      -5.071  -3.983  -5.594  1.00  0.00    -0.550 OA
ATOM      4  O   UNL     1      -5.310  -1.900  -4.671  1.00  0.00    -0.550 OA
ENDROOT
TORSDOF 0
ENDMDL
MODEL 6
REMARK VINA RESULT:    -1.780     11.658     11.840
REMARK INTER + INTRA:          -1.780
REMARK INTER:                  -1.780
REMARK INTRA:                   0.000
REMARK UNBOUND:                 0.000
REMARK SMILES CC(=O)[O-]
REMARK SMILES IDX 1 1 2 2 3 3 4 4
REMARK H PARENT
REMARK Flexibility Score: inf
ROOT
ATOM      1  C   UNL     1      -6.767  -0.014  -2.751  1.00  0.00     0.063 C 
ATOM      2  C   UNL     1      -6.237   0.660  -3.971  1.00  0.00     0.038 C 
ATOM      3  O   UNL     1      -6.355   1.906  -4.105  1.00  0.00    -0.550 OA
ATOM      4  O   UNL     1      -5.563  -0.077  -4.937  1.00  0.00    -0.550 OA
ENDROOT
TORSDOF 0
ENDMDL
MODEL 7
REMARK VINA RESULT:    -1.759     11.845     12.296
REMARK INTER + INTRA:          -1.759
REMARK INTER:                  -1.759
REMARK INTRA:                   0.000
REMARK UNBOUND:                 0.000
REMARK SMILES CC(=O)[O-]
REMARK SMILES IDX 1 1 2 2 3 3 4 4
REMARK H PARENT
REMARK Flexibility Score: inf
ROOT
ATOM      1  C   UNL     1       4.253  -5.073  -4.053  1.00  0.00     0.063 C 
ATOM      2  C   UNL     1       3.335  -3.900  -4.125  1.00  0.00     0.038 C 
ATOM      3  O   UNL     1       2.551  -3.772  -5.101  1.00  0.00    -0.550 OA
ATOM      4  O   UNL     1       3.305  -2.974  -3.090  1.00  0.00    -0.550 OA
ENDROOT
TORSDOF 0
ENDMDL
MODEL 8
REMARK VINA RESULT:    -1.752     11.676     11.769
REMARK INTER + INTRA:          -1.752
REMARK INTER:                  -1.752
REMARK INTRA:                   0.000
REMARK UNBOUND:                 0.000
REMARK SMILES CC(=O)[O-]
REMARK SMILES IDX 1 1 2 2 3 3 4 4
REMARK H PARENT
REMARK Flexibility Score: inf
ROOT
ATOM      1  C   UNL     1      -6.839  -0.006  -2.810  1.00  0.00     0.063 C 
ATOM      2  C   UNL     1      -6.220   0.669  -3.986  1.00  0.00     0.038 C 
ATOM      3  O   UNL     1      -5.617  -0.008  -4.859  1.00  0.00    -0.550 OA
ATOM      4  O   UNL     1      -6.354   2.042  -4.151  1.00  0.00    -0.550 OA
ENDROOT
TORSDOF 0
ENDMDL
MODEL 9
REMARK VINA RESULT:    -1.674     12.252     12.397
REMARK INTER + INTRA:          -1.674
REMARK INTER:                  -1.674
REMARK INTRA:                   0.000
REMARK UNBOUND:                 0.000
REMARK SMILES CC(=O)[O-]
REMARK SMILES IDX 1 1 2 2 3 3 4 4
REMARK H PARENT
REMARK Flexibility Score: inf
ROOT
ATOM      1  C   UNL     1      -7.087  -1.216  -3.567  1.00  0.00     0.063 C 
ATOM      2  C   UNL     1      -5.910  -1.226  -4.482  1.00  0.00     0.038 C 
ATOM      3  O   UNL     1      -5.486  -0.149  -4.978  1.00  0.00    -0.550 OA
ATOM      4  O   UNL     1      -5.244  -2.416  -4.748  1.00  0.00    -0.550 OA
ENDROOT
TORSDOF 0
ENDMDL
