MODEL 1
REMARK VINA RESULT:    -1.692      0.000      0.000
REMARK INTER + INTRA:          -1.791
REMARK INTER:                  -1.791
REMARK INTRA:                   0.000
REMARK UNBOUND:                 0.000
REMARK SMILES O=c1ccc2cc(O)c(O)cc2o1
REMARK SMILES IDX 4 1 3 2 2 3 1 4 13 5 12 6 11 7 9 8 7 9 6 10 5 11 8 12 10 14
REMARK H PARENT 8 13 10 15
REMARK Flexibility Score: inf
ROOT
ATOM      1  C   UNL     1      20.873  15.721  -0.123  1.00  0.00     0.019 A 
ATOM      2  C   UNL     1      19.569  15.264   0.071  1.00  0.00     0.094 A 
ATOM      3  C   UNL     1      19.312  14.367   1.114  1.00  0.00     0.336 A 
ATOM      4  O   UNL     1      18.143  13.942   1.305  1.00  0.00    -0.246 OA
ATOM      5  O   UNL     1      20.299  13.958   1.908  1.00  0.00    -0.423 OA
ATOM      6  C   UNL     1      21.556  14.369   1.758  1.00  0.00     0.142 A 
ATOM      7  C   UNL     1      22.552  13.905   2.623  1.00  0.00     0.098 A 
ATOM      8  C   UNL     1      23.877  14.336   2.470  1.00  0.00     0.161 A 
ATOM      9  C   UNL     1      24.210  15.235   1.446  1.00  0.00     0.158 A 
ATOM     10  C   UNL     1      23.214  15.704   0.574  1.00  0.00     0.062 A 
ATOM     11  C   UNL     1      21.889  15.274   0.727  1.00  0.00     0.022 A 
ENDROOT
BRANCH   9  12
ATOM     12  O   UNL     1      25.529  15.657   1.300  1.00  0.00    -0.504 OA
ATOM     13  H   UNL     1      25.760  16.517   0.816  1.00  0.00     0.293 HD
ENDBRANCH   9  12
BRANCH   8  14
ATOM     14  O   UNL     1      24.872  13.875   3.331  1.00  0.00    -0.504 OA
ATOM     15  H   UNL     1      24.934  14.198   4.290  1.00  0.00     0.293 HD
ENDBRANCH   8  14
TORSDOF 2
ENDMDL
MODEL 2
REMARK VINA RESULT:     0.705     13.125     14.871
REMARK INTER + INTRA:           0.746
REMARK INTER:                   0.746
REMARK INTRA:                   0.000
REMARK UNBOUND:                 0.000
REMARK SMILES O=c1ccc2cc(O)c(O)cc2o1
REMARK SMILES IDX 4 1 3 2 2 3 1 4 13 5 12 6 11 7 9 8 7 9 6 10 5 11 8 12 10 14
REMARK H PARENT 8 13 10 15
REMARK Flexibility Score: inf
ROOT
ATOM      1  C   UNL     1      27.505  29.716   2.901  1.00  0.00     0.019 A 
ATOM      2  C   UNL     1      27.857  30.762   2.046  1.00  0.00     0.094 A 
ATOM      3  C   UNL     1      27.829  30.545   0.664  1.00  0.00     0.336 A 
ATOM      4  O   UNL     1      28.144  31.475  -0.125  1.00  0.00    -0.246 OA
ATOM      5  O   UNL     1      27.474  29.360   0.175  1.00  0.00    -0.423 OA
ATOM      6  C   UNL     1      27.131  28.337   0.954  1.00  0.00     0.142 A 
ATOM      7  C   UNL     1      26.766  27.113   0.384  1.00  0.00     0.098 A 
ATOM      8  C   UNL     1      26.404  26.033   1.201  1.00  0.00     0.161 A 
ATOM      9  C   UNL     1      26.408  26.176   2.596  1.00  0.00     0.158 A 
ATOM     10  C   UNL     1      26.773  27.401   3.175  1.00  0.00     0.062 A 
ATOM     11  C   UNL     1      27.135  28.482   2.359  1.00  0.00     0.022 A 
ENDROOT
BRANCH   9  12
ATOM     12  O   UNL     1      26.047  25.098   3.401  1.00  0.00    -0.504 OA
ATOM     13  H   UNL     1      25.079  24.817   3.509  1.00  0.00     0.293 HD
ENDBRANCH   9  12
BRANCH   8  14
ATOM     14  O   UNL     1      26.039  24.813   0.635  1.00  0.00    -0.504 OA
ATOM     15  H   UNL     1      26.730  24.108   0.404  1.00  0.00     0.293 HD
ENDBRANCH   8  14
TORSDOF 2
ENDMDL
MODEL 3
REMARK VINA RESULT:     0.871     12.837     14.390
REMARK INTER + INTRA:           0.922
REMARK INTER:                   0.922
REMARK INTRA:                   0.000
REMARK UNBOUND:                 0.000
REMARK SMILES O=c1ccc2cc(O)c(O)cc2o1
REMARK SMILES IDX 4 1 3 2 2 3 1 4 13 5 12 6 11 7 9 8 7 9 6 10 5 11 8 12 10 14
REMARK H PARENT 8 13 10 15
REMARK Flexibility Score: inf
ROOT
ATOM      1  C   UNL     1      26.375  26.633   3.311  1.00  0.00     0.019 A 
ATOM      2  C   UNL     1      26.110  25.381   2.757  1.00  0.00     0.094 A 
ATOM      3  C   UNL     1      26.227  25.212   1.373  1.00  0.00     0.336 A 
ATOM      4  O   UNL     1      25.991  24.090   0.854  1.00  0.00    -0.246 OA
ATOM      5  O   UNL     1      26.586  26.233   0.599  1.00  0.00    -0.423 OA
ATOM      6  C   UNL     1      26.849  27.444   1.086  1.00  0.00     0.142 A 
ATOM      7  C   UNL     1      27.223  28.479   0.224  1.00  0.00     0.098 A 
ATOM      8  C   UNL     1      27.501  29.756   0.732  1.00  0.00     0.161 A 
ATOM      9  C   UNL     1      27.404  30.000   2.110  1.00  0.00     0.158 A 
ATOM     10  C   UNL     1      27.029  28.964   2.981  1.00  0.00     0.062 A 
ATOM     11  C   UNL     1      26.751  27.688   2.473  1.00  0.00     0.022 A 
ENDROOT
BRANCH   9  12
ATOM     12  O   UNL     1      27.682  31.271   2.607  1.00  0.00    -0.504 OA
ATOM     13  H   UNL     1      28.633  31.584   2.761  1.00  0.00     0.293 HD
ENDBRANCH   9  12
BRANCH   8  14
ATOM     14  O   UNL     1      27.874  30.790  -0.125  1.00  0.00    -0.504 OA
ATOM     15  H   UNL     1      27.799  31.762   0.153  1.00  0.00     0.293 HD
ENDBRANCH   8  14
TORSDOF 2
ENDMDL
