MODEL 1
REMARK VINA RESULT:    -2.897      0.000      0.000
REMARK INTER + INTRA:          -3.431
REMARK INTER:                  -3.405
REMARK INTRA:                  -0.026
REMARK UNBOUND:                -0.026
REMARK SMILES CCCCC(=O)[O-]
REMARK SMILES IDX 4 1 5 2 6 3 7 4 3 5 2 6 1 7
REMARK H PARENT
REMARK Flexibility Score: inf
ROOT
ATOM      1  C   UNL     1      58.643  37.861  55.377  1.00  0.00     0.053 C 
ENDROOT
BRANCH   1   2
ATOM      2  C   UNL     1      59.232  37.859  56.754  1.00  0.00     0.041 C 
ATOM      3  O   UNL     1      58.621  38.413  57.705  1.00  0.00    -0.550 OA
ATOM      4  O   UNL     1      60.471  37.273  56.980  1.00  0.00    -0.550 OA
ENDBRANCH   1   2
BRANCH   1   5
ATOM      5  C   UNL     1      58.967  36.569  54.616  1.00  0.00     0.006 C 
BRANCH   5   6
ATOM      6  C   UNL     1      57.785  36.084  53.764  1.00  0.00    -0.003 C 
ATOM      7  C   UNL     1      57.159  37.236  52.985  1.00  0.00     0.004 C 
ENDBRANCH   5   6
ENDBRANCH   1   5
TORSDOF 3
ENDMDL
MODEL 2
REMARK VINA RESULT:    -2.862     17.675     18.519
REMARK INTER + INTRA:          -3.390
REMARK INTER:                  -3.370
REMARK INTRA:                  -0.020
REMARK UNBOUND:                -0.026
REMARK SMILES CCCCC(=O)[O-]
REMARK SMILES IDX 4 1 5 2 6 3 7 4 3 5 2 6 1 7
REMARK H PARENT
REMARK Flexibility Score: inf
ROOT
ATOM      1  C   UNL     1      63.564  46.465  39.927  1.00  0.00     0.053 C 
ENDROOT
BRANCH   1   2
ATOM      2  C   UNL     1      64.312  45.563  40.860  1.00  0.00     0.041 C 
ATOM      3  O   UNL     1      64.363  45.826  42.090  1.00  0.00    -0.550 OA
ATOM      4  O   UNL     1      64.980  44.450  40.365  1.00  0.00    -0.550 OA
ENDBRANCH   1   2
BRANCH   1   5
ATOM      5  C   UNL     1      63.336  47.854  40.538  1.00  0.00     0.006 C 
BRANCH   5   6
ATOM      6  C   UNL     1      62.480  48.753  39.634  1.00  0.00    -0.003 C 
ATOM      7  C   UNL     1      61.221  49.222  40.358  1.00  0.00     0.004 C 
ENDBRANCH   5   6
ENDBRANCH   1   5
TORSDOF 3
ENDMDL
MODEL 3
REMARK VINA RESULT:    -2.854      7.531      8.310
REMARK INTER + INTRA:          -3.380
REMARK INTER:                  -3.278
REMARK INTRA:                  -0.102
REMARK UNBOUND:                -0.026
REMARK SMILES CCCCC(=O)[O-]
REMARK SMILES IDX 4 1 5 2 6 3 7 4 3 5 2 6 1 7
REMARK H PARENT
REMARK Flexibility Score: inf
ROOT
ATOM      1  C   UNL     1      61.551  36.080  47.795  1.00  0.00     0.053 C 
ENDROOT
BRANCH   1   2
ATOM      2  C   UNL     1      61.170  37.529  47.810  1.00  0.00     0.041 C 
ATOM      3  O   UNL     1      61.967  38.389  48.267  1.00  0.00    -0.550 OA
ATOM      4  O   UNL     1      59.920  37.924  47.349  1.00  0.00    -0.550 OA
ENDBRANCH   1   2
BRANCH   1   5
ATOM      5  C   UNL     1      61.259  35.400  49.139  1.00  0.00     0.006 C 
BRANCH   5   6
ATOM      6  C   UNL     1      62.513  35.285  50.017  1.00  0.00    -0.003 C 
ATOM      7  C   UNL     1      63.753  35.015  49.172  1.00  0.00     0.004 C 
ENDBRANCH   5   6
ENDBRANCH   1   5
TORSDOF 3
ENDMDL
MODEL 4
REMARK VINA RESULT:    -2.842     10.218     10.787
REMARK INTER + INTRA:          -3.366
REMARK INTER:                  -3.295
REMARK INTRA:                  -0.071
REMARK UNBOUND:                -0.026
REMARK SMILES CCCCC(=O)[O-]
REMARK SMILES IDX 4 1 5 2 6 3 7 4 3 5 2 6 1 7
REMARK H PARENT
REMARK Flexibility Score: inf
ROOT
ATOM      1  C   UNL     1      65.174  44.374  57.911  1.00  0.00     0.053 C 
ENDROOT
BRANCH   1   2
ATOM      2  C   UNL     1      65.427  45.825  57.639  1.00  0.00     0.041 C 
ATOM      3  O   UNL     1      66.083  46.174  56.623  1.00  0.00    -0.550 OA
ATOM      4  O   UNL     1      64.967  46.790  58.526  1.00  0.00    -0.550 OA
ENDBRANCH   1   2
BRANCH   1   5
ATOM      5  C   UNL     1      65.719  43.480  56.789  1.00  0.00     0.006 C 
BRANCH   5   6
ATOM      6  C   UNL     1      66.576  42.327  57.330  1.00  0.00    -0.003 C 
ATOM      7  C   UNL     1      67.207  42.691  58.670  1.00  0.00     0.004 C 
ENDBRANCH   5   6
ENDBRANCH   1   5
TORSDOF 3
ENDMDL
MODEL 5
REMARK VINA RESULT:    -2.808     18.083     18.764
REMARK INTER + INTRA:          -3.326
REMARK INTER:                  -3.212
REMARK INTRA:                  -0.115
REMARK UNBOUND:                -0.026
REMARK SMILES CCCCC(=O)[O-]
REMARK SMILES IDX 4 1 5 2 6 3 7 4 3 5 2 6 1 7
REMARK H PARENT
REMARK Flexibility Score: inf
ROOT
ATOM      1  C   UNL     1      70.420  51.702  50.427  1.00  0.00     0.053 C 
ENDROOT
BRANCH   1   2
ATOM      2  C   UNL     1      68.963  51.388  50.278  1.00  0.00     0.041 C 
ATOM      3  O   UNL     1      68.200  52.193  49.681  1.00  0.00    -0.550 OA
ATOM      4  O   UNL     1      68.443  50.223  50.825  1.00  0.00    -0.550 OA
ENDBRANCH   1   2
BRANCH   1   5
ATOM      5  C   UNL     1      70.718  52.405  51.759  1.00  0.00     0.006 C 
BRANCH   5   6
ATOM      6  C   UNL     1      71.160  51.419  52.850  1.00  0.00    -0.003 C 
ATOM      7  C   UNL     1      70.063  51.226  53.893  1.00  0.00     0.004 C 
ENDBRANCH   5   6
ENDBRANCH   1   5
TORSDOF 3
ENDMDL
MODEL 6
REMARK VINA RESULT:    -2.791     18.025     18.538
REMARK INTER + INTRA:          -3.305
REMARK INTER:                  -3.241
REMARK INTRA:                  -0.065
REMARK UNBOUND:                -0.026
REMARK SMILES CCCCC(=O)[O-]
REMARK SMILES IDX 4 1 5 2 6 3 7 4 3 5 2 6 1 7
REMARK H PARENT
REMARK Flexibility Score: inf
ROOT
ATOM      1  C   UNL     1      68.728  51.550  49.822  1.00  0.00     0.053 C 
ENDROOT
BRANCH   1   2
ATOM      2  C   UNL     1      68.677  50.596  50.976  1.00  0.00     0.041 C 
ATOM      3  O   UNL     1      68.027  49.522  50.882  1.00  0.00    -0.550 OA
ATOM      4  O   UNL     1      69.320  50.910  52.167  1.00  0.00    -0.550 OA
ENDBRANCH   1   2
BRANCH   1   5
ATOM      5  C   UNL     1      69.549  52.804  50.155  1.00  0.00     0.006 C 
BRANCH   5   6
ATOM      6  C   UNL     1      68.731  54.093  49.991  1.00  0.00    -0.003 C 
ATOM      7  C   UNL     1      67.562  53.885  49.034  1.00  0.00     0.004 C 
ENDBRANCH   5   6
ENDBRANCH   1   5
TORSDOF 3
ENDMDL
MODEL 7
REMARK VINA RESULT:    -2.784      2.142      3.736
REMARK INTER + INTRA:          -3.298
REMARK INTER:                  -3.263
REMARK INTRA:                  -0.035
REMARK UNBOUND:                -0.026
REMARK SMILES CCCCC(=O)[O-]
REMARK SMILES IDX 4 1 5 2 6 3 7 4 3 5 2 6 1 7
REMARK H PARENT
REMARK Flexibility Score: inf
ROOT
ATOM      1  C   UNL     1      58.824  38.160  55.949  1.00  0.00     0.053 C 
ENDROOT
BRANCH   1   2
ATOM      2  C   UNL     1      58.861  37.101  54.890  1.00  0.00     0.041 C 
ATOM      3  O   UNL     1      57.896  36.971  54.091  1.00  0.00    -0.550 OA
ATOM      4  O   UNL     1      59.945  36.237  54.808  1.00  0.00    -0.550 OA
ENDBRANCH   1   2
BRANCH   1   5
ATOM      5  C   UNL     1      59.588  37.733  57.209  1.00  0.00     0.006 C 
BRANCH   5   6
ATOM      6  C   UNL     1      59.135  38.510  58.454  1.00  0.00    -0.003 C 
ATOM      7  C   UNL     1      58.259  39.699  58.072  1.00  0.00     0.004 C 
ENDBRANCH   5   6
ENDBRANCH   1   5
TORSDOF 3
ENDMDL
MODEL 8
REMARK VINA RESULT:    -2.759      8.759      9.901
REMARK INTER + INTRA:          -3.268
REMARK INTER:                  -3.180
REMARK INTRA:                  -0.089
REMARK UNBOUND:                -0.026
REMARK SMILES CCCCC(=O)[O-]
REMARK SMILES IDX 4 1 5 2 6 3 7 4 3 5 2 6 1 7
REMARK H PARENT
REMARK Flexibility Score: inf
ROOT
ATOM      1  C   UNL     1      65.725  43.493  56.727  1.00  0.00     0.053 C 
ENDROOT
BRANCH   1   2
ATOM      2  C   UNL     1      65.412  44.877  57.206  1.00  0.00     0.041 C 
ATOM      3  O   UNL     1      64.588  45.052  58.142  1.00  0.00    -0.550 OA
ATOM      4  O   UNL     1      66.006  45.975  56.598  1.00  0.00    -0.550 OA
ENDBRANCH   1   2
BRANCH   1   5
ATOM      5  C   UNL     1      66.745  42.792  57.633  1.00  0.00     0.006 C 
BRANCH   5   6
ATOM      6  C   UNL     1      66.311  41.367  58.004  1.00  0.00    -0.003 C 
ATOM      7  C   UNL     1      64.798  41.280  58.174  1.00  0.00     0.004 C 
ENDBRANCH   5   6
ENDBRANCH   1   5
TORSDOF 3
ENDMDL
MODEL 9
REMARK VINA RESULT:    -2.722      9.183     10.648
REMARK INTER + INTRA:          -3.225
REMARK INTER:                  -3.200
REMARK INTRA:                  -0.025
REMARK UNBOUND:                -0.026
REMARK SMILES CCCCC(=O)[O-]
REMARK SMILES IDX 4 1 5 2 6 3 7 4 3 5 2 6 1 7
REMARK H PARENT
REMARK Flexibility Score: inf
ROOT
ATOM      1  C   UNL     1      65.731  44.252  56.966  1.00  0.00     0.053 C 
ENDROOT
BRANCH   1   2
ATOM      2  C   UNL     1      65.878  42.793  57.271  1.00  0.00     0.041 C 
ATOM      3  O   UNL     1      66.986  42.220  57.100  1.00  0.00    -0.550 OA
ATOM      4  O   UNL     1      64.784  42.061  57.714  1.00  0.00    -0.550 OA
ENDBRANCH   1   2
BRANCH   1   5
ATOM      5  C   UNL     1      64.880  44.972  58.020  1.00  0.00     0.006 C 
BRANCH   5   6
ATOM      6  C   UNL     1      65.688  46.015  58.806  1.00  0.00    -0.003 C 
ATOM      7  C   UNL     1      65.525  47.406  58.204  1.00  0.00     0.004 C 
ENDBRANCH   5   6
ENDBRANCH   1   5
TORSDOF 3
ENDMDL
