MODEL 1
REMARK VINA RESULT:    13.809      0.000      0.000
REMARK INTER + INTRA:          27.209
REMARK INTER:                  26.726
REMARK INTRA:                   0.483
REMARK UNBOUND:                 0.483
REMARK SMILES CCCCCCCCCCCCCCCCCC(=O)[O-]
REMARK SMILES IDX 10 1 11 2 12 3 13 4 14 5 15 6 16 7 17 8 18 9 19 10 20 11
REMARK SMILES IDX 9 12 8 13 7 14 6 15 5 16 4 17 3 18 2 19 1 20
REMARK H PARENT
REMARK Flexibility Score: inf
ROOT
ATOM      1  C   UNL     1       4.405  47.564  12.827  1.00  0.00     0.000 C 
ENDROOT
BRANCH   1   2
ATOM      2  C   UNL     1       4.457  48.601  11.692  1.00  0.00     0.000 C 
BRANCH   2   3
ATOM      3  C   UNL     1       4.151  47.994  10.310  1.00  0.00     0.000 C 
BRANCH   3   4
ATOM      4  C   UNL     1       4.498  48.890   9.106  1.00  0.00     0.000 C 
BRANCH   4   5
ATOM      5  C   UNL     1       5.695  49.837   9.317  1.00  0.00     0.000 C 
BRANCH   5   6
ATOM      6  C   UNL     1       7.062  49.266   8.889  1.00  0.00     0.000 C 
BRANCH   6   7
ATOM      7  C   UNL     1       7.149  47.730   8.875  1.00  0.00     0.006 C 
BRANCH   7   8
ATOM      8  C   UNL     1       7.999  47.170  10.022  1.00  0.00     0.053 C 
BRANCH   8   9
ATOM      9  C   UNL     1       8.031  48.132  11.167  1.00  0.00     0.041 C 
ATOM     10  O   UNL     1       7.946  47.711  12.351  1.00  0.00    -0.550 OA
ATOM     11  O   UNL     1       8.186  49.492  10.928  1.00  0.00    -0.550 OA
ENDBRANCH   8   9
ENDBRANCH   7   8
ENDBRANCH   6   7
ENDBRANCH   5   6
ENDBRANCH   4   5
ENDBRANCH   3   4
ENDBRANCH   2   3
ENDBRANCH   1   2
BRANCH   1  12
ATOM     12  C   UNL     1       4.192  48.203  14.213  1.00  0.00     0.000 C 
BRANCH  12  13
ATOM     13  C   UNL     1       2.830  47.908  14.866  1.00  0.00    -0.000 C 
BRANCH  13  14
ATOM     14  C   UNL     1       2.935  46.949  16.063  1.00  0.00    -0.000 C 
BRANCH  14  15
ATOM     15  C   UNL     1       3.193  45.494  15.639  1.00  0.00    -0.000 C 
BRANCH  15  16
ATOM     16  C   UNL     1       3.587  44.574  16.815  1.00  0.00    -0.000 C 
BRANCH  16  17
ATOM     17  C   UNL     1       3.329  45.235  18.181  1.00  0.00    -0.000 C 
BRANCH  17  18
ATOM     18  C   UNL     1       2.028  44.748  18.845  1.00  0.00    -0.000 C 
BRANCH  18  19
ATOM     19  C   UNL     1       1.325  45.794  19.728  1.00  0.00    -0.003 C 
ATOM     20  C   UNL     1       2.219  46.983  20.074  1.00  0.00     0.004 C 
ENDBRANCH  18  19
ENDBRANCH  17  18
ENDBRANCH  16  17
ENDBRANCH  15  16
ENDBRANCH  14  15
ENDBRANCH  13  14
ENDBRANCH  12  13
ENDBRANCH   1  12
TORSDOF 16
ENDMDL
MODEL 2
REMARK VINA RESULT:    14.578      0.881      1.322
REMARK INTER + INTRA:          28.697
REMARK INTER:                  29.927
REMARK INTRA:                  -1.230
REMARK UNBOUND:                 0.483
REMARK SMILES CCCCCCCCCCCCCCCCCC(=O)[O-]
REMARK SMILES IDX 10 1 11 2 12 3 13 4 14 5 15 6 16 7 17 8 18 9 19 10 20 11
REMARK SMILES IDX 9 12 8 13 7 14 6 15 5 16 4 17 3 18 2 19 1 20
REMARK H PARENT
REMARK Flexibility Score: inf
ROOT
ATOM      1  C   UNL     1       4.468  47.475  13.616  1.00  0.00     0.000 C 
ENDROOT
BRANCH   1   2
ATOM      2  C   UNL     1       4.619  48.376  12.379  1.00  0.00     0.000 C 
BRANCH   2   3
ATOM      3  C   UNL     1       3.962  47.783  11.119  1.00  0.00     0.000 C 
BRANCH   3   4
ATOM      4  C   UNL     1       4.693  48.075   9.795  1.00  0.00     0.000 C 
BRANCH   4   5
ATOM      5  C   UNL     1       4.631  49.541   9.322  1.00  0.00     0.000 C 
BRANCH   5   6
ATOM      6  C   UNL     1       5.983  50.143   8.886  1.00  0.00     0.000 C 
BRANCH   6   7
ATOM      7  C   UNL     1       7.161  49.154   8.876  1.00  0.00     0.006 C 
BRANCH   7   8
ATOM      8  C   UNL     1       7.982  49.191  10.171  1.00  0.00     0.053 C 
BRANCH   8   9
ATOM      9  C   UNL     1       7.988  47.846  10.825  1.00  0.00     0.041 C 
ATOM     10  O   UNL     1       7.861  46.803  10.131  1.00  0.00    -0.550 OA
ATOM     11  O   UNL     1       8.165  47.742  12.200  1.00  0.00    -0.550 OA
ENDBRANCH   8   9
ENDBRANCH   7   8
ENDBRANCH   6   7
ENDBRANCH   5   6
ENDBRANCH   4   5
ENDBRANCH   3   4
ENDBRANCH   2   3
ENDBRANCH   1   2
BRANCH   1  12
ATOM     12  C   UNL     1       3.900  48.223  14.837  1.00  0.00     0.000 C 
BRANCH  12  13
ATOM     13  C   UNL     1       3.009  47.378  15.766  1.00  0.00    -0.000 C 
BRANCH  13  14
ATOM     14  C   UNL     1       2.868  45.921  15.297  1.00  0.00    -0.000 C 
BRANCH  14  15
ATOM     15  C   UNL     1       3.600  44.927  16.214  1.00  0.00    -0.000 C 
BRANCH  15  16
ATOM     16  C   UNL     1       3.479  45.275  17.713  1.00  0.00    -0.000 C 
BRANCH  16  17
ATOM     17  C   UNL     1       2.168  44.751  18.327  1.00  0.00    -0.000 C 
BRANCH  17  18
ATOM     18  C   UNL     1       1.736  45.539  19.577  1.00  0.00    -0.000 C 
BRANCH  18  19
ATOM     19  C   UNL     1       2.252  46.988  19.636  1.00  0.00    -0.003 C 
ATOM     20  C   UNL     1       1.794  47.736  20.886  1.00  0.00     0.004 C 
ENDBRANCH  18  19
ENDBRANCH  17  18
ENDBRANCH  16  17
ENDBRANCH  15  16
ENDBRANCH  14  15
ENDBRANCH  13  14
ENDBRANCH  12  13
ENDBRANCH   1  12
TORSDOF 16
ENDMDL
MODEL 3
REMARK VINA RESULT:    15.141      3.729      6.818
REMARK INTER + INTRA:          29.786
REMARK INTER:                  29.137
REMARK INTRA:                   0.650
REMARK UNBOUND:                 0.483
REMARK SMILES CCCCCCCCCCCCCCCCCC(=O)[O-]
REMARK SMILES IDX 10 1 11 2 12 3 13 4 14 5 15 6 16 7 17 8 18 9 19 10 20 11
REMARK SMILES IDX 9 12 8 13 7 14 6 15 5 16 4 17 3 18 2 19 1 20
REMARK H PARENT
REMARK Flexibility Score: inf
ROOT
ATOM      1  C   UNL     1       8.182  47.877  11.267  1.00  0.00     0.000 C 
ENDROOT
BRANCH   1   2
ATOM      2  C   UNL     1       8.493  46.718  10.305  1.00  0.00     0.000 C 
BRANCH   2   3
ATOM      3  C   UNL     1       8.959  47.199   8.918  1.00  0.00     0.000 C 
BRANCH   3   4
ATOM      4  C   UNL     1      10.365  47.829   8.878  1.00  0.00     0.000 C 
BRANCH   4   5
ATOM      5  C   UNL     1      11.452  47.056   9.651  1.00  0.00     0.000 C 
BRANCH   5   6
ATOM      6  C   UNL     1      12.072  45.867   8.889  1.00  0.00     0.000 C 
BRANCH   6   7
ATOM      7  C   UNL     1      13.420  45.373   9.443  1.00  0.00     0.006 C 
BRANCH   7   8
ATOM      8  C   UNL     1      14.077  46.378  10.397  1.00  0.00     0.053 C 
BRANCH   8   9
ATOM      9  C   UNL     1      14.829  47.416   9.627  1.00  0.00     0.041 C 
ATOM     10  O   UNL     1      16.072  47.303   9.458  1.00  0.00    -0.550 OA
ATOM     11  O   UNL     1      14.152  48.494   9.069  1.00  0.00    -0.550 OA
ENDBRANCH   8   9
ENDBRANCH   7   8
ENDBRANCH   6   7
ENDBRANCH   5   6
ENDBRANCH   4   5
ENDBRANCH   3   4
ENDBRANCH   2   3
ENDBRANCH   1   2
BRANCH   1  12
ATOM     12  C   UNL     1       6.874  48.612  10.917  1.00  0.00     0.000 C 
BRANCH  12  13
ATOM     13  C   UNL     1       6.946  49.519   9.675  1.00  0.00    -0.000 C 
BRANCH  13  14
ATOM     14  C   UNL     1       5.746  50.473   9.558  1.00  0.00    -0.000 C 
BRANCH  14  15
ATOM     15  C   UNL     1       4.443  49.746   9.187  1.00  0.00    -0.000 C 
BRANCH  15  16
ATOM     16  C   UNL     1       4.594  48.211   9.127  1.00  0.00    -0.000 C 
BRANCH  16  17
ATOM     17  C   UNL     1       3.832  47.508  10.265  1.00  0.00    -0.000 C 
BRANCH  17  18
ATOM     18  C   UNL     1       3.610  48.417  11.488  1.00  0.00    -0.000 C 
BRANCH  18  19
ATOM     19  C   UNL     1       4.522  48.114  12.689  1.00  0.00    -0.003 C 
ATOM     20  C   UNL     1       3.750  47.916  13.993  1.00  0.00     0.004 C 
ENDBRANCH  18  19
ENDBRANCH  17  18
ENDBRANCH  16  17
ENDBRANCH  15  16
ENDBRANCH  14  15
ENDBRANCH  13  14
ENDBRANCH  12  13
ENDBRANCH   1  12
TORSDOF 16
ENDMDL
MODEL 4
REMARK VINA RESULT:    15.317      4.099      6.425
REMARK INTER + INTRA:          30.127
REMARK INTER:                  30.423
REMARK INTRA:                  -0.296
REMARK UNBOUND:                 0.483
REMARK SMILES CCCCCCCCCCCCCCCCCC(=O)[O-]
REMARK SMILES IDX 10 1 11 2 12 3 13 4 14 5 15 6 16 7 17 8 18 9 19 10 20 11
REMARK SMILES IDX 9 12 8 13 7 14 6 15 5 16 4 17 3 18 2 19 1 20
REMARK H PARENT
REMARK Flexibility Score: inf
ROOT
ATOM      1  C   UNL     1       7.889  49.541  10.279  1.00  0.00     0.000 C 
ENDROOT
BRANCH   1   2
ATOM      2  C   UNL     1       8.246  48.061  10.496  1.00  0.00     0.000 C 
BRANCH   2   3
ATOM      3  C   UNL     1       8.840  47.396   9.239  1.00  0.00     0.000 C 
BRANCH   3   4
ATOM      4  C   UNL     1      10.360  47.146   9.283  1.00  0.00     0.000 C 
BRANCH   4   5
ATOM      5  C   UNL     1      11.236  48.400   9.096  1.00  0.00     0.000 C 
BRANCH   5   6
ATOM      6  C   UNL     1      12.747  48.124   8.951  1.00  0.00     0.000 C 
BRANCH   6   7
ATOM      7  C   UNL     1      13.132  46.637   8.880  1.00  0.00     0.006 C 
BRANCH   7   8
ATOM      8  C   UNL     1      14.646  46.407   8.969  1.00  0.00     0.053 C 
BRANCH   8   9
ATOM      9  C   UNL     1      14.946  44.947   9.093  1.00  0.00     0.041 C 
ATOM     10  O   UNL     1      14.010  44.104   9.090  1.00  0.00    -0.550 OA
ATOM     11  O   UNL     1      16.264  44.514   9.182  1.00  0.00    -0.550 OA
ENDBRANCH   8   9
ENDBRANCH   7   8
ENDBRANCH   6   7
ENDBRANCH   5   6
ENDBRANCH   4   5
ENDBRANCH   3   4
ENDBRANCH   2   3
ENDBRANCH   1   2
BRANCH   1  12
ATOM     12  C   UNL     1       6.374  49.809  10.356  1.00  0.00     0.000 C 
BRANCH  12  13
ATOM     13  C   UNL     1       5.630  49.751   9.010  1.00  0.00    -0.000 C 
BRANCH  13  14
ATOM     14  C   UNL     1       4.615  48.599   8.935  1.00  0.00    -0.000 C 
BRANCH  14  15
ATOM     15  C   UNL     1       4.535  47.791  10.241  1.00  0.00    -0.000 C 
BRANCH  15  16
ATOM     16  C   UNL     1       3.955  48.596  11.424  1.00  0.00    -0.000 C 
BRANCH  16  17
ATOM     17  C   UNL     1       4.757  48.384  12.720  1.00  0.00    -0.000 C 
BRANCH  17  18
ATOM     18  C   UNL     1       3.928  47.723  13.836  1.00  0.00    -0.000 C 
BRANCH  18  19
ATOM     19  C   UNL     1       2.768  46.841  13.340  1.00  0.00    -0.003 C 
ATOM     20  C   UNL     1       1.994  46.175  14.476  1.00  0.00     0.004 C 
ENDBRANCH  18  19
ENDBRANCH  17  18
ENDBRANCH  16  17
ENDBRANCH  15  16
ENDBRANCH  14  15
ENDBRANCH  13  14
ENDBRANCH  12  13
ENDBRANCH   1  12
TORSDOF 16
ENDMDL
MODEL 5
REMARK VINA RESULT:    15.578      3.189      8.795
REMARK INTER + INTRA:          30.632
REMARK INTER:                  29.468
REMARK INTRA:                   1.165
REMARK UNBOUND:                 0.483
REMARK SMILES CCCCCCCCCCCCCCCCCC(=O)[O-]
REMARK SMILES IDX 10 1 11 2 12 3 13 4 14 5 15 6 16 7 17 8 18 9 19 10 20 11
REMARK SMILES IDX 9 12 8 13 7 14 6 15 5 16 4 17 3 18 2 19 1 20
REMARK H PARENT
REMARK Flexibility Score: inf
ROOT
ATOM      1  C   UNL     1       3.718  47.898  12.571  1.00  0.00     0.000 C 
ENDROOT
BRANCH   1   2
ATOM      2  C   UNL     1       4.487  47.832  13.902  1.00  0.00     0.000 C 
BRANCH   2   3
ATOM      3  C   UNL     1       3.570  47.965  15.132  1.00  0.00     0.000 C 
BRANCH   3   4
ATOM      4  C   UNL     1       2.638  46.765  15.392  1.00  0.00     0.000 C 
BRANCH   4   5
ATOM      5  C   UNL     1       3.323  45.520  15.989  1.00  0.00     0.000 C 
BRANCH   5   6
ATOM      6  C   UNL     1       3.281  45.429  17.528  1.00  0.00     0.000 C 
BRANCH   6   7
ATOM      7  C   UNL     1       2.158  46.239  18.197  1.00  0.00     0.006 C 
BRANCH   7   8
ATOM      8  C   UNL     1       2.157  46.109  19.725  1.00  0.00     0.053 C 
BRANCH   8   9
ATOM      9  C   UNL     1       2.649  47.372  20.358  1.00  0.00     0.041 C 
ATOM     10  O   UNL     1       1.829  48.219  20.802  1.00  0.00    -0.550 OA
ATOM     11  O   UNL     1       4.014  47.601  20.483  1.00  0.00    -0.550 OA
ENDBRANCH   8   9
ENDBRANCH   7   8
ENDBRANCH   6   7
ENDBRANCH   5   6
ENDBRANCH   4   5
ENDBRANCH   3   4
ENDBRANCH   2   3
ENDBRANCH   1   2
BRANCH   1  12
ATOM     12  C   UNL     1       4.555  48.498  11.425  1.00  0.00     0.000 C 
BRANCH  12  13
ATOM     13  C   UNL     1       3.794  48.716  10.105  1.00  0.00    -0.000 C 
BRANCH  13  14
ATOM     14  C   UNL     1       4.716  48.715   8.875  1.00  0.00    -0.000 C 
BRANCH  14  15
ATOM     15  C   UNL     1       5.782  49.822   8.929  1.00  0.00    -0.000 C 
BRANCH  15  16
ATOM     16  C   UNL     1       7.227  49.279   8.973  1.00  0.00    -0.000 C 
BRANCH  16  17
ATOM     17  C   UNL     1       7.273  47.744   8.879  1.00  0.00    -0.000 C 
BRANCH  17  18
ATOM     18  C   UNL     1       7.486  47.066  10.245  1.00  0.00    -0.000 C 
BRANCH  18  19
ATOM     19  C   UNL     1       8.200  47.940  11.292  1.00  0.00    -0.003 C 
ATOM     20  C   UNL     1       7.990  49.436  11.066  1.00  0.00     0.004 C 
ENDBRANCH  18  19
ENDBRANCH  17  18
ENDBRANCH  16  17
ENDBRANCH  15  16
ENDBRANCH  14  15
ENDBRANCH  13  14
ENDBRANCH  12  13
ENDBRANCH   1  12
TORSDOF 16
ENDMDL
MODEL 6
REMARK VINA RESULT:    16.190      2.832      5.284
REMARK INTER + INTRA:          31.817
REMARK INTER:                  31.905
REMARK INTRA:                  -0.089
REMARK UNBOUND:                 0.483
REMARK SMILES CCCCCCCCCCCCCCCCCC(=O)[O-]
REMARK SMILES IDX 10 1 11 2 12 3 13 4 14 5 15 6 16 7 17 8 18 9 19 10 20 11
REMARK SMILES IDX 9 12 8 13 7 14 6 15 5 16 4 17 3 18 2 19 1 20
REMARK H PARENT
REMARK Flexibility Score: inf
ROOT
ATOM      1  C   UNL     1       6.884  49.467   8.892  1.00  0.00     0.000 C 
ENDROOT
BRANCH   1   2
ATOM      2  C   UNL     1       7.508  48.961  10.204  1.00  0.00     0.000 C 
BRANCH   2   3
ATOM      3  C   UNL     1       7.464  47.427  10.337  1.00  0.00     0.000 C 
BRANCH   3   4
ATOM      4  C   UNL     1       7.825  46.645   9.059  1.00  0.00     0.000 C 
BRANCH   4   5
ATOM      5  C   UNL     1       9.325  46.343   8.876  1.00  0.00     0.000 C 
BRANCH   5   6
ATOM      6  C   UNL     1      10.270  47.168   9.774  1.00  0.00     0.000 C 
BRANCH   6   7
ATOM      7  C   UNL     1      11.417  47.877   9.033  1.00  0.00     0.006 C 
BRANCH   7   8
ATOM      8  C   UNL     1      12.661  46.993   8.875  1.00  0.00     0.053 C 
BRANCH   8   9
ATOM      9  C   UNL     1      13.488  47.028  10.121  1.00  0.00     0.041 C 
ATOM     10  O   UNL     1      13.053  46.514  11.185  1.00  0.00    -0.550 OA
ATOM     11  O   UNL     1      14.753  47.603  10.099  1.00  0.00    -0.550 OA
ENDBRANCH   8   9
ENDBRANCH   7   8
ENDBRANCH   6   7
ENDBRANCH   5   6
ENDBRANCH   4   5
ENDBRANCH   3   4
ENDBRANCH   2   3
ENDBRANCH   1   2
BRANCH   1  12
ATOM     12  C   UNL     1       5.735  50.467   9.123  1.00  0.00     0.000 C 
BRANCH  12  13
ATOM     13  C   UNL     1       4.320  49.872   9.022  1.00  0.00    -0.000 C 
BRANCH  13  14
ATOM     14  C   UNL     1       4.259  48.395   9.447  1.00  0.00    -0.000 C 
BRANCH  14  15
ATOM     15  C   UNL     1       3.845  48.215  10.917  1.00  0.00    -0.000 C 
BRANCH  15  16
ATOM     16  C   UNL     1       5.014  48.404  11.908  1.00  0.00    -0.000 C 
BRANCH  16  17
ATOM     17  C   UNL     1       4.862  47.520  13.159  1.00  0.00    -0.000 C 
BRANCH  17  18
ATOM     18  C   UNL     1       3.643  47.903  14.018  1.00  0.00    -0.000 C 
BRANCH  18  19
ATOM     19  C   UNL     1       3.468  47.064  15.297  1.00  0.00    -0.003 C 
ATOM     20  C   UNL     1       2.130  47.307  15.993  1.00  0.00     0.004 C 
ENDBRANCH  18  19
ENDBRANCH  17  18
ENDBRANCH  16  17
ENDBRANCH  15  16
ENDBRANCH  14  15
ENDBRANCH  13  14
ENDBRANCH  12  13
ENDBRANCH   1  12
TORSDOF 16
ENDMDL
MODEL 7
REMARK VINA RESULT:    16.210      3.088      8.638
REMARK INTER + INTRA:          31.856
REMARK INTER:                  31.934
REMARK INTRA:                  -0.077
REMARK UNBOUND:                 0.483
REMARK SMILES CCCCCCCCCCCCCCCCCC(=O)[O-]
REMARK SMILES IDX 10 1 11 2 12 3 13 4 14 5 15 6 16 7 17 8 18 9 19 10 20 11
REMARK SMILES IDX 9 12 8 13 7 14 6 15 5 16 4 17 3 18 2 19 1 20
REMARK H PARENT
REMARK Flexibility Score: inf
ROOT
ATOM      1  C   UNL     1       4.660  48.332  11.919  1.00  0.00     0.000 C 
ENDROOT
BRANCH   1   2
ATOM      2  C   UNL     1       3.817  47.746  13.064  1.00  0.00     0.000 C 
BRANCH   2   3
ATOM      3  C   UNL     1       4.184  48.333  14.440  1.00  0.00     0.000 C 
BRANCH   3   4
ATOM      4  C   UNL     1       3.174  48.046  15.569  1.00  0.00     0.000 C 
BRANCH   4   5
ATOM      5  C   UNL     1       2.658  46.595  15.632  1.00  0.00     0.000 C 
BRANCH   5   6
ATOM      6  C   UNL     1       3.753  45.518  15.769  1.00  0.00     0.000 C 
BRANCH   6   7
ATOM      7  C   UNL     1       3.821  44.832  17.144  1.00  0.00     0.006 C 
BRANCH   7   8
ATOM      8  C   UNL     1       2.438  44.605  17.767  1.00  0.00     0.053 C 
BRANCH   8   9
ATOM      9  C   UNL     1       2.230  45.525  18.927  1.00  0.00     0.041 C 
ATOM     10  O   UNL     1       1.337  45.278  19.780  1.00  0.00    -0.550 OA
ATOM     11  O   UNL     1       3.042  46.642  19.084  1.00  0.00    -0.550 OA
ENDBRANCH   8   9
ENDBRANCH   7   8
ENDBRANCH   6   7
ENDBRANCH   5   6
ENDBRANCH   4   5
ENDBRANCH   3   4
ENDBRANCH   2   3
ENDBRANCH   1   2
BRANCH   1  12
ATOM     12  C   UNL     1       4.221  47.824  10.532  1.00  0.00     0.000 C 
BRANCH  12  13
ATOM     13  C   UNL     1       3.667  48.905   9.586  1.00  0.00    -0.000 C 
BRANCH  13  14
ATOM     14  C   UNL     1       4.771  49.757   8.938  1.00  0.00    -0.000 C 
BRANCH  14  15
ATOM     15  C   UNL     1       5.996  49.936   9.850  1.00  0.00    -0.000 C 
BRANCH  15  16
ATOM     16  C   UNL     1       7.338  49.698   9.125  1.00  0.00    -0.000 C 
BRANCH  16  17
ATOM     17  C   UNL     1       8.196  48.631   9.828  1.00  0.00    -0.000 C 
BRANCH  17  18
ATOM     18  C   UNL     1       8.644  47.503   8.880  1.00  0.00    -0.000 C 
BRANCH  18  19
ATOM     19  C   UNL     1       7.729  46.265   8.876  1.00  0.00    -0.003 C 
ATOM     20  C   UNL     1       6.691  46.284   9.997  1.00  0.00     0.004 C 
ENDBRANCH  18  19
ENDBRANCH  17  18
ENDBRANCH  16  17
ENDBRANCH  15  16
ENDBRANCH  14  15
ENDBRANCH  13  14
ENDBRANCH  12  13
ENDBRANCH   1  12
TORSDOF 16
ENDMDL
MODEL 8
REMARK VINA RESULT:    16.467      1.073      2.374
REMARK INTER + INTRA:          32.353
REMARK INTER:                  33.440
REMARK INTRA:                  -1.086
REMARK UNBOUND:                 0.483
REMARK SMILES CCCCCCCCCCCCCCCCCC(=O)[O-]
REMARK SMILES IDX 10 1 11 2 12 3 13 4 14 5 15 6 16 7 17 8 18 9 19 10 20 11
REMARK SMILES IDX 9 12 8 13 7 14 6 15 5 16 4 17 3 18 2 19 1 20
REMARK H PARENT
REMARK Flexibility Score: inf
ROOT
ATOM      1  C   UNL     1       2.780  47.293  14.446  1.00  0.00     0.000 C 
ENDROOT
BRANCH   1   2
ATOM      2  C   UNL     1       4.084  47.885  13.884  1.00  0.00     0.000 C 
BRANCH   2   3
ATOM      3  C   UNL     1       4.306  47.546  12.398  1.00  0.00     0.000 C 
BRANCH   3   4
ATOM      4  C   UNL     1       3.847  48.628  11.401  1.00  0.00     0.000 C 
BRANCH   4   5
ATOM      5  C   UNL     1       4.580  48.623  10.045  1.00  0.00     0.000 C 
BRANCH   5   6
ATOM      6  C   UNL     1       5.478  47.394   9.794  1.00  0.00     0.000 C 
BRANCH   6   7
ATOM      7  C   UNL     1       6.685  47.648   8.875  1.00  0.00     0.006 C 
BRANCH   7   8
ATOM      8  C   UNL     1       8.028  47.374   9.565  1.00  0.00     0.053 C 
BRANCH   8   9
ATOM      9  C   UNL     1       8.184  48.245  10.770  1.00  0.00     0.041 C 
ATOM     10  O   UNL     1       8.485  47.738  11.884  1.00  0.00    -0.550 OA
ATOM     11  O   UNL     1       8.026  49.621  10.659  1.00  0.00    -0.550 OA
ENDBRANCH   8   9
ENDBRANCH   7   8
ENDBRANCH   6   7
ENDBRANCH   5   6
ENDBRANCH   4   5
ENDBRANCH   3   4
ENDBRANCH   2   3
ENDBRANCH   1   2
BRANCH   1  12
ATOM     12  C   UNL     1       2.876  46.947  15.944  1.00  0.00     0.000 C 
BRANCH  12  13
ATOM     13  C   UNL     1       3.089  45.455  16.259  1.00  0.00    -0.000 C 
BRANCH  13  14
ATOM     14  C   UNL     1       3.540  45.207  17.707  1.00  0.00    -0.000 C 
BRANCH  14  15
ATOM     15  C   UNL     1       2.481  44.467  18.542  1.00  0.00    -0.000 C 
BRANCH  15  16
ATOM     16  C   UNL     1       1.690  45.396  19.488  1.00  0.00    -0.000 C 
BRANCH  16  17
ATOM     17  C   UNL     1       2.084  46.874  19.314  1.00  0.00    -0.000 C 
BRANCH  17  18
ATOM     18  C   UNL     1       2.831  47.442  20.535  1.00  0.00    -0.000 C 
BRANCH  18  19
ATOM     19  C   UNL     1       4.360  47.516  20.377  1.00  0.00    -0.003 C 
ATOM     20  C   UNL     1       5.083  46.317  20.988  1.00  0.00     0.004 C 
ENDBRANCH  18  19
ENDBRANCH  17  18
ENDBRANCH  16  17
ENDBRANCH  15  16
ENDBRANCH  14  15
ENDBRANCH  13  14
ENDBRANCH  12  13
ENDBRANCH   1  12
TORSDOF 16
ENDMDL
