MODEL 1
REMARK VINA RESULT:    -8.125      0.000      0.000
REMARK INTER + INTRA:         -14.135
REMARK INTER:                 -12.162
REMARK INTRA:                  -1.973
REMARK UNBOUND:                -1.973
REMARK SMILES C=C(CC[C@@H](C(=O)[O-])[C@@H]1[C@@H](O)C[C@]2(C)C3=C(CC[C@]12C)[C@]1(C)CC[C@H](OC(C)=O)C(C)(C)[C@H]1CC3)C(C)C
REMARK SMILES IDX 4 1 5 2 6 3 7 4 8 5 9 6 10 7 19 8 12 9 13 10 18 11 20 12
REMARK SMILES IDX 14 13 15 14 17 15 16 16 35 17 21 18 34 19 33 20 23 21 22 22
REMARK SMILES IDX 30 23 24 24 25 25 31 26 32 27 11 28 26 30 27 31 29 32 28 33
REMARK SMILES IDX 3 34 2 35 1 36 36 37 37 38 38 39
REMARK H PARENT 11 29
REMARK Flexibility Score: inf
ROOT
ATOM      1  C   UNL     1      13.011  -9.930  60.170  1.00  0.00     0.014 C 
ENDROOT
BRANCH   1   2
ATOM      2  C   UNL     1      13.844  -9.813  61.477  1.00  0.00     0.042 C 
BRANCH   2   3
ATOM      3  C   UNL     1      13.280  -8.700  62.334  1.00  0.00     0.045 C 
ATOM      4  O   UNL     1      12.044  -8.586  62.536  1.00  0.00    -0.550 OA
ATOM      5  O   UNL     1      14.141  -7.755  62.879  1.00  0.00    -0.550 OA
ENDBRANCH   2   3
BRANCH   2   6
ATOM      6  C   UNL     1      14.109 -11.159  62.258  1.00  0.00     0.033 C 
ATOM      7  C   UNL     1      13.453 -11.127  63.662  1.00  0.00     0.119 C 
ATOM      8  C   UNL     1      15.600 -11.626  62.508  1.00  0.00    -0.017 C 
ATOM      9  C   UNL     1      14.286 -11.993  64.607  1.00  0.00     0.043 C 
ATOM     10  C   UNL     1      15.491 -12.546  63.808  1.00  0.00    -0.003 C 
ATOM     11  C   UNL     1      16.616 -10.445  62.723  1.00  0.00     0.012 C 
ATOM     12  C   UNL     1      16.142 -12.429  61.286  1.00  0.00     0.013 C 
ATOM     13  C   UNL     1      15.136 -14.023  63.432  1.00  0.00     0.017 C 
ATOM     14  C   UNL     1      16.746 -12.468  64.724  1.00  0.00    -0.064 C 
ATOM     15  C   UNL     1      16.800 -10.061  64.179  1.00  0.00     0.032 C 
ATOM     16  C   UNL     1      17.366 -11.260  64.922  1.00  0.00    -0.064 C 
ATOM     17  C   UNL     1      17.229 -13.743  65.419  1.00  0.00     0.032 C 
ATOM     18  C   UNL     1      18.491 -11.079  65.972  1.00  0.00    -0.008 C 
ATOM     19  C   UNL     1      18.320 -13.566  66.477  1.00  0.00     0.009 C 
ATOM     20  C   UNL     1      19.282 -12.436  66.079  1.00  0.00     0.009 C 
ATOM     21  C   UNL     1      19.492  -9.960  65.550  1.00  0.00     0.015 C 
ATOM     22  C   UNL     1      17.763 -10.643  67.273  1.00  0.00     0.016 C 
ATOM     23  C   UNL     1      20.654 -12.431  66.870  1.00  0.00     0.005 C 
ATOM     24  C   UNL     1      20.753  -9.905  66.419  1.00  0.00     0.047 C 
ATOM     25  C   UNL     1      21.527 -11.231  66.387  1.00  0.00     0.182 C 
ATOM     26  C   UNL     1      21.441 -13.739  66.560  1.00  0.00     0.015 C 
ATOM     27  C   UNL     1      20.492 -12.383  68.415  1.00  0.00     0.015 C 
BRANCH   7  28
ATOM     28  O   UNL     1      12.117 -11.566  63.638  1.00  0.00    -0.393 OA
ATOM     29  H   UNL     1      11.833 -11.633  62.688  1.00  0.00     0.210 HD
ENDBRANCH   7  28
BRANCH  25  30
ATOM     30  O   UNL     1      21.998 -11.476  65.055  1.00  0.00    -0.462 OA
BRANCH  30  31
ATOM     31  C   UNL     1      23.158 -10.906  64.520  1.00  0.00     0.302 C 
ATOM     32  O   UNL     1      23.120 -10.248  63.446  1.00  0.00    -0.253 OA
ATOM     33  C   UNL     1      24.445 -11.032  65.260  1.00  0.00     0.139 C 
ENDBRANCH  30  31
ENDBRANCH  25  30
ENDBRANCH   2   6
ENDBRANCH   1   2
BRANCH   1  34
ATOM     34  C   UNL     1      13.593 -10.764  59.002  1.00  0.00     0.031 C 
BRANCH  34  35
ATOM     35  C   UNL     1      12.649 -11.786  58.384  1.00  0.00    -0.075 C 
ATOM     36  C   UNL     1      11.509 -11.352  57.817  1.00  0.00     0.008 C 
BRANCH  35  37
ATOM     37  C   UNL     1      12.804 -13.282  58.647  1.00  0.00     0.008 C 
ATOM     38  C   UNL     1      12.694 -13.643  60.131  1.00  0.00     0.012 C 
ATOM     39  C   UNL     1      11.792 -14.081  57.818  1.00  0.00     0.012 C 
ENDBRANCH  35  37
ENDBRANCH  34  35
ENDBRANCH   1  34
TORSDOF 9
ENDMDL
MODEL 2
REMARK VINA RESULT:    -7.914      2.439      9.992
REMARK INTER + INTRA:         -13.819
REMARK INTER:                 -12.328
REMARK INTRA:                  -1.491
REMARK UNBOUND:                -1.973
REMARK SMILES C=C(CC[C@@H](C(=O)[O-])[C@@H]1[C@@H](O)C[C@]2(C)C3=C(CC[C@]12C)[C@]1(C)CC[C@H](OC(C)=O)C(C)(C)[C@H]1CC3)C(C)C
REMARK SMILES IDX 4 1 5 2 6 3 7 4 8 5 9 6 10 7 19 8 12 9 13 10 18 11 20 12
REMARK SMILES IDX 14 13 15 14 17 15 16 16 35 17 21 18 34 19 33 20 23 21 22 22
REMARK SMILES IDX 30 23 24 24 25 25 31 26 32 27 11 28 26 30 27 31 29 32 28 33
REMARK SMILES IDX 3 34 2 35 1 36 36 37 37 38 38 39
REMARK H PARENT 11 29
REMARK Flexibility Score: inf
ROOT
ATOM      1  C   UNL     1      16.490 -10.808  66.132  1.00  0.00     0.014 C 
ENDROOT
BRANCH   1   2
ATOM      2  C   UNL     1      15.961 -10.399  64.730  1.00  0.00     0.042 C 
BRANCH   2   3
ATOM      3  C   UNL     1      16.934  -9.434  64.088  1.00  0.00     0.045 C 
ATOM      4  O   UNL     1      16.537  -8.430  63.442  1.00  0.00    -0.550 OA
ATOM      5  O   UNL     1      18.298  -9.680  64.177  1.00  0.00    -0.550 OA
ENDBRANCH   2   3
BRANCH   2   6
ATOM      6  C   UNL     1      15.503 -11.579  63.786  1.00  0.00     0.033 C 
ATOM      7  C   UNL     1      16.462 -11.730  62.578  1.00  0.00     0.119 C 
ATOM      8  C   UNL     1      14.050 -11.546  63.159  1.00  0.00    -0.017 C 
ATOM      9  C   UNL     1      15.667 -12.272  61.391  1.00  0.00     0.043 C 
ATOM     10  C   UNL     1      14.194 -12.430  61.837  1.00  0.00    -0.003 C 
ATOM     11  C   UNL     1      13.524 -10.100  62.829  1.00  0.00     0.012 C 
ATOM     12  C   UNL     1      13.008 -12.158  64.143  1.00  0.00     0.013 C 
ATOM     13  C   UNL     1      13.981 -13.950  62.144  1.00  0.00     0.017 C 
ATOM     14  C   UNL     1      13.287 -11.943  60.669  1.00  0.00    -0.064 C 
ATOM     15  C   UNL     1      13.831  -9.653  61.412  1.00  0.00     0.032 C 
ATOM     16  C   UNL     1      13.130 -10.598  60.450  1.00  0.00    -0.064 C 
ATOM     17  C   UNL     1      12.628 -12.988  59.766  1.00  0.00     0.032 C 
ATOM     18  C   UNL     1      12.407 -10.052  59.192  1.00  0.00    -0.008 C 
ATOM     19  C   UNL     1      11.938 -12.457  58.508  1.00  0.00     0.009 C 
ATOM     20  C   UNL     1      11.296 -11.088  58.780  1.00  0.00     0.009 C 
ATOM     21  C   UNL     1      11.720  -8.682  59.478  1.00  0.00     0.015 C 
ATOM     22  C   UNL     1      13.530  -9.845  58.140  1.00  0.00     0.016 C 
ATOM     23  C   UNL     1      10.229 -10.635  57.700  1.00  0.00     0.005 C 
ATOM     24  C   UNL     1      10.790  -8.216  58.353  1.00  0.00     0.047 C 
ATOM     25  C   UNL     1       9.668  -9.230  58.083  1.00  0.00     0.182 C 
ATOM     26  C   UNL     1       9.033 -11.633  57.698  1.00  0.00     0.015 C 
ATOM     27  C   UNL     1      10.774 -10.613  56.246  1.00  0.00     0.015 C 
BRANCH   7  28
ATOM     28  O   UNL     1      17.555 -12.570  62.865  1.00  0.00    -0.393 OA
ATOM     29  H   UNL     1      18.262 -12.018  63.292  1.00  0.00     0.210 HD
ENDBRANCH   7  28
BRANCH  25  30
ATOM     30  O   UNL     1       8.832  -9.337  59.242  1.00  0.00    -0.462 OA
BRANCH  30  31
ATOM     31  C   UNL     1       7.712  -8.533  59.474  1.00  0.00     0.302 C 
ATOM     32  O   UNL     1       7.838  -7.353  59.897  1.00  0.00    -0.253 OA
ATOM     33  C   UNL     1       6.354  -9.060  59.162  1.00  0.00     0.139 C 
ENDBRANCH  30  31
ENDBRANCH  25  30
ENDBRANCH   2   6
ENDBRANCH   1   2
BRANCH   1  34
ATOM     34  C   UNL     1      17.273 -12.138  66.261  1.00  0.00     0.031 C 
BRANCH  34  35
ATOM     35  C   UNL     1      18.685 -12.025  66.819  1.00  0.00    -0.075 C 
ATOM     36  C   UNL     1      19.716 -12.412  66.047  1.00  0.00     0.008 C 
BRANCH  35  37
ATOM     37  C   UNL     1      18.943 -11.775  68.303  1.00  0.00     0.008 C 
ATOM     38  C   UNL     1      20.113 -12.597  68.852  1.00  0.00     0.012 C 
ATOM     39  C   UNL     1      19.158 -10.281  68.567  1.00  0.00     0.012 C 
ENDBRANCH  35  37
ENDBRANCH  34  35
ENDBRANCH   1  34
TORSDOF 9
ENDMDL
MODEL 3
REMARK VINA RESULT:    -7.898      2.601      9.146
REMARK INTER + INTRA:         -13.795
REMARK INTER:                 -12.463
REMARK INTRA:                  -1.332
REMARK UNBOUND:                -1.973
REMARK SMILES C=C(CC[C@@H](C(=O)[O-])[C@@H]1[C@@H](O)C[C@]2(C)C3=C(CC[C@]12C)[C@]1(C)CC[C@H](OC(C)=O)C(C)(C)[C@H]1CC3)C(C)C
REMARK SMILES IDX 4 1 5 2 6 3 7 4 8 5 9 6 10 7 19 8 12 9 13 10 18 11 20 12
REMARK SMILES IDX 14 13 15 14 17 15 16 16 35 17 21 18 34 19 33 20 23 21 22 22
REMARK SMILES IDX 30 23 24 24 25 25 31 26 32 27 11 28 26 30 27 31 29 32 28 33
REMARK SMILES IDX 3 34 2 35 1 36 36 37 37 38 38 39
REMARK H PARENT 11 29
REMARK Flexibility Score: inf
ROOT
ATOM      1  C   UNL     1      16.847 -11.180  66.403  1.00  0.00     0.014 C 
ENDROOT
BRANCH   1   2
ATOM      2  C   UNL     1      17.294 -12.136  65.263  1.00  0.00     0.042 C 
BRANCH   2   3
ATOM      3  C   UNL     1      18.063 -13.298  65.854  1.00  0.00     0.045 C 
ATOM      4  O   UNL     1      18.718 -14.091  65.130  1.00  0.00    -0.550 OA
ATOM      5  O   UNL     1      18.012 -13.523  67.224  1.00  0.00    -0.550 OA
ENDBRANCH   2   3
BRANCH   2   6
ATOM      6  C   UNL     1      16.178 -12.558  64.229  1.00  0.00     0.033 C 
ATOM      7  C   UNL     1      16.779 -12.774  62.816  1.00  0.00     0.119 C 
ATOM      8  C   UNL     1      14.932 -11.606  64.007  1.00  0.00    -0.017 C 
ATOM      9  C   UNL     1      15.712 -12.436  61.776  1.00  0.00     0.043 C 
ATOM     10  C   UNL     1      14.443 -11.970  62.530  1.00  0.00    -0.003 C 
ATOM     11  C   UNL     1      15.262 -10.074  64.142  1.00  0.00     0.012 C 
ATOM     12  C   UNL     1      13.821 -11.893  65.062  1.00  0.00     0.013 C 
ATOM     13  C   UNL     1      13.459 -13.186  62.541  1.00  0.00     0.017 C 
ATOM     14  C   UNL     1      13.851 -10.753  61.762  1.00  0.00    -0.064 C 
ATOM     15  C   UNL     1      15.632  -9.415  62.827  1.00  0.00     0.032 C 
ATOM     16  C   UNL     1      14.441  -9.521  61.887  1.00  0.00    -0.064 C 
ATOM     17  C   UNL     1      12.647 -10.979  60.846  1.00  0.00     0.032 C 
ATOM     18  C   UNL     1      14.026  -8.320  61.000  1.00  0.00    -0.008 C 
ATOM     19  C   UNL     1      12.250  -9.805  59.947  1.00  0.00     0.009 C 
ATOM     20  C   UNL     1      12.496  -8.468  60.663  1.00  0.00     0.009 C 
ATOM     21  C   UNL     1      14.236  -6.964  61.740  1.00  0.00     0.015 C 
ATOM     22  C   UNL     1      14.975  -8.378  59.772  1.00  0.00     0.016 C 
ATOM     23  C   UNL     1      11.760  -7.227  60.009  1.00  0.00     0.005 C 
ATOM     24  C   UNL     1      13.617  -5.765  61.013  1.00  0.00     0.047 C 
ATOM     25  C   UNL     1      12.103  -5.937  60.816  1.00  0.00     0.182 C 
ATOM     26  C   UNL     1      10.218  -7.434  60.087  1.00  0.00     0.015 C 
ATOM     27  C   UNL     1      12.090  -7.019  58.505  1.00  0.00     0.015 C 
BRANCH   7  28
ATOM     28  O   UNL     1      17.251 -14.087  62.632  1.00  0.00    -0.393 OA
ATOM     29  H   UNL     1      16.673 -14.528  61.955  1.00  0.00     0.210 HD
ENDBRANCH   7  28
BRANCH  25  30
ATOM     30  O   UNL     1      11.457  -5.975  62.095  1.00  0.00    -0.462 OA
BRANCH  30  31
ATOM     31  C   UNL     1      11.020  -4.838  62.783  1.00  0.00     0.302 C 
ATOM     32  O   UNL     1      11.433  -4.588  63.947  1.00  0.00    -0.253 OA
ATOM     33  C   UNL     1      10.098  -3.883  62.108  1.00  0.00     0.139 C 
ENDBRANCH  30  31
ENDBRANCH  25  30
ENDBRANCH   2   6
ENDBRANCH   1   2
BRANCH   1  34
ATOM     34  C   UNL     1      17.684  -9.903  66.659  1.00  0.00     0.031 C 
BRANCH  34  35
ATOM     35  C   UNL     1      19.075 -10.127  67.236  1.00  0.00    -0.075 C 
ATOM     36  C   UNL     1      19.220 -10.174  68.573  1.00  0.00     0.008 C 
BRANCH  35  37
ATOM     37  C   UNL     1      20.330 -10.003  66.375  1.00  0.00     0.008 C 
ATOM     38  C   UNL     1      21.180 -11.277  66.368  1.00  0.00     0.012 C 
ATOM     39  C   UNL     1      19.962  -9.588  64.945  1.00  0.00     0.012 C 
ENDBRANCH  35  37
ENDBRANCH  34  35
ENDBRANCH   1  34
TORSDOF 9
ENDMDL
MODEL 4
REMARK VINA RESULT:    -7.867      1.156      1.958
REMARK INTER + INTRA:         -13.749
REMARK INTER:                 -12.221
REMARK INTRA:                  -1.528
REMARK UNBOUND:                -1.973
REMARK SMILES C=C(CC[C@@H](C(=O)[O-])[C@@H]1[C@@H](O)C[C@]2(C)C3=C(CC[C@]12C)[C@]1(C)CC[C@H](OC(C)=O)C(C)(C)[C@H]1CC3)C(C)C
REMARK SMILES IDX 4 1 5 2 6 3 7 4 8 5 9 6 10 7 19 8 12 9 13 10 18 11 20 12
REMARK SMILES IDX 14 13 15 14 17 15 16 16 35 17 21 18 34 19 33 20 23 21 22 22
REMARK SMILES IDX 30 23 24 24 25 25 31 26 32 27 11 28 26 30 27 31 29 32 28 33
REMARK SMILES IDX 3 34 2 35 1 36 36 37 37 38 38 39
REMARK H PARENT 11 29
REMARK Flexibility Score: inf
ROOT
ATOM      1  C   UNL     1      12.549 -10.459  60.040  1.00  0.00     0.014 C 
ENDROOT
BRANCH   1   2
ATOM      2  C   UNL     1      13.419 -10.185  61.298  1.00  0.00     0.042 C 
BRANCH   2   3
ATOM      3  C   UNL     1      12.823  -9.035  62.081  1.00  0.00     0.045 C 
ATOM      4  O   UNL     1      11.579  -8.894  62.200  1.00  0.00    -0.550 OA
ATOM      5  O   UNL     1      13.664  -8.086  62.648  1.00  0.00    -0.550 OA
ENDBRANCH   2   3
BRANCH   2   6
ATOM      6  C   UNL     1      13.788 -11.443  62.178  1.00  0.00     0.033 C 
ATOM      7  C   UNL     1      13.150 -11.344  63.588  1.00  0.00     0.119 C 
ATOM      8  C   UNL     1      15.312 -11.784  62.437  1.00  0.00    -0.017 C 
ATOM      9  C   UNL     1      14.053 -12.072  64.582  1.00  0.00     0.043 C 
ATOM     10  C   UNL     1      15.284 -12.602  63.808  1.00  0.00    -0.003 C 
ATOM     11  C   UNL     1      16.245 -10.521  62.539  1.00  0.00     0.012 C 
ATOM     12  C   UNL     1      15.893 -12.642  61.273  1.00  0.00     0.013 C 
ATOM     13  C   UNL     1      15.030 -14.125  63.556  1.00  0.00     0.017 C 
ATOM     14  C   UNL     1      16.543 -12.364  64.692  1.00  0.00    -0.064 C 
ATOM     15  C   UNL     1      16.419 -10.010  63.958  1.00  0.00     0.032 C 
ATOM     16  C   UNL     1      17.078 -11.104  64.782  1.00  0.00    -0.064 C 
ATOM     17  C   UNL     1      17.123 -13.543  65.476  1.00  0.00     0.032 C 
ATOM     18  C   UNL     1      18.201 -10.762  65.794  1.00  0.00    -0.008 C 
ATOM     19  C   UNL     1      18.213 -13.207  66.497  1.00  0.00     0.009 C 
ATOM     20  C   UNL     1      19.087 -12.048  65.993  1.00  0.00     0.009 C 
ATOM     21  C   UNL     1      19.115  -9.613  65.267  1.00  0.00     0.015 C 
ATOM     22  C   UNL     1      17.461 -10.275  67.069  1.00  0.00     0.016 C 
ATOM     23  C   UNL     1      20.466 -11.884  66.756  1.00  0.00     0.005 C 
ATOM     24  C   UNL     1      20.380  -9.402  66.105  1.00  0.00     0.047 C 
ATOM     25  C   UNL     1      21.245 -10.670  66.163  1.00  0.00     0.182 C 
ATOM     26  C   UNL     1      21.338 -13.155  66.536  1.00  0.00     0.015 C 
ATOM     27  C   UNL     1      20.319 -11.724  68.294  1.00  0.00     0.015 C 
BRANCH   7  28
ATOM     28  O   UNL     1      11.847 -11.875  63.623  1.00  0.00    -0.393 OA
ATOM     29  H   UNL     1      11.243 -11.181  63.997  1.00  0.00     0.210 HD
ENDBRANCH   7  28
BRANCH  25  30
ATOM     30  O   UNL     1      21.715 -10.987  64.847  1.00  0.00    -0.462 OA
BRANCH  30  31
ATOM     31  C   UNL     1      23.032 -10.789  64.419  1.00  0.00     0.302 C 
ATOM     32  O   UNL     1      23.296 -10.599  63.202  1.00  0.00    -0.253 OA
ATOM     33  C   UNL     1      24.131 -10.748  65.425  1.00  0.00     0.139 C 
ENDBRANCH  30  31
ENDBRANCH  25  30
ENDBRANCH   2   6
ENDBRANCH   1   2
BRANCH   1  34
ATOM     34  C   UNL     1      13.268 -10.679  58.686  1.00  0.00     0.031 C 
BRANCH  34  35
ATOM     35  C   UNL     1      13.151  -9.541  57.682  1.00  0.00    -0.075 C 
ATOM     36  C   UNL     1      12.117  -9.543  56.822  1.00  0.00     0.008 C 
BRANCH  35  37
ATOM     37  C   UNL     1      14.308  -8.579  57.422  1.00  0.00     0.008 C 
ATOM     38  C   UNL     1      14.044  -7.629  56.249  1.00  0.00     0.012 C 
ATOM     39  C   UNL     1      14.647  -7.790  58.692  1.00  0.00     0.012 C 
ENDBRANCH  35  37
ENDBRANCH  34  35
ENDBRANCH   1  34
TORSDOF 9
ENDMDL
MODEL 5
REMARK VINA RESULT:    -7.828      9.095     11.569
REMARK INTER + INTRA:         -13.691
REMARK INTER:                 -11.468
REMARK INTRA:                  -2.223
REMARK UNBOUND:                -1.973
REMARK SMILES C=C(CC[C@@H](C(=O)[O-])[C@@H]1[C@@H](O)C[C@]2(C)C3=C(CC[C@]12C)[C@]1(C)CC[C@H](OC(C)=O)C(C)(C)[C@H]1CC3)C(C)C
REMARK SMILES IDX 4 1 5 2 6 3 7 4 8 5 9 6 10 7 19 8 12 9 13 10 18 11 20 12
REMARK SMILES IDX 14 13 15 14 17 15 16 16 35 17 21 18 34 19 33 20 23 21 22 22
REMARK SMILES IDX 30 23 24 24 25 25 31 26 32 27 11 28 26 30 27 31 29 32 28 33
REMARK SMILES IDX 3 34 2 35 1 36 36 37 37 38 38 39
REMARK H PARENT 11 29
REMARK Flexibility Score: inf
ROOT
ATOM      1  C   UNL     1       7.501 -10.321  55.958  1.00  0.00     0.014 C 
ENDROOT
BRANCH   1   2
ATOM      2  C   UNL     1       8.700  -9.699  56.726  1.00  0.00     0.042 C 
BRANCH   2   3
ATOM      3  C   UNL     1       8.690 -10.190  58.158  1.00  0.00     0.045 C 
ATOM      4  O   UNL     1       8.392 -11.378  58.444  1.00  0.00    -0.550 OA
ATOM      5  O   UNL     1       8.975  -9.301  59.186  1.00  0.00    -0.550 OA
ENDBRANCH   2   3
BRANCH   2   6
ATOM      6  C   UNL     1      10.108  -9.800  56.018  1.00  0.00     0.033 C 
ATOM      7  C   UNL     1      11.196 -10.288  57.009  1.00  0.00     0.119 C 
ATOM      8  C   UNL     1      10.721  -8.511  55.333  1.00  0.00    -0.017 C 
ATOM      9  C   UNL     1      12.538  -9.688  56.592  1.00  0.00     0.043 C 
ATOM     10  C   UNL     1      12.294  -8.788  55.356  1.00  0.00    -0.003 C 
ATOM     11  C   UNL     1      10.364  -7.164  56.062  1.00  0.00     0.012 C 
ATOM     12  C   UNL     1      10.192  -8.354  53.875  1.00  0.00     0.013 C 
ATOM     13  C   UNL     1      12.743  -9.615  54.106  1.00  0.00     0.017 C 
ATOM     14  C   UNL     1      13.143  -7.496  55.531  1.00  0.00    -0.064 C 
ATOM     15  C   UNL     1      11.390  -6.745  57.098  1.00  0.00     0.032 C 
ATOM     16  C   UNL     1      12.717  -6.517  56.393  1.00  0.00    -0.064 C 
ATOM     17  C   UNL     1      14.463  -7.376  54.765  1.00  0.00     0.032 C 
ATOM     18  C   UNL     1      13.610  -5.305  56.761  1.00  0.00    -0.008 C 
ATOM     19  C   UNL     1      15.361  -6.196  55.146  1.00  0.00     0.009 C 
ATOM     20  C   UNL     1      14.514  -4.969  55.518  1.00  0.00     0.009 C 
ATOM     21  C   UNL     1      12.753  -4.047  57.099  1.00  0.00     0.015 C 
ATOM     22  C   UNL     1      14.384  -5.746  58.032  1.00  0.00     0.016 C 
ATOM     23  C   UNL     1      15.311  -3.600  55.532  1.00  0.00     0.005 C 
ATOM     24  C   UNL     1      13.576  -2.761  57.229  1.00  0.00     0.047 C 
ATOM     25  C   UNL     1      14.346  -2.443  55.938  1.00  0.00     0.182 C 
ATOM     26  C   UNL     1      15.841  -3.289  54.101  1.00  0.00     0.015 C 
ATOM     27  C   UNL     1      16.557  -3.605  56.460  1.00  0.00     0.015 C 
BRANCH   7  28
ATOM     28  O   UNL     1      11.278 -11.692  57.062  1.00  0.00    -0.393 OA
ATOM     29  H   UNL     1      11.824 -11.997  56.290  1.00  0.00     0.210 HD
ENDBRANCH   7  28
BRANCH  25  30
ATOM     30  O   UNL     1      13.416  -2.188  54.878  1.00  0.00    -0.462 OA
BRANCH  30  31
ATOM     31  C   UNL     1      12.558  -1.084  54.841  1.00  0.00     0.302 C 
ATOM     32  O   UNL     1      11.315  -1.225  54.995  1.00  0.00    -0.253 OA
ATOM     33  C   UNL     1      13.128   0.282  54.672  1.00  0.00     0.139 C 
ENDBRANCH  30  31
ENDBRANCH  25  30
ENDBRANCH   2   6
ENDBRANCH   1   2
BRANCH   1  34
ATOM     34  C   UNL     1       6.139  -9.585  56.007  1.00  0.00     0.031 C 
BRANCH  34  35
ATOM     35  C   UNL     1       6.171  -8.108  55.639  1.00  0.00    -0.075 C 
ATOM     36  C   UNL     1       6.655  -7.753  54.435  1.00  0.00     0.008 C 
BRANCH  35  37
ATOM     37  C   UNL     1       5.956  -7.016  56.685  1.00  0.00     0.008 C 
ATOM     38  C   UNL     1       5.968  -7.553  58.120  1.00  0.00     0.012 C 
ATOM     39  C   UNL     1       6.991  -5.898  56.515  1.00  0.00     0.012 C 
ENDBRANCH  35  37
ENDBRANCH  34  35
ENDBRANCH   1  34
TORSDOF 9
ENDMDL
MODEL 6
REMARK VINA RESULT:    -7.762      9.760     14.061
REMARK INTER + INTRA:         -13.592
REMARK INTER:                 -11.303
REMARK INTRA:                  -2.289
REMARK UNBOUND:                -1.973
REMARK SMILES C=C(CC[C@@H](C(=O)[O-])[C@@H]1[C@@H](O)C[C@]2(C)C3=C(CC[C@]12C)[C@]1(C)CC[C@H](OC(C)=O)C(C)(C)[C@H]1CC3)C(C)C
REMARK SMILES IDX 4 1 5 2 6 3 7 4 8 5 9 6 10 7 19 8 12 9 13 10 18 11 20 12
REMARK SMILES IDX 14 13 15 14 17 15 16 16 35 17 21 18 34 19 33 20 23 21 22 22
REMARK SMILES IDX 30 23 24 24 25 25 31 26 32 27 11 28 26 30 27 31 29 32 28 33
REMARK SMILES IDX 3 34 2 35 1 36 36 37 37 38 38 39
REMARK H PARENT 11 29
REMARK Flexibility Score: inf
ROOT
ATOM      1  C   UNL     1      13.076   4.250  56.912  1.00  0.00     0.014 C 
ENDROOT
BRANCH   1   2
ATOM      2  C   UNL     1      13.182   2.717  56.681  1.00  0.00     0.042 C 
BRANCH   2   3
ATOM      3  C   UNL     1      13.455   2.447  55.217  1.00  0.00     0.045 C 
ATOM      4  O   UNL     1      12.838   1.551  54.586  1.00  0.00    -0.550 OA
ATOM      5  O   UNL     1      14.439   3.177  54.561  1.00  0.00    -0.550 OA
ENDBRANCH   2   3
BRANCH   2   6
ATOM      6  C   UNL     1      14.125   1.927  57.671  1.00  0.00     0.033 C 
ATOM      7  C   UNL     1      15.346   1.333  56.923  1.00  0.00     0.119 C 
ATOM      8  C   UNL     1      13.528   0.724  58.510  1.00  0.00    -0.017 C 
ATOM      9  C   UNL     1      15.776   0.052  57.636  1.00  0.00     0.043 C 
ATOM     10  C   UNL     1      14.804  -0.186  58.817  1.00  0.00    -0.003 C 
ATOM     11  C   UNL     1      12.408  -0.088  57.761  1.00  0.00     0.012 C 
ATOM     12  C   UNL     1      12.867   1.239  59.824  1.00  0.00     0.013 C 
ATOM     13  C   UNL     1      15.545   0.292  60.109  1.00  0.00     0.017 C 
ATOM     14  C   UNL     1      14.476  -1.707  58.866  1.00  0.00    -0.064 C 
ATOM     15  C   UNL     1      12.940  -1.277  56.982  1.00  0.00     0.032 C 
ATOM     16  C   UNL     1      13.591  -2.239  57.962  1.00  0.00    -0.064 C 
ATOM     17  C   UNL     1      15.192  -2.579  59.900  1.00  0.00     0.032 C 
ATOM     18  C   UNL     1      13.375  -3.768  57.830  1.00  0.00    -0.008 C 
ATOM     19  C   UNL     1      15.005  -4.091  59.756  1.00  0.00     0.009 C 
ATOM     20  C   UNL     1      13.592  -4.416  59.248  1.00  0.00     0.009 C 
ATOM     21  C   UNL     1      11.929  -4.101  57.353  1.00  0.00     0.015 C 
ATOM     22  C   UNL     1      14.385  -4.225  56.742  1.00  0.00     0.016 C 
ATOM     23  C   UNL     1      13.152  -5.925  59.445  1.00  0.00     0.005 C 
ATOM     24  C   UNL     1      11.582  -5.591  57.441  1.00  0.00     0.047 C 
ATOM     25  C   UNL     1      11.714  -6.124  58.876  1.00  0.00     0.182 C 
ATOM     26  C   UNL     1      13.107  -6.261  60.966  1.00  0.00     0.015 C 
ATOM     27  C   UNL     1      14.126  -6.953  58.807  1.00  0.00     0.015 C 
BRANCH   7  28
ATOM     28  O   UNL     1      16.419   2.240  56.847  1.00  0.00    -0.393 OA
ATOM     29  H   UNL     1      16.042   3.159  56.816  1.00  0.00     0.210 HD
ENDBRANCH   7  28
BRANCH  25  30
ATOM     30  O   UNL     1      10.759  -5.466  59.719  1.00  0.00    -0.462 OA
BRANCH  30  31
ATOM     31  C   UNL     1       9.438  -5.892  59.883  1.00  0.00     0.302 C 
ATOM     32  O   UNL     1       8.477  -5.086  59.759  1.00  0.00    -0.253 OA
ATOM     33  C   UNL     1       9.160  -7.331  60.153  1.00  0.00     0.139 C 
ENDBRANCH  30  31
ENDBRANCH  25  30
ENDBRANCH   2   6
ENDBRANCH   1   2
BRANCH   1  34
ATOM     34  C   UNL     1      11.710   4.833  57.351  1.00  0.00     0.031 C 
BRANCH  34  35
ATOM     35  C   UNL     1      11.234   4.430  58.740  1.00  0.00    -0.075 C 
ATOM     36  C   UNL     1      11.972   4.793  59.805  1.00  0.00     0.008 C 
BRANCH  35  37
ATOM     37  C   UNL     1      10.131   3.394  58.941  1.00  0.00     0.008 C 
ATOM     38  C   UNL     1       8.909   3.955  59.675  1.00  0.00     0.012 C 
ATOM     39  C   UNL     1       9.721   2.777  57.598  1.00  0.00     0.012 C 
ENDBRANCH  35  37
ENDBRANCH  34  35
ENDBRANCH   1  34
TORSDOF 9
ENDMDL
MODEL 7
REMARK VINA RESULT:    -7.694      3.921      9.831
REMARK INTER + INTRA:         -13.490
REMARK INTER:                 -12.049
REMARK INTRA:                  -1.440
REMARK UNBOUND:                -1.973
REMARK SMILES C=C(CC[C@@H](C(=O)[O-])[C@@H]1[C@@H](O)C[C@]2(C)C3=C(CC[C@]12C)[C@]1(C)CC[C@H](OC(C)=O)C(C)(C)[C@H]1CC3)C(C)C
REMARK SMILES IDX 4 1 5 2 6 3 7 4 8 5 9 6 10 7 19 8 12 9 13 10 18 11 20 12
REMARK SMILES IDX 14 13 15 14 17 15 16 16 35 17 21 18 34 19 33 20 23 21 22 22
REMARK SMILES IDX 30 23 24 24 25 25 31 26 32 27 11 28 26 30 27 31 29 32 28 33
REMARK SMILES IDX 3 34 2 35 1 36 36 37 37 38 38 39
REMARK H PARENT 11 29
REMARK Flexibility Score: inf
ROOT
ATOM      1  C   UNL     1      16.143  -9.316  64.162  1.00  0.00     0.014 C 
ENDROOT
BRANCH   1   2
ATOM      2  C   UNL     1      15.145 -10.212  63.377  1.00  0.00     0.042 C 
BRANCH   2   3
ATOM      3  C   UNL     1      14.915 -11.498  64.142  1.00  0.00     0.045 C 
ATOM      4  O   UNL     1      14.242 -11.521  65.204  1.00  0.00    -0.550 OA
ATOM      5  O   UNL     1      15.493 -12.676  63.686  1.00  0.00    -0.550 OA
ENDBRANCH   2   3
BRANCH   2   6
ATOM      6  C   UNL     1      13.821  -9.510  62.880  1.00  0.00     0.033 C 
ATOM      7  C   UNL     1      12.844 -10.540  62.257  1.00  0.00     0.119 C 
ATOM      8  C   UNL     1      13.920  -8.339  61.819  1.00  0.00    -0.017 C 
ATOM      9  C   UNL     1      12.016  -9.836  61.183  1.00  0.00     0.043 C 
ATOM     10  C   UNL     1      12.495  -8.366  61.099  1.00  0.00    -0.003 C 
ATOM     11  C   UNL     1      15.091  -8.508  60.783  1.00  0.00     0.012 C 
ATOM     12  C   UNL     1      14.176  -6.972  62.524  1.00  0.00     0.013 C 
ATOM     13  C   UNL     1      11.445  -7.511  61.883  1.00  0.00     0.017 C 
ATOM     14  C   UNL     1      12.558  -7.970  59.596  1.00  0.00    -0.064 C 
ATOM     15  C   UNL     1      14.679  -9.231  59.514  1.00  0.00     0.032 C 
ATOM     16  C   UNL     1      13.604  -8.409  58.823  1.00  0.00    -0.064 C 
ATOM     17  C   UNL     1      11.419  -7.134  59.008  1.00  0.00     0.032 C 
ATOM     18  C   UNL     1      13.622  -8.218  57.285  1.00  0.00    -0.008 C 
ATOM     19  C   UNL     1      11.416  -6.967  57.487  1.00  0.00     0.009 C 
ATOM     20  C   UNL     1      12.853  -6.886  56.949  1.00  0.00     0.009 C 
ATOM     21  C   UNL     1      15.078  -8.094  56.742  1.00  0.00     0.015 C 
ATOM     22  C   UNL     1      12.976  -9.507  56.711  1.00  0.00     0.016 C 
ATOM     23  C   UNL     1      12.974  -6.315  55.476  1.00  0.00     0.005 C 
ATOM     24  C   UNL     1      15.151  -7.660  55.275  1.00  0.00     0.047 C 
ATOM     25  C   UNL     1      14.473  -6.301  55.047  1.00  0.00     0.182 C 
ATOM     26  C   UNL     1      12.461  -4.845  55.443  1.00  0.00     0.015 C 
ATOM     27  C   UNL     1      12.127  -7.090  54.429  1.00  0.00     0.015 C 
BRANCH   7  28
ATOM     28  O   UNL     1      12.004 -11.129  63.221  1.00  0.00    -0.393 OA
ATOM     29  H   UNL     1      11.490 -10.404  63.665  1.00  0.00     0.210 HD
ENDBRANCH   7  28
BRANCH  25  30
ATOM     30  O   UNL     1      15.180  -5.288  55.774  1.00  0.00    -0.462 OA
BRANCH  30  31
ATOM     31  C   UNL     1      16.124  -4.430  55.201  1.00  0.00     0.302 C 
ATOM     32  O   UNL     1      16.448  -3.352  55.768  1.00  0.00    -0.253 OA
ATOM     33  C   UNL     1      16.796  -4.824  53.931  1.00  0.00     0.139 C 
ENDBRANCH  30  31
ENDBRANCH  25  30
ENDBRANCH   2   6
ENDBRANCH   1   2
BRANCH   1  34
ATOM     34  C   UNL     1      17.656  -9.624  64.040  1.00  0.00     0.031 C 
BRANCH  34  35
ATOM     35  C   UNL     1      18.309 -10.237  65.271  1.00  0.00    -0.075 C 
ATOM     36  C   UNL     1      19.447 -10.937  65.117  1.00  0.00     0.008 C 
BRANCH  35  37
ATOM     37  C   UNL     1      17.570 -10.339  66.604  1.00  0.00     0.008 C 
ATOM     38  C   UNL     1      17.257 -11.784  67.005  1.00  0.00     0.012 C 
ATOM     39  C   UNL     1      18.358  -9.627  67.710  1.00  0.00     0.012 C 
ENDBRANCH  35  37
ENDBRANCH  34  35
ENDBRANCH   1  34
TORSDOF 9
ENDMDL
MODEL 8
REMARK VINA RESULT:    -7.637      3.509      6.379
REMARK INTER + INTRA:         -13.404
REMARK INTER:                 -11.701
REMARK INTRA:                  -1.703
REMARK UNBOUND:                -1.973
REMARK SMILES C=C(CC[C@@H](C(=O)[O-])[C@@H]1[C@@H](O)C[C@]2(C)C3=C(CC[C@]12C)[C@]1(C)CC[C@H](OC(C)=O)C(C)(C)[C@H]1CC3)C(C)C
REMARK SMILES IDX 4 1 5 2 6 3 7 4 8 5 9 6 10 7 19 8 12 9 13 10 18 11 20 12
REMARK SMILES IDX 14 13 15 14 17 15 16 16 35 17 21 18 34 19 33 20 23 21 22 22
REMARK SMILES IDX 30 23 24 24 25 25 31 26 32 27 11 28 26 30 27 31 29 32 28 33
REMARK SMILES IDX 3 34 2 35 1 36 36 37 37 38 38 39
REMARK H PARENT 11 29
REMARK Flexibility Score: inf
ROOT
ATOM      1  C   UNL     1      13.267  -4.392  60.459  1.00  0.00     0.014 C 
ENDROOT
BRANCH   1   2
ATOM      2  C   UNL     1      13.401  -4.809  58.968  1.00  0.00     0.042 C 
BRANCH   2   3
ATOM      3  C   UNL     1      14.672  -4.221  58.394  1.00  0.00     0.045 C 
ATOM      4  O   UNL     1      15.589  -3.784  59.135  1.00  0.00    -0.550 OA
ATOM      5  O   UNL     1      14.816  -4.122  57.015  1.00  0.00    -0.550 OA
ENDBRANCH   2   3
BRANCH   2   6
ATOM      6  C   UNL     1      13.197  -6.342  58.652  1.00  0.00     0.033 C 
ATOM      7  C   UNL     1      11.870  -6.865  59.259  1.00  0.00     0.119 C 
ATOM      8  C   UNL     1      14.300  -7.379  59.115  1.00  0.00    -0.017 C 
ATOM      9  C   UNL     1      12.042  -8.344  59.603  1.00  0.00     0.043 C 
ATOM     10  C   UNL     1      13.493  -8.750  59.247  1.00  0.00    -0.003 C 
ATOM     11  C   UNL     1      15.013  -6.999  60.465  1.00  0.00     0.012 C 
ATOM     12  C   UNL     1      15.438  -7.488  58.055  1.00  0.00     0.013 C 
ATOM     13  C   UNL     1      13.421  -9.502  57.877  1.00  0.00     0.017 C 
ATOM     14  C   UNL     1      14.023  -9.670  60.385  1.00  0.00    -0.064 C 
ATOM     15  C   UNL     1      14.350  -7.600  61.690  1.00  0.00     0.032 C 
ATOM     16  C   UNL     1      14.417  -9.114  61.576  1.00  0.00    -0.064 C 
ATOM     17  C   UNL     1      14.049 -11.182  60.155  1.00  0.00     0.032 C 
ATOM     18  C   UNL     1      14.764  -9.984  62.810  1.00  0.00    -0.008 C 
ATOM     19  C   UNL     1      14.363 -12.047  61.377  1.00  0.00     0.009 C 
ATOM     20  C   UNL     1      15.373 -11.341  62.295  1.00  0.00     0.009 C 
ATOM     21  C   UNL     1      15.820  -9.287  63.722  1.00  0.00     0.015 C 
ATOM     22  C   UNL     1      13.431 -10.122  63.594  1.00  0.00     0.016 C 
ATOM     23  C   UNL     1      16.071 -12.288  63.357  1.00  0.00     0.005 C 
ATOM     24  C   UNL     1      16.382 -10.199  64.818  1.00  0.00     0.047 C 
ATOM     25  C   UNL     1      17.054 -11.450  64.231  1.00  0.00     0.182 C 
ATOM     26  C   UNL     1      16.908 -13.373  62.617  1.00  0.00     0.015 C 
ATOM     27  C   UNL     1      15.075 -13.059  64.265  1.00  0.00     0.015 C 
BRANCH   7  28
ATOM     28  O   UNL     1      10.778  -6.684  58.390  1.00  0.00    -0.393 OA
ATOM     29  H   UNL     1      10.529  -5.722  58.406  1.00  0.00     0.210 HD
ENDBRANCH   7  28
BRANCH  25  30
ATOM     30  O   UNL     1      18.190 -11.057  63.449  1.00  0.00    -0.462 OA
BRANCH  30  31
ATOM     31  C   UNL     1      19.315 -10.415  63.974  1.00  0.00     0.302 C 
ATOM     32  O   UNL     1      19.622  -9.248  63.613  1.00  0.00    -0.253 OA
ATOM     33  C   UNL     1      20.130 -11.100  65.017  1.00  0.00     0.139 C 
ENDBRANCH  30  31
ENDBRANCH  25  30
ENDBRANCH   2   6
ENDBRANCH   1   2
BRANCH   1  34
ATOM     34  C   UNL     1      12.072  -3.495  60.865  1.00  0.00     0.031 C 
BRANCH  34  35
ATOM     35  C   UNL     1      10.870  -4.220  61.454  1.00  0.00    -0.075 C 
ATOM     36  C   UNL     1       9.718  -4.228  60.759  1.00  0.00     0.008 C 
BRANCH  35  37
ATOM     37  C   UNL     1      10.841  -4.670  62.912  1.00  0.00     0.008 C 
ATOM     38  C   UNL     1      11.388  -6.087  63.112  1.00  0.00     0.012 C 
ATOM     39  C   UNL     1      11.590  -3.669  63.799  1.00  0.00     0.012 C 
ENDBRANCH  35  37
ENDBRANCH  34  35
ENDBRANCH   1  34
TORSDOF 9
ENDMDL
MODEL 9
REMARK VINA RESULT:    -7.631      9.408     14.036
REMARK INTER + INTRA:         -13.396
REMARK INTER:                 -11.667
REMARK INTRA:                  -1.728
REMARK UNBOUND:                -1.973
REMARK SMILES C=C(CC[C@@H](C(=O)[O-])[C@@H]1[C@@H](O)C[C@]2(C)C3=C(CC[C@]12C)[C@]1(C)CC[C@H](OC(C)=O)C(C)(C)[C@H]1CC3)C(C)C
REMARK SMILES IDX 4 1 5 2 6 3 7 4 8 5 9 6 10 7 19 8 12 9 13 10 18 11 20 12
REMARK SMILES IDX 14 13 15 14 17 15 16 16 35 17 21 18 34 19 33 20 23 21 22 22
REMARK SMILES IDX 30 23 24 24 25 25 31 26 32 27 11 28 26 30 27 31 29 32 28 33
REMARK SMILES IDX 3 34 2 35 1 36 36 37 37 38 38 39
REMARK H PARENT 11 29
REMARK Flexibility Score: inf
ROOT
ATOM      1  C   UNL     1      12.565   3.234  57.251  1.00  0.00     0.014 C 
ENDROOT
BRANCH   1   2
ATOM      2  C   UNL     1      13.011   1.899  56.591  1.00  0.00     0.042 C 
BRANCH   2   3
ATOM      3  C   UNL     1      13.740   2.197  55.299  1.00  0.00     0.045 C 
ATOM      4  O   UNL     1      13.516   1.541  54.249  1.00  0.00    -0.550 OA
ATOM      5  O   UNL     1      14.712   3.190  55.277  1.00  0.00    -0.550 OA
ENDBRANCH   2   3
BRANCH   2   6
ATOM      6  C   UNL     1      13.754   0.871  57.531  1.00  0.00     0.033 C 
ATOM      7  C   UNL     1      15.245   0.728  57.132  1.00  0.00     0.119 C 
ATOM      8  C   UNL     1      13.210  -0.612  57.636  1.00  0.00    -0.017 C 
ATOM      9  C   UNL     1      15.708  -0.686  57.479  1.00  0.00     0.043 C 
ATOM     10  C   UNL     1      14.498  -1.453  58.065  1.00  0.00    -0.003 C 
ATOM     11  C   UNL     1      12.583  -1.162  56.302  1.00  0.00     0.012 C 
ATOM     12  C   UNL     1      12.081  -0.713  58.706  1.00  0.00     0.013 C 
ATOM     13  C   UNL     1      14.682  -1.455  59.619  1.00  0.00     0.017 C 
ATOM     14  C   UNL     1      14.516  -2.894  57.478  1.00  0.00    -0.064 C 
ATOM     15  C   UNL     1      13.577  -1.898  55.423  1.00  0.00     0.032 C 
ATOM     16  C   UNL     1      14.091  -3.105  56.190  1.00  0.00    -0.064 C 
ATOM     17  C   UNL     1      15.053  -4.034  58.346  1.00  0.00     0.032 C 
ATOM     18  C   UNL     1      14.269  -4.473  55.484  1.00  0.00    -0.008 C 
ATOM     19  C   UNL     1      15.258  -5.379  57.645  1.00  0.00     0.009 C 
ATOM     20  C   UNL     1      14.178  -5.602  56.576  1.00  0.00     0.009 C 
ATOM     21  C   UNL     1      13.150  -4.720  54.427  1.00  0.00     0.015 C 
ATOM     22  C   UNL     1      15.639  -4.376  54.758  1.00  0.00     0.016 C 
ATOM     23  C   UNL     1      14.043  -7.101  56.079  1.00  0.00     0.005 C 
ATOM     24  C   UNL     1      13.131  -6.149  53.876  1.00  0.00     0.047 C 
ATOM     25  C   UNL     1      12.931  -7.188  54.990  1.00  0.00     0.182 C 
ATOM     26  C   UNL     1      13.609  -8.008  57.268  1.00  0.00     0.015 C 
ATOM     27  C   UNL     1      15.368  -7.706  55.538  1.00  0.00     0.015 C 
BRANCH   7  28
ATOM     28  O   UNL     1      16.061   1.684  57.765  1.00  0.00    -0.393 OA
ATOM     29  H   UNL     1      16.322   2.362  57.087  1.00  0.00     0.210 HD
ENDBRANCH   7  28
BRANCH  25  30
ATOM     30  O   UNL     1      11.643  -7.000  55.591  1.00  0.00    -0.462 OA
BRANCH  30  31
ATOM     31  C   UNL     1      10.560  -7.865  55.405  1.00  0.00     0.302 C 
ATOM     32  O   UNL     1       9.489  -7.710  56.050  1.00  0.00    -0.253 OA
ATOM     33  C   UNL     1      10.656  -8.951  54.389  1.00  0.00     0.139 C 
ENDBRANCH  30  31
ENDBRANCH  25  30
ENDBRANCH   2   6
ENDBRANCH   1   2
BRANCH   1  34
ATOM     34  C   UNL     1      12.345   3.256  58.783  1.00  0.00     0.031 C 
BRANCH  34  35
ATOM     35  C   UNL     1      10.900   3.131  59.247  1.00  0.00    -0.075 C 
ATOM     36  C   UNL     1       9.926   3.086  58.319  1.00  0.00     0.008 C 
BRANCH  35  37
ATOM     37  C   UNL     1      10.503   3.355  60.704  1.00  0.00     0.008 C 
ATOM     38  C   UNL     1       9.339   4.339  60.863  1.00  0.00     0.012 C 
ATOM     39  C   UNL     1      10.181   2.019  61.385  1.00  0.00     0.012 C 
ENDBRANCH  35  37
ENDBRANCH  34  35
ENDBRANCH   1  34
TORSDOF 9
ENDMDL
