MODEL 1
REMARK VINA RESULT:    -3.445      0.000      0.000
REMARK INTER + INTRA:          -3.664
REMARK INTER:                  -3.647
REMARK INTRA:                  -0.017
REMARK UNBOUND:                -0.017
REMARK SMILES O=C([O-])c1cccnc1
REMARK SMILES IDX 4 1 5 2 9 3 6 4 8 5 7 6 2 7 1 8 3 9
REMARK H PARENT
REMARK Flexibility Score: inf
ROOT
ATOM      1  C   UNL     1       1.837  10.497   6.940  1.00  0.00     0.016 A 
ATOM      2  C   UNL     1       2.726   9.485   7.337  1.00  0.00     0.013 A 
ATOM      3  C   UNL     1       1.882  10.942   5.607  1.00  0.00     0.120 A 
ATOM      4  C   UNL     1       3.626   8.942   6.417  1.00  0.00     0.021 A 
ATOM      5  N   UNL     1       2.768  10.396   4.732  1.00  0.00    -0.264 NA
ATOM      6  C   UNL     1       3.631   9.417   5.105  1.00  0.00     0.111 A 
ENDROOT
BRANCH   1   7
ATOM      7  C   UNL     1       0.876  11.085   7.899  1.00  0.00     0.073 C 
ATOM      8  O   UNL     1       0.931  12.310   8.191  1.00  0.00    -0.545 OA
ATOM      9  O   UNL     1      -0.101  10.294   8.491  1.00  0.00    -0.545 OA
ENDBRANCH   1   7
TORSDOF 1
ENDMDL
MODEL 2
REMARK VINA RESULT:    -3.429      2.874      3.686
REMARK INTER + INTRA:          -3.647
REMARK INTER:                  -3.626
REMARK INTRA:                  -0.021
REMARK UNBOUND:                -0.017
REMARK SMILES O=C([O-])c1cccnc1
REMARK SMILES IDX 4 1 5 2 9 3 6 4 8 5 7 6 2 7 1 8 3 9
REMARK H PARENT
REMARK Flexibility Score: inf
ROOT
ATOM      1  C   UNL     1       2.691  10.870   6.455  1.00  0.00     0.016 A 
ATOM      2  C   UNL     1       1.873   9.947   7.127  1.00  0.00     0.013 A 
ATOM      3  C   UNL     1       2.447  12.241   6.644  1.00  0.00     0.120 A 
ATOM      4  C   UNL     1       0.846  10.397   7.959  1.00  0.00     0.021 A 
ATOM      5  N   UNL     1       1.441  12.653   7.461  1.00  0.00    -0.264 NA
ATOM      6  C   UNL     1       0.643  11.769   8.115  1.00  0.00     0.111 A 
ENDROOT
BRANCH   1   7
ATOM      7  C   UNL     1       3.784  10.414   5.568  1.00  0.00     0.073 C 
ATOM      8  O   UNL     1       4.824  11.110   5.424  1.00  0.00    -0.545 OA
ATOM      9  O   UNL     1       3.678   9.209   4.883  1.00  0.00    -0.545 OA
ENDBRANCH   1   7
TORSDOF 1
ENDMDL
MODEL 3
REMARK VINA RESULT:    -3.409      2.678      3.622
REMARK INTER + INTRA:          -3.625
REMARK INTER:                  -3.607
REMARK INTRA:                  -0.018
REMARK UNBOUND:                -0.017
REMARK SMILES O=C([O-])c1cccnc1
REMARK SMILES IDX 4 1 5 2 9 3 6 4 8 5 7 6 2 7 1 8 3 9
REMARK H PARENT
REMARK Flexibility Score: inf
ROOT
ATOM      1  C   UNL     1       2.515  10.270   6.553  1.00  0.00     0.016 A 
ATOM      2  C   UNL     1       1.435  10.195   7.448  1.00  0.00     0.013 A 
ATOM      3  C   UNL     1       2.999  11.539   6.193  1.00  0.00     0.120 A 
ATOM      4  C   UNL     1       0.867  11.364   7.959  1.00  0.00     0.021 A 
ATOM      5  N   UNL     1       2.427  12.662   6.705  1.00  0.00    -0.264 NA
ATOM      6  C   UNL     1       1.383  12.601   7.572  1.00  0.00     0.111 A 
ENDROOT
BRANCH   1   7
ATOM      7  C   UNL     1       3.131   9.043   6.000  1.00  0.00     0.073 C 
ATOM      8  O   UNL     1       3.639   8.181   6.765  1.00  0.00    -0.545 OA
ATOM      9  O   UNL     1       3.157   8.826   4.627  1.00  0.00    -0.545 OA
ENDBRANCH   1   7
TORSDOF 1
ENDMDL
MODEL 4
REMARK VINA RESULT:    -3.357      2.010      2.589
REMARK INTER + INTRA:          -3.571
REMARK INTER:                  -3.553
REMARK INTRA:                  -0.018
REMARK UNBOUND:                -0.017
REMARK SMILES O=C([O-])c1cccnc1
REMARK SMILES IDX 4 1 5 2 9 3 6 4 8 5 7 6 2 7 1 8 3 9
REMARK H PARENT
REMARK Flexibility Score: inf
ROOT
ATOM      1  C   UNL     1       2.928  11.820   6.251  1.00  0.00     0.016 A 
ATOM      2  C   UNL     1       2.174  10.869   6.957  1.00  0.00     0.013 A 
ATOM      3  C   UNL     1       3.982  11.368   5.438  1.00  0.00     0.120 A 
ATOM      4  C   UNL     1       2.476   9.510   6.843  1.00  0.00     0.021 A 
ATOM      5  N   UNL     1       4.255  10.039   5.345  1.00  0.00    -0.264 NA
ATOM      6  C   UNL     1       3.532   9.111   6.023  1.00  0.00     0.111 A 
ENDROOT
BRANCH   1   7
ATOM      7  C   UNL     1       2.625  13.264   6.358  1.00  0.00     0.073 C 
ATOM      8  O   UNL     1       2.322  13.932   5.334  1.00  0.00    -0.545 OA
ATOM      9  O   UNL     1       2.669  13.903   7.592  1.00  0.00    -0.545 OA
ENDBRANCH   1   7
TORSDOF 1
ENDMDL
MODEL 5
REMARK VINA RESULT:    -3.278      2.922      3.835
REMARK INTER + INTRA:          -3.487
REMARK INTER:                  -3.468
REMARK INTRA:                  -0.019
REMARK UNBOUND:                -0.017
REMARK SMILES O=C([O-])c1cccnc1
REMARK SMILES IDX 4 1 5 2 9 3 6 4 8 5 7 6 2 7 1 8 3 9
REMARK H PARENT
REMARK Flexibility Score: inf
ROOT
ATOM      1  C   UNL     1       2.653  10.466   6.586  1.00  0.00     0.016 A 
ATOM      2  C   UNL     1       3.080  11.744   6.191  1.00  0.00     0.013 A 
ATOM      3  C   UNL     1       1.571  10.369   7.478  1.00  0.00     0.120 A 
ATOM      4  C   UNL     1       2.434  12.882   6.680  1.00  0.00     0.021 A 
ATOM      5  N   UNL     1       0.959  11.493   7.939  1.00  0.00    -0.264 NA
ATOM      6  C   UNL     1       1.365  12.733   7.563  1.00  0.00     0.111 A 
ENDROOT
BRANCH   1   7
ATOM      7  C   UNL     1       3.324   9.249   6.079  1.00  0.00     0.073 C 
ATOM      8  O   UNL     1       3.626   8.310   6.864  1.00  0.00    -0.545 OA
ATOM      9  O   UNL     1       3.630   9.124   4.729  1.00  0.00    -0.545 OA
ENDBRANCH   1   7
TORSDOF 1
ENDMDL
MODEL 6
REMARK VINA RESULT:    -3.268      3.328      3.829
REMARK INTER + INTRA:          -3.476
REMARK INTER:                  -3.460
REMARK INTRA:                  -0.016
REMARK UNBOUND:                -0.017
REMARK SMILES O=C([O-])c1cccnc1
REMARK SMILES IDX 4 1 5 2 9 3 6 4 8 5 7 6 2 7 1 8 3 9
REMARK H PARENT
REMARK Flexibility Score: inf
ROOT
ATOM      1  C   UNL     1       1.622   8.859   4.950  1.00  0.00     0.016 A 
ATOM      2  C   UNL     1       2.904   8.548   5.433  1.00  0.00     0.013 A 
ATOM      3  C   UNL     1       0.772   9.632   5.759  1.00  0.00     0.120 A 
ATOM      4  C   UNL     1       3.309   9.005   6.689  1.00  0.00     0.021 A 
ATOM      5  N   UNL     1       1.192  10.064   6.979  1.00  0.00    -0.264 NA
ATOM      6  C   UNL     1       2.429   9.769   7.455  1.00  0.00     0.111 A 
ENDROOT
BRANCH   1   7
ATOM      7  C   UNL     1       1.174   8.385   3.622  1.00  0.00     0.073 C 
ATOM      8  O   UNL     1       1.304   9.116   2.604  1.00  0.00    -0.545 OA
ATOM      9  O   UNL     1       0.603   7.126   3.480  1.00  0.00    -0.545 OA
ENDBRANCH   1   7
TORSDOF 1
ENDMDL
MODEL 7
REMARK VINA RESULT:    -3.206      3.153      3.637
REMARK INTER + INTRA:          -3.411
REMARK INTER:                  -3.391
REMARK INTRA:                  -0.020
REMARK UNBOUND:                -0.017
REMARK SMILES O=C([O-])c1cccnc1
REMARK SMILES IDX 4 1 5 2 9 3 6 4 8 5 7 6 2 7 1 8 3 9
REMARK H PARENT
REMARK Flexibility Score: inf
ROOT
ATOM      1  C   UNL     1       2.203   9.216   4.454  1.00  0.00     0.016 A 
ATOM      2  C   UNL     1       2.766   8.645   5.607  1.00  0.00     0.013 A 
ATOM      3  C   UNL     1       2.533  10.544   4.136  1.00  0.00     0.120 A 
ATOM      4  C   UNL     1       3.632   9.392   6.408  1.00  0.00     0.021 A 
ATOM      5  N   UNL     1       3.380  11.250   4.933  1.00  0.00    -0.264 NA
ATOM      6  C   UNL     1       3.930  10.707   6.050  1.00  0.00     0.111 A 
ENDROOT
BRANCH   1   7
ATOM      7  C   UNL     1       1.283   8.441   3.593  1.00  0.00     0.073 C 
ATOM      8  O   UNL     1       1.368   8.512   2.338  1.00  0.00    -0.545 OA
ATOM      9  O   UNL     1       0.311   7.623   4.158  1.00  0.00    -0.545 OA
ENDBRANCH   1   7
TORSDOF 1
ENDMDL
MODEL 8
REMARK VINA RESULT:    -3.079      2.842      3.239
REMARK INTER + INTRA:          -3.277
REMARK INTER:                  -3.261
REMARK INTRA:                  -0.016
REMARK UNBOUND:                -0.017
REMARK SMILES O=C([O-])c1cccnc1
REMARK SMILES IDX 4 1 5 2 9 3 6 4 8 5 7 6 2 7 1 8 3 9
REMARK H PARENT
REMARK Flexibility Score: inf
ROOT
ATOM      1  C   UNL     1       1.921   9.118   5.330  1.00  0.00     0.016 A 
ATOM      2  C   UNL     1       0.870   8.206   5.139  1.00  0.00     0.013 A 
ATOM      3  C   UNL     1       2.240   9.999   4.282  1.00  0.00     0.120 A 
ATOM      4  C   UNL     1       0.168   8.188   3.932  1.00  0.00     0.021 A 
ATOM      5  N   UNL     1       1.540   9.961   3.117  1.00  0.00    -0.264 NA
ATOM      6  C   UNL     1       0.522   9.083   2.922  1.00  0.00     0.111 A 
ENDROOT
BRANCH   1   7
ATOM      7  C   UNL     1       2.678   9.153   6.601  1.00  0.00     0.073 C 
ATOM      8  O   UNL     1       3.718   8.458   6.746  1.00  0.00    -0.545 OA
ATOM      9  O   UNL     1       2.250   9.954   7.653  1.00  0.00    -0.545 OA
ENDBRANCH   1   7
TORSDOF 1
ENDMDL
MODEL 9
REMARK VINA RESULT:    -3.034      2.594      3.209
REMARK INTER + INTRA:          -3.229
REMARK INTER:                  -3.207
REMARK INTRA:                  -0.022
REMARK UNBOUND:                -0.017
REMARK SMILES O=C([O-])c1cccnc1
REMARK SMILES IDX 4 1 5 2 9 3 6 4 8 5 7 6 2 7 1 8 3 9
REMARK H PARENT
REMARK Flexibility Score: inf
ROOT
ATOM      1  C   UNL     1       2.480  10.296   5.606  1.00  0.00     0.016 A 
ATOM      2  C   UNL     1       2.641   9.380   4.553  1.00  0.00     0.013 A 
ATOM      3  C   UNL     1       1.343  10.180   6.425  1.00  0.00     0.120 A 
ATOM      4  C   UNL     1       1.687   8.383   4.340  1.00  0.00     0.021 A 
ATOM      5  N   UNL     1       0.429   9.199   6.195  1.00  0.00    -0.264 NA
ATOM      6  C   UNL     1       0.576   8.309   5.180  1.00  0.00     0.111 A 
ENDROOT
BRANCH   1   7
ATOM      7  C   UNL     1       3.479  11.360   5.849  1.00  0.00     0.073 C 
ATOM      8  O   UNL     1       3.141  12.443   6.397  1.00  0.00    -0.545 OA
ATOM      9  O   UNL     1       4.805  11.177   5.476  1.00  0.00    -0.545 OA
ENDBRANCH   1   7
TORSDOF 1
ENDMDL
