MODEL 1
REMARK VINA RESULT:    -4.446      0.000      0.000
REMARK INTER + INTRA:          -4.575
REMARK INTER:                  -4.575
REMARK INTRA:                   0.000
REMARK UNBOUND:                 0.000
REMARK SMILES Nc1ncnc2nc[nH]c12
REMARK SMILES IDX 8 1 7 2 6 3 5 4 4 5 3 6 2 7 10 8 9 9 1 11
REMARK H PARENT 9 10 1 12 1 13
REMARK Flexibility Score: inf
ROOT
ATOM      1  C   UNL     1      43.629  10.429  28.192  1.00  0.00     0.199 A 
ATOM      2  N   UNL     1      43.189   9.154  28.003  1.00  0.00    -0.217 NA
ATOM      3  C   UNL     1      44.305   8.525  27.601  1.00  0.00     0.182 A 
ATOM      4  N   UNL     1      44.421   7.215  27.276  1.00  0.00    -0.215 NA
ATOM      5  C   UNL     1      45.648   6.752  26.884  1.00  0.00     0.226 A 
ATOM      6  N   UNL     1      46.725   7.600  26.827  1.00  0.00    -0.217 NA
ATOM      7  C   UNL     1      46.610   8.922  27.156  1.00  0.00     0.152 A 
ATOM      8  C   UNL     1      45.355   9.376  27.550  1.00  0.00     0.127 A 
ATOM      9  N   UNL     1      44.949  10.596  27.924  1.00  0.00    -0.340 N 
ATOM     10  H   UNL     1      45.505  11.477  27.994  1.00  0.00     0.168 HD
ENDROOT
BRANCH   7  11
ATOM     11  N   UNL     1      47.745   9.786  27.089  1.00  0.00    -0.382 N 
ATOM     12  H   UNL     1      47.743  10.642  26.492  1.00  0.00     0.158 HD
ATOM     13  H   UNL     1      48.602   9.566  27.644  1.00  0.00     0.158 HD
ENDBRANCH   7  11
TORSDOF 1
ENDMDL
MODEL 2
REMARK VINA RESULT:    -4.383     15.153     16.490
REMARK INTER + INTRA:          -4.511
REMARK INTER:                  -4.511
REMARK INTRA:                   0.000
REMARK UNBOUND:                 0.000
REMARK SMILES Nc1ncnc2nc[nH]c12
REMARK SMILES IDX 8 1 7 2 6 3 5 4 4 5 3 6 2 7 10 8 9 9 1 11
REMARK H PARENT 9 10 1 12 1 13
REMARK Flexibility Score: inf
ROOT
ATOM      1  C   UNL     1      36.988  22.913  18.463  1.00  0.00     0.199 A 
ATOM      2  N   UNL     1      37.258  21.830  17.683  1.00  0.00    -0.217 NA
ATOM      3  C   UNL     1      37.452  20.863  18.595  1.00  0.00     0.182 A 
ATOM      4  N   UNL     1      37.755  19.566  18.345  1.00  0.00    -0.215 NA
ATOM      5  C   UNL     1      37.917  18.724  19.411  1.00  0.00     0.226 A 
ATOM      6  N   UNL     1      37.773  19.190  20.694  1.00  0.00    -0.217 NA
ATOM      7  C   UNL     1      37.467  20.498  20.947  1.00  0.00     0.152 A 
ATOM      8  C   UNL     1      37.307  21.341  19.852  1.00  0.00     0.127 A 
ATOM      9  N   UNL     1      37.011  22.646  19.793  1.00  0.00    -0.340 N 
ATOM     10  H   UNL     1      36.837  23.312  20.578  1.00  0.00     0.168 HD
ENDROOT
BRANCH   7  11
ATOM     11  N   UNL     1      37.323  20.960  22.291  1.00  0.00    -0.382 N 
ATOM     12  H   UNL     1      37.903  20.570  23.066  1.00  0.00     0.158 HD
ATOM     13  H   UNL     1      36.626  21.704  22.515  1.00  0.00     0.158 HD
ENDBRANCH   7  11
TORSDOF 1
ENDMDL
MODEL 3
REMARK VINA RESULT:    -4.286     15.107     16.475
REMARK INTER + INTRA:          -4.412
REMARK INTER:                  -4.412
REMARK INTRA:                   0.000
REMARK UNBOUND:                 0.000
REMARK SMILES Nc1ncnc2nc[nH]c12
REMARK SMILES IDX 8 1 7 2 6 3 5 4 4 5 3 6 2 7 10 8 9 9 1 11
REMARK H PARENT 9 10 1 12 1 13
REMARK Flexibility Score: inf
ROOT
ATOM      1  C   UNL     1      37.209  19.477  21.171  1.00  0.00     0.199 A 
ATOM      2  N   UNL     1      37.326  20.828  21.045  1.00  0.00    -0.217 NA
ATOM      3  C   UNL     1      37.513  20.975  19.723  1.00  0.00     0.182 A 
ATOM      4  N   UNL     1      37.688  22.142  19.058  1.00  0.00    -0.215 NA
ATOM      5  C   UNL     1      37.866  22.092  17.702  1.00  0.00     0.226 A 
ATOM      6  N   UNL     1      37.865  20.888  17.044  1.00  0.00    -0.217 NA
ATOM      7  C   UNL     1      37.687  19.710  17.714  1.00  0.00     0.152 A 
ATOM      8  C   UNL     1      37.509  19.778  19.093  1.00  0.00     0.127 A 
ATOM      9  N   UNL     1      37.316  18.808  19.995  1.00  0.00    -0.340 N 
ATOM     10  H   UNL     1      37.261  17.776  19.843  1.00  0.00     0.168 HD
ENDROOT
BRANCH   7  11
ATOM     11  N   UNL     1      37.690  18.468  17.008  1.00  0.00    -0.382 N 
ATOM     12  H   UNL     1      37.401  17.579  17.471  1.00  0.00     0.158 HD
ATOM     13  H   UNL     1      37.986  18.438  16.008  1.00  0.00     0.158 HD
ENDBRANCH   7  11
TORSDOF 1
ENDMDL
MODEL 4
REMARK VINA RESULT:    -4.245      2.550      4.517
REMARK INTER + INTRA:          -4.369
REMARK INTER:                  -4.369
REMARK INTRA:                   0.000
REMARK UNBOUND:                 0.000
REMARK SMILES Nc1ncnc2nc[nH]c12
REMARK SMILES IDX 8 1 7 2 6 3 5 4 4 5 3 6 2 7 10 8 9 9 1 11
REMARK H PARENT 9 10 1 12 1 13
REMARK Flexibility Score: inf
ROOT
ATOM      1  C   UNL     1      43.537   9.736  27.442  1.00  0.00     0.199 A 
ATOM      2  N   UNL     1      44.506  10.309  28.208  1.00  0.00    -0.217 NA
ATOM      3  C   UNL     1      44.173   9.899  29.443  1.00  0.00     0.182 A 
ATOM      4  N   UNL     1      44.824  10.193  30.594  1.00  0.00    -0.215 NA
ATOM      5  C   UNL     1      44.332   9.680  31.763  1.00  0.00     0.226 A 
ATOM      6  N   UNL     1      43.210   8.890  31.758  1.00  0.00    -0.217 NA
ATOM      7  C   UNL     1      42.553   8.592  30.597  1.00  0.00     0.152 A 
ATOM      8  C   UNL     1      43.066   9.122  29.417  1.00  0.00     0.127 A 
ATOM      9  N   UNL     1      42.642   9.004  28.153  1.00  0.00    -0.340 N 
ATOM     10  H   UNL     1      41.819   8.476  27.787  1.00  0.00     0.168 HD
ENDROOT
BRANCH   7  11
ATOM     11  N   UNL     1      41.387   7.768  30.617  1.00  0.00    -0.382 N 
ATOM     12  H   UNL     1      40.701   7.776  29.830  1.00  0.00     0.158 HD
ATOM     13  H   UNL     1      41.205   7.139  31.431  1.00  0.00     0.158 HD
ENDBRANCH   7  11
TORSDOF 1
ENDMDL
MODEL 5
REMARK VINA RESULT:    -4.184     15.439     17.111
REMARK INTER + INTRA:          -4.306
REMARK INTER:                  -4.306
REMARK INTRA:                   0.000
REMARK UNBOUND:                 0.000
REMARK SMILES Nc1ncnc2nc[nH]c12
REMARK SMILES IDX 8 1 7 2 6 3 5 4 4 5 3 6 2 7 10 8 9 9 1 11
REMARK H PARENT 9 10 1 12 1 13
REMARK Flexibility Score: inf
ROOT
ATOM      1  C   UNL     1      37.566  19.857  21.327  1.00  0.00     0.199 A 
ATOM      2  N   UNL     1      36.496  19.520  20.554  1.00  0.00    -0.217 NA
ATOM      3  C   UNL     1      35.618  20.494  20.844  1.00  0.00     0.182 A 
ATOM      4  N   UNL     1      34.370  20.633  20.335  1.00  0.00    -0.215 NA
ATOM      5  C   UNL     1      33.618  21.697  20.753  1.00  0.00     0.226 A 
ATOM      6  N   UNL     1      34.123  22.592  21.662  1.00  0.00    -0.217 NA
ATOM      7  C   UNL     1      35.382  22.453  22.175  1.00  0.00     0.152 A 
ATOM      8  C   UNL     1      36.133  21.366  21.741  1.00  0.00     0.127 A 
ATOM      9  N   UNL     1      37.375  20.981  22.063  1.00  0.00    -0.340 N 
ATOM     10  H   UNL     1      38.047  21.430  22.724  1.00  0.00     0.168 HD
ENDROOT
BRANCH   7  11
ATOM     11  N   UNL     1      35.886  23.398  23.120  1.00  0.00    -0.382 N 
ATOM     12  H   UNL     1      35.397  23.577  24.025  1.00  0.00     0.158 HD
ATOM     13  H   UNL     1      36.762  23.927  22.913  1.00  0.00     0.158 HD
ENDBRANCH   7  11
TORSDOF 1
ENDMDL
MODEL 6
REMARK VINA RESULT:    -4.075     15.117     16.501
REMARK INTER + INTRA:          -4.194
REMARK INTER:                  -4.194
REMARK INTRA:                   0.000
REMARK UNBOUND:                 0.000
REMARK SMILES Nc1ncnc2nc[nH]c12
REMARK SMILES IDX 8 1 7 2 6 3 5 4 4 5 3 6 2 7 10 8 9 9 1 11
REMARK H PARENT 9 10 1 12 1 13
REMARK Flexibility Score: inf
ROOT
ATOM      1  C   UNL     1      35.232  21.782  18.434  1.00  0.00     0.199 A 
ATOM      2  N   UNL     1      35.310  22.170  19.737  1.00  0.00    -0.217 NA
ATOM      3  C   UNL     1      36.093  21.218  20.270  1.00  0.00     0.182 A 
ATOM      4  N   UNL     1      36.491  21.130  21.563  1.00  0.00    -0.215 NA
ATOM      5  C   UNL     1      37.293  20.082  21.922  1.00  0.00     0.226 A 
ATOM      6  N   UNL     1      37.680  19.151  20.990  1.00  0.00    -0.217 NA
ATOM      7  C   UNL     1      37.281  19.239  19.687  1.00  0.00     0.152 A 
ATOM      8  C   UNL     1      36.464  20.310  19.338  1.00  0.00     0.127 A 
ATOM      9  N   UNL     1      35.927  20.649  18.159  1.00  0.00    -0.340 N 
ATOM     10  H   UNL     1      36.014  20.164  17.239  1.00  0.00     0.168 HD
ENDROOT
BRANCH   7  11
ATOM     11  N   UNL     1      37.696  18.258  18.735  1.00  0.00    -0.382 N 
ATOM     12  H   UNL     1      37.513  18.379  17.715  1.00  0.00     0.158 HD
ATOM     13  H   UNL     1      38.193  17.398  19.055  1.00  0.00     0.158 HD
ENDBRANCH   7  11
TORSDOF 1
ENDMDL
MODEL 7
REMARK VINA RESULT:    -4.053     15.291     16.651
REMARK INTER + INTRA:          -4.171
REMARK INTER:                  -4.171
REMARK INTRA:                   0.000
REMARK UNBOUND:                 0.000
REMARK SMILES Nc1ncnc2nc[nH]c12
REMARK SMILES IDX 8 1 7 2 6 3 5 4 4 5 3 6 2 7 10 8 9 9 1 11
REMARK H PARENT 9 10 1 12 1 13
REMARK Flexibility Score: inf
ROOT
ATOM      1  C   UNL     1      37.310  19.847  21.543  1.00  0.00     0.199 A 
ATOM      2  N   UNL     1      37.569  19.028  20.487  1.00  0.00    -0.217 NA
ATOM      3  C   UNL     1      37.578  19.888  19.455  1.00  0.00     0.182 A 
ATOM      4  N   UNL     1      37.794  19.585  18.153  1.00  0.00    -0.215 NA
ATOM      5  C   UNL     1      37.764  20.603  17.239  1.00  0.00     0.226 A 
ATOM      6  N   UNL     1      37.523  21.892  17.642  1.00  0.00    -0.217 NA
ATOM      7  C   UNL     1      37.307  22.200  18.956  1.00  0.00     0.152 A 
ATOM      8  C   UNL     1      37.338  21.153  19.872  1.00  0.00     0.127 A 
ATOM      9  N   UNL     1      37.165  21.152  21.199  1.00  0.00    -0.340 N 
ATOM     10  H   UNL     1      36.964  21.957  21.832  1.00  0.00     0.168 HD
ENDROOT
BRANCH   7  11
ATOM     11  N   UNL     1      37.057  23.549  19.351  1.00  0.00    -0.382 N 
ATOM     12  H   UNL     1      36.089  23.893  19.532  1.00  0.00     0.158 HD
ATOM     13  H   UNL     1      37.853  24.215  19.465  1.00  0.00     0.158 HD
ENDBRANCH   7  11
TORSDOF 1
ENDMDL
MODEL 8
REMARK VINA RESULT:    -4.000     15.396     17.030
REMARK INTER + INTRA:          -4.117
REMARK INTER:                  -4.117
REMARK INTRA:                   0.000
REMARK UNBOUND:                 0.000
REMARK SMILES Nc1ncnc2nc[nH]c12
REMARK SMILES IDX 8 1 7 2 6 3 5 4 4 5 3 6 2 7 10 8 9 9 1 11
REMARK H PARENT 9 10 1 12 1 13
REMARK Flexibility Score: inf
ROOT
ATOM      1  C   UNL     1      37.684  19.129  20.814  1.00  0.00     0.199 A 
ATOM      2  N   UNL     1      37.368  19.968  21.840  1.00  0.00    -0.217 NA
ATOM      3  C   UNL     1      36.404  20.730  21.296  1.00  0.00     0.182 A 
ATOM      4  N   UNL     1      35.736  21.740  21.903  1.00  0.00    -0.215 NA
ATOM      5  C   UNL     1      34.782  22.407  21.184  1.00  0.00     0.226 A 
ATOM      6  N   UNL     1      34.517  22.054  19.885  1.00  0.00    -0.217 NA
ATOM      7  C   UNL     1      35.190  21.035  19.272  1.00  0.00     0.152 A 
ATOM      8  C   UNL     1      36.158  20.368  20.017  1.00  0.00     0.127 A 
ATOM      9  N   UNL     1      36.961  19.349  19.687  1.00  0.00    -0.340 N 
ATOM     10  H   UNL     1      37.027  18.836  18.780  1.00  0.00     0.168 HD
ENDROOT
BRANCH   7  11
ATOM     11  N   UNL     1      34.898  20.686  17.918  1.00  0.00    -0.382 N 
ATOM     12  H   UNL     1      33.915  20.607  17.576  1.00  0.00     0.158 HD
ATOM     13  H   UNL     1      35.676  20.502  17.247  1.00  0.00     0.158 HD
ENDBRANCH   7  11
TORSDOF 1
ENDMDL
MODEL 9
REMARK VINA RESULT:    -3.968      2.270      3.697
REMARK INTER + INTRA:          -4.084
REMARK INTER:                  -4.084
REMARK INTRA:                   0.000
REMARK UNBOUND:                 0.000
REMARK SMILES Nc1ncnc2nc[nH]c12
REMARK SMILES IDX 8 1 7 2 6 3 5 4 4 5 3 6 2 7 10 8 9 9 1 11
REMARK H PARENT 9 10 1 12 1 13
REMARK Flexibility Score: inf
ROOT
ATOM      1  C   UNL     1      44.727  10.151  27.255  1.00  0.00     0.199 A 
ATOM      2  N   UNL     1      43.397   9.859  27.264  1.00  0.00    -0.217 NA
ATOM      3  C   UNL     1      43.163   9.637  28.568  1.00  0.00     0.182 A 
ATOM      4  N   UNL     1      41.975   9.305  29.130  1.00  0.00    -0.215 NA
ATOM      5  C   UNL     1      41.933   9.117  30.484  1.00  0.00     0.226 A 
ATOM      6  N   UNL     1      43.066   9.265  31.243  1.00  0.00    -0.217 NA
ATOM      7  C   UNL     1      44.264   9.601  30.678  1.00  0.00     0.152 A 
ATOM      8  C   UNL     1      44.291   9.787  29.299  1.00  0.00     0.127 A 
ATOM      9  N   UNL     1      45.301  10.115  28.484  1.00  0.00    -0.340 N 
ATOM     10  H   UNL     1      46.300  10.301  28.724  1.00  0.00     0.168 HD
ENDROOT
BRANCH   7  11
ATOM     11  N   UNL     1      45.430   9.749  31.488  1.00  0.00    -0.382 N 
ATOM     12  H   UNL     1      45.859  10.685  31.659  1.00  0.00     0.158 HD
ATOM     13  H   UNL     1      45.873   8.910  31.924  1.00  0.00     0.158 HD
ENDBRANCH   7  11
TORSDOF 1
ENDMDL
