MODEL 1
REMARK VINA RESULT:    -6.608      0.000      0.000
REMARK INTER + INTRA:          -8.832
REMARK INTER:                  -8.153
REMARK INTRA:                  -0.679
REMARK UNBOUND:                -0.679
REMARK SMILES CC(C)=CCC[C@@H](C)c1ccc(C)cc1
REMARK SMILES IDX 6 1 7 2 8 3 9 4 13 5 12 6 11 7 14 8 10 9 15 10 5 11 4 12
REMARK SMILES IDX 2 13 1 14 3 15
REMARK H PARENT
REMARK Flexibility Score: inf
ROOT
ATOM      1  C   UNL     1     118.288  92.431 126.662  1.00  0.00     0.012 C 
ENDROOT
BRANCH   1   2
ATOM      2  C   UNL     1     118.654  90.974 126.300  1.00  0.00     0.016 C 
ATOM      3  C   UNL     1     117.787  89.944 127.043  1.00  0.00     0.013 C 
BRANCH   2   4
ATOM      4  C   UNL     1     118.703  90.767 124.791  1.00  0.00    -0.045 A 
ATOM      5  C   UNL     1     118.776  89.936 120.550  1.00  0.00     0.044 C 
ATOM      6  C   UNL     1     118.741  90.253 122.016  1.00  0.00    -0.051 A 
ATOM      7  C   UNL     1     119.888  90.736 122.661  1.00  0.00     0.004 A 
ATOM      8  C   UNL     1     117.586  89.998 122.766  1.00  0.00     0.004 A 
ATOM      9  C   UNL     1     119.870  90.993 124.035  1.00  0.00     0.004 A 
ATOM     10  C   UNL     1     117.567  90.254 124.140  1.00  0.00     0.004 A 
ENDBRANCH   2   4
ENDBRANCH   1   2
BRANCH   1  11
ATOM     11  C   UNL     1     119.403  93.201 127.392  1.00  0.00     0.028 C 
BRANCH  11  12
ATOM     12  C   UNL     1     119.808  92.484 128.655  1.00  0.00    -0.028 C 
ATOM     13  C   UNL     1     119.233  92.690 129.861  1.00  0.00    -0.080 C 
ATOM     14  C   UNL     1     119.761  91.927 131.049  1.00  0.00     0.039 C 
ATOM     15  C   UNL     1     118.074  93.644 130.044  1.00  0.00     0.039 C 
ENDBRANCH  11  12
ENDBRANCH   1  11
TORSDOF 4
ENDMDL
MODEL 2
REMARK VINA RESULT:    -6.432      1.247      6.873
REMARK INTER + INTRA:          -8.614
REMARK INTER:                  -8.104
REMARK INTRA:                  -0.510
REMARK UNBOUND:                -0.679
REMARK SMILES CC(C)=CCC[C@@H](C)c1ccc(C)cc1
REMARK SMILES IDX 6 1 7 2 8 3 9 4 13 5 12 6 11 7 14 8 10 9 15 10 5 11 4 12
REMARK SMILES IDX 2 13 1 14 3 15
REMARK H PARENT
REMARK Flexibility Score: inf
ROOT
ATOM      1  C   UNL     1     117.525  90.936 125.416  1.00  0.00     0.012 C 
ENDROOT
BRANCH   1   2
ATOM      2  C   UNL     1     117.431  90.138 126.735  1.00  0.00     0.016 C 
ATOM      3  C   UNL     1     117.948  88.697 126.592  1.00  0.00     0.013 C 
BRANCH   2   4
ATOM      4  C   UNL     1     118.049  90.903 127.899  1.00  0.00    -0.045 A 
ATOM      5  C   UNL     1     120.031  92.989 131.125  1.00  0.00     0.044 C 
ATOM      6  C   UNL     1     119.322  92.288 130.004  1.00  0.00    -0.051 A 
ATOM      7  C   UNL     1     118.328  91.340 130.281  1.00  0.00     0.004 A 
ATOM      8  C   UNL     1     119.701  92.518 128.675  1.00  0.00     0.004 A 
ATOM      9  C   UNL     1     117.695  90.655 129.240  1.00  0.00     0.004 A 
ATOM     10  C   UNL     1     119.070  91.834 127.633  1.00  0.00     0.004 A 
ENDBRANCH   2   4
ENDBRANCH   1   2
BRANCH   1  11
ATOM     11  C   UNL     1     118.333  90.236 124.308  1.00  0.00     0.028 C 
BRANCH  11  12
ATOM     12  C   UNL     1     117.444  89.878 123.145  1.00  0.00    -0.028 C 
ATOM     13  C   UNL     1     117.859  89.842 121.858  1.00  0.00    -0.080 C 
ATOM     14  C   UNL     1     116.854  89.500 120.788  1.00  0.00     0.039 C 
ATOM     15  C   UNL     1     119.295  90.115 121.471  1.00  0.00     0.039 C 
ENDBRANCH  11  12
ENDBRANCH   1  11
TORSDOF 4
ENDMDL
MODEL 3
REMARK VINA RESULT:    -6.089      1.375      2.150
REMARK INTER + INTRA:          -8.192
REMARK INTER:                  -7.348
REMARK INTRA:                  -0.844
REMARK UNBOUND:                -0.679
REMARK SMILES CC(C)=CCC[C@@H](C)c1ccc(C)cc1
REMARK SMILES IDX 6 1 7 2 8 3 9 4 13 5 12 6 11 7 14 8 10 9 15 10 5 11 4 12
REMARK SMILES IDX 2 13 1 14 3 15
REMARK H PARENT
REMARK Flexibility Score: inf
ROOT
ATOM      1  C   UNL     1     116.882  89.914 127.056  1.00  0.00     0.012 C 
ENDROOT
BRANCH   1   2
ATOM      2  C   UNL     1     118.297  89.420 126.680  1.00  0.00     0.016 C 
ATOM      3  C   UNL     1     118.573  87.987 127.167  1.00  0.00     0.013 C 
BRANCH   2   4
ATOM      4  C   UNL     1     118.593  89.637 125.201  1.00  0.00    -0.045 A 
ATOM      5  C   UNL     1     119.321  90.480 121.025  1.00  0.00     0.044 C 
ATOM      6  C   UNL     1     119.094  90.171 122.475  1.00  0.00    -0.051 A 
ATOM      7  C   UNL     1     118.341  89.050 122.849  1.00  0.00     0.004 A 
ATOM      8  C   UNL     1     119.568  91.041 123.465  1.00  0.00     0.004 A 
ATOM      9  C   UNL     1     118.093  88.783 124.198  1.00  0.00     0.004 A 
ATOM     10  C   UNL     1     119.322  90.776 124.814  1.00  0.00     0.004 A 
ENDBRANCH   2   4
ENDBRANCH   1   2
BRANCH   1  11
ATOM     11  C   UNL     1     116.840  90.832 128.290  1.00  0.00     0.028 C 
BRANCH  11  12
ATOM     12  C   UNL     1     118.136  91.587 128.438  1.00  0.00    -0.028 C 
ATOM     13  C   UNL     1     118.839  91.666 129.591  1.00  0.00    -0.080 C 
ATOM     14  C   UNL     1     120.105  92.485 129.606  1.00  0.00     0.039 C 
ATOM     15  C   UNL     1     118.403  90.947 130.847  1.00  0.00     0.039 C 
ENDBRANCH  11  12
ENDBRANCH   1  11
TORSDOF 4
ENDMDL
MODEL 4
REMARK VINA RESULT:    -5.994      1.428      6.806
REMARK INTER + INTRA:          -8.074
REMARK INTER:                  -7.526
REMARK INTRA:                  -0.548
REMARK UNBOUND:                -0.679
REMARK SMILES CC(C)=CCC[C@@H](C)c1ccc(C)cc1
REMARK SMILES IDX 6 1 7 2 8 3 9 4 13 5 12 6 11 7 14 8 10 9 15 10 5 11 4 12
REMARK SMILES IDX 2 13 1 14 3 15
REMARK H PARENT
REMARK Flexibility Score: inf
ROOT
ATOM      1  C   UNL     1     118.600  90.566 124.543  1.00  0.00     0.012 C 
ENDROOT
BRANCH   1   2
ATOM      2  C   UNL     1     118.589  89.631 125.772  1.00  0.00     0.016 C 
ATOM      3  C   UNL     1     119.779  88.657 125.785  1.00  0.00     0.013 C 
BRANCH   2   4
ATOM      4  C   UNL     1     118.417  90.412 127.070  1.00  0.00    -0.045 A 
ATOM      5  C   UNL     1     118.181  92.647 130.762  1.00  0.00     0.044 C 
ATOM      6  C   UNL     1     118.236  91.884 129.472  1.00  0.00    -0.051 A 
ATOM      7  C   UNL     1     117.686  90.598 129.388  1.00  0.00     0.004 A 
ATOM      8  C   UNL     1     118.904  92.419 128.363  1.00  0.00     0.004 A 
ATOM      9  C   UNL     1     117.773  89.868 128.199  1.00  0.00     0.004 A 
ATOM     10  C   UNL     1     118.992  91.691 127.173  1.00  0.00     0.004 A 
ENDBRANCH   2   4
ENDBRANCH   1   2
BRANCH   1  11
ATOM     11  C   UNL     1     117.614  90.162 123.432  1.00  0.00     0.028 C 
BRANCH  11  12
ATOM     12  C   UNL     1     118.171  89.027 122.611  1.00  0.00    -0.028 C 
ATOM     13  C   UNL     1     118.921  89.195 121.498  1.00  0.00    -0.080 C 
ATOM     14  C   UNL     1     119.386  87.970 120.753  1.00  0.00     0.039 C 
ATOM     15  C   UNL     1     119.318  90.565 120.998  1.00  0.00     0.039 C 
ENDBRANCH  11  12
ENDBRANCH   1  11
TORSDOF 4
ENDMDL
MODEL 5
REMARK VINA RESULT:    -5.729      1.265      1.914
REMARK INTER + INTRA:          -7.748
REMARK INTER:                  -7.040
REMARK INTRA:                  -0.708
REMARK UNBOUND:                -0.679
REMARK SMILES CC(C)=CCC[C@@H](C)c1ccc(C)cc1
REMARK SMILES IDX 6 1 7 2 8 3 9 4 13 5 12 6 11 7 14 8 10 9 15 10 5 11 4 12
REMARK SMILES IDX 2 13 1 14 3 15
REMARK H PARENT
REMARK Flexibility Score: inf
ROOT
ATOM      1  C   UNL     1     119.236  91.530 125.444  1.00  0.00     0.012 C 
ENDROOT
BRANCH   1   2
ATOM      2  C   UNL     1     119.259  90.107 124.842  1.00  0.00     0.016 C 
ATOM      3  C   UNL     1     118.532  89.079 125.726  1.00  0.00     0.013 C 
BRANCH   2   4
ATOM      4  C   UNL     1     118.799  90.105 123.389  1.00  0.00    -0.045 A 
ATOM      5  C   UNL     1     117.449  89.851 119.291  1.00  0.00     0.044 C 
ATOM      6  C   UNL     1     117.907  89.968 120.714  1.00  0.00    -0.051 A 
ATOM      7  C   UNL     1     119.201  90.419 121.005  1.00  0.00     0.004 A 
ATOM      8  C   UNL     1     117.072  89.556 121.761  1.00  0.00     0.004 A 
ATOM      9  C   UNL     1     119.644  90.489 122.329  1.00  0.00     0.004 A 
ATOM     10  C   UNL     1     117.513  89.625 123.085  1.00  0.00     0.004 A 
ENDBRANCH   2   4
ENDBRANCH   1   2
BRANCH   1  11
ATOM     11  C   UNL     1     117.965  91.856 126.249  1.00  0.00     0.028 C 
BRANCH  11  12
ATOM     12  C   UNL     1     118.321  92.371 127.621  1.00  0.00    -0.028 C 
ATOM     13  C   UNL     1     117.882  91.818 128.774  1.00  0.00    -0.080 C 
ATOM     14  C   UNL     1     118.289  92.457 130.077  1.00  0.00     0.039 C 
ATOM     15  C   UNL     1     117.019  90.577 128.791  1.00  0.00     0.039 C 
ENDBRANCH  11  12
ENDBRANCH   1  11
TORSDOF 4
ENDMDL
MODEL 6
REMARK VINA RESULT:    -5.694      1.450      7.049
REMARK INTER + INTRA:          -7.704
REMARK INTER:                  -7.243
REMARK INTRA:                  -0.462
REMARK UNBOUND:                -0.679
REMARK SMILES CC(C)=CCC[C@@H](C)c1ccc(C)cc1
REMARK SMILES IDX 6 1 7 2 8 3 9 4 13 5 12 6 11 7 14 8 10 9 15 10 5 11 4 12
REMARK SMILES IDX 2 13 1 14 3 15
REMARK H PARENT
REMARK Flexibility Score: inf
ROOT
ATOM      1  C   UNL     1     117.798  90.313 123.570  1.00  0.00     0.012 C 
ENDROOT
BRANCH   1   2
ATOM      2  C   UNL     1     118.108  89.528 124.864  1.00  0.00     0.016 C 
ATOM      3  C   UNL     1     119.172  88.439 124.654  1.00  0.00     0.013 C 
BRANCH   2   4
ATOM      4  C   UNL     1     118.403  90.463 126.030  1.00  0.00    -0.045 A 
ATOM      5  C   UNL     1     119.009  93.068 129.426  1.00  0.00     0.044 C 
ATOM      6  C   UNL     1     118.828  92.157 128.248  1.00  0.00    -0.051 A 
ATOM      7  C   UNL     1     118.945  92.657 126.944  1.00  0.00     0.004 A 
ATOM      8  C   UNL     1     118.468  90.817 128.440  1.00  0.00     0.004 A 
ATOM      9  C   UNL     1     118.736  91.820 125.845  1.00  0.00     0.004 A 
ATOM     10  C   UNL     1     118.259  89.978 127.342  1.00  0.00     0.004 A 
ENDBRANCH   2   4
ENDBRANCH   1   2
BRANCH   1  11
ATOM     11  C   UNL     1     117.098  89.483 122.478  1.00  0.00     0.028 C 
BRANCH  11  12
ATOM     12  C   UNL     1     117.933  89.441 121.223  1.00  0.00    -0.028 C 
ATOM     13  C   UNL     1     117.420  89.380 119.974  1.00  0.00    -0.080 C 
ATOM     14  C   UNL     1     118.372  89.309 118.808  1.00  0.00     0.039 C 
ATOM     15  C   UNL     1     115.930  89.400 119.718  1.00  0.00     0.039 C 
ENDBRANCH  11  12
ENDBRANCH   1  11
TORSDOF 4
ENDMDL
MODEL 7
REMARK VINA RESULT:    -5.580      1.772      3.367
REMARK INTER + INTRA:          -7.564
REMARK INTER:                  -6.985
REMARK INTRA:                  -0.579
REMARK UNBOUND:                -0.679
REMARK SMILES CC(C)=CCC[C@@H](C)c1ccc(C)cc1
REMARK SMILES IDX 6 1 7 2 8 3 9 4 13 5 12 6 11 7 14 8 10 9 15 10 5 11 4 12
REMARK SMILES IDX 2 13 1 14 3 15
REMARK H PARENT
REMARK Flexibility Score: inf
ROOT
ATOM      1  C   UNL     1     117.675  90.259 124.021  1.00  0.00     0.012 C 
ENDROOT
BRANCH   1   2
ATOM      2  C   UNL     1     119.013  89.902 123.337  1.00  0.00     0.016 C 
ATOM      3  C   UNL     1     119.939  89.075 124.244  1.00  0.00     0.013 C 
BRANCH   2   4
ATOM      4  C   UNL     1     118.792  89.289 121.959  1.00  0.00    -0.045 A 
ATOM      5  C   UNL     1     117.943  87.467 118.133  1.00  0.00     0.044 C 
ATOM      6  C   UNL     1     118.253  88.121 119.446  1.00  0.00    -0.051 A 
ATOM      7  C   UNL     1     119.401  87.758 120.162  1.00  0.00     0.004 A 
ATOM      8  C   UNL     1     117.359  89.045 120.003  1.00  0.00     0.004 A 
ATOM      9  C   UNL     1     119.671  88.337 121.405  1.00  0.00     0.004 A 
ATOM     10  C   UNL     1     117.627  89.625 121.246  1.00  0.00     0.004 A 
ENDBRANCH   2   4
ENDBRANCH   1   2
BRANCH   1  11
ATOM     11  C   UNL     1     117.796  91.314 125.135  1.00  0.00     0.028 C 
BRANCH  11  12
ATOM     12  C   UNL     1     117.520  90.699 126.484  1.00  0.00    -0.028 C 
ATOM     13  C   UNL     1     118.176  91.035 127.617  1.00  0.00    -0.080 C 
ATOM     14  C   UNL     1     117.822  90.315 128.893  1.00  0.00     0.039 C 
ATOM     15  C   UNL     1     119.232  92.117 127.642  1.00  0.00     0.039 C 
ENDBRANCH  11  12
ENDBRANCH   1  11
TORSDOF 4
ENDMDL
MODEL 8
REMARK VINA RESULT:    -5.522      2.687      8.421
REMARK INTER + INTRA:          -7.493
REMARK INTER:                  -6.799
REMARK INTRA:                  -0.693
REMARK UNBOUND:                -0.679
REMARK SMILES CC(C)=CCC[C@@H](C)c1ccc(C)cc1
REMARK SMILES IDX 6 1 7 2 8 3 9 4 13 5 12 6 11 7 14 8 10 9 15 10 5 11 4 12
REMARK SMILES IDX 2 13 1 14 3 15
REMARK H PARENT
REMARK Flexibility Score: inf
ROOT
ATOM      1  C   UNL     1     116.611  89.505 120.516  1.00  0.00     0.012 C 
ENDROOT
BRANCH   1   2
ATOM      2  C   UNL     1     118.118  89.735 120.769  1.00  0.00     0.016 C 
ATOM      3  C   UNL     1     118.757  90.664 119.722  1.00  0.00     0.013 C 
BRANCH   2   4
ATOM      4  C   UNL     1     118.388  90.151 122.210  1.00  0.00    -0.045 A 
ATOM      5  C   UNL     1     118.970  91.504 126.274  1.00  0.00     0.044 C 
ATOM      6  C   UNL     1     118.776  91.006 124.872  1.00  0.00    -0.051 A 
ATOM      7  C   UNL     1     119.835  91.045 123.955  1.00  0.00     0.004 A 
ATOM      8  C   UNL     1     117.515  90.568 124.446  1.00  0.00     0.004 A 
ATOM      9  C   UNL     1     119.646  90.621 122.637  1.00  0.00     0.004 A 
ATOM     10  C   UNL     1     117.323  90.144 123.129  1.00  0.00     0.004 A 
ENDBRANCH   2   4
ENDBRANCH   1   2
BRANCH   1  11
ATOM     11  C   UNL     1     116.300  88.667 119.263  1.00  0.00     0.028 C 
BRANCH  11  12
ATOM     12  C   UNL     1     115.478  89.461 118.281  1.00  0.00    -0.028 C 
ATOM     13  C   UNL     1     115.874  89.750 117.021  1.00  0.00    -0.080 C 
ATOM     14  C   UNL     1     114.965  90.584 116.155  1.00  0.00     0.039 C 
ATOM     15  C   UNL     1     117.184  89.248 116.457  1.00  0.00     0.039 C 
ENDBRANCH  11  12
ENDBRANCH   1  11
TORSDOF 4
ENDMDL
