MODEL 1
REMARK VINA RESULT:    -4.528      0.000      0.000
REMARK INTER + INTRA:          -4.528
REMARK INTER:                  -4.528
REMARK INTRA:                   0.000
REMARK UNBOUND:                 0.000
REMARK SMILES O=c1ccc2ccc3occc3c2o1
REMARK SMILES IDX 6 1 7 2 8 3 12 4 11 5 10 6 9 7 13 8 5 9 4 10 3 11 2 12 1 13
REMARK SMILES IDX 14 14
REMARK H PARENT
REMARK Flexibility Score: inf
ROOT
ATOM      1  C   UNL     1      73.090  38.884  21.507  1.00  0.00     0.016 A 
ATOM      2  C   UNL     1      72.466  37.796  20.867  1.00  0.00     0.048 A 
ATOM      3  C   UNL     1      73.009  37.341  19.666  1.00  0.00     0.137 A 
ATOM      4  C   UNL     1      74.117  37.920  19.108  1.00  0.00     0.064 A 
ATOM      5  C   UNL     1      74.383  37.237  17.944  1.00  0.00     0.054 A 
ATOM      6  C   UNL     1      73.391  36.265  17.875  1.00  0.00     0.196 A 
ATOM      7  O   UNL     1      72.585  36.352  18.919  1.00  0.00    -0.464 OA
ATOM      8  C   UNL     1      74.763  38.998  19.710  1.00  0.00     0.149 A 
ATOM      9  C   UNL     1      74.236  39.486  20.934  1.00  0.00     0.018 A 
ATOM     10  C   UNL     1      74.880  40.568  21.542  1.00  0.00     0.019 A 
ATOM     11  C   UNL     1      76.006  41.125  20.934  1.00  0.00     0.094 A 
ATOM     12  C   UNL     1      76.466  40.587  19.726  1.00  0.00     0.336 A 
ATOM     13  O   UNL     1      77.481  41.079  19.165  1.00  0.00    -0.246 OA
ATOM     14  O   UNL     1      75.839  39.557  19.163  1.00  0.00    -0.422 OA
ENDROOT
TORSDOF 0
ENDMDL
MODEL 2
REMARK VINA RESULT:    -4.449      1.678      4.817
REMARK INTER + INTRA:          -4.449
REMARK INTER:                  -4.449
REMARK INTRA:                   0.000
REMARK UNBOUND:                 0.000
REMARK SMILES O=c1ccc2ccc3occc3c2o1
REMARK SMILES IDX 6 1 7 2 8 3 12 4 11 5 10 6 9 7 13 8 5 9 4 10 3 11 2 12 1 13
REMARK SMILES IDX 14 14
REMARK H PARENT
REMARK Flexibility Score: inf
ROOT
ATOM      1  C   UNL     1      75.793  39.274  18.995  1.00  0.00     0.016 A 
ATOM      2  C   UNL     1      75.797  40.206  20.051  1.00  0.00     0.048 A 
ATOM      3  C   UNL     1      74.793  40.110  21.015  1.00  0.00     0.137 A 
ATOM      4  C   UNL     1      73.823  39.147  20.954  1.00  0.00     0.064 A 
ATOM      5  C   UNL     1      73.003  39.335  22.044  1.00  0.00     0.054 A 
ATOM      6  C   UNL     1      73.549  40.428  22.707  1.00  0.00     0.196 A 
ATOM      7  O   UNL     1      74.619  40.869  22.067  1.00  0.00    -0.464 OA
ATOM      8  C   UNL     1      73.784  38.208  19.925  1.00  0.00     0.149 A 
ATOM      9  C   UNL     1      74.791  38.276  18.928  1.00  0.00     0.018 A 
ATOM     10  C   UNL     1      74.757  37.337  17.894  1.00  0.00     0.019 A 
ATOM     11  C   UNL     1      73.747  36.374  17.875  1.00  0.00     0.094 A 
ATOM     12  C   UNL     1      72.787  36.371  18.895  1.00  0.00     0.336 A 
ATOM     13  O   UNL     1      71.870  35.509  18.893  1.00  0.00    -0.246 OA
ATOM     14  O   UNL     1      72.837  37.274  19.871  1.00  0.00    -0.422 OA
ENDROOT
TORSDOF 0
ENDMDL
MODEL 3
REMARK VINA RESULT:    -4.432      3.078      4.496
REMARK INTER + INTRA:          -4.432
REMARK INTER:                  -4.432
REMARK INTRA:                   0.000
REMARK UNBOUND:                 0.000
REMARK SMILES O=c1ccc2ccc3occc3c2o1
REMARK SMILES IDX 6 1 7 2 8 3 12 4 11 5 10 6 9 7 13 8 5 9 4 10 3 11 2 12 1 13
REMARK SMILES IDX 14 14
REMARK H PARENT
REMARK Flexibility Score: inf
ROOT
ATOM      1  C   UNL     1      73.086  39.480  22.246  1.00  0.00     0.016 A 
ATOM      2  C   UNL     1      74.005  38.940  21.325  1.00  0.00     0.048 A 
ATOM      3  C   UNL     1      73.613  38.836  19.991  1.00  0.00     0.137 A 
ATOM      4  C   UNL     1      72.375  39.240  19.568  1.00  0.00     0.064 A 
ATOM      5  C   UNL     1      72.318  39.001  18.214  1.00  0.00     0.054 A 
ATOM      6  C   UNL     1      73.558  38.454  17.903  1.00  0.00     0.196 A 
ATOM      7  O   UNL     1      74.310  38.368  18.986  1.00  0.00    -0.464 OA
ATOM      8  C   UNL     1      71.438  39.778  20.447  1.00  0.00     0.149 A 
ATOM      9  C   UNL     1      71.805  39.899  21.812  1.00  0.00     0.018 A 
ATOM     10  C   UNL     1      70.868  40.438  22.699  1.00  0.00     0.019 A 
ATOM     11  C   UNL     1      69.620  40.835  22.220  1.00  0.00     0.094 A 
ATOM     12  C   UNL     1      69.332  40.685  20.858  1.00  0.00     0.336 A 
ATOM     13  O   UNL     1      68.210  41.038  20.409  1.00  0.00    -0.246 OA
ATOM     14  O   UNL     1      70.237  40.169  20.030  1.00  0.00    -0.422 OA
ENDROOT
TORSDOF 0
ENDMDL
MODEL 4
REMARK VINA RESULT:    -4.418      1.144      4.268
REMARK INTER + INTRA:          -4.418
REMARK INTER:                  -4.418
REMARK INTRA:                   0.000
REMARK UNBOUND:                 0.000
REMARK SMILES O=c1ccc2ccc3occc3c2o1
REMARK SMILES IDX 6 1 7 2 8 3 12 4 11 5 10 6 9 7 13 8 5 9 4 10 3 11 2 12 1 13
REMARK SMILES IDX 14 14
REMARK H PARENT
REMARK Flexibility Score: inf
ROOT
ATOM      1  C   UNL     1      74.541  39.632  21.647  1.00  0.00     0.016 A 
ATOM      2  C   UNL     1      75.596  40.492  21.288  1.00  0.00     0.048 A 
ATOM      3  C   UNL     1      76.103  40.404  19.992  1.00  0.00     0.137 A 
ATOM      4  C   UNL     1      75.605  39.513  19.080  1.00  0.00     0.064 A 
ATOM      5  C   UNL     1      76.320  39.687  17.917  1.00  0.00     0.054 A 
ATOM      6  C   UNL     1      77.228  40.699  18.214  1.00  0.00     0.196 A 
ATOM      7  O   UNL     1      77.073  41.107  19.462  1.00  0.00    -0.464 OA
ATOM      8  C   UNL     1      74.562  38.645  19.397  1.00  0.00     0.149 A 
ATOM      9  C   UNL     1      74.022  38.708  20.707  1.00  0.00     0.018 A 
ATOM     10  C   UNL     1      72.976  37.839  21.030  1.00  0.00     0.019 A 
ATOM     11  C   UNL     1      72.503  36.949  20.066  1.00  0.00     0.094 A 
ATOM     12  C   UNL     1      73.087  36.946  18.793  1.00  0.00     0.336 A 
ATOM     13  O   UNL     1      72.671  36.148  17.913  1.00  0.00    -0.246 OA
ATOM     14  O   UNL     1      74.082  37.781  18.506  1.00  0.00    -0.422 OA
ENDROOT
TORSDOF 0
ENDMDL
MODEL 5
REMARK VINA RESULT:    -4.380      2.804      4.004
REMARK INTER + INTRA:          -4.380
REMARK INTER:                  -4.380
REMARK INTRA:                   0.000
REMARK UNBOUND:                 0.000
REMARK SMILES O=c1ccc2ccc3occc3c2o1
REMARK SMILES IDX 6 1 7 2 8 3 12 4 11 5 10 6 9 7 13 8 5 9 4 10 3 11 2 12 1 13
REMARK SMILES IDX 14 14
REMARK H PARENT
REMARK Flexibility Score: inf
ROOT
ATOM      1  C   UNL     1      72.945  39.061  19.532  1.00  0.00     0.016 A 
ATOM      2  C   UNL     1      71.558  39.260  19.662  1.00  0.00     0.048 A 
ATOM      3  C   UNL     1      71.084  39.833  20.843  1.00  0.00     0.137 A 
ATOM      4  C   UNL     1      71.927  40.195  21.858  1.00  0.00     0.064 A 
ATOM      5  C   UNL     1      71.143  40.720  22.860  1.00  0.00     0.054 A 
ATOM      6  C   UNL     1      69.845  40.636  22.369  1.00  0.00     0.196 A 
ATOM      7  O   UNL     1      69.842  40.102  21.160  1.00  0.00    -0.464 OA
ATOM      8  C   UNL     1      73.305  40.013  21.769  1.00  0.00     0.149 A 
ATOM      9  C   UNL     1      73.821  39.435  20.581  1.00  0.00     0.018 A 
ATOM     10  C   UNL     1      75.203  39.250  20.485  1.00  0.00     0.019 A 
ATOM     11  C   UNL     1      76.021  39.635  21.548  1.00  0.00     0.094 A 
ATOM     12  C   UNL     1      75.437  40.201  22.689  1.00  0.00     0.336 A 
ATOM     13  O   UNL     1      76.162  40.554  23.656  1.00  0.00    -0.246 OA
ATOM     14  O   UNL     1      74.119  40.368  22.760  1.00  0.00    -0.422 OA
ENDROOT
TORSDOF 0
ENDMDL
MODEL 6
REMARK VINA RESULT:    -4.242      1.661      2.655
REMARK INTER + INTRA:          -4.242
REMARK INTER:                  -4.242
REMARK INTRA:                   0.000
REMARK UNBOUND:                 0.000
REMARK SMILES O=c1ccc2ccc3occc3c2o1
REMARK SMILES IDX 6 1 7 2 8 3 12 4 11 5 10 6 9 7 13 8 5 9 4 10 3 11 2 12 1 13
REMARK SMILES IDX 14 14
REMARK H PARENT
REMARK Flexibility Score: inf
ROOT
ATOM      1  C   UNL     1      75.836  38.978  18.360  1.00  0.00     0.016 A 
ATOM      2  C   UNL     1      75.044  37.919  17.876  1.00  0.00     0.048 A 
ATOM      3  C   UNL     1      74.003  37.457  18.681  1.00  0.00     0.137 A 
ATOM      4  C   UNL     1      73.742  38.004  19.909  1.00  0.00     0.064 A 
ATOM      5  C   UNL     1      72.664  37.324  20.429  1.00  0.00     0.054 A 
ATOM      6  C   UNL     1      72.339  36.387  19.454  1.00  0.00     0.196 A 
ATOM      7  O   UNL     1      73.158  36.492  18.421  1.00  0.00    -0.464 OA
ATOM      8  C   UNL     1      74.502  39.052  20.422  1.00  0.00     0.149 A 
ATOM      9  C   UNL     1      75.569  39.547  19.629  1.00  0.00     0.018 A 
ATOM     10  C   UNL     1      76.335  40.599  20.139  1.00  0.00     0.019 A 
ATOM     11  C   UNL     1      76.030  41.122  21.396  1.00  0.00     0.094 A 
ATOM     12  C   UNL     1      74.960  40.581  22.120  1.00  0.00     0.336 A 
ATOM     13  O   UNL     1      74.672  41.042  23.255  1.00  0.00    -0.246 OA
ATOM     14  O   UNL     1      74.243  39.579  21.616  1.00  0.00    -0.422 OA
ENDROOT
TORSDOF 0
ENDMDL
MODEL 7
REMARK VINA RESULT:    -4.147      3.413      4.203
REMARK INTER + INTRA:          -4.147
REMARK INTER:                  -4.147
REMARK INTRA:                   0.000
REMARK UNBOUND:                 0.000
REMARK SMILES O=c1ccc2ccc3occc3c2o1
REMARK SMILES IDX 6 1 7 2 8 3 12 4 11 5 10 6 9 7 13 8 5 9 4 10 3 11 2 12 1 13
REMARK SMILES IDX 14 14
REMARK H PARENT
REMARK Flexibility Score: inf
ROOT
ATOM      1  C   UNL     1      70.821  40.239  22.733  1.00  0.00     0.016 A 
ATOM      2  C   UNL     1      69.576  40.632  22.205  1.00  0.00     0.048 A 
ATOM      3  C   UNL     1      69.464  40.768  20.822  1.00  0.00     0.137 A 
ATOM      4  C   UNL     1      70.520  40.534  19.984  1.00  0.00     0.064 A 
ATOM      5  C   UNL     1      70.072  40.758  18.702  1.00  0.00     0.054 A 
ATOM      6  C   UNL     1      68.739  41.123  18.857  1.00  0.00     0.196 A 
ATOM      7  O   UNL     1      68.405  41.120  20.136  1.00  0.00    -0.464 OA
ATOM      8  C   UNL     1      71.768  40.144  20.467  1.00  0.00     0.149 A 
ATOM      9  C   UNL     1      71.917  39.995  21.870  1.00  0.00     0.018 A 
ATOM     10  C   UNL     1      73.166  39.604  22.361  1.00  0.00     0.019 A 
ATOM     11  C   UNL     1      74.213  39.377  21.466  1.00  0.00     0.094 A 
ATOM     12  C   UNL     1      73.988  39.545  20.094  1.00  0.00     0.336 A 
ATOM     13  O   UNL     1      74.922  39.344  19.275  1.00  0.00    -0.246 OA
ATOM     14  O   UNL     1      72.791  39.918  19.648  1.00  0.00    -0.422 OA
ENDROOT
TORSDOF 0
ENDMDL
MODEL 8
REMARK VINA RESULT:    -4.113      1.768      3.380
REMARK INTER + INTRA:          -4.113
REMARK INTER:                  -4.113
REMARK INTRA:                   0.000
REMARK UNBOUND:                 0.000
REMARK SMILES O=c1ccc2ccc3occc3c2o1
REMARK SMILES IDX 6 1 7 2 8 3 12 4 11 5 10 6 9 7 13 8 5 9 4 10 3 11 2 12 1 13
REMARK SMILES IDX 14 14
REMARK H PARENT
REMARK Flexibility Score: inf
ROOT
ATOM      1  C   UNL     1      73.036  37.602  19.661  1.00  0.00     0.016 A 
ATOM      2  C   UNL     1      72.206  38.025  20.717  1.00  0.00     0.048 A 
ATOM      3  C   UNL     1      72.511  39.230  21.349  1.00  0.00     0.137 A 
ATOM      4  C   UNL     1      73.582  39.994  20.971  1.00  0.00     0.064 A 
ATOM      5  C   UNL     1      73.594  41.100  21.789  1.00  0.00     0.054 A 
ATOM      6  C   UNL     1      72.500  40.925  22.630  1.00  0.00     0.196 A 
ATOM      7  O   UNL     1      71.872  39.798  22.342  1.00  0.00    -0.464 OA
ATOM      8  C   UNL     1      74.427  39.609  19.932  1.00  0.00     0.149 A 
ATOM      9  C   UNL     1      74.145  38.389  19.267  1.00  0.00     0.018 A 
ATOM     10  C   UNL     1      74.990  37.998  18.224  1.00  0.00     0.019 A 
ATOM     11  C   UNL     1      76.069  38.810  17.875  1.00  0.00     0.094 A 
ATOM     12  C   UNL     1      76.283  40.002  18.579  1.00  0.00     0.336 A 
ATOM     13  O   UNL     1      77.252  40.746  18.276  1.00  0.00    -0.246 OA
ATOM     14  O   UNL     1      75.467  40.356  19.569  1.00  0.00    -0.422 OA
ENDROOT
TORSDOF 0
ENDMDL
MODEL 9
REMARK VINA RESULT:    -4.020      2.230      4.501
REMARK INTER + INTRA:          -4.020
REMARK INTER:                  -4.020
REMARK INTRA:                   0.000
REMARK UNBOUND:                 0.000
REMARK SMILES O=c1ccc2ccc3occc3c2o1
REMARK SMILES IDX 6 1 7 2 8 3 12 4 11 5 10 6 9 7 13 8 5 9 4 10 3 11 2 12 1 13
REMARK SMILES IDX 14 14
REMARK H PARENT
REMARK Flexibility Score: inf
ROOT
ATOM      1  C   UNL     1      74.744  40.375  21.385  1.00  0.00     0.016 A 
ATOM      2  C   UNL     1      73.893  40.990  22.323  1.00  0.00     0.048 A 
ATOM      3  C   UNL     1      72.540  40.654  22.301  1.00  0.00     0.137 A 
ATOM      4  C   UNL     1      72.032  39.757  21.401  1.00  0.00     0.064 A 
ATOM      5  C   UNL     1      70.683  39.658  21.651  1.00  0.00     0.054 A 
ATOM      6  C   UNL     1      70.460  40.527  22.714  1.00  0.00     0.196 A 
ATOM      7  O   UNL     1      71.590  41.107  23.080  1.00  0.00    -0.464 OA
ATOM      8  C   UNL     1      72.841  39.127  20.457  1.00  0.00     0.149 A 
ATOM      9  C   UNL     1      74.224  39.445  20.452  1.00  0.00     0.018 A 
ATOM     10  C   UNL     1      75.040  38.817  19.507  1.00  0.00     0.019 A 
ATOM     11  C   UNL     1      74.476  37.909  18.610  1.00  0.00     0.094 A 
ATOM     12  C   UNL     1      73.102  37.647  18.677  1.00  0.00     0.336 A 
ATOM     13  O   UNL     1      72.578  36.830  17.875  1.00  0.00    -0.246 OA
ATOM     14  O   UNL     1      72.342  38.256  19.584  1.00  0.00    -0.422 OA
ENDROOT
TORSDOF 0
ENDMDL
