MODEL 1
REMARK VINA RESULT:    -4.474      0.000      0.000
REMARK INTER + INTRA:          -5.115
REMARK INTER:                  -4.997
REMARK INTRA:                  -0.118
REMARK UNBOUND:                -0.118
REMARK SMILES COc1cc2ccc(=O)oc2cc1OC
REMARK SMILES IDX 3 1 13 2 12 3 11 4 5 5 4 6 6 7 7 8 8 9 9 10 10 11 2 12 1 13
REMARK SMILES IDX 14 14 15 15
REMARK H PARENT
REMARK Flexibility Score: inf
ROOT
ATOM      1  C   UNL     1     -18.376  -8.030   4.796  1.00  0.00     0.161 A 
ATOM      2  C   UNL     1     -19.165  -9.078   5.301  1.00  0.00     0.164 A 
ATOM      3  C   UNL     1     -19.776  -9.984   4.412  1.00  0.00     0.098 A 
ATOM      4  C   UNL     1     -19.603  -9.846   3.032  1.00  0.00     0.142 A 
ATOM      5  C   UNL     1     -18.813  -8.795   2.526  1.00  0.00     0.022 A 
ATOM      6  C   UNL     1     -18.203  -7.892   3.405  1.00  0.00     0.062 A 
ATOM      7  C   UNL     1     -18.660  -8.684   1.140  1.00  0.00     0.019 A 
ATOM      8  C   UNL     1     -19.287  -9.609   0.305  1.00  0.00     0.094 A 
ATOM      9  C   UNL     1     -20.057 -10.626   0.879  1.00  0.00     0.336 A 
ATOM     10  O   UNL     1     -20.631 -11.470   0.144  1.00  0.00    -0.246 OA
ATOM     11  O   UNL     1     -20.186 -10.708   2.201  1.00  0.00    -0.423 OA
ENDROOT
BRANCH   1  12
ATOM     12  O   UNL     1     -17.782  -7.146   5.711  1.00  0.00    -0.493 OA
ATOM     13  C   UNL     1     -16.438  -6.683   5.631  1.00  0.00     0.278 C 
ENDBRANCH   1  12
BRANCH   2  14
ATOM     14  O   UNL     1     -19.316  -9.186   6.692  1.00  0.00    -0.493 OA
ATOM     15  C   UNL     1     -20.435  -8.693   7.424  1.00  0.00     0.278 C 
ENDBRANCH   2  14
TORSDOF 2
ENDMDL
MODEL 2
REMARK VINA RESULT:    -4.461     15.109     16.987
REMARK INTER + INTRA:          -5.101
REMARK INTER:                  -4.990
REMARK INTRA:                  -0.111
REMARK UNBOUND:                -0.118
REMARK SMILES COc1cc2ccc(=O)oc2cc1OC
REMARK SMILES IDX 3 1 13 2 12 3 11 4 5 5 4 6 6 7 7 8 8 9 9 10 10 11 2 12 1 13
REMARK SMILES IDX 14 14 15 15
REMARK H PARENT
REMARK Flexibility Score: inf
ROOT
ATOM      1  C   UNL     1     -14.238 -21.584  12.315  1.00  0.00     0.161 A 
ATOM      2  C   UNL     1     -14.996 -20.462  12.692  1.00  0.00     0.164 A 
ATOM      3  C   UNL     1     -14.525 -19.611  13.712  1.00  0.00     0.098 A 
ATOM      4  C   UNL     1     -13.312 -19.877  14.351  1.00  0.00     0.142 A 
ATOM      5  C   UNL     1     -12.552 -21.003  13.974  1.00  0.00     0.022 A 
ATOM      6  C   UNL     1     -13.015 -21.851  12.961  1.00  0.00     0.062 A 
ATOM      7  C   UNL     1     -11.342 -21.241  14.633  1.00  0.00     0.019 A 
ATOM      8  C   UNL     1     -10.924 -20.367  15.635  1.00  0.00     0.094 A 
ATOM      9  C   UNL     1     -11.730 -19.270  15.957  1.00  0.00     0.336 A 
ATOM     10  O   UNL     1     -11.371 -18.469  16.859  1.00  0.00    -0.246 OA
ATOM     11  O   UNL     1     -12.877 -19.066  15.314  1.00  0.00    -0.423 OA
ENDROOT
BRANCH   1  12
ATOM     12  O   UNL     1     -14.737 -22.410  11.295  1.00  0.00    -0.493 OA
ATOM     13  C   UNL     1     -13.988 -22.835  10.161  1.00  0.00     0.278 C 
ENDBRANCH   1  12
BRANCH   2  14
ATOM     14  O   UNL     1     -16.210 -20.225  12.029  1.00  0.00    -0.493 OA
ATOM     15  C   UNL     1     -17.144 -19.212  12.390  1.00  0.00     0.278 C 
ENDBRANCH   2  14
TORSDOF 2
ENDMDL
MODEL 3
REMARK VINA RESULT:    -4.386     15.271     16.254
REMARK INTER + INTRA:          -5.017
REMARK INTER:                  -4.856
REMARK INTRA:                  -0.161
REMARK UNBOUND:                -0.118
REMARK SMILES COc1cc2ccc(=O)oc2cc1OC
REMARK SMILES IDX 3 1 13 2 12 3 11 4 5 5 4 6 6 7 7 8 8 9 9 10 10 11 2 12 1 13
REMARK SMILES IDX 14 14 15 15
REMARK H PARENT
REMARK Flexibility Score: inf
ROOT
ATOM      1  C   UNL     1     -12.441 -19.020  14.570  1.00  0.00     0.161 A 
ATOM      2  C   UNL     1     -12.055 -20.103  13.760  1.00  0.00     0.164 A 
ATOM      3  C   UNL     1     -13.038 -20.876  13.112  1.00  0.00     0.098 A 
ATOM      4  C   UNL     1     -14.393 -20.575  13.270  1.00  0.00     0.142 A 
ATOM      5  C   UNL     1     -14.780 -19.491  14.083  1.00  0.00     0.022 A 
ATOM      6  C   UNL     1     -13.808 -18.718  14.729  1.00  0.00     0.062 A 
ATOM      7  C   UNL     1     -16.145 -19.215  14.220  1.00  0.00     0.019 A 
ATOM      8  C   UNL     1     -17.075 -20.013  13.556  1.00  0.00     0.094 A 
ATOM      9  C   UNL     1     -16.618 -21.073  12.767  1.00  0.00     0.336 A 
ATOM     10  O   UNL     1     -17.441 -21.806  12.159  1.00  0.00    -0.246 OA
ATOM     11  O   UNL     1     -15.314 -21.314  12.653  1.00  0.00    -0.423 OA
ENDROOT
BRANCH   1  12
ATOM     12  O   UNL     1     -11.435 -18.271  15.201  1.00  0.00    -0.493 OA
ATOM     13  C   UNL     1     -11.070 -18.400  16.571  1.00  0.00     0.278 C 
ENDBRANCH   1  12
BRANCH   2  14
ATOM     14  O   UNL     1     -10.685 -20.377  13.625  1.00  0.00    -0.493 OA
ATOM     15  C   UNL     1      -9.978 -21.356  14.380  1.00  0.00     0.278 C 
ENDBRANCH   2  14
TORSDOF 2
ENDMDL
MODEL 4
REMARK VINA RESULT:    -4.363     11.021     12.975
REMARK INTER + INTRA:          -4.992
REMARK INTER:                  -4.888
REMARK INTRA:                  -0.103
REMARK UNBOUND:                -0.118
REMARK SMILES COc1cc2ccc(=O)oc2cc1OC
REMARK SMILES IDX 3 1 13 2 12 3 11 4 5 5 4 6 6 7 7 8 8 9 9 10 10 11 2 12 1 13
REMARK SMILES IDX 14 14 15 15
REMARK H PARENT
REMARK Flexibility Score: inf
ROOT
ATOM      1  C   UNL     1     -15.337 -15.402  12.227  1.00  0.00     0.161 A 
ATOM      2  C   UNL     1     -15.908 -16.004  11.091  1.00  0.00     0.164 A 
ATOM      3  C   UNL     1     -16.416 -17.315  11.176  1.00  0.00     0.098 A 
ATOM      4  C   UNL     1     -16.356 -18.021  12.380  1.00  0.00     0.142 A 
ATOM      5  C   UNL     1     -15.783 -17.418  13.518  1.00  0.00     0.022 A 
ATOM      6  C   UNL     1     -15.278 -16.115  13.440  1.00  0.00     0.062 A 
ATOM      7  C   UNL     1     -15.739 -18.151  14.709  1.00  0.00     0.019 A 
ATOM      8  C   UNL     1     -16.256 -19.445  14.736  1.00  0.00     0.094 A 
ATOM      9  C   UNL     1     -16.809 -19.979  13.567  1.00  0.00     0.336 A 
ATOM     10  O   UNL     1     -17.281 -21.145  13.570  1.00  0.00    -0.246 OA
ATOM     11  O   UNL     1     -16.839 -19.260  12.448  1.00  0.00    -0.423 OA
ENDROOT
BRANCH   1  12
ATOM     12  O   UNL     1     -14.841 -14.094  12.107  1.00  0.00    -0.493 OA
ATOM     13  C   UNL     1     -13.789 -13.553  12.898  1.00  0.00     0.278 C 
ENDBRANCH   1  12
BRANCH   2  14
ATOM     14  O   UNL     1     -15.951 -15.265   9.898  1.00  0.00    -0.493 OA
ATOM     15  C   UNL     1     -16.667 -15.657   8.731  1.00  0.00     0.278 C 
ENDBRANCH   2  14
TORSDOF 2
ENDMDL
MODEL 5
REMARK VINA RESULT:    -4.349      4.213      7.917
REMARK INTER + INTRA:          -4.975
REMARK INTER:                  -4.816
REMARK INTRA:                  -0.159
REMARK UNBOUND:                -0.118
REMARK SMILES COc1cc2ccc(=O)oc2cc1OC
REMARK SMILES IDX 3 1 13 2 12 3 11 4 5 5 4 6 6 7 7 8 8 9 9 10 10 11 2 12 1 13
REMARK SMILES IDX 14 14 15 15
REMARK H PARENT
REMARK Flexibility Score: inf
ROOT
ATOM      1  C   UNL     1     -19.288 -13.998  -2.137  1.00  0.00     0.161 A 
ATOM      2  C   UNL     1     -18.005 -13.461  -2.343  1.00  0.00     0.164 A 
ATOM      3  C   UNL     1     -17.666 -12.219  -1.769  1.00  0.00     0.098 A 
ATOM      4  C   UNL     1     -18.596 -11.519  -0.997  1.00  0.00     0.142 A 
ATOM      5  C   UNL     1     -19.883 -12.057  -0.791  1.00  0.00     0.022 A 
ATOM      6  C   UNL     1     -20.225 -13.290  -1.359  1.00  0.00     0.062 A 
ATOM      7  C   UNL     1     -20.791 -11.332  -0.013  1.00  0.00     0.019 A 
ATOM      8  C   UNL     1     -20.403 -10.108   0.531  1.00  0.00     0.094 A 
ATOM      9  C   UNL     1     -19.110  -9.637   0.284  1.00  0.00     0.336 A 
ATOM     10  O   UNL     1     -18.739  -8.535   0.766  1.00  0.00    -0.246 OA
ATOM     11  O   UNL     1     -18.265 -10.347  -0.459  1.00  0.00    -0.423 OA
ENDROOT
BRANCH   1  12
ATOM     12  O   UNL     1     -19.591 -15.236  -2.724  1.00  0.00    -0.493 OA
ATOM     13  C   UNL     1     -19.508 -16.490  -2.054  1.00  0.00     0.278 C 
ENDBRANCH   1  12
BRANCH   2  14
ATOM     14  O   UNL     1     -17.096 -14.191  -3.124  1.00  0.00    -0.493 OA
ATOM     15  C   UNL     1     -16.021 -14.965  -2.601  1.00  0.00     0.278 C 
ENDBRANCH   2  14
TORSDOF 2
ENDMDL
MODEL 6
REMARK VINA RESULT:    -4.319      1.682      5.056
REMARK INTER + INTRA:          -4.942
REMARK INTER:                  -4.819
REMARK INTRA:                  -0.122
REMARK UNBOUND:                -0.118
REMARK SMILES COc1cc2ccc(=O)oc2cc1OC
REMARK SMILES IDX 3 1 13 2 12 3 11 4 5 5 4 6 6 7 7 8 8 9 9 10 10 11 2 12 1 13
REMARK SMILES IDX 14 14 15 15
REMARK H PARENT
REMARK Flexibility Score: inf
ROOT
ATOM      1  C   UNL     1     -19.113  -8.971   3.805  1.00  0.00     0.161 A 
ATOM      2  C   UNL     1     -19.438  -8.898   5.170  1.00  0.00     0.164 A 
ATOM      3  C   UNL     1     -18.679  -8.075   6.026  1.00  0.00     0.098 A 
ATOM      4  C   UNL     1     -17.607  -7.332   5.527  1.00  0.00     0.142 A 
ATOM      5  C   UNL     1     -17.280  -7.406   4.158  1.00  0.00     0.022 A 
ATOM      6  C   UNL     1     -18.031  -8.221   3.302  1.00  0.00     0.062 A 
ATOM      7  C   UNL     1     -16.201  -6.649   3.689  1.00  0.00     0.019 A 
ATOM      8  C   UNL     1     -15.485  -5.852   4.580  1.00  0.00     0.094 A 
ATOM      9  C   UNL     1     -15.866  -5.829   5.925  1.00  0.00     0.336 A 
ATOM     10  O   UNL     1     -15.233  -5.116   6.746  1.00  0.00    -0.246 OA
ATOM     11  O   UNL     1     -16.897  -6.558   6.345  1.00  0.00    -0.423 OA
ENDROOT
BRANCH   1  12
ATOM     12  O   UNL     1     -19.890  -9.800   2.980  1.00  0.00    -0.493 OA
ATOM     13  C   UNL     1     -19.477 -11.075   2.498  1.00  0.00     0.278 C 
ENDBRANCH   1  12
BRANCH   2  14
ATOM     14  O   UNL     1     -20.521  -9.658   5.638  1.00  0.00    -0.493 OA
ATOM     15  C   UNL     1     -21.396  -9.257   6.688  1.00  0.00     0.278 C 
ENDBRANCH   2  14
TORSDOF 2
ENDMDL
MODEL 7
REMARK VINA RESULT:    -4.309      1.808      5.524
REMARK INTER + INTRA:          -4.931
REMARK INTER:                  -4.822
REMARK INTRA:                  -0.109
REMARK UNBOUND:                -0.118
REMARK SMILES COc1cc2ccc(=O)oc2cc1OC
REMARK SMILES IDX 3 1 13 2 12 3 11 4 5 5 4 6 6 7 7 8 8 9 9 10 10 11 2 12 1 13
REMARK SMILES IDX 14 14 15 15
REMARK H PARENT
REMARK Flexibility Score: inf
ROOT
ATOM      1  C   UNL     1     -19.019  -8.595   5.259  1.00  0.00     0.161 A 
ATOM      2  C   UNL     1     -18.740  -8.507   3.884  1.00  0.00     0.164 A 
ATOM      3  C   UNL     1     -17.667  -7.710   3.437  1.00  0.00     0.098 A 
ATOM      4  C   UNL     1     -16.880  -7.007   4.352  1.00  0.00     0.142 A 
ATOM      5  C   UNL     1     -17.159  -7.094   5.731  1.00  0.00     0.022 A 
ATOM      6  C   UNL     1     -18.224  -7.885   6.180  1.00  0.00     0.062 A 
ATOM      7  C   UNL     1     -16.352  -6.379   6.621  1.00  0.00     0.019 A 
ATOM      8  C   UNL     1     -15.303  -5.606   6.125  1.00  0.00     0.094 A 
ATOM      9  C   UNL     1     -15.085  -5.567   4.743  1.00  0.00     0.336 A 
ATOM     10  O   UNL     1     -14.144  -4.876   4.275  1.00  0.00    -0.246 OA
ATOM     11  O   UNL     1     -15.868  -6.257   3.919  1.00  0.00    -0.423 OA
ENDROOT
BRANCH   1  12
ATOM     12  O   UNL     1     -20.096  -9.397   5.669  1.00  0.00    -0.493 OA
ATOM     13  C   UNL     1     -21.079  -9.006   6.622  1.00  0.00     0.278 C 
ENDBRANCH   1  12
BRANCH   2  14
ATOM     14  O   UNL     1     -19.553  -9.226   2.994  1.00  0.00    -0.493 OA
ATOM     15  C   UNL     1     -19.560  -9.045   1.581  1.00  0.00     0.278 C 
ENDBRANCH   2  14
TORSDOF 2
ENDMDL
MODEL 8
REMARK VINA RESULT:    -4.255     12.709     14.384
REMARK INTER + INTRA:          -4.871
REMARK INTER:                  -4.763
REMARK INTRA:                  -0.109
REMARK UNBOUND:                -0.118
REMARK SMILES COc1cc2ccc(=O)oc2cc1OC
REMARK SMILES IDX 3 1 13 2 12 3 11 4 5 5 4 6 6 7 7 8 8 9 9 10 10 11 2 12 1 13
REMARK SMILES IDX 14 14 15 15
REMARK H PARENT
REMARK Flexibility Score: inf
ROOT
ATOM      1  C   UNL     1     -14.017 -19.403  13.956  1.00  0.00     0.161 A 
ATOM      2  C   UNL     1     -14.607 -20.304  13.052  1.00  0.00     0.164 A 
ATOM      3  C   UNL     1     -15.657 -19.872  12.219  1.00  0.00     0.098 A 
ATOM      4  C   UNL     1     -16.116 -18.554  12.285  1.00  0.00     0.142 A 
ATOM      5  C   UNL     1     -15.526 -17.650  13.191  1.00  0.00     0.022 A 
ATOM      6  C   UNL     1     -14.481 -18.074  14.021  1.00  0.00     0.062 A 
ATOM      7  C   UNL     1     -16.008 -16.338  13.233  1.00  0.00     0.019 A 
ATOM      8  C   UNL     1     -17.049 -15.963  12.385  1.00  0.00     0.094 A 
ATOM      9  C   UNL     1     -17.588 -16.915  11.512  1.00  0.00     0.336 A 
ATOM     10  O   UNL     1     -18.528 -16.598  10.739  1.00  0.00    -0.246 OA
ATOM     11  O   UNL     1     -17.110 -18.156  11.493  1.00  0.00    -0.423 OA
ENDROOT
BRANCH   1  12
ATOM     12  O   UNL     1     -12.972 -19.867  14.771  1.00  0.00    -0.493 OA
ATOM     13  C   UNL     1     -12.804 -19.525  16.142  1.00  0.00     0.278 C 
ENDBRANCH   1  12
BRANCH   2  14
ATOM     14  O   UNL     1     -14.121 -21.620  13.013  1.00  0.00    -0.493 OA
ATOM     15  C   UNL     1     -14.169 -22.466  11.868  1.00  0.00     0.278 C 
ENDBRANCH   2  14
TORSDOF 2
ENDMDL
MODEL 9
REMARK VINA RESULT:    -4.233     15.221     16.519
REMARK INTER + INTRA:          -4.846
REMARK INTER:                  -4.720
REMARK INTRA:                  -0.126
REMARK UNBOUND:                -0.118
REMARK SMILES COc1cc2ccc(=O)oc2cc1OC
REMARK SMILES IDX 3 1 13 2 12 3 11 4 5 5 4 6 6 7 7 8 8 9 9 10 10 11 2 12 1 13
REMARK SMILES IDX 14 14 15 15
REMARK H PARENT
REMARK Flexibility Score: inf
ROOT
ATOM      1  C   UNL     1     -11.703 -20.989  14.208  1.00  0.00     0.161 A 
ATOM      2  C   UNL     1     -12.104 -19.675  14.507  1.00  0.00     0.164 A 
ATOM      3  C   UNL     1     -13.358 -19.209  14.065  1.00  0.00     0.098 A 
ATOM      4  C   UNL     1     -14.205 -20.044  13.333  1.00  0.00     0.142 A 
ATOM      5  C   UNL     1     -13.803 -21.362  13.032  1.00  0.00     0.022 A 
ATOM      6  C   UNL     1     -12.558 -21.830  13.469  1.00  0.00     0.062 A 
ATOM      7  C   UNL     1     -14.674 -22.173  12.297  1.00  0.00     0.019 A 
ATOM      8  C   UNL     1     -15.904 -21.661  11.886  1.00  0.00     0.094 A 
ATOM      9  C   UNL     1     -16.236 -20.344  12.220  1.00  0.00     0.336 A 
ATOM     10  O   UNL     1     -17.340 -19.862  11.858  1.00  0.00    -0.246 OA
ATOM     11  O   UNL     1     -15.389 -19.594  12.920  1.00  0.00    -0.423 OA
ENDROOT
BRANCH   1  12
ATOM     12  O   UNL     1     -10.447 -21.420  14.664  1.00  0.00    -0.493 OA
ATOM     13  C   UNL     1      -9.302 -21.592  13.834  1.00  0.00     0.278 C 
ENDBRANCH   1  12
BRANCH   2  14
ATOM     14  O   UNL     1     -11.227 -18.864  15.244  1.00  0.00    -0.493 OA
ATOM     15  C   UNL     1     -11.281 -18.693  16.657  1.00  0.00     0.278 C 
ENDBRANCH   2  14
TORSDOF 2
ENDMDL
