MODEL 1
REMARK VINA RESULT:    -3.017      0.000      0.000
REMARK INTER + INTRA:          -4.471
REMARK INTER:                  -3.899
REMARK INTRA:                  -0.572
REMARK UNBOUND:                -0.572
REMARK SMILES C=CC(=O)CCCCC
REMARK SMILES IDX 6 1 7 2 8 3 9 4 5 5 3 6 4 7 2 8 1 9
REMARK H PARENT
REMARK Flexibility Score: inf
ROOT
ATOM      1  C   UNL     1     134.672  50.244  22.668  1.00  0.00     0.008 C 
ENDROOT
BRANCH   1   2
ATOM      2  C   UNL     1     134.693  50.177  21.131  1.00  0.00     0.000 C 
BRANCH   2   3
ATOM      3  C   UNL     1     135.753  51.099  20.511  1.00  0.00    -0.003 C 
ATOM      4  C   UNL     1     135.111  52.134  19.592  1.00  0.00     0.004 C 
ENDBRANCH   2   3
ENDBRANCH   1   2
BRANCH   1   5
ATOM      5  C   UNL     1     135.639  51.276  23.272  1.00  0.00     0.080 C 
BRANCH   5   6
ATOM      6  C   UNL     1     134.917  52.358  24.022  1.00  0.00     0.155 C 
ATOM      7  O   UNL     1     135.228  52.592  25.222  1.00  0.00    -0.295 OA
BRANCH   6   8
ATOM      8  C   UNL     1     133.875  53.156  23.348  1.00  0.00     0.039 C 
ATOM      9  C   UNL     1     134.165  54.176  22.544  1.00  0.00     0.012 C 
ENDBRANCH   6   8
ENDBRANCH   5   6
ENDBRANCH   1   5
TORSDOF 5
ENDMDL
MODEL 2
REMARK VINA RESULT:    -2.778      2.097      4.372
REMARK INTER + INTRA:          -4.162
REMARK INTER:                  -4.000
REMARK INTRA:                  -0.161
REMARK UNBOUND:                -0.572
REMARK SMILES C=CC(=O)CCCCC
REMARK SMILES IDX 6 1 7 2 8 3 9 4 5 5 3 6 4 7 2 8 1 9
REMARK H PARENT
REMARK Flexibility Score: inf
ROOT
ATOM      1  C   UNL     1     135.387  51.870  23.594  1.00  0.00     0.008 C 
ENDROOT
BRANCH   1   2
ATOM      2  C   UNL     1     135.072  52.814  24.768  1.00  0.00     0.000 C 
BRANCH   2   3
ATOM      3  C   UNL     1     134.959  52.076  26.109  1.00  0.00    -0.003 C 
ATOM      4  C   UNL     1     135.385  52.975  27.268  1.00  0.00     0.004 C 
ENDBRANCH   2   3
ENDBRANCH   1   2
BRANCH   1   5
ATOM      5  C   UNL     1     134.220  51.668  22.613  1.00  0.00     0.080 C 
BRANCH   5   6
ATOM      6  C   UNL     1     134.291  52.610  21.445  1.00  0.00     0.155 C 
ATOM      7  O   UNL     1     134.073  53.839  21.628  1.00  0.00    -0.295 OA
BRANCH   6   8
ATOM      8  C   UNL     1     134.641  52.102  20.105  1.00  0.00     0.039 C 
ATOM      9  C   UNL     1     135.753  51.407  19.872  1.00  0.00     0.012 C 
ENDBRANCH   6   8
ENDBRANCH   5   6
ENDBRANCH   1   5
TORSDOF 5
ENDMDL
MODEL 3
REMARK VINA RESULT:    -2.729      1.202      1.827
REMARK INTER + INTRA:          -4.099
REMARK INTER:                  -3.774
REMARK INTRA:                  -0.324
REMARK UNBOUND:                -0.572
REMARK SMILES C=CC(=O)CCCCC
REMARK SMILES IDX 6 1 7 2 8 3 9 4 5 5 3 6 4 7 2 8 1 9
REMARK H PARENT
REMARK Flexibility Score: inf
ROOT
ATOM      1  C   UNL     1     134.592  50.354  22.596  1.00  0.00     0.008 C 
ENDROOT
BRANCH   1   2
ATOM      2  C   UNL     1     134.827  50.053  21.106  1.00  0.00     0.000 C 
BRANCH   2   3
ATOM      3  C   UNL     1     135.734  51.089  20.426  1.00  0.00    -0.003 C 
ATOM      4  C   UNL     1     134.909  52.144  19.694  1.00  0.00     0.004 C 
ENDBRANCH   2   3
ENDBRANCH   1   2
BRANCH   1   5
ATOM      5  C   UNL     1     135.633  51.296  23.225  1.00  0.00     0.080 C 
BRANCH   5   6
ATOM      6  C   UNL     1     135.000  52.517  23.830  1.00  0.00     0.155 C 
ATOM      7  O   UNL     1     134.483  53.384  23.074  1.00  0.00    -0.295 OA
BRANCH   6   8
ATOM      8  C   UNL     1     134.963  52.681  25.295  1.00  0.00     0.039 C 
ATOM      9  C   UNL     1     134.517  51.727  26.110  1.00  0.00     0.012 C 
ENDBRANCH   6   8
ENDBRANCH   5   6
ENDBRANCH   1   5
TORSDOF 5
ENDMDL
MODEL 4
REMARK VINA RESULT:    -2.685      1.090      2.453
REMARK INTER + INTRA:          -4.041
REMARK INTER:                  -3.689
REMARK INTRA:                  -0.353
REMARK UNBOUND:                -0.572
REMARK SMILES C=CC(=O)CCCCC
REMARK SMILES IDX 6 1 7 2 8 3 9 4 5 5 3 6 4 7 2 8 1 9
REMARK H PARENT
REMARK Flexibility Score: inf
ROOT
ATOM      1  C   UNL     1     133.892  52.029  21.954  1.00  0.00     0.008 C 
ENDROOT
BRANCH   1   2
ATOM      2  C   UNL     1     134.007  52.778  20.615  1.00  0.00     0.000 C 
BRANCH   2   3
ATOM      3  C   UNL     1     135.024  52.136  19.660  1.00  0.00    -0.003 C 
ATOM      4  C   UNL     1     135.735  50.961  20.326  1.00  0.00     0.004 C 
ENDBRANCH   2   3
ENDBRANCH   1   2
BRANCH   1   5
ATOM      5  C   UNL     1     134.097  52.914  23.195  1.00  0.00     0.080 C 
BRANCH   5   6
ATOM      6  C   UNL     1     134.965  52.251  24.226  1.00  0.00     0.155 C 
ATOM      7  O   UNL     1     135.124  52.804  25.349  1.00  0.00    -0.295 OA
BRANCH   6   8
ATOM      8  C   UNL     1     135.602  50.953  23.933  1.00  0.00     0.039 C 
ATOM      9  C   UNL     1     135.304  49.843  24.606  1.00  0.00     0.012 C 
ENDBRANCH   6   8
ENDBRANCH   5   6
ENDBRANCH   1   5
TORSDOF 5
ENDMDL
MODEL 5
REMARK VINA RESULT:    -2.637      1.509      2.698
REMARK INTER + INTRA:          -3.979
REMARK INTER:                  -3.513
REMARK INTRA:                  -0.466
REMARK UNBOUND:                -0.572
REMARK SMILES C=CC(=O)CCCCC
REMARK SMILES IDX 6 1 7 2 8 3 9 4 5 5 3 6 4 7 2 8 1 9
REMARK H PARENT
REMARK Flexibility Score: inf
ROOT
ATOM      1  C   UNL     1     135.023  52.478  20.697  1.00  0.00     0.008 C 
ENDROOT
BRANCH   1   2
ATOM      2  C   UNL     1     135.109  50.948  20.550  1.00  0.00     0.000 C 
BRANCH   2   3
ATOM      3  C   UNL     1     133.875  50.227  21.112  1.00  0.00    -0.003 C 
ATOM      4  C   UNL     1     134.280  49.020  21.953  1.00  0.00     0.004 C 
ENDBRANCH   2   3
ENDBRANCH   1   2
BRANCH   1   5
ATOM      5  C   UNL     1     133.876  52.965  21.599  1.00  0.00     0.080 C 
BRANCH   5   6
ATOM      6  C   UNL     1     134.379  53.704  22.805  1.00  0.00     0.155 C 
ATOM      7  O   UNL     1     134.606  54.942  22.722  1.00  0.00    -0.295 OA
BRANCH   6   8
ATOM      8  C   UNL     1     134.578  52.989  24.081  1.00  0.00     0.039 C 
ATOM      9  C   UNL     1     135.267  51.853  24.163  1.00  0.00     0.012 C 
ENDBRANCH   6   8
ENDBRANCH   5   6
ENDBRANCH   1   5
TORSDOF 5
ENDMDL
MODEL 6
REMARK VINA RESULT:    -2.606      2.290      3.414
REMARK INTER + INTRA:          -3.939
REMARK INTER:                  -3.515
REMARK INTRA:                  -0.424
REMARK UNBOUND:                -0.572
REMARK SMILES C=CC(=O)CCCCC
REMARK SMILES IDX 6 1 7 2 8 3 9 4 5 5 3 6 4 7 2 8 1 9
REMARK H PARENT
REMARK Flexibility Score: inf
ROOT
ATOM      1  C   UNL     1     134.703  49.797  21.412  1.00  0.00     0.008 C 
ENDROOT
BRANCH   1   2
ATOM      2  C   UNL     1     134.056  49.279  22.709  1.00  0.00     0.000 C 
BRANCH   2   3
ATOM      3  C   UNL     1     134.481  50.082  23.947  1.00  0.00    -0.003 C 
ATOM      4  C   UNL     1     135.420  49.268  24.833  1.00  0.00     0.004 C 
ENDBRANCH   2   3
ENDBRANCH   1   2
BRANCH   1   5
ATOM      5  C   UNL     1     135.326  51.198  21.530  1.00  0.00     0.080 C 
BRANCH   5   6
ATOM      6  C   UNL     1     134.488  52.249  20.861  1.00  0.00     0.155 C 
ATOM      7  O   UNL     1     134.296  52.187  19.615  1.00  0.00    -0.295 OA
BRANCH   6   8
ATOM      8  C   UNL     1     133.875  53.327  21.661  1.00  0.00     0.039 C 
ATOM      9  C   UNL     1     134.225  53.567  22.923  1.00  0.00     0.012 C 
ENDBRANCH   6   8
ENDBRANCH   5   6
ENDBRANCH   1   5
TORSDOF 5
ENDMDL
MODEL 7
REMARK VINA RESULT:    -2.594      2.191      4.490
REMARK INTER + INTRA:          -3.924
REMARK INTER:                  -3.771
REMARK INTRA:                  -0.153
REMARK UNBOUND:                -0.572
REMARK SMILES C=CC(=O)CCCCC
REMARK SMILES IDX 6 1 7 2 8 3 9 4 5 5 3 6 4 7 2 8 1 9
REMARK H PARENT
REMARK Flexibility Score: inf
ROOT
ATOM      1  C   UNL     1     135.436  51.491  23.554  1.00  0.00     0.008 C 
ENDROOT
BRANCH   1   2
ATOM      2  C   UNL     1     135.032  52.530  24.615  1.00  0.00     0.000 C 
BRANCH   2   3
ATOM      3  C   UNL     1     134.906  51.924  26.021  1.00  0.00    -0.003 C 
ATOM      4  C   UNL     1     135.350  52.920  27.089  1.00  0.00     0.004 C 
ENDBRANCH   2   3
ENDBRANCH   1   2
BRANCH   1   5
ATOM      5  C   UNL     1     134.387  51.271  22.450  1.00  0.00     0.080 C 
BRANCH   5   6
ATOM      6  C   UNL     1     134.908  50.408  21.338  1.00  0.00     0.155 C 
ATOM      7  O   UNL     1     134.648  49.173  21.340  1.00  0.00    -0.295 OA
BRANCH   6   8
ATOM      8  C   UNL     1     135.691  51.007  20.241  1.00  0.00     0.039 C 
ATOM      9  C   UNL     1     135.308  52.116  19.611  1.00  0.00     0.012 C 
ENDBRANCH   6   8
ENDBRANCH   5   6
ENDBRANCH   1   5
TORSDOF 5
ENDMDL
MODEL 8
REMARK VINA RESULT:    -2.545      1.999      3.992
REMARK INTER + INTRA:          -3.860
REMARK INTER:                  -3.648
REMARK INTRA:                  -0.212
REMARK UNBOUND:                -0.572
REMARK SMILES C=CC(=O)CCCCC
REMARK SMILES IDX 6 1 7 2 8 3 9 4 5 5 3 6 4 7 2 8 1 9
REMARK H PARENT
REMARK Flexibility Score: inf
ROOT
ATOM      1  C   UNL     1     135.337  51.771  23.627  1.00  0.00     0.008 C 
ENDROOT
BRANCH   1   2
ATOM      2  C   UNL     1     134.967  52.025  25.100  1.00  0.00     0.000 C 
BRANCH   2   3
ATOM      3  C   UNL     1     134.803  50.727  25.904  1.00  0.00    -0.003 C 
ATOM      4  C   UNL     1     135.749  49.643  25.395  1.00  0.00     0.004 C 
ENDBRANCH   2   3
ENDBRANCH   1   2
BRANCH   1   5
ATOM      5  C   UNL     1     134.130  51.659  22.681  1.00  0.00     0.080 C 
BRANCH   5   6
ATOM      6  C   UNL     1     134.179  52.677  21.577  1.00  0.00     0.155 C 
ATOM      7  O   UNL     1     134.150  53.904  21.866  1.00  0.00    -0.295 OA
BRANCH   6   8
ATOM      8  C   UNL     1     134.288  52.239  20.172  1.00  0.00     0.039 C 
ATOM      9  C   UNL     1     135.447  51.882  19.623  1.00  0.00     0.012 C 
ENDBRANCH   6   8
ENDBRANCH   5   6
ENDBRANCH   1   5
TORSDOF 5
ENDMDL
MODEL 9
REMARK VINA RESULT:    -2.540      1.771      2.602
REMARK INTER + INTRA:          -3.855
REMARK INTER:                  -3.742
REMARK INTRA:                  -0.113
REMARK UNBOUND:                -0.572
REMARK SMILES C=CC(=O)CCCCC
REMARK SMILES IDX 6 1 7 2 8 3 9 4 5 5 3 6 4 7 2 8 1 9
REMARK H PARENT
REMARK Flexibility Score: inf
ROOT
ATOM      1  C   UNL     1     134.621  52.176  22.568  1.00  0.00     0.008 C 
ENDROOT
BRANCH   1   2
ATOM      2  C   UNL     1     133.976  53.007  21.444  1.00  0.00     0.000 C 
BRANCH   2   3
ATOM      3  C   UNL     1     133.946  52.264  20.100  1.00  0.00    -0.003 C 
ATOM      4  C   UNL     1     135.357  51.937  19.621  1.00  0.00     0.004 C 
ENDBRANCH   2   3
ENDBRANCH   1   2
BRANCH   1   5
ATOM      5  C   UNL     1     134.781  52.928  23.900  1.00  0.00     0.080 C 
BRANCH   5   6
ATOM      6  C   UNL     1     134.934  51.992  25.064  1.00  0.00     0.155 C 
ATOM      7  O   UNL     1     135.378  50.827  24.868  1.00  0.00    -0.295 OA
BRANCH   6   8
ATOM      8  C   UNL     1     134.592  52.444  26.427  1.00  0.00     0.039 C 
ATOM      9  C   UNL     1     135.472  53.051  27.220  1.00  0.00     0.012 C 
ENDBRANCH   6   8
ENDBRANCH   5   6
ENDBRANCH   1   5
TORSDOF 5
ENDMDL
