MODEL 1
REMARK VINA RESULT:    -4.928      0.000      0.000
REMARK INTER + INTRA:          -9.941
REMARK INTER:                  -8.962
REMARK INTRA:                  -0.979
REMARK UNBOUND:                -0.979
REMARK SMILES CCCCCCCCCCCCCCCC(=O)[O-]
REMARK SMILES IDX 9 1 10 2 11 3 12 4 13 5 14 6 15 7 16 8 17 9 18 10 8 11 7 12
REMARK SMILES IDX 6 13 5 14 4 15 3 16 2 17 1 18
REMARK H PARENT
REMARK Flexibility Score: inf
ROOT
ATOM      1  C   UNL     1       4.911 -36.226  21.451  1.00  0.00     0.000 C 
ENDROOT
BRANCH   1   2
ATOM      2  C   UNL     1       6.114 -35.950  22.361  1.00  0.00     0.000 C 
BRANCH   2   3
ATOM      3  C   UNL     1       5.660 -35.689  23.806  1.00  0.00     0.000 C 
BRANCH   3   4
ATOM      4  C   UNL     1       6.027 -36.838  24.760  1.00  0.00     0.000 C 
BRANCH   4   5
ATOM      5  C   UNL     1       4.799 -37.650  25.205  1.00  0.00     0.000 C 
BRANCH   5   6
ATOM      6  C   UNL     1       4.902 -39.140  24.830  1.00  0.00     0.006 C 
BRANCH   6   7
ATOM      7  C   UNL     1       5.025 -39.409  23.321  1.00  0.00     0.053 C 
BRANCH   7   8
ATOM      8  C   UNL     1       5.470 -40.810  23.035  1.00  0.00     0.041 C 
ATOM      9  O   UNL     1       5.693 -41.176  21.851  1.00  0.00    -0.550 OA
ATOM     10  O   UNL     1       5.668 -41.703  24.080  1.00  0.00    -0.550 OA
ENDBRANCH   7   8
ENDBRANCH   6   7
ENDBRANCH   5   6
ENDBRANCH   4   5
ENDBRANCH   3   4
ENDBRANCH   2   3
ENDBRANCH   1   2
BRANCH   1  11
ATOM     11  C   UNL     1       5.352 -36.895  20.142  1.00  0.00     0.000 C 
BRANCH  11  12
ATOM     12  C   UNL     1       4.297 -36.784  19.027  1.00  0.00    -0.000 C 
BRANCH  12  13
ATOM     13  C   UNL     1       3.313 -37.973  18.988  1.00  0.00    -0.000 C 
BRANCH  13  14
ATOM     14  C   UNL     1       2.271 -37.827  17.868  1.00  0.00    -0.000 C 
BRANCH  14  15
ATOM     15  C   UNL     1       2.800 -36.937  16.737  1.00  0.00    -0.000 C 
BRANCH  15  16
ATOM     16  C   UNL     1       2.118 -37.274  15.406  1.00  0.00    -0.000 C 
BRANCH  16  17
ATOM     17  C   UNL     1       3.137 -37.322  14.262  1.00  0.00    -0.003 C 
ATOM     18  C   UNL     1       3.829 -38.681  14.196  1.00  0.00     0.004 C 
ENDBRANCH  16  17
ENDBRANCH  15  16
ENDBRANCH  14  15
ENDBRANCH  13  14
ENDBRANCH  12  13
ENDBRANCH  11  12
ENDBRANCH   1  11
TORSDOF 14
ENDMDL
MODEL 2
REMARK VINA RESULT:    -4.791      3.360      7.116
REMARK INTER + INTRA:          -9.691
REMARK INTER:                  -8.369
REMARK INTRA:                  -1.322
REMARK UNBOUND:                -0.979
REMARK SMILES CCCCCCCCCCCCCCCC(=O)[O-]
REMARK SMILES IDX 9 1 10 2 11 3 12 4 13 5 14 6 15 7 16 8 17 9 18 10 8 11 7 12
REMARK SMILES IDX 6 13 5 14 4 15 3 16 2 17 1 18
REMARK H PARENT
REMARK Flexibility Score: inf
ROOT
ATOM      1  C   UNL     1       5.204 -35.758  22.360  1.00  0.00     0.000 C 
ENDROOT
BRANCH   1   2
ATOM      2  C   UNL     1       6.020 -36.134  21.117  1.00  0.00     0.000 C 
BRANCH   2   3
ATOM      3  C   UNL     1       5.112 -36.264  19.885  1.00  0.00     0.000 C 
BRANCH   3   4
ATOM      4  C   UNL     1       4.667 -37.713  19.625  1.00  0.00     0.000 C 
BRANCH   4   5
ATOM      5  C   UNL     1       3.148 -37.834  19.416  1.00  0.00     0.000 C 
BRANCH   5   6
ATOM      6  C   UNL     1       2.767 -38.083  17.945  1.00  0.00     0.006 C 
BRANCH   6   7
ATOM      7  C   UNL     1       3.146 -36.940  16.988  1.00  0.00     0.053 C 
BRANCH   7   8
ATOM      8  C   UNL     1       2.489 -37.087  15.650  1.00  0.00     0.041 C 
ATOM      9  O   UNL     1       1.272 -36.800  15.506  1.00  0.00    -0.550 OA
ATOM     10  O   UNL     1       3.230 -37.511  14.555  1.00  0.00    -0.550 OA
ENDBRANCH   7   8
ENDBRANCH   6   7
ENDBRANCH   5   6
ENDBRANCH   4   5
ENDBRANCH   3   4
ENDBRANCH   2   3
ENDBRANCH   1   2
BRANCH   1  11
ATOM     11  C   UNL     1       6.123 -35.348  23.520  1.00  0.00     0.000 C 
BRANCH  11  12
ATOM     12  C   UNL     1       6.027 -36.299  24.725  1.00  0.00    -0.000 C 
BRANCH  12  13
ATOM     13  C   UNL     1       4.710 -37.102  24.776  1.00  0.00    -0.000 C 
BRANCH  13  14
ATOM     14  C   UNL     1       4.879 -38.450  25.494  1.00  0.00    -0.000 C 
BRANCH  14  15
ATOM     15  C   UNL     1       5.294 -39.549  24.509  1.00  0.00    -0.000 C 
BRANCH  15  16
ATOM     16  C   UNL     1       4.666 -39.318  23.130  1.00  0.00    -0.000 C 
BRANCH  16  17
ATOM     17  C   UNL     1       5.273 -40.261  22.085  1.00  0.00    -0.003 C 
ATOM     18  C   UNL     1       5.682 -41.590  22.714  1.00  0.00     0.004 C 
ENDBRANCH  16  17
ENDBRANCH  15  16
ENDBRANCH  14  15
ENDBRANCH  13  14
ENDBRANCH  12  13
ENDBRANCH  11  12
ENDBRANCH   1  11
TORSDOF 14
ENDMDL
MODEL 3
REMARK VINA RESULT:    -4.303      2.360      3.293
REMARK INTER + INTRA:          -8.803
REMARK INTER:                  -7.959
REMARK INTRA:                  -0.844
REMARK UNBOUND:                -0.979
REMARK SMILES CCCCCCCCCCCCCCCC(=O)[O-]
REMARK SMILES IDX 9 1 10 2 11 3 12 4 13 5 14 6 15 7 16 8 17 9 18 10 8 11 7 12
REMARK SMILES IDX 6 13 5 14 4 15 3 16 2 17 1 18
REMARK H PARENT
REMARK Flexibility Score: inf
ROOT
ATOM      1  C   UNL     1       4.643 -38.768  21.635  1.00  0.00     0.000 C 
ENDROOT
BRANCH   1   2
ATOM      2  C   UNL     1       5.377 -40.061  22.011  1.00  0.00     0.000 C 
BRANCH   2   3
ATOM      3  C   UNL     1       5.188 -40.385  23.500  1.00  0.00     0.000 C 
BRANCH   3   4
ATOM      4  C   UNL     1       4.292 -39.364  24.222  1.00  0.00     0.000 C 
BRANCH   4   5
ATOM      5  C   UNL     1       5.026 -38.640  25.364  1.00  0.00     0.000 C 
BRANCH   5   6
ATOM      6  C   UNL     1       5.746 -37.362  24.894  1.00  0.00     0.006 C 
BRANCH   6   7
ATOM      7  C   UNL     1       4.927 -36.489  23.929  1.00  0.00     0.053 C 
BRANCH   7   8
ATOM      8  C   UNL     1       5.764 -35.426  23.286  1.00  0.00     0.041 C 
ATOM      9  O   UNL     1       6.125 -35.542  22.086  1.00  0.00    -0.550 OA
ATOM     10  O   UNL     1       6.117 -34.292  24.005  1.00  0.00    -0.550 OA
ENDBRANCH   7   8
ENDBRANCH   6   7
ENDBRANCH   5   6
ENDBRANCH   4   5
ENDBRANCH   3   4
ENDBRANCH   2   3
ENDBRANCH   1   2
BRANCH   1  11
ATOM     11  C   UNL     1       4.514 -38.630  20.112  1.00  0.00     0.000 C 
BRANCH  11  12
ATOM     12  C   UNL     1       3.629 -37.444  19.690  1.00  0.00    -0.000 C 
BRANCH  12  13
ATOM     13  C   UNL     1       3.512 -37.274  18.160  1.00  0.00    -0.000 C 
BRANCH  13  14
ATOM     14  C   UNL     1       2.439 -38.193  17.554  1.00  0.00    -0.000 C 
BRANCH  14  15
ATOM     15  C   UNL     1       1.815 -37.560  16.305  1.00  0.00    -0.000 C 
BRANCH  15  16
ATOM     16  C   UNL     1       2.864 -36.786  15.498  1.00  0.00    -0.000 C 
BRANCH  16  17
ATOM     17  C   UNL     1       3.126 -37.460  14.147  1.00  0.00    -0.003 C 
ATOM     18  C   UNL     1       3.824 -38.806  14.328  1.00  0.00     0.004 C 
ENDBRANCH  16  17
ENDBRANCH  15  16
ENDBRANCH  14  15
ENDBRANCH  13  14
ENDBRANCH  12  13
ENDBRANCH  11  12
ENDBRANCH   1  11
TORSDOF 14
ENDMDL
MODEL 4
REMARK VINA RESULT:    -4.244      0.781      1.272
REMARK INTER + INTRA:          -8.696
REMARK INTER:                  -7.815
REMARK INTRA:                  -0.881
REMARK UNBOUND:                -0.979
REMARK SMILES CCCCCCCCCCCCCCCC(=O)[O-]
REMARK SMILES IDX 9 1 10 2 11 3 12 4 13 5 14 6 15 7 16 8 17 9 18 10 8 11 7 12
REMARK SMILES IDX 6 13 5 14 4 15 3 16 2 17 1 18
REMARK H PARENT
REMARK Flexibility Score: inf
ROOT
ATOM      1  C   UNL     1       4.662 -36.711  21.390  1.00  0.00     0.000 C 
ENDROOT
BRANCH   1   2
ATOM      2  C   UNL     1       4.747 -35.566  22.407  1.00  0.00     0.000 C 
BRANCH   2   3
ATOM      3  C   UNL     1       5.966 -35.738  23.325  1.00  0.00     0.000 C 
BRANCH   3   4
ATOM      4  C   UNL     1       5.600 -36.340  24.692  1.00  0.00     0.000 C 
BRANCH   4   5
ATOM      5  C   UNL     1       6.121 -37.777  24.862  1.00  0.00     0.000 C 
BRANCH   5   6
ATOM      6  C   UNL     1       4.992 -38.823  24.871  1.00  0.00     0.006 C 
BRANCH   6   7
ATOM      7  C   UNL     1       4.705 -39.460  23.501  1.00  0.00     0.053 C 
BRANCH   7   8
ATOM      8  C   UNL     1       5.376 -40.790  23.349  1.00  0.00     0.041 C 
ATOM      9  O   UNL     1       5.588 -41.513  24.358  1.00  0.00    -0.550 OA
ATOM     10  O   UNL     1       5.737 -41.246  22.088  1.00  0.00    -0.550 OA
ENDBRANCH   7   8
ENDBRANCH   6   7
ENDBRANCH   5   6
ENDBRANCH   4   5
ENDBRANCH   3   4
ENDBRANCH   2   3
ENDBRANCH   1   2
BRANCH   1  11
ATOM     11  C   UNL     1       5.543 -36.428  20.165  1.00  0.00     0.000 C 
BRANCH  11  12
ATOM     12  C   UNL     1       4.863 -35.507  19.137  1.00  0.00    -0.000 C 
BRANCH  12  13
ATOM     13  C   UNL     1       4.235 -36.265  17.948  1.00  0.00    -0.000 C 
BRANCH  13  14
ATOM     14  C   UNL     1       3.357 -37.439  18.407  1.00  0.00    -0.000 C 
BRANCH  14  15
ATOM     15  C   UNL     1       2.730 -38.159  17.207  1.00  0.00    -0.000 C 
BRANCH  15  16
ATOM     16  C   UNL     1       1.860 -37.202  16.384  1.00  0.00    -0.000 C 
BRANCH  16  17
ATOM     17  C   UNL     1       2.420 -37.032  14.967  1.00  0.00    -0.003 C 
ATOM     18  C   UNL     1       3.471 -38.094  14.658  1.00  0.00     0.004 C 
ENDBRANCH  16  17
ENDBRANCH  15  16
ENDBRANCH  14  15
ENDBRANCH  13  14
ENDBRANCH  12  13
ENDBRANCH  11  12
ENDBRANCH   1  11
TORSDOF 14
ENDMDL
MODEL 5
REMARK VINA RESULT:    -3.941      3.076      7.876
REMARK INTER + INTRA:          -8.145
REMARK INTER:                  -7.191
REMARK INTRA:                  -0.954
REMARK UNBOUND:                -0.979
REMARK SMILES CCCCCCCCCCCCCCCC(=O)[O-]
REMARK SMILES IDX 9 1 10 2 11 3 12 4 13 5 14 6 15 7 16 8 17 9 18 10 8 11 7 12
REMARK SMILES IDX 6 13 5 14 4 15 3 16 2 17 1 18
REMARK H PARENT
REMARK Flexibility Score: inf
ROOT
ATOM      1  C   UNL     1       4.639 -38.011  20.774  1.00  0.00     0.000 C 
ENDROOT
BRANCH   1   2
ATOM      2  C   UNL     1       4.633 -37.937  19.242  1.00  0.00     0.000 C 
BRANCH   2   3
ATOM      3  C   UNL     1       4.258 -36.527  18.763  1.00  0.00     0.000 C 
BRANCH   3   4
ATOM      4  C   UNL     1       3.580 -36.529  17.382  1.00  0.00     0.000 C 
BRANCH   4   5
ATOM      5  C   UNL     1       2.611 -37.711  17.203  1.00  0.00     0.000 C 
BRANCH   5   6
ATOM      6  C   UNL     1       1.689 -37.546  15.981  1.00  0.00     0.006 C 
BRANCH   6   7
ATOM      7  C   UNL     1       2.406 -37.087  14.701  1.00  0.00     0.053 C 
BRANCH   7   8
ATOM      8  C   UNL     1       3.580 -37.958  14.373  1.00  0.00     0.041 C 
ATOM      9  O   UNL     1       4.622 -37.457  13.876  1.00  0.00    -0.550 OA
ATOM     10  O   UNL     1       3.533 -39.319  14.646  1.00  0.00    -0.550 OA
ENDBRANCH   7   8
ENDBRANCH   6   7
ENDBRANCH   5   6
ENDBRANCH   4   5
ENDBRANCH   3   4
ENDBRANCH   2   3
ENDBRANCH   1   2
BRANCH   1  11
ATOM     11  C   UNL     1       4.705 -36.608  21.394  1.00  0.00     0.000 C 
BRANCH  11  12
ATOM     12  C   UNL     1       5.904 -36.427  22.340  1.00  0.00    -0.000 C 
BRANCH  12  13
ATOM     13  C   UNL     1       5.682 -35.342  23.417  1.00  0.00    -0.000 C 
BRANCH  13  14
ATOM     14  C   UNL     1       6.013 -35.850  24.829  1.00  0.00    -0.000 C 
BRANCH  14  15
ATOM     15  C   UNL     1       6.125 -37.379  24.851  1.00  0.00    -0.000 C 
BRANCH  15  16
ATOM     16  C   UNL     1       4.826 -38.019  25.352  1.00  0.00    -0.000 C 
BRANCH  16  17
ATOM     17  C   UNL     1       4.240 -38.971  24.302  1.00  0.00    -0.003 C 
ATOM     18  C   UNL     1       5.320 -39.876  23.716  1.00  0.00     0.004 C 
ENDBRANCH  16  17
ENDBRANCH  15  16
ENDBRANCH  14  15
ENDBRANCH  13  14
ENDBRANCH  12  13
ENDBRANCH  11  12
ENDBRANCH   1  11
TORSDOF 14
ENDMDL
MODEL 6
REMARK VINA RESULT:    -3.887      3.375      7.454
REMARK INTER + INTRA:          -8.048
REMARK INTER:                  -7.107
REMARK INTRA:                  -0.940
REMARK UNBOUND:                -0.979
REMARK SMILES CCCCCCCCCCCCCCCC(=O)[O-]
REMARK SMILES IDX 9 1 10 2 11 3 12 4 13 5 14 6 15 7 16 8 17 9 18 10 8 11 7 12
REMARK SMILES IDX 6 13 5 14 4 15 3 16 2 17 1 18
REMARK H PARENT
REMARK Flexibility Score: inf
ROOT
ATOM      1  C   UNL     1       4.790 -36.701  20.976  1.00  0.00     0.000 C 
ENDROOT
BRANCH   1   2
ATOM      2  C   UNL     1       6.024 -35.939  20.478  1.00  0.00     0.000 C 
BRANCH   2   3
ATOM      3  C   UNL     1       5.941 -35.691  18.964  1.00  0.00     0.000 C 
BRANCH   3   4
ATOM      4  C   UNL     1       4.541 -35.243  18.511  1.00  0.00     0.000 C 
BRANCH   4   5
ATOM      5  C   UNL     1       4.037 -36.029  17.288  1.00  0.00     0.000 C 
BRANCH   5   6
ATOM      6  C   UNL     1       3.077 -37.171  17.669  1.00  0.00     0.006 C 
BRANCH   6   7
ATOM      7  C   UNL     1       2.924 -38.258  16.593  1.00  0.00     0.053 C 
BRANCH   7   8
ATOM      8  C   UNL     1       2.806 -37.675  15.219  1.00  0.00     0.041 C 
ATOM      9  O   UNL     1       3.694 -37.902  14.354  1.00  0.00    -0.550 OA
ATOM     10  O   UNL     1       1.700 -36.905  14.883  1.00  0.00    -0.550 OA
ENDBRANCH   7   8
ENDBRANCH   6   7
ENDBRANCH   5   6
ENDBRANCH   4   5
ENDBRANCH   3   4
ENDBRANCH   2   3
ENDBRANCH   1   2
BRANCH   1  11
ATOM     11  C   UNL     1       4.872 -38.188  20.604  1.00  0.00     0.000 C 
BRANCH  11  12
ATOM     12  C   UNL     1       4.165 -39.100  21.621  1.00  0.00    -0.000 C 
BRANCH  12  13
ATOM     13  C   UNL     1       5.138 -39.875  22.536  1.00  0.00    -0.000 C 
BRANCH  13  14
ATOM     14  C   UNL     1       5.084 -39.382  23.990  1.00  0.00    -0.000 C 
BRANCH  14  15
ATOM     15  C   UNL     1       4.965 -37.854  24.049  1.00  0.00    -0.000 C 
BRANCH  15  16
ATOM     16  C   UNL     1       6.125 -37.242  24.842  1.00  0.00    -0.000 C 
BRANCH  16  17
ATOM     17  C   UNL     1       5.931 -35.731  25.022  1.00  0.00    -0.003 C 
ATOM     18  C   UNL     1       6.123 -34.990  23.702  1.00  0.00     0.004 C 
ENDBRANCH  16  17
ENDBRANCH  15  16
ENDBRANCH  14  15
ENDBRANCH  13  14
ENDBRANCH  12  13
ENDBRANCH  11  12
ENDBRANCH   1  11
TORSDOF 14
ENDMDL
MODEL 7
REMARK VINA RESULT:    -3.719      2.988      7.517
REMARK INTER + INTRA:          -7.741
REMARK INTER:                  -6.407
REMARK INTRA:                  -1.334
REMARK UNBOUND:                -0.979
REMARK SMILES CCCCCCCCCCCCCCCC(=O)[O-]
REMARK SMILES IDX 9 1 10 2 11 3 12 4 13 5 14 6 15 7 16 8 17 9 18 10 8 11 7 12
REMARK SMILES IDX 6 13 5 14 4 15 3 16 2 17 1 18
REMARK H PARENT
REMARK Flexibility Score: inf
ROOT
ATOM      1  C   UNL     1       5.226 -39.885  21.854  1.00  0.00     0.000 C 
ENDROOT
BRANCH   1   2
ATOM      2  C   UNL     1       4.291 -38.779  21.348  1.00  0.00     0.000 C 
BRANCH   2   3
ATOM      3  C   UNL     1       5.072 -37.723  20.551  1.00  0.00     0.000 C 
BRANCH   3   4
ATOM      4  C   UNL     1       4.462 -37.453  19.166  1.00  0.00     0.000 C 
BRANCH   4   5
ATOM      5  C   UNL     1       3.165 -38.246  18.928  1.00  0.00     0.000 C 
BRANCH   5   6
ATOM      6  C   UNL     1       2.281 -37.628  17.829  1.00  0.00     0.006 C 
BRANCH   6   7
ATOM      7  C   UNL     1       3.062 -36.928  16.705  1.00  0.00     0.053 C 
BRANCH   7   8
ATOM      8  C   UNL     1       2.984 -37.682  15.413  1.00  0.00     0.041 C 
ATOM      9  O   UNL     1       3.341 -38.889  15.361  1.00  0.00    -0.550 OA
ATOM     10  O   UNL     1       2.487 -37.061  14.275  1.00  0.00    -0.550 OA
ENDBRANCH   7   8
ENDBRANCH   6   7
ENDBRANCH   5   6
ENDBRANCH   4   5
ENDBRANCH   3   4
ENDBRANCH   2   3
ENDBRANCH   1   2
BRANCH   1  11
ATOM     11  C   UNL     1       4.920 -40.239  23.316  1.00  0.00     0.000 C 
BRANCH  11  12
ATOM     12  C   UNL     1       4.220 -39.100  24.076  1.00  0.00    -0.000 C 
BRANCH  12  13
ATOM     13  C   UNL     1       4.791 -38.858  25.490  1.00  0.00    -0.000 C 
BRANCH  13  14
ATOM     14  C   UNL     1       5.942 -37.841  25.486  1.00  0.00    -0.000 C 
BRANCH  14  15
ATOM     15  C   UNL     1       5.815 -36.872  24.304  1.00  0.00    -0.000 C 
BRANCH  15  16
ATOM     16  C   UNL     1       6.125 -35.434  24.735  1.00  0.00    -0.000 C 
BRANCH  16  17
ATOM     17  C   UNL     1       5.796 -34.441  23.615  1.00  0.00    -0.003 C 
ATOM     18  C   UNL     1       4.634 -34.939  22.760  1.00  0.00     0.004 C 
ENDBRANCH  16  17
ENDBRANCH  15  16
ENDBRANCH  14  15
ENDBRANCH  13  14
ENDBRANCH  12  13
ENDBRANCH  11  12
ENDBRANCH   1  11
TORSDOF 14
ENDMDL
MODEL 8
REMARK VINA RESULT:    -3.682      2.275      7.081
REMARK INTER + INTRA:          -7.674
REMARK INTER:                  -6.253
REMARK INTRA:                  -1.421
REMARK UNBOUND:                -0.979
REMARK SMILES CCCCCCCCCCCCCCCC(=O)[O-]
REMARK SMILES IDX 9 1 10 2 11 3 12 4 13 5 14 6 15 7 16 8 17 9 18 10 8 11 7 12
REMARK SMILES IDX 6 13 5 14 4 15 3 16 2 17 1 18
REMARK H PARENT
REMARK Flexibility Score: inf
ROOT
ATOM      1  C   UNL     1       5.129 -36.830  19.584  1.00  0.00     0.000 C 
ENDROOT
BRANCH   1   2
ATOM      2  C   UNL     1       4.874 -35.347  19.292  1.00  0.00     0.000 C 
BRANCH   2   3
ATOM      3  C   UNL     1       4.445 -35.142  17.831  1.00  0.00     0.000 C 
BRANCH   3   4
ATOM      4  C   UNL     1       3.977 -36.445  17.161  1.00  0.00     0.000 C 
BRANCH   4   5
ATOM      5  C   UNL     1       2.701 -36.251  16.324  1.00  0.00     0.000 C 
BRANCH   5   6
ATOM      6  C   UNL     1       1.616 -37.298  16.639  1.00  0.00     0.006 C 
BRANCH   6   7
ATOM      7  C   UNL     1       2.109 -38.492  17.473  1.00  0.00     0.053 C 
BRANCH   7   8
ATOM      8  C   UNL     1       1.560 -38.469  18.866  1.00  0.00     0.041 C 
ATOM      9  O   UNL     1       2.337 -38.525  19.855  1.00  0.00    -0.550 OA
ATOM     10  O   UNL     1       0.191 -38.352  19.071  1.00  0.00    -0.550 OA
ENDBRANCH   7   8
ENDBRANCH   6   7
ENDBRANCH   5   6
ENDBRANCH   4   5
ENDBRANCH   3   4
ENDBRANCH   2   3
ENDBRANCH   1   2
BRANCH   1  11
ATOM     11  C   UNL     1       5.360 -37.065  21.084  1.00  0.00     0.000 C 
BRANCH  11  12
ATOM     12  C   UNL     1       4.665 -36.017  21.969  1.00  0.00    -0.000 C 
BRANCH  12  13
ATOM     13  C   UNL     1       5.447 -35.681  23.257  1.00  0.00    -0.000 C 
BRANCH  13  14
ATOM     14  C   UNL     1       6.124 -36.919  23.865  1.00  0.00    -0.000 C 
BRANCH  14  15
ATOM     15  C   UNL     1       5.480 -37.296  25.204  1.00  0.00    -0.000 C 
BRANCH  15  16
ATOM     16  C   UNL     1       4.692 -38.606  25.087  1.00  0.00    -0.000 C 
BRANCH  16  17
ATOM     17  C   UNL     1       5.219 -39.463  23.930  1.00  0.00    -0.003 C 
ATOM     18  C   UNL     1       4.113 -39.771  22.925  1.00  0.00     0.004 C 
ENDBRANCH  16  17
ENDBRANCH  15  16
ENDBRANCH  14  15
ENDBRANCH  13  14
ENDBRANCH  12  13
ENDBRANCH  11  12
ENDBRANCH   1  11
TORSDOF 14
ENDMDL
MODEL 9
REMARK VINA RESULT:    -3.677      1.556      2.401
REMARK INTER + INTRA:          -7.666
REMARK INTER:                  -6.631
REMARK INTRA:                  -1.035
REMARK UNBOUND:                -0.979
REMARK SMILES CCCCCCCCCCCCCCCC(=O)[O-]
REMARK SMILES IDX 9 1 10 2 11 3 12 4 13 5 14 6 15 7 16 8 17 9 18 10 8 11 7 12
REMARK SMILES IDX 6 13 5 14 4 15 3 16 2 17 1 18
REMARK H PARENT
REMARK Flexibility Score: inf
ROOT
ATOM      1  C   UNL     1       4.302 -38.516  21.129  1.00  0.00     0.000 C 
ENDROOT
BRANCH   1   2
ATOM      2  C   UNL     1       5.385 -37.434  21.216  1.00  0.00     0.000 C 
BRANCH   2   3
ATOM      3  C   UNL     1       4.757 -36.039  21.354  1.00  0.00     0.000 C 
BRANCH   3   4
ATOM      4  C   UNL     1       4.633 -35.585  22.818  1.00  0.00     0.000 C 
BRANCH   4   5
ATOM      5  C   UNL     1       6.002 -35.409  23.498  1.00  0.00     0.000 C 
BRANCH   5   6
ATOM      6  C   UNL     1       6.125 -36.212  24.807  1.00  0.00     0.006 C 
BRANCH   6   7
ATOM      7  C   UNL     1       4.828 -36.911  25.248  1.00  0.00     0.053 C 
BRANCH   7   8
ATOM      8  C   UNL     1       5.001 -38.394  25.360  1.00  0.00     0.041 C 
ATOM      9  O   UNL     1       5.144 -39.097  24.325  1.00  0.00    -0.550 OA
ATOM     10  O   UNL     1       5.034 -38.997  26.612  1.00  0.00    -0.550 OA
ENDBRANCH   7   8
ENDBRANCH   6   7
ENDBRANCH   5   6
ENDBRANCH   4   5
ENDBRANCH   3   4
ENDBRANCH   2   3
ENDBRANCH   1   2
BRANCH   1  11
ATOM     11  C   UNL     1       3.415 -38.310  19.894  1.00  0.00     0.000 C 
BRANCH  11  12
ATOM     12  C   UNL     1       4.204 -37.842  18.659  1.00  0.00    -0.000 C 
BRANCH  12  13
ATOM     13  C   UNL     1       3.412 -36.883  17.745  1.00  0.00    -0.000 C 
BRANCH  13  14
ATOM     14  C   UNL     1       2.035 -37.449  17.366  1.00  0.00    -0.000 C 
BRANCH  14  15
ATOM     15  C   UNL     1       1.728 -37.202  15.884  1.00  0.00    -0.000 C 
BRANCH  15  16
ATOM     16  C   UNL     1       3.018 -36.994  15.082  1.00  0.00    -0.000 C 
BRANCH  16  17
ATOM     17  C   UNL     1       3.073 -37.937  13.875  1.00  0.00    -0.003 C 
ATOM     18  C   UNL     1       4.238 -38.916  13.993  1.00  0.00     0.004 C 
ENDBRANCH  16  17
ENDBRANCH  15  16
ENDBRANCH  14  15
ENDBRANCH  13  14
ENDBRANCH  12  13
ENDBRANCH  11  12
ENDBRANCH   1  11
TORSDOF 14
ENDMDL
