MODEL 1
REMARK VINA RESULT:    -2.776      0.000      0.000
REMARK INTER + INTRA:          -4.405
REMARK INTER:                  -3.750
REMARK INTRA:                  -0.656
REMARK UNBOUND:                -0.656
REMARK SMILES O=C[C@H](O)[C@H](O)[C@H](O)CO
REMARK SMILES IDX 7 1 9 2 10 3 5 5 3 6 2 7 1 8 4 9 6 11 8 13
REMARK H PARENT 10 4 4 10 6 12 8 14
REMARK Flexibility Score: inf
ROOT
ATOM      1  C   UNL     1     111.172  56.064  47.634  1.00  0.00     0.171 C 
ENDROOT
BRANCH   1   2
ATOM      2  C   UNL     1     111.852  56.165  49.014  1.00  0.00     0.190 C 
BRANCH   2   3
ATOM      3  O   UNL     1     110.977  56.698  49.972  1.00  0.00    -0.394 OA
ATOM      4  H   UNL     1     111.180  56.241  50.830  1.00  0.00     0.210 HD
ENDBRANCH   2   3
ENDBRANCH   1   2
BRANCH   1   5
ATOM      5  C   UNL     1     110.772  57.458  47.080  1.00  0.00     0.181 C 
BRANCH   5   6
ATOM      6  C   UNL     1     110.964  57.557  45.544  1.00  0.00     0.209 C 
BRANCH   6   7
ATOM      7  C   UNL     1     109.970  58.514  44.938  1.00  0.00     0.258 C 
ATOM      8  O   UNL     1     109.184  59.125  45.646  1.00  0.00    -0.300 OA
ENDBRANCH   6   7
BRANCH   6   9
ATOM      9  O   UNL     1     110.790  56.292  44.961  1.00  0.00    -0.383 OA
ATOM     10  H   UNL     1     109.894  56.291  44.534  1.00  0.00     0.211 HD
ENDBRANCH   6   9
ENDBRANCH   5   6
BRANCH   5  11
ATOM     11  O   UNL     1     111.502  58.471  47.731  1.00  0.00    -0.387 OA
ATOM     12  H   UNL     1     112.465  58.243  47.651  1.00  0.00     0.211 HD
ENDBRANCH   5  11
ENDBRANCH   1   5
BRANCH   1  13
ATOM     13  O   UNL     1     110.035  55.246  47.736  1.00  0.00    -0.388 OA
ATOM     14  H   UNL     1     110.303  54.338  47.437  1.00  0.00     0.211 HD
ENDBRANCH   1  13
TORSDOF 8
ENDMDL
MODEL 2
REMARK VINA RESULT:    -2.754      1.370      2.253
REMARK INTER + INTRA:          -4.375
REMARK INTER:                  -3.616
REMARK INTRA:                  -0.759
REMARK UNBOUND:                -0.656
REMARK SMILES O=C[C@H](O)[C@H](O)[C@H](O)CO
REMARK SMILES IDX 7 1 9 2 10 3 5 5 3 6 2 7 1 8 4 9 6 11 8 13
REMARK H PARENT 10 4 4 10 6 12 8 14
REMARK Flexibility Score: inf
ROOT
ATOM      1  C   UNL     1     111.447  55.999  48.509  1.00  0.00     0.171 C 
ENDROOT
BRANCH   1   2
ATOM      2  C   UNL     1     112.895  55.487  48.642  1.00  0.00     0.190 C 
BRANCH   2   3
ATOM      3  O   UNL     1     113.813  56.546  48.591  1.00  0.00    -0.394 OA
ATOM      4  H   UNL     1     114.104  56.627  47.645  1.00  0.00     0.210 HD
ENDBRANCH   2   3
ENDBRANCH   1   2
BRANCH   1   5
ATOM      5  C   UNL     1     111.214  56.738  47.163  1.00  0.00     0.181 C 
BRANCH   5   6
ATOM      6  C   UNL     1     111.053  58.269  47.353  1.00  0.00     0.209 C 
BRANCH   6   7
ATOM      7  C   UNL     1     110.481  58.908  46.114  1.00  0.00     0.258 C 
ATOM      8  O   UNL     1     109.274  58.931  45.928  1.00  0.00    -0.300 OA
ENDBRANCH   6   7
BRANCH   6   9
ATOM      9  O   UNL     1     112.302  58.847  47.628  1.00  0.00    -0.383 OA
ATOM     10  H   UNL     1     112.324  59.723  47.161  1.00  0.00     0.211 HD
ENDBRANCH   6   9
ENDBRANCH   5   6
BRANCH   5  11
ATOM     11  O   UNL     1     110.090  56.206  46.502  1.00  0.00    -0.387 OA
ATOM     12  H   UNL     1     110.229  55.226  46.419  1.00  0.00     0.211 HD
ENDBRANCH   5  11
ENDBRANCH   1   5
BRANCH   1  13
ATOM     13  O   UNL     1     111.158  56.859  49.582  1.00  0.00    -0.388 OA
ATOM     14  H   UNL     1     110.554  56.364  50.195  1.00  0.00     0.211 HD
ENDBRANCH   1  13
TORSDOF 8
ENDMDL
MODEL 3
REMARK VINA RESULT:    -2.707     14.717     15.484
REMARK INTER + INTRA:          -4.312
REMARK INTER:                  -3.815
REMARK INTRA:                  -0.497
REMARK UNBOUND:                -0.656
REMARK SMILES O=C[C@H](O)[C@H](O)[C@H](O)CO
REMARK SMILES IDX 7 1 9 2 10 3 5 5 3 6 2 7 1 8 4 9 6 11 8 13
REMARK H PARENT 10 4 4 10 6 12 8 14
REMARK Flexibility Score: inf
ROOT
ATOM      1  C   UNL     1     124.319  51.501  43.778  1.00  0.00     0.171 C 
ENDROOT
BRANCH   1   2
ATOM      2  C   UNL     1     124.003  51.125  42.317  1.00  0.00     0.190 C 
BRANCH   2   3
ATOM      3  O   UNL     1     124.966  50.244  41.801  1.00  0.00    -0.394 OA
ATOM      4  H   UNL     1     124.472  49.469  41.426  1.00  0.00     0.210 HD
ENDBRANCH   2   3
ENDBRANCH   1   2
BRANCH   1   5
ATOM      5  C   UNL     1     125.146  52.812  43.874  1.00  0.00     0.181 C 
BRANCH   5   6
ATOM      6  C   UNL     1     124.291  54.070  43.571  1.00  0.00     0.209 C 
BRANCH   6   7
ATOM      7  C   UNL     1     125.133  55.318  43.621  1.00  0.00     0.258 C 
ATOM      8  O   UNL     1     125.931  55.566  42.730  1.00  0.00    -0.300 OA
ENDBRANCH   6   7
BRANCH   6   9
ATOM      9  O   UNL     1     123.256  54.180  44.514  1.00  0.00    -0.383 OA
ATOM     10  H   UNL     1     122.417  53.919  44.054  1.00  0.00     0.211 HD
ENDBRANCH   6   9
ENDBRANCH   5   6
BRANCH   5  11
ATOM     11  O   UNL     1     126.256  52.755  43.010  1.00  0.00    -0.387 OA
ATOM     12  H   UNL     1     127.071  52.882  43.562  1.00  0.00     0.211 HD
ENDBRANCH   5  11
ENDBRANCH   1   5
BRANCH   1  13
ATOM     13  O   UNL     1     125.021  50.448  44.388  1.00  0.00    -0.388 OA
ATOM     14  H   UNL     1     124.506  50.187  45.196  1.00  0.00     0.211 HD
ENDBRANCH   1  13
TORSDOF 8
ENDMDL
MODEL 4
REMARK VINA RESULT:    -2.695      1.686      2.323
REMARK INTER + INTRA:          -4.296
REMARK INTER:                  -3.528
REMARK INTRA:                  -0.769
REMARK UNBOUND:                -0.656
REMARK SMILES O=C[C@H](O)[C@H](O)[C@H](O)CO
REMARK SMILES IDX 7 1 9 2 10 3 5 5 3 6 2 7 1 8 4 9 6 11 8 13
REMARK H PARENT 10 4 4 10 6 12 8 14
REMARK Flexibility Score: inf
ROOT
ATOM      1  C   UNL     1     111.373  56.252  48.899  1.00  0.00     0.171 C 
ENDROOT
BRANCH   1   2
ATOM      2  C   UNL     1     112.867  55.886  48.997  1.00  0.00     0.190 C 
BRANCH   2   3
ATOM      3  O   UNL     1     113.660  57.032  49.151  1.00  0.00    -0.394 OA
ATOM      4  H   UNL     1     114.590  56.718  49.302  1.00  0.00     0.210 HD
ENDBRANCH   2   3
ENDBRANCH   1   2
BRANCH   1   5
ATOM      5  C   UNL     1     111.083  57.192  47.698  1.00  0.00     0.181 C 
BRANCH   5   6
ATOM      6  C   UNL     1     111.567  56.593  46.353  1.00  0.00     0.209 C 
BRANCH   6   7
ATOM      7  C   UNL     1     112.561  57.506  45.683  1.00  0.00     0.258 C 
ATOM      8  O   UNL     1     113.699  57.610  46.116  1.00  0.00    -0.300 OA
ENDBRANCH   6   7
BRANCH   6   9
ATOM      9  O   UNL     1     110.472  56.406  45.494  1.00  0.00    -0.383 OA
ATOM     10  H   UNL     1     110.777  56.646  44.580  1.00  0.00     0.211 HD
ENDBRANCH   6   9
ENDBRANCH   5   6
BRANCH   5  11
ATOM     11  O   UNL     1     111.670  58.454  47.912  1.00  0.00    -0.387 OA
ATOM     12  H   UNL     1     111.901  58.516  48.876  1.00  0.00     0.211 HD
ENDBRANCH   5  11
ENDBRANCH   1   5
BRANCH   1  13
ATOM     13  O   UNL     1     110.966  56.865  50.096  1.00  0.00    -0.388 OA
ATOM     14  H   UNL     1     109.982  56.750  50.160  1.00  0.00     0.211 HD
ENDBRANCH   1  13
TORSDOF 8
ENDMDL
MODEL 5
REMARK VINA RESULT:    -2.672      7.854      9.595
REMARK INTER + INTRA:          -4.265
REMARK INTER:                  -3.470
REMARK INTRA:                  -0.796
REMARK UNBOUND:                -0.656
REMARK SMILES O=C[C@H](O)[C@H](O)[C@H](O)CO
REMARK SMILES IDX 7 1 9 2 10 3 5 5 3 6 2 7 1 8 4 9 6 11 8 13
REMARK H PARENT 10 4 4 10 6 12 8 14
REMARK Flexibility Score: inf
ROOT
ATOM      1  C   UNL     1     115.570  50.841  51.510  1.00  0.00     0.171 C 
ENDROOT
BRANCH   1   2
ATOM      2  C   UNL     1     115.766  51.707  50.251  1.00  0.00     0.190 C 
BRANCH   2   3
ATOM      3  O   UNL     1     114.551  51.909  49.580  1.00  0.00    -0.394 OA
ATOM      4  H   UNL     1     114.137  51.014  49.462  1.00  0.00     0.210 HD
ENDBRANCH   2   3
ENDBRANCH   1   2
BRANCH   1   5
ATOM      5  C   UNL     1     115.044  49.421  51.162  1.00  0.00     0.181 C 
BRANCH   5   6
ATOM      6  C   UNL     1     115.841  48.768  50.004  1.00  0.00     0.209 C 
BRANCH   6   7
ATOM      7  C   UNL     1     114.925  48.375  48.874  1.00  0.00     0.258 C 
ATOM      8  O   UNL     1     114.495  49.217  48.101  1.00  0.00    -0.300 OA
ENDBRANCH   6   7
BRANCH   6   9
ATOM      9  O   UNL     1     116.505  47.621  50.470  1.00  0.00    -0.383 OA
ATOM     10  H   UNL     1     115.916  46.847  50.274  1.00  0.00     0.211 HD
ENDBRANCH   6   9
ENDBRANCH   5   6
BRANCH   5  11
ATOM     11  O   UNL     1     113.674  49.472  50.846  1.00  0.00    -0.387 OA
ATOM     12  H   UNL     1     113.598  49.638  49.870  1.00  0.00     0.211 HD
ENDBRANCH   5  11
ENDBRANCH   1   5
BRANCH   1  13
ATOM     13  O   UNL     1     114.673  51.482  52.380  1.00  0.00    -0.388 OA
ATOM     14  H   UNL     1     114.843  51.120  53.289  1.00  0.00     0.211 HD
ENDBRANCH   1  13
TORSDOF 8
ENDMDL
MODEL 6
REMARK VINA RESULT:    -2.665     14.709     15.621
REMARK INTER + INTRA:          -4.255
REMARK INTER:                  -3.466
REMARK INTRA:                  -0.790
REMARK UNBOUND:                -0.656
REMARK SMILES O=C[C@H](O)[C@H](O)[C@H](O)CO
REMARK SMILES IDX 7 1 9 2 10 3 5 5 3 6 2 7 1 8 4 9 6 11 8 13
REMARK H PARENT 10 4 4 10 6 12 8 14
REMARK Flexibility Score: inf
ROOT
ATOM      1  C   UNL     1     124.651  52.224  43.229  1.00  0.00     0.171 C 
ENDROOT
BRANCH   1   2
ATOM      2  C   UNL     1     124.568  51.656  44.659  1.00  0.00     0.190 C 
BRANCH   2   3
ATOM      3  O   UNL     1     125.380  50.520  44.801  1.00  0.00    -0.394 OA
ATOM      4  H   UNL     1     124.773  49.734  44.805  1.00  0.00     0.210 HD
ENDBRANCH   2   3
ENDBRANCH   1   2
BRANCH   1   5
ATOM      5  C   UNL     1     124.094  51.229  42.175  1.00  0.00     0.181 C 
BRANCH   5   6
ATOM      6  C   UNL     1     122.772  50.563  42.637  1.00  0.00     0.209 C 
BRANCH   6   7
ATOM      7  C   UNL     1     122.889  49.061  42.616  1.00  0.00     0.258 C 
ATOM      8  O   UNL     1     123.518  48.474  43.483  1.00  0.00    -0.300 OA
ENDBRANCH   6   7
BRANCH   6   9
ATOM      9  O   UNL     1     121.723  50.949  41.787  1.00  0.00    -0.383 OA
ATOM     10  H   UNL     1     121.114  50.170  41.708  1.00  0.00     0.211 HD
ENDBRANCH   6   9
ENDBRANCH   5   6
BRANCH   5  11
ATOM     11  O   UNL     1     125.057  50.247  41.873  1.00  0.00    -0.387 OA
ATOM     12  H   UNL     1     124.985  49.536  42.562  1.00  0.00     0.211 HD
ENDBRANCH   5  11
ENDBRANCH   1   5
BRANCH   1  13
ATOM     13  O   UNL     1     125.987  52.538  42.930  1.00  0.00    -0.388 OA
ATOM     14  H   UNL     1     126.004  53.486  42.637  1.00  0.00     0.211 HD
ENDBRANCH   1  13
TORSDOF 8
ENDMDL
MODEL 7
REMARK VINA RESULT:    -2.654     12.676     14.317
REMARK INTER + INTRA:          -4.240
REMARK INTER:                  -3.539
REMARK INTRA:                  -0.701
REMARK UNBOUND:                -0.656
REMARK SMILES O=C[C@H](O)[C@H](O)[C@H](O)CO
REMARK SMILES IDX 7 1 9 2 10 3 5 5 3 6 2 7 1 8 4 9 6 11 8 13
REMARK H PARENT 10 4 4 10 6 12 8 14
REMARK Flexibility Score: inf
ROOT
ATOM      1  C   UNL     1     124.933  56.959  51.654  1.00  0.00     0.171 C 
ENDROOT
BRANCH   1   2
ATOM      2  C   UNL     1     125.108  58.448  52.011  1.00  0.00     0.190 C 
BRANCH   2   3
ATOM      3  O   UNL     1     123.880  59.125  51.976  1.00  0.00    -0.394 OA
ATOM      4  H   UNL     1     123.700  59.438  52.901  1.00  0.00     0.210 HD
ENDBRANCH   2   3
ENDBRANCH   1   2
BRANCH   1   5
ATOM      5  C   UNL     1     123.495  56.455  51.955  1.00  0.00     0.181 C 
BRANCH   5   6
ATOM      6  C   UNL     1     123.478  54.980  52.433  1.00  0.00     0.209 C 
BRANCH   6   7
ATOM      7  C   UNL     1     122.247  54.267  51.935  1.00  0.00     0.258 C 
ATOM      8  O   UNL     1     121.144  54.551  52.376  1.00  0.00    -0.300 OA
ENDBRANCH   6   7
BRANCH   6   9
ATOM      9  O   UNL     1     123.493  54.934  53.836  1.00  0.00    -0.383 OA
ATOM     10  H   UNL     1     122.554  55.043  54.139  1.00  0.00     0.211 HD
ENDBRANCH   6   9
ENDBRANCH   5   6
BRANCH   5  11
ATOM     11  O   UNL     1     122.674  56.613  50.823  1.00  0.00    -0.387 OA
ATOM     12  H   UNL     1     122.675  57.577  50.584  1.00  0.00     0.211 HD
ENDBRANCH   5  11
ENDBRANCH   1   5
BRANCH   1  13
ATOM     13  O   UNL     1     125.867  56.195  52.373  1.00  0.00    -0.388 OA
ATOM     14  H   UNL     1     126.193  55.485  51.760  1.00  0.00     0.211 HD
ENDBRANCH   1  13
TORSDOF 8
ENDMDL
MODEL 8
REMARK VINA RESULT:    -2.637     14.746     15.586
REMARK INTER + INTRA:          -4.217
REMARK INTER:                  -3.488
REMARK INTRA:                  -0.729
REMARK UNBOUND:                -0.656
REMARK SMILES O=C[C@H](O)[C@H](O)[C@H](O)CO
REMARK SMILES IDX 7 1 9 2 10 3 5 5 3 6 2 7 1 8 4 9 6 11 8 13
REMARK H PARENT 10 4 4 10 6 12 8 14
REMARK Flexibility Score: inf
ROOT
ATOM      1  C   UNL     1     124.032  50.688  44.013  1.00  0.00     0.171 C 
ENDROOT
BRANCH   1   2
ATOM      2  C   UNL     1     123.818  50.192  42.570  1.00  0.00     0.190 C 
BRANCH   2   3
ATOM      3  O   UNL     1     125.032  50.129  41.870  1.00  0.00    -0.394 OA
ATOM      4  H   UNL     1     125.653  50.762  42.318  1.00  0.00     0.210 HD
ENDBRANCH   2   3
ENDBRANCH   1   2
BRANCH   1   5
ATOM      5  C   UNL     1     124.072  52.239  44.094  1.00  0.00     0.181 C 
BRANCH   5   6
ATOM      6  C   UNL     1     125.516  52.781  44.261  1.00  0.00     0.209 C 
BRANCH   6   7
ATOM      7  C   UNL     1     125.502  54.208  44.746  1.00  0.00     0.258 C 
ATOM      8  O   UNL     1     125.468  54.458  45.941  1.00  0.00    -0.300 OA
ENDBRANCH   6   7
BRANCH   6   9
ATOM      9  O   UNL     1     126.190  52.725  43.031  1.00  0.00    -0.383 OA
ATOM     10  H   UNL     1     127.160  52.795  43.230  1.00  0.00     0.211 HD
ENDBRANCH   6   9
ENDBRANCH   5   6
BRANCH   5  11
ATOM     11  O   UNL     1     123.253  52.695  45.144  1.00  0.00    -0.387 OA
ATOM     12  H   UNL     1     123.033  51.911  45.713  1.00  0.00     0.211 HD
ENDBRANCH   5  11
ENDBRANCH   1   5
BRANCH   1  13
ATOM     13  O   UNL     1     125.229  50.153  44.516  1.00  0.00    -0.388 OA
ATOM     14  H   UNL     1     125.003  49.281  44.933  1.00  0.00     0.211 HD
ENDBRANCH   1  13
TORSDOF 8
ENDMDL
MODEL 9
REMARK VINA RESULT:    -2.589      8.568      9.868
REMARK INTER + INTRA:          -4.153
REMARK INTER:                  -3.463
REMARK INTRA:                  -0.689
REMARK UNBOUND:                -0.656
REMARK SMILES O=C[C@H](O)[C@H](O)[C@H](O)CO
REMARK SMILES IDX 7 1 9 2 10 3 5 5 3 6 2 7 1 8 4 9 6 11 8 13
REMARK H PARENT 10 4 4 10 6 12 8 14
REMARK Flexibility Score: inf
ROOT
ATOM      1  C   UNL     1     115.727  50.493  50.352  1.00  0.00     0.171 C 
ENDROOT
BRANCH   1   2
ATOM      2  C   UNL     1     114.836  49.237  50.420  1.00  0.00     0.190 C 
BRANCH   2   3
ATOM      3  O   UNL     1     113.564  49.546  50.923  1.00  0.00    -0.394 OA
ATOM      4  H   UNL     1     113.313  50.429  50.545  1.00  0.00     0.210 HD
ENDBRANCH   2   3
ENDBRANCH   1   2
BRANCH   1   5
ATOM      5  C   UNL     1     116.499  50.730  51.678  1.00  0.00     0.181 C 
BRANCH   5   6
ATOM      6  C   UNL     1     115.980  51.973  52.446  1.00  0.00     0.209 C 
BRANCH   6   7
ATOM      7  C   UNL     1     116.728  52.158  53.741  1.00  0.00     0.258 C 
ATOM      8  O   UNL     1     117.786  52.768  53.766  1.00  0.00    -0.300 OA
ENDBRANCH   6   7
BRANCH   6   9
ATOM      9  O   UNL     1     114.613  51.821  52.728  1.00  0.00    -0.383 OA
ATOM     10  H   UNL     1     114.457  52.217  53.625  1.00  0.00     0.211 HD
ENDBRANCH   6   9
ENDBRANCH   5   6
BRANCH   5  11
ATOM     11  O   UNL     1     117.879  50.851  51.426  1.00  0.00    -0.387 OA
ATOM     12  H   UNL     1     118.353  50.256  52.064  1.00  0.00     0.211 HD
ENDBRANCH   5  11
ENDBRANCH   1   5
BRANCH   1  13
ATOM     13  O   UNL     1     114.932  51.612  50.056  1.00  0.00    -0.388 OA
ATOM     14  H   UNL     1     114.341  51.763  50.840  1.00  0.00     0.211 HD
ENDBRANCH   1  13
TORSDOF 8
ENDMDL
