MODEL 1
REMARK VINA RESULT:    -2.756      0.000      0.000
REMARK INTER + INTRA:          -3.206
REMARK INTER:                  -2.998
REMARK INTRA:                  -0.208
REMARK UNBOUND:                -0.208
REMARK SMILES O=C([O-])c1ccccc1O
REMARK SMILES IDX 4 1 9 2 5 3 8 4 6 5 7 6 2 7 1 8 3 9 10 10
REMARK H PARENT 10 11
REMARK Flexibility Score: inf
ROOT
ATOM      1  C   UNL     1      -6.616 -49.913 -11.242  1.00  0.00     0.039 A 
ATOM      2  C   UNL     1      -7.011 -49.701  -9.896  1.00  0.00     0.124 A 
ATOM      3  C   UNL     1      -6.587 -48.816 -12.123  1.00  0.00     0.014 A 
ATOM      4  C   UNL     1      -7.304 -48.405  -9.455  1.00  0.00     0.047 A 
ATOM      5  C   UNL     1      -6.903 -47.532 -11.672  1.00  0.00     0.001 A 
ATOM      6  C   UNL     1      -7.250 -47.325 -10.338  1.00  0.00     0.004 A 
ENDROOT
BRANCH   1   7
ATOM      7  C   UNL     1      -6.194 -51.238 -11.747  1.00  0.00     0.075 C 
ATOM      8  O   UNL     1      -5.006 -51.423 -12.123  1.00  0.00    -0.545 OA
ATOM      9  O   UNL     1      -7.078 -52.311 -11.752  1.00  0.00    -0.545 OA
ENDBRANCH   1   7
BRANCH   2  10
ATOM     10  O   UNL     1      -7.160 -50.748  -8.983  1.00  0.00    -0.507 OA
ATOM     11  H   UNL     1      -7.609 -50.643  -8.084  1.00  0.00     0.293 HD
ENDBRANCH   2  10
TORSDOF 2
ENDMDL
MODEL 2
REMARK VINA RESULT:    -2.189      1.050      2.596
REMARK INTER + INTRA:          -2.590
REMARK INTER:                  -2.414
REMARK INTRA:                  -0.175
REMARK UNBOUND:                -0.208
REMARK SMILES O=C([O-])c1ccccc1O
REMARK SMILES IDX 4 1 9 2 5 3 8 4 6 5 7 6 2 7 1 8 3 9 10 10
REMARK H PARENT 10 11
REMARK Flexibility Score: inf
ROOT
ATOM      1  C   UNL     1      -6.802 -50.069 -10.003  1.00  0.00     0.039 A 
ATOM      2  C   UNL     1      -6.619 -50.076 -11.409  1.00  0.00     0.124 A 
ATOM      3  C   UNL     1      -7.005 -48.840  -9.349  1.00  0.00     0.014 A 
ATOM      4  C   UNL     1      -6.706 -48.876 -12.125  1.00  0.00     0.047 A 
ATOM      5  C   UNL     1      -7.067 -47.649 -10.076  1.00  0.00     0.001 A 
ATOM      6  C   UNL     1      -6.929 -47.668 -11.463  1.00  0.00     0.004 A 
ENDROOT
BRANCH   1   7
ATOM      7  C   UNL     1      -6.825 -51.311  -9.198  1.00  0.00     0.075 C 
ATOM      8  O   UNL     1      -6.631 -52.426  -9.751  1.00  0.00    -0.545 OA
ATOM      9  O   UNL     1      -6.992 -51.263  -7.819  1.00  0.00    -0.545 OA
ENDBRANCH   1   7
BRANCH   2  10
ATOM     10  O   UNL     1      -6.315 -51.239 -12.122  1.00  0.00    -0.507 OA
ATOM     11  H   UNL     1      -6.114 -51.248 -13.112  1.00  0.00     0.293 HD
ENDBRANCH   2  10
TORSDOF 2
ENDMDL
MODEL 3
REMARK VINA RESULT:    -1.935      2.153      3.498
REMARK INTER + INTRA:          -2.314
REMARK INTER:                  -2.075
REMARK INTRA:                  -0.239
REMARK UNBOUND:                -0.208
REMARK SMILES O=C([O-])c1ccccc1O
REMARK SMILES IDX 4 1 9 2 5 3 8 4 6 5 7 6 2 7 1 8 3 9 10 10
REMARK H PARENT 10 11
REMARK Flexibility Score: inf
ROOT
ATOM      1  C   UNL     1      -6.864 -49.729 -10.323  1.00  0.00     0.039 A 
ATOM      2  C   UNL     1      -6.940 -50.799  -9.394  1.00  0.00     0.124 A 
ATOM      3  C   UNL     1      -6.676 -50.024 -11.686  1.00  0.00     0.014 A 
ATOM      4  C   UNL     1      -6.889 -52.121  -9.854  1.00  0.00     0.047 A 
ATOM      5  C   UNL     1      -6.606 -51.348 -12.125  1.00  0.00     0.001 A 
ATOM      6  C   UNL     1      -6.723 -52.395 -11.212  1.00  0.00     0.004 A 
ENDROOT
BRANCH   1   7
ATOM      7  C   UNL     1      -7.014 -48.314  -9.919  1.00  0.00     0.075 C 
ATOM      8  O   UNL     1      -6.586 -47.394 -10.666  1.00  0.00    -0.545 OA
ATOM      9  O   UNL     1      -7.684 -47.976  -8.749  1.00  0.00    -0.545 OA
ENDBRANCH   1   7
BRANCH   2  10
ATOM     10  O   UNL     1      -7.027 -50.592  -8.015  1.00  0.00    -0.507 OA
ATOM     11  H   UNL     1      -7.190 -51.335  -7.351  1.00  0.00     0.293 HD
ENDBRANCH   2  10
TORSDOF 2
ENDMDL
MODEL 4
REMARK VINA RESULT:    -1.794      1.401      2.347
REMARK INTER + INTRA:          -2.160
REMARK INTER:                  -1.919
REMARK INTRA:                  -0.241
REMARK UNBOUND:                -0.208
REMARK SMILES O=C([O-])c1ccccc1O
REMARK SMILES IDX 4 1 9 2 5 3 8 4 6 5 7 6 2 7 1 8 3 9 10 10
REMARK H PARENT 10 11
REMARK Flexibility Score: inf
ROOT
ATOM      1  C   UNL     1      -6.841 -49.994 -10.016  1.00  0.00     0.039 A 
ATOM      2  C   UNL     1      -7.241 -48.696  -9.606  1.00  0.00     0.124 A 
ATOM      3  C   UNL     1      -6.269 -50.159 -11.291  1.00  0.00     0.014 A 
ATOM      4  C   UNL     1      -7.004 -47.601 -10.445  1.00  0.00     0.047 A 
ATOM      5  C   UNL     1      -6.060 -49.058 -12.125  1.00  0.00     0.001 A 
ATOM      6  C   UNL     1      -6.417 -47.779 -11.699  1.00  0.00     0.004 A 
ENDROOT
BRANCH   1   7
ATOM      7  C   UNL     1      -6.967 -51.178  -9.138  1.00  0.00     0.075 C 
ATOM      8  O   UNL     1      -6.989 -52.335  -9.636  1.00  0.00    -0.545 OA
ATOM      9  O   UNL     1      -6.994 -51.039  -7.755  1.00  0.00    -0.545 OA
ENDBRANCH   1   7
BRANCH   2  10
ATOM     10  O   UNL     1      -7.904 -48.460  -8.399  1.00  0.00    -0.507 OA
ATOM     11  H   UNL     1      -7.667 -48.926  -7.534  1.00  0.00     0.293 HD
ENDBRANCH   2  10
TORSDOF 2
ENDMDL
MODEL 5
REMARK VINA RESULT:    -1.449      1.265      2.202
REMARK INTER + INTRA:          -1.784
REMARK INTER:                  -1.535
REMARK INTRA:                  -0.249
REMARK UNBOUND:                -0.208
REMARK SMILES O=C([O-])c1ccccc1O
REMARK SMILES IDX 4 1 9 2 5 3 8 4 6 5 7 6 2 7 1 8 3 9 10 10
REMARK H PARENT 10 11
REMARK Flexibility Score: inf
ROOT
ATOM      1  C   UNL     1      -6.684 -50.031 -10.664  1.00  0.00     0.039 A 
ATOM      2  C   UNL     1      -6.489 -48.662 -10.982  1.00  0.00     0.124 A 
ATOM      3  C   UNL     1      -7.300 -50.364  -9.443  1.00  0.00     0.014 A 
ATOM      4  C   UNL     1      -6.965 -47.674 -10.112  1.00  0.00     0.047 A 
ATOM      5  C   UNL     1      -7.749 -49.365  -8.576  1.00  0.00     0.001 A 
ATOM      6  C   UNL     1      -7.591 -48.022  -8.915  1.00  0.00     0.004 A 
ENDROOT
BRANCH   1   7
ATOM      7  C   UNL     1      -6.300 -51.123 -11.584  1.00  0.00     0.075 C 
ATOM      8  O   UNL     1      -5.162 -51.123 -12.125  1.00  0.00    -0.545 OA
ATOM      9  O   UNL     1      -7.155 -52.194 -11.813  1.00  0.00    -0.545 OA
ENDBRANCH   1   7
BRANCH   2  10
ATOM     10  O   UNL     1      -5.801 -48.247 -12.125  1.00  0.00    -0.507 OA
ATOM     11  H   UNL     1      -5.169 -47.459 -12.138  1.00  0.00     0.293 HD
ENDBRANCH   2  10
TORSDOF 2
ENDMDL
MODEL 6
REMARK VINA RESULT:    -1.342      2.314      3.407
REMARK INTER + INTRA:          -1.668
REMARK INTER:                  -1.533
REMARK INTRA:                  -0.135
REMARK UNBOUND:                -0.208
REMARK SMILES O=C([O-])c1ccccc1O
REMARK SMILES IDX 4 1 9 2 5 3 8 4 6 5 7 6 2 7 1 8 3 9 10 10
REMARK H PARENT 10 11
REMARK Flexibility Score: inf
ROOT
ATOM      1  C   UNL     1      -6.603 -49.134 -11.298  1.00  0.00     0.039 A 
ATOM      2  C   UNL     1      -6.999 -49.342  -9.951  1.00  0.00     0.124 A 
ATOM      3  C   UNL     1      -6.373 -50.252 -12.120  1.00  0.00     0.014 A 
ATOM      4  C   UNL     1      -7.213 -50.645  -9.486  1.00  0.00     0.047 A 
ATOM      5  C   UNL     1      -6.571 -51.547 -11.633  1.00  0.00     0.001 A 
ATOM      6  C   UNL     1      -7.000 -51.743 -10.321  1.00  0.00     0.004 A 
ENDROOT
BRANCH   1   7
ATOM      7  C   UNL     1      -6.459 -47.783 -11.883  1.00  0.00     0.075 C 
ATOM      8  O   UNL     1      -7.480 -47.081 -12.113  1.00  0.00    -0.545 OA
ATOM      9  O   UNL     1      -5.202 -47.243 -12.125  1.00  0.00    -0.545 OA
ENDBRANCH   1   7
BRANCH   2  10
ATOM     10  O   UNL     1      -7.152 -48.293  -9.042  1.00  0.00    -0.507 OA
ATOM     11  H   UNL     1      -6.807 -47.358  -9.208  1.00  0.00     0.293 HD
ENDBRANCH   2  10
TORSDOF 2
ENDMDL
MODEL 7
REMARK VINA RESULT:    -1.138      2.182      3.556
REMARK INTER + INTRA:          -1.446
REMARK INTER:                  -1.367
REMARK INTRA:                  -0.079
REMARK UNBOUND:                -0.208
REMARK SMILES O=C([O-])c1ccccc1O
REMARK SMILES IDX 4 1 9 2 5 3 8 4 6 5 7 6 2 7 1 8 3 9 10 10
REMARK H PARENT 10 11
REMARK Flexibility Score: inf
ROOT
ATOM      1  C   UNL     1      -6.849 -49.588 -10.506  1.00  0.00     0.039 A 
ATOM      2  C   UNL     1      -6.552 -50.937 -10.827  1.00  0.00     0.124 A 
ATOM      3  C   UNL     1      -7.252 -49.273  -9.195  1.00  0.00     0.014 A 
ATOM      4  C   UNL     1      -6.604 -51.915  -9.826  1.00  0.00     0.047 A 
ATOM      5  C   UNL     1      -7.320 -50.265  -8.214  1.00  0.00     0.001 A 
ATOM      6  C   UNL     1      -6.986 -51.582  -8.526  1.00  0.00     0.004 A 
ENDROOT
BRANCH   1   7
ATOM      7  C   UNL     1      -6.714 -48.489 -11.489  1.00  0.00     0.075 C 
ATOM      8  O   UNL     1      -7.725 -48.071 -12.112  1.00  0.00    -0.545 OA
ATOM      9  O   UNL     1      -5.491 -47.860 -11.688  1.00  0.00    -0.545 OA
ENDBRANCH   1   7
BRANCH   2  10
ATOM     10  O   UNL     1      -6.240 -51.350 -12.125  1.00  0.00    -0.507 OA
ATOM     11  H   UNL     1      -6.845 -51.195 -12.919  1.00  0.00     0.293 HD
ENDBRANCH   2  10
TORSDOF 2
ENDMDL
MODEL 8
REMARK VINA RESULT:    -0.011      2.211      4.013
REMARK INTER + INTRA:          -0.221
REMARK INTER:                  -0.045
REMARK INTRA:                  -0.175
REMARK UNBOUND:                -0.208
REMARK SMILES O=C([O-])c1ccccc1O
REMARK SMILES IDX 4 1 9 2 5 3 8 4 6 5 7 6 2 7 1 8 3 9 10 10
REMARK H PARENT 10 11
REMARK Flexibility Score: inf
ROOT
ATOM      1  C   UNL     1      -7.086 -49.516 -10.029  1.00  0.00     0.039 A 
ATOM      2  C   UNL     1      -6.627 -49.344 -11.359  1.00  0.00     0.124 A 
ATOM      3  C   UNL     1      -7.249 -50.822  -9.528  1.00  0.00     0.014 A 
ATOM      4  C   UNL     1      -6.285 -50.465 -12.125  1.00  0.00     0.047 A 
ATOM      5  C   UNL     1      -6.923 -51.930 -10.314  1.00  0.00     0.001 A 
ATOM      6  C   UNL     1      -6.432 -51.752 -11.606  1.00  0.00     0.004 A 
ENDROOT
BRANCH   1   7
ATOM      7  C   UNL     1      -7.367 -48.374  -9.131  1.00  0.00     0.075 C 
ATOM      8  O   UNL     1      -6.429 -47.622  -8.753  1.00  0.00    -0.545 OA
ATOM      9  O   UNL     1      -8.668 -48.074  -8.747  1.00  0.00    -0.545 OA
ENDBRANCH   1   7
BRANCH   2  10
ATOM     10  O   UNL     1      -6.531 -48.088 -11.965  1.00  0.00    -0.507 OA
ATOM     11  H   UNL     1      -7.313 -47.455 -12.059  1.00  0.00     0.293 HD
ENDBRANCH   2  10
TORSDOF 2
ENDMDL
