MODEL 1
REMARK VINA RESULT:     2.480      0.000      0.000
REMARK INTER + INTRA:           3.632
REMARK INTER:                   3.350
REMARK INTRA:                   0.282
REMARK UNBOUND:                 0.282
REMARK SMILES O=c1c(-c2ccc(O)cc2)coc2c([C@@H]3O[C@H](CO)[C@H](O)[C@H](O)[C@@H]3O)c(O)ccc12
REMARK SMILES IDX 3 1 11 2 12 3 13 4 30 5 2 6 1 7 29 8 28 9 26 10 14 11 4 12
REMARK SMILES IDX 5 13 6 14 7 15 10 16 9 17 8 18 15 20 24 21 16 22 22 23 17 24
REMARK SMILES IDX 20 25 25 26 23 28 18 30 19 31 21 33 27 35
REMARK H PARENT 8 19 25 27 23 29 19 32 21 34 27 36
REMARK Flexibility Score: inf
ROOT
ATOM      1  C   UNL     1      22.138  26.194  27.389  1.00  0.00     0.065 A 
ATOM      2  C   UNL     1      23.412  25.615  27.315  1.00  0.00     0.208 A 
ATOM      3  O   UNL     1      24.440  26.142  27.969  1.00  0.00    -0.463 OA
ATOM      4  C   UNL     1      24.341  27.231  28.726  1.00  0.00     0.147 A 
ATOM      5  C   UNL     1      23.091  27.881  28.857  1.00  0.00     0.066 A 
ATOM      6  C   UNL     1      21.979  27.344  28.183  1.00  0.00     0.200 A 
ATOM      7  O   UNL     1      20.842  27.879  28.306  1.00  0.00    -0.288 OA
ATOM      8  C   UNL     1      22.990  29.036  29.645  1.00  0.00     0.020 A 
ATOM      9  C   UNL     1      24.118  29.553  30.281  1.00  0.00     0.047 A 
ATOM     10  C   UNL     1      25.362  28.922  30.155  1.00  0.00     0.125 A 
ATOM     11  C   UNL     1      25.482  27.734  29.394  1.00  0.00     0.069 A 
ENDROOT
BRANCH   1  12
ATOM     12  C   UNL     1      21.005  25.590  26.644  1.00  0.00    -0.011 A 
ATOM     13  C   UNL     1      21.215  24.465  25.827  1.00  0.00     0.013 A 
ATOM     14  C   UNL     1      20.152  23.899  25.116  1.00  0.00     0.047 A 
ATOM     15  C   UNL     1      18.870  24.451  25.208  1.00  0.00     0.115 A 
ATOM     16  C   UNL     1      19.715  26.144  26.727  1.00  0.00     0.013 A 
ATOM     17  C   UNL     1      18.655  25.576  26.015  1.00  0.00     0.047 A 
BRANCH  15  18
ATOM     18  O   UNL     1      17.821  23.877  24.495  1.00  0.00    -0.508 OA
ATOM     19  H   UNL     1      17.142  23.275  24.945  1.00  0.00     0.293 HD
ENDBRANCH  15  18
ENDBRANCH   1  12
BRANCH  11  20
ATOM     20  C   UNL     1      26.826  27.037  29.222  1.00  0.00     0.188 C 
ATOM     21  C   UNL     1      26.920  25.791  30.136  1.00  0.00     0.179 C 
ATOM     22  O   UNL     1      27.032  26.685  27.862  1.00  0.00    -0.362 OA
ATOM     23  C   UNL     1      28.284  25.103  29.926  1.00  0.00     0.177 C 
ATOM     24  C   UNL     1      28.348  26.197  27.662  1.00  0.00     0.176 C 
ATOM     25  C   UNL     1      28.557  24.870  28.430  1.00  0.00     0.177 C 
BRANCH  21  26
ATOM     26  O   UNL     1      25.884  24.884  29.850  1.00  0.00    -0.387 OA
ATOM     27  H   UNL     1      25.382  25.248  29.076  1.00  0.00     0.211 HD
ENDBRANCH  21  26
BRANCH  23  28
ATOM     28  O   UNL     1      28.329  23.878  30.613  1.00  0.00    -0.387 OA
ATOM     29  H   UNL     1      28.802  24.047  31.470  1.00  0.00     0.211 HD
ENDBRANCH  23  28
BRANCH  24  30
ATOM     30  C   UNL     1      28.593  26.015  26.157  1.00  0.00     0.191 C 
BRANCH  30  31
ATOM     31  O   UNL     1      27.378  25.823  25.484  1.00  0.00    -0.394 OA
ATOM     32  H   UNL     1      27.441  24.947  25.023  1.00  0.00     0.210 HD
ENDBRANCH  30  31
ENDBRANCH  24  30
BRANCH  25  33
ATOM     33  O   UNL     1      27.691  23.875  27.939  1.00  0.00    -0.388 OA
ATOM     34  H   UNL     1      28.234  23.054  27.809  1.00  0.00     0.211 HD
ENDBRANCH  25  33
ENDBRANCH  11  20
BRANCH  10  35
ATOM     35  O   UNL     1      26.475  29.484  30.779  1.00  0.00    -0.507 OA
ATOM     36  H   UNL     1      26.532  30.476  30.977  1.00  0.00     0.293 HD
ENDBRANCH  10  35
TORSDOF 9
ENDMDL
MODEL 2
REMARK VINA RESULT:     3.476      1.742      3.119
REMARK INTER + INTRA:           4.978
REMARK INTER:                   5.433
REMARK INTRA:                  -0.455
REMARK UNBOUND:                 0.282
REMARK SMILES O=c1c(-c2ccc(O)cc2)coc2c([C@@H]3O[C@H](CO)[C@H](O)[C@H](O)[C@@H]3O)c(O)ccc12
REMARK SMILES IDX 3 1 11 2 12 3 13 4 30 5 2 6 1 7 29 8 28 9 26 10 14 11 4 12
REMARK SMILES IDX 5 13 6 14 7 15 10 16 9 17 8 18 15 20 24 21 16 22 22 23 17 24
REMARK SMILES IDX 20 25 25 26 23 28 18 30 19 31 21 33 27 35
REMARK H PARENT 8 19 25 27 23 29 19 32 21 34 27 36
REMARK Flexibility Score: inf
ROOT
ATOM      1  C   UNL     1      20.984  24.921  25.512  1.00  0.00     0.065 A 
ATOM      2  C   UNL     1      22.132  24.117  25.514  1.00  0.00     0.208 A 
ATOM      3  O   UNL     1      23.131  24.355  26.356  1.00  0.00    -0.463 OA
ATOM      4  C   UNL     1      23.117  25.349  27.239  1.00  0.00     0.147 A 
ATOM      5  C   UNL     1      21.997  26.211  27.306  1.00  0.00     0.066 A 
ATOM      6  C   UNL     1      20.919  25.982  26.433  1.00  0.00     0.200 A 
ATOM      7  O   UNL     1      19.889  26.712  26.489  1.00  0.00    -0.288 OA
ATOM      8  C   UNL     1      21.990  27.267  28.229  1.00  0.00     0.020 A 
ATOM      9  C   UNL     1      23.086  27.478  29.064  1.00  0.00     0.047 A 
ATOM     10  C   UNL     1      24.202  26.635  29.003  1.00  0.00     0.125 A 
ATOM     11  C   UNL     1      24.219  25.540  28.105  1.00  0.00     0.069 A 
ENDROOT
BRANCH   1  12
ATOM     12  C   UNL     1      19.884  24.638  24.557  1.00  0.00    -0.011 A 
ATOM     13  C   UNL     1      20.056  24.885  23.184  1.00  0.00     0.013 A 
ATOM     14  C   UNL     1      19.018  24.628  22.282  1.00  0.00     0.047 A 
ATOM     15  C   UNL     1      17.796  24.127  22.741  1.00  0.00     0.115 A 
ATOM     16  C   UNL     1      18.650  24.140  25.012  1.00  0.00     0.013 A 
ATOM     17  C   UNL     1      17.614  23.885  24.109  1.00  0.00     0.047 A 
BRANCH  15  18
ATOM     18  O   UNL     1      16.771  23.875  21.832  1.00  0.00    -0.508 OA
ATOM     19  H   UNL     1      15.926  24.433  21.819  1.00  0.00     0.293 HD
ENDBRANCH  15  18
ENDBRANCH   1  12
BRANCH  11  20
ATOM     20  C   UNL     1      25.429  24.619  28.003  1.00  0.00     0.188 C 
ATOM     21  C   UNL     1      26.151  24.810  26.647  1.00  0.00     0.179 C 
ATOM     22  O   UNL     1      26.317  24.843  29.088  1.00  0.00    -0.362 OA
ATOM     23  C   UNL     1      27.376  23.875  26.583  1.00  0.00     0.177 C 
ATOM     24  C   UNL     1      27.353  23.875  29.098  1.00  0.00     0.176 C 
ATOM     25  C   UNL     1      28.246  24.023  27.843  1.00  0.00     0.177 C 
BRANCH  21  26
ATOM     26  O   UNL     1      26.566  26.144  26.487  1.00  0.00    -0.387 OA
ATOM     27  H   UNL     1      27.120  26.374  27.278  1.00  0.00     0.211 HD
ENDBRANCH  21  26
BRANCH  23  28
ATOM     28  O   UNL     1      28.146  24.149  25.440  1.00  0.00    -0.387 OA
ATOM     29  H   UNL     1      28.653  24.981  25.629  1.00  0.00     0.211 HD
ENDBRANCH  23  28
BRANCH  24  30
ATOM     30  C   UNL     1      28.172  24.030  30.388  1.00  0.00     0.191 C 
BRANCH  30  31
ATOM     31  O   UNL     1      27.537  24.920  31.266  1.00  0.00    -0.394 OA
ATOM     32  H   UNL     1      26.584  24.962  30.991  1.00  0.00     0.210 HD
ENDBRANCH  30  31
ENDBRANCH  24  30
BRANCH  25  33
ATOM     33  O   UNL     1      28.883  25.277  27.836  1.00  0.00    -0.388 OA
ATOM     34  H   UNL     1      28.169  25.967  27.874  1.00  0.00     0.211 HD
ENDBRANCH  25  33
ENDBRANCH  11  20
BRANCH  10  35
ATOM     35  O   UNL     1      25.295  26.894  29.831  1.00  0.00    -0.507 OA
ATOM     36  H   UNL     1      25.519  27.832  30.140  1.00  0.00     0.293 HD
ENDBRANCH  10  35
TORSDOF 9
ENDMDL
