MODEL 1
REMARK VINA RESULT:    -2.800      0.000      0.000
REMARK INTER + INTRA:          -4.121
REMARK INTER:                  -3.946
REMARK INTRA:                  -0.175
REMARK UNBOUND:                -0.175
REMARK SMILES CC1=CCC(=C(C)C)C(=O)CC(C)=CCC1
REMARK SMILES IDX 12 1 14 2 13 3 15 4 16 5 2 6 1 7 3 8 11 10 9 11 10 12 5 13
REMARK SMILES IDX 6 14 7 15 8 16 4 17
REMARK H PARENT
REMARK Flexibility Score: 60.00
ROOT
ATOM      1  C   UNL     1     187.683 201.425 213.172  1.00  0.00    -0.070 C 
ATOM      2  C   UNL     1     186.934 202.048 212.232  1.00  0.00    -0.027 C 
ATOM      3  C   UNL     1     188.697 202.245 213.928  1.00  0.00     0.039 C 
ENDROOT
BRANCH   2   4
ATOM      4  C   UNL     1     185.781 201.419 211.491  1.00  0.00     0.032 C 
BRANCH   4   5
ATOM      5  C   UNL     1     186.260 200.895 210.133  1.00  0.00     0.034 C 
BRANCH   5   6
ATOM      6  C   UNL     1     185.713 199.517 209.818  1.00  0.00    -0.077 C 
ATOM      7  C   UNL     1     184.283 199.396 209.353  1.00  0.00     0.039 C 
ATOM      8  C   UNL     1     186.416 198.371 210.000  1.00  0.00    -0.023 CG0
ATOM      9  G   UNL     1     187.875 198.237 210.399  1.00  0.00     0.000 G0
ENDBRANCH   5   6
ENDBRANCH   4   5
ENDBRANCH   2   4
BRANCH   1  10
ATOM     10  C   UNL     1     187.567 199.947 213.487  1.00  0.00     0.111 C 
BRANCH  10  11
ATOM     11  C   UNL     1     188.570 199.126 212.713  1.00  0.00     0.163 C 
ATOM     12  O   UNL     1     189.780 199.478 212.790  1.00  0.00    -0.294 OA
BRANCH  11  13
ATOM     13  C   UNL     1     188.204 197.951 211.854  1.00  0.00    -0.002 C 
ATOM     14  C   UNL     1     188.309 196.676 212.340  1.00  0.00    -0.069 C 
ATOM     15  C   UNL     1     188.516 196.406 213.813  1.00  0.00     0.039 C 
ATOM     16  C   UNL     1     188.175 195.464 211.446  1.00  0.00     0.039 C 
BRANCH  13  17
ATOM     17  C   UNL     1     187.891 198.213 210.386  1.00  0.00     0.066 CG0
ATOM     18  G   UNL     1     186.423 198.334 210.018  1.00  0.00     0.000 G0
ENDBRANCH  13  17
ENDBRANCH  11  13
ENDBRANCH  10  11
ENDBRANCH   1  10
TORSDOF 0
ENDMDL
MODEL 2
REMARK VINA RESULT:    -2.591      2.305      4.240
REMARK INTER + INTRA:          -3.826
REMARK INTER:                  -4.253
REMARK INTRA:                   0.426
REMARK UNBOUND:                -0.175
REMARK SMILES CC1=CCC(=C(C)C)C(=O)CC(C)=CCC1
REMARK SMILES IDX 12 1 14 2 13 3 15 4 16 5 2 6 1 7 3 8 11 10 9 11 10 12 5 13
REMARK SMILES IDX 6 14 7 15 8 16 4 17
REMARK H PARENT
REMARK Flexibility Score: 60.00
ROOT
ATOM      1  C   UNL     1     187.238 200.423 213.492  1.00  0.00    -0.070 C 
ATOM      2  C   UNL     1     185.942 200.694 213.213  1.00  0.00    -0.027 C 
ATOM      3  C   UNL     1     187.594 199.022 213.916  1.00  0.00     0.039 C 
ENDROOT
BRANCH   2   4
ATOM      4  C   UNL     1     185.436 201.993 212.637  1.00  0.00     0.032 C 
BRANCH   4   5
ATOM      5  C   UNL     1     184.768 201.736 211.282  1.00  0.00     0.034 C 
BRANCH   5   6
ATOM      6  C   UNL     1     185.649 200.938 210.343  1.00  0.00    -0.077 C 
ATOM      7  C   UNL     1     185.165 199.591 209.866  1.00  0.00     0.039 C 
ATOM      8  C   UNL     1     186.890 201.334 209.960  1.00  0.00    -0.023 CG0
ATOM      9  G   UNL     1     187.567 202.660 210.257  1.00  0.00     0.000 G0
ENDBRANCH   5   6
ENDBRANCH   4   5
ENDBRANCH   2   4
BRANCH   1  10
ATOM     10  C   UNL     1     188.342 201.459 213.417  1.00  0.00     0.111 C 
BRANCH  10  11
ATOM     11  C   UNL     1     189.002 201.481 212.059  1.00  0.00     0.163 C 
ATOM     12  O   UNL     1     189.728 200.493 211.759  1.00  0.00    -0.294 OA
BRANCH  11  13
ATOM     13  C   UNL     1     188.860 202.609 211.079  1.00  0.00    -0.002 C 
ATOM     14  C   UNL     1     189.772 203.629 211.058  1.00  0.00    -0.069 C 
ATOM     15  C   UNL     1     191.086 203.531 211.799  1.00  0.00     0.039 C 
ATOM     16  C   UNL     1     189.544 204.891 210.255  1.00  0.00     0.039 C 
BRANCH  13  17
ATOM     17  C   UNL     1     187.586 202.671 210.246  1.00  0.00     0.066 CG0
ATOM     18  G   UNL     1     186.894 201.348 209.968  1.00  0.00     0.000 G0
ENDBRANCH  13  17
ENDBRANCH  11  13
ENDBRANCH  10  11
ENDBRANCH   1  10
TORSDOF 0
ENDMDL
MODEL 3
REMARK VINA RESULT:    -2.425      1.979      3.235
REMARK INTER + INTRA:          -3.592
REMARK INTER:                  -3.706
REMARK INTRA:                   0.114
REMARK UNBOUND:                -0.175
REMARK SMILES CC1=CCC(=C(C)C)C(=O)CC(C)=CCC1
REMARK SMILES IDX 12 1 14 2 13 3 15 4 16 5 2 6 1 7 3 8 11 10 9 11 10 12 5 13
REMARK SMILES IDX 6 14 7 15 8 16 4 17
REMARK H PARENT
REMARK Flexibility Score: 60.00
ROOT
ATOM      1  C   UNL     1     185.837 201.476 212.011  1.00  0.00    -0.070 C 
ATOM      2  C   UNL     1     185.079 200.521 211.423  1.00  0.00    -0.027 C 
ATOM      3  C   UNL     1     185.686 201.686 213.495  1.00  0.00     0.039 C 
ENDROOT
BRANCH   2   4
ATOM      4  C   UNL     1     185.208 200.080 209.986  1.00  0.00     0.032 C 
BRANCH   4   5
ATOM      5  C   UNL     1     185.892 198.710 209.922  1.00  0.00     0.034 C 
BRANCH   5   6
ATOM      6  C   UNL     1     187.278 198.783 209.315  1.00  0.00    -0.077 C 
ATOM      7  C   UNL     1     187.424 198.605 207.824  1.00  0.00     0.039 C 
ATOM      8  C   UNL     1     188.412 198.926 210.047  1.00  0.00    -0.023 CG0
ATOM      9  G   UNL     1     188.520 199.178 211.540  1.00  0.00     0.000 G0
ENDBRANCH   5   6
ENDBRANCH   4   5
ENDBRANCH   2   4
BRANCH   1  10
ATOM     10  C   UNL     1     186.812 202.353 211.251  1.00  0.00     0.111 C 
BRANCH  10  11
ATOM     11  C   UNL     1     188.161 201.694 211.099  1.00  0.00     0.163 C 
ATOM     12  O   UNL     1     188.878 202.072 210.131  1.00  0.00    -0.294 OA
BRANCH  11  13
ATOM     13  C   UNL     1     188.672 200.615 212.009  1.00  0.00    -0.002 C 
ATOM     14  C   UNL     1     189.389 200.934 213.130  1.00  0.00    -0.069 C 
ATOM     15  C   UNL     1     189.454 202.352 213.650  1.00  0.00     0.039 C 
ATOM     16  C   UNL     1     190.115 199.885 213.943  1.00  0.00     0.039 C 
BRANCH  13  17
ATOM     17  C   UNL     1     188.524 199.169 211.551  1.00  0.00     0.066 CG0
ATOM     18  G   UNL     1     188.391 198.942 210.056  1.00  0.00     0.000 G0
ENDBRANCH  13  17
ENDBRANCH  11  13
ENDBRANCH  10  11
ENDBRANCH   1  10
TORSDOF 0
ENDMDL
MODEL 4
REMARK VINA RESULT:    -2.410      2.269      3.651
REMARK INTER + INTRA:          -3.572
REMARK INTER:                  -3.656
REMARK INTRA:                   0.084
REMARK UNBOUND:                -0.175
REMARK SMILES CC1=CCC(=C(C)C)C(=O)CC(C)=CCC1
REMARK SMILES IDX 12 1 14 2 13 3 15 4 16 5 2 6 1 7 3 8 11 10 9 11 10 12 5 13
REMARK SMILES IDX 6 14 7 15 8 16 4 17
REMARK H PARENT
REMARK Flexibility Score: 60.00
ROOT
ATOM      1  C   UNL     1     188.389 202.051 209.644  1.00  0.00    -0.070 C 
ATOM      2  C   UNL     1     187.724 201.842 208.485  1.00  0.00    -0.027 C 
ATOM      3  C   UNL     1     188.461 203.460 210.176  1.00  0.00     0.039 C 
ENDROOT
BRANCH   2   4
ATOM      4  C   UNL     1     187.431 200.487 207.891  1.00  0.00     0.032 C 
BRANCH   4   5
ATOM      5  C   UNL     1     185.941 200.162 208.047  1.00  0.00     0.034 C 
BRANCH   5   6
ATOM      6  C   UNL     1     185.689 199.089 209.086  1.00  0.00    -0.077 C 
ATOM      7  C   UNL     1     185.580 197.654 208.632  1.00  0.00     0.039 C 
ATOM      8  C   UNL     1     185.480 199.350 210.402  1.00  0.00    -0.023 CG0
ATOM      9  G   UNL     1     185.593 200.692 211.103  1.00  0.00     0.000 G0
ENDBRANCH   5   6
ENDBRANCH   4   5
ENDBRANCH   2   4
BRANCH   1  10
ATOM     10  C   UNL     1     189.078 200.948 210.423  1.00  0.00     0.111 C 
BRANCH  10  11
ATOM     11  C   UNL     1     188.149 200.299 211.421  1.00  0.00     0.163 C 
ATOM     12  O   UNL     1     188.465 199.150 211.834  1.00  0.00    -0.294 OA
BRANCH  11  13
ATOM     13  C   UNL     1     186.882 200.932 211.918  1.00  0.00    -0.002 C 
ATOM     14  C   UNL     1     186.849 201.558 213.135  1.00  0.00    -0.069 C 
ATOM     15  C   UNL     1     188.117 201.887 213.890  1.00  0.00     0.039 C 
ATOM     16  C   UNL     1     185.551 202.001 213.773  1.00  0.00     0.039 C 
BRANCH  13  17
ATOM     17  C   UNL     1     185.608 200.699 211.115  1.00  0.00     0.066 CG0
ATOM     18  G   UNL     1     185.498 199.369 210.391  1.00  0.00     0.000 G0
ENDBRANCH  13  17
ENDBRANCH  11  13
ENDBRANCH  10  11
ENDBRANCH   1  10
TORSDOF 0
ENDMDL
MODEL 5
REMARK VINA RESULT:    -2.290      1.938      4.019
REMARK INTER + INTRA:          -3.402
REMARK INTER:                  -3.358
REMARK INTRA:                  -0.044
REMARK UNBOUND:                -0.175
REMARK SMILES CC1=CCC(=C(C)C)C(=O)CC(C)=CCC1
REMARK SMILES IDX 12 1 14 2 13 3 15 4 16 5 2 6 1 7 3 8 11 10 9 11 10 12 5 13
REMARK SMILES IDX 6 14 7 15 8 16 4 17
REMARK H PARENT
REMARK Flexibility Score: 60.00
ROOT
ATOM      1  C   UNL     1     185.013 199.184 210.042  1.00  0.00    -0.070 C 
ATOM      2  C   UNL     1     184.683 200.037 211.040  1.00  0.00    -0.027 C 
ATOM      3  C   UNL     1     183.924 198.326 209.453  1.00  0.00     0.039 C 
ENDROOT
BRANCH   2   4
ATOM      4  C   UNL     1     185.609 201.065 211.638  1.00  0.00     0.032 C 
BRANCH   4   5
ATOM      5  C   UNL     1     186.011 200.641 213.055  1.00  0.00     0.034 C 
BRANCH   5   6
ATOM      6  C   UNL     1     187.508 200.709 213.278  1.00  0.00    -0.077 C 
ATOM      7  C   UNL     1     188.106 201.999 213.781  1.00  0.00     0.039 C 
ATOM      8  C   UNL     1     188.358 199.694 212.981  1.00  0.00    -0.023 CG0
ATOM      9  G   UNL     1     187.996 198.293 212.522  1.00  0.00     0.000 G0
ENDBRANCH   5   6
ENDBRANCH   4   5
ENDBRANCH   2   4
BRANCH   1  10
ATOM     10  C   UNL     1     186.422 199.037 209.503  1.00  0.00     0.111 C 
BRANCH  10  11
ATOM     11  C   UNL     1     187.134 197.850 210.106  1.00  0.00     0.163 C 
ATOM     12  O   UNL     1     186.696 196.705 209.806  1.00  0.00    -0.294 OA
BRANCH  11  13
ATOM     13  C   UNL     1     188.299 197.963 211.046  1.00  0.00    -0.002 C 
ATOM     14  C   UNL     1     189.561 197.636 210.630  1.00  0.00    -0.069 C 
ATOM     15  C   UNL     1     189.882 197.429 209.167  1.00  0.00     0.039 C 
ATOM     16  C   UNL     1     190.717 197.514 211.597  1.00  0.00     0.039 C 
BRANCH  13  17
ATOM     17  C   UNL     1     188.006 198.275 212.509  1.00  0.00     0.066 CG0
ATOM     18  G   UNL     1     188.347 199.675 212.984  1.00  0.00     0.000 G0
ENDBRANCH  13  17
ENDBRANCH  11  13
ENDBRANCH  10  11
ENDBRANCH   1  10
TORSDOF 0
ENDMDL
MODEL 6
REMARK VINA RESULT:    -2.225      2.565      3.809
REMARK INTER + INTRA:          -3.310
REMARK INTER:                  -3.243
REMARK INTRA:                  -0.067
REMARK UNBOUND:                -0.175
REMARK SMILES CC1=CCC(=C(C)C)C(=O)CC(C)=CCC1
REMARK SMILES IDX 12 1 14 2 13 3 15 4 16 5 2 6 1 7 3 8 11 10 9 11 10 12 5 13
REMARK SMILES IDX 6 14 7 15 8 16 4 17
REMARK H PARENT
REMARK Flexibility Score: 60.00
ROOT
ATOM      1  C   UNL     1     190.635 202.616 212.326  1.00  0.00    -0.070 C 
ATOM      2  C   UNL     1     191.008 202.622 211.025  1.00  0.00    -0.027 C 
ATOM      3  C   UNL     1     191.705 202.419 213.369  1.00  0.00     0.039 C 
ENDROOT
BRANCH   2   4
ATOM      4  C   UNL     1     190.098 202.950 209.868  1.00  0.00     0.032 C 
BRANCH   4   5
ATOM      5  C   UNL     1     189.853 201.693 209.026  1.00  0.00     0.034 C 
BRANCH   5   6
ATOM      6  C   UNL     1     188.389 201.496 208.691  1.00  0.00    -0.077 C 
ATOM      7  C   UNL     1     187.861 202.062 207.396  1.00  0.00     0.039 C 
ATOM      8  C   UNL     1     187.501 200.899 209.526  1.00  0.00    -0.023 CG0
ATOM      9  G   UNL     1     187.797 200.207 210.844  1.00  0.00     0.000 G0
ENDBRANCH   5   6
ENDBRANCH   4   5
ENDBRANCH   2   4
BRANCH   1  10
ATOM     10  C   UNL     1     189.199 202.779 212.783  1.00  0.00     0.111 C 
BRANCH  10  11
ATOM     11  C   UNL     1     188.520 201.446 212.988  1.00  0.00     0.163 C 
ATOM     12  O   UNL     1     188.938 200.729 213.938  1.00  0.00    -0.294 OA
BRANCH  11  13
ATOM     13  C   UNL     1     187.409 200.933 212.119  1.00  0.00    -0.002 C 
ATOM     14  C   UNL     1     186.109 200.997 212.543  1.00  0.00    -0.069 C 
ATOM     15  C   UNL     1     185.709 201.824 213.743  1.00  0.00     0.039 C 
ATOM     16  C   UNL     1     184.991 200.288 211.811  1.00  0.00     0.039 C 
BRANCH  13  17
ATOM     17  C   UNL     1     187.789 200.183 210.848  1.00  0.00     0.066 CG0
ATOM     18  G   UNL     1     187.506 200.890 209.535  1.00  0.00     0.000 G0
ENDBRANCH  13  17
ENDBRANCH  11  13
ENDBRANCH  10  11
ENDBRANCH   1  10
TORSDOF 0
ENDMDL
MODEL 7
REMARK VINA RESULT:    -2.204      2.328      3.866
REMARK INTER + INTRA:          -3.281
REMARK INTER:                  -3.353
REMARK INTRA:                   0.072
REMARK UNBOUND:                -0.175
REMARK SMILES CC1=CCC(=C(C)C)C(=O)CC(C)=CCC1
REMARK SMILES IDX 12 1 14 2 13 3 15 4 16 5 2 6 1 7 3 8 11 10 9 11 10 12 5 13
REMARK SMILES IDX 6 14 7 15 8 16 4 17
REMARK H PARENT
REMARK Flexibility Score: 60.00
ROOT
ATOM      1  C   UNL     1     188.326 201.020 208.863  1.00  0.00    -0.070 C 
ATOM      2  C   UNL     1     188.713 201.896 209.818  1.00  0.00    -0.027 C 
ATOM      3  C   UNL     1     189.386 200.176 208.202  1.00  0.00     0.039 C 
ENDROOT
BRANCH   2   4
ATOM      4  C   UNL     1     187.776 202.706 210.678  1.00  0.00     0.032 C 
BRANCH   4   5
ATOM      5  C   UNL     1     187.706 202.100 212.084  1.00  0.00     0.034 C 
BRANCH   5   6
ATOM      6  C   UNL     1     186.382 201.414 212.353  1.00  0.00    -0.077 C 
ATOM      7  C   UNL     1     185.260 202.220 212.958  1.00  0.00     0.039 C 
ATOM      8  C   UNL     1     186.167 200.089 212.148  1.00  0.00    -0.023 CG0
ATOM      9  G   UNL     1     187.111 199.092 211.502  1.00  0.00     0.000 G0
ENDBRANCH   5   6
ENDBRANCH   4   5
ENDBRANCH   2   4
BRANCH   1  10
ATOM     10  C   UNL     1     186.888 200.858 208.412  1.00  0.00     0.111 C 
BRANCH  10  11
ATOM     11  C   UNL     1     186.168 199.790 209.201  1.00  0.00     0.163 C 
ATOM     12  O   UNL     1     184.907 199.799 209.158  1.00  0.00    -0.294 OA
BRANCH  11  13
ATOM     13  C   UNL     1     186.864 198.755 210.036  1.00  0.00    -0.002 C 
ATOM     14  C   UNL     1     187.128 197.514 209.525  1.00  0.00    -0.069 C 
ATOM     15  C   UNL     1     186.998 197.223 208.047  1.00  0.00     0.039 C 
ATOM     16  C   UNL     1     187.613 196.375 210.395  1.00  0.00     0.039 C 
BRANCH  13  17
ATOM     17  C   UNL     1     187.099 199.070 211.508  1.00  0.00     0.066 CG0
ATOM     18  G   UNL     1     186.180 200.104 212.134  1.00  0.00     0.000 G0
ENDBRANCH  13  17
ENDBRANCH  11  13
ENDBRANCH  10  11
ENDBRANCH   1  10
TORSDOF 0
ENDMDL
MODEL 8
REMARK VINA RESULT:    -2.191      2.590      4.316
REMARK INTER + INTRA:          -3.262
REMARK INTER:                  -3.360
REMARK INTRA:                   0.098
REMARK UNBOUND:                -0.175
REMARK SMILES CC1=CCC(=C(C)C)C(=O)CC(C)=CCC1
REMARK SMILES IDX 12 1 14 2 13 3 15 4 16 5 2 6 1 7 3 8 11 10 9 11 10 12 5 13
REMARK SMILES IDX 6 14 7 15 8 16 4 17
REMARK H PARENT
REMARK Flexibility Score: 60.00
ROOT
ATOM      1  C   UNL     1     185.446 201.037 211.517  1.00  0.00    -0.070 C 
ATOM      2  C   UNL     1     186.212 202.126 211.755  1.00  0.00    -0.027 C 
ATOM      3  C   UNL     1     184.010 201.254 211.115  1.00  0.00     0.039 C 
ENDROOT
BRANCH   2   4
ATOM      4  C   UNL     1     187.696 202.096 212.022  1.00  0.00     0.032 C 
BRANCH   4   5
ATOM      5  C   UNL     1     188.461 202.454 210.743  1.00  0.00     0.034 C 
BRANCH   5   6
ATOM      6  C   UNL     1     189.154 201.256 210.127  1.00  0.00    -0.077 C 
ATOM      7  C   UNL     1     190.534 200.889 210.616  1.00  0.00     0.039 C 
ATOM      8  C   UNL     1     188.634 200.531 209.105  1.00  0.00    -0.023 CG0
ATOM      9  G   UNL     1     187.255 200.667 208.487  1.00  0.00     0.000 G0
ENDBRANCH   5   6
ENDBRANCH   4   5
ENDBRANCH   2   4
BRANCH   1  10
ATOM     10  C   UNL     1     185.952 199.615 211.652  1.00  0.00     0.111 C 
BRANCH  10  11
ATOM     11  C   UNL     1     186.386 199.043 210.324  1.00  0.00     0.163 C 
ATOM     12  O   UNL     1     186.997 197.939 210.347  1.00  0.00    -0.294 OA
BRANCH  11  13
ATOM     13  C   UNL     1     186.153 199.722 209.006  1.00  0.00    -0.002 C 
ATOM     14  C   UNL     1     185.074 199.387 208.234  1.00  0.00    -0.069 C 
ATOM     15  C   UNL     1     183.939 198.552 208.780  1.00  0.00     0.039 C 
ATOM     16  C   UNL     1     184.928 199.872 206.808  1.00  0.00     0.039 C 
BRANCH  13  17
ATOM     17  C   UNL     1     187.242 200.651 208.482  1.00  0.00     0.066 CG0
ATOM     18  G   UNL     1     188.610 200.522 209.126  1.00  0.00     0.000 G0
ENDBRANCH  13  17
ENDBRANCH  11  13
ENDBRANCH  10  11
ENDBRANCH   1  10
TORSDOF 0
ENDMDL
MODEL 9
REMARK VINA RESULT:    -2.063      1.713      4.979
REMARK INTER + INTRA:          -3.083
REMARK INTER:                  -3.276
REMARK INTRA:                   0.194
REMARK UNBOUND:                -0.175
REMARK SMILES CC1=CCC(=C(C)C)C(=O)CC(C)=CCC1
REMARK SMILES IDX 12 1 14 2 13 3 15 4 16 5 2 6 1 7 3 8 11 10 9 11 10 12 5 13
REMARK SMILES IDX 6 14 7 15 8 16 4 17
REMARK H PARENT
REMARK Flexibility Score: 60.00
ROOT
ATOM      1  C   UNL     1     187.117 198.375 209.963  1.00  0.00    -0.070 C 
ATOM      2  C   UNL     1     187.248 197.085 210.349  1.00  0.00    -0.027 C 
ATOM      3  C   UNL     1     185.742 198.869 209.596  1.00  0.00     0.039 C 
ENDROOT
BRANCH   2   4
ATOM      4  C   UNL     1     188.515 196.469 210.888  1.00  0.00     0.032 C 
BRANCH   4   5
ATOM      5  C   UNL     1     188.371 196.216 212.393  1.00  0.00     0.034 C 
BRANCH   5   6
ATOM      6  C   UNL     1     189.312 197.072 213.217  1.00  0.00    -0.077 C 
ATOM      7  C   UNL     1     190.676 196.524 213.556  1.00  0.00     0.039 C 
ATOM      8  C   UNL     1     188.972 198.280 213.732  1.00  0.00    -0.023 CG0
ATOM      9  G   UNL     1     187.692 199.059 213.487  1.00  0.00     0.000 G0
ENDBRANCH   5   6
ENDBRANCH   4   5
ENDBRANCH   2   4
BRANCH   1  10
ATOM     10  C   UNL     1     188.283 199.339 209.864  1.00  0.00     0.111 C 
BRANCH  10  11
ATOM     11  C   UNL     1     188.690 199.871 211.217  1.00  0.00     0.163 C 
ATOM     12  O   UNL     1     189.916 200.111 211.394  1.00  0.00    -0.294 OA
BRANCH  11  13
ATOM     13  C   UNL     1     187.730 200.101 212.348  1.00  0.00    -0.002 C 
ATOM     14  C   UNL     1     187.028 201.272 212.436  1.00  0.00    -0.069 C 
ATOM     15  C   UNL     1     186.967 202.246 211.281  1.00  0.00     0.039 C 
ATOM     16  C   UNL     1     186.233 201.640 213.669  1.00  0.00     0.039 C 
BRANCH  13  17
ATOM     17  C   UNL     1     187.700 199.076 213.476  1.00  0.00     0.066 CG0
ATOM     18  G   UNL     1     188.983 198.302 213.720  1.00  0.00     0.000 G0
ENDBRANCH  13  17
ENDBRANCH  11  13
ENDBRANCH  10  11
ENDBRANCH   1  10
TORSDOF 0
ENDMDL
