MODEL 1
REMARK VINA RESULT:    -5.919      0.000      0.000
REMARK INTER + INTRA:          -8.709
REMARK INTER:                  -8.341
REMARK INTRA:                  -0.368
REMARK UNBOUND:                -0.368
REMARK SMILES C[C@H](CO)CCC(=O)[C@H](C)[C@@H]1C(=O)C[C@H]2[C@H]3CC=C4C[C@@H](O)CC[C@@]4(C)[C@H]3CC[C@]21C
REMARK SMILES IDX 6 1 5 2 2 3 1 4 3 5 4 6 7 8 8 9 9 10 10 11 11 12 12 13 30 14
REMARK SMILES IDX 13 15 14 16 15 17 29 18 31 19 16 20 28 21 27 22 17 23 25 24
REMARK SMILES IDX 18 25 19 26 24 27 26 28 20 29 23 30 21 31 22 32
REMARK H PARENT 4 7 22 33
REMARK Flexibility Score: inf
ROOT
ATOM      1  C   UNL     1     138.801 134.812 141.778  1.00  0.00     0.076 C 
ENDROOT
BRANCH   1   2
ATOM      2  C   UNL     1     139.164 136.255 141.384  1.00  0.00     0.013 C 
BRANCH   2   3
ATOM      3  C   UNL     1     139.459 137.162 142.603  1.00  0.00     0.012 C 
ATOM      4  C   UNL     1     138.150 137.786 143.108  1.00  0.00     0.010 C 
BRANCH   3   5
ATOM      5  C   UNL     1     140.492 138.259 142.266  1.00  0.00     0.159 C 
BRANCH   5   6
ATOM      6  O   UNL     1     141.465 138.351 143.272  1.00  0.00    -0.396 OA
ATOM      7  H   UNL     1     141.621 139.319 143.436  1.00  0.00     0.210 HD
ENDBRANCH   5   6
ENDBRANCH   3   5
ENDBRANCH   2   3
ENDBRANCH   1   2
BRANCH   1   8
ATOM      8  C   UNL     1     137.307 134.592 141.676  1.00  0.00     0.136 C 
ATOM      9  O   UNL     1     136.681 134.436 142.715  1.00  0.00    -0.299 OA
BRANCH   8  10
ATOM     10  C   UNL     1     136.563 134.496 140.343  1.00  0.00     0.064 C 
ATOM     11  C   UNL     1     135.075 134.864 140.500  1.00  0.00     0.017 C 
BRANCH  10  12
ATOM     12  C   UNL     1     136.723 133.129 139.584  1.00  0.00     0.072 C 
ATOM     13  C   UNL     1     137.244 131.982 140.386  1.00  0.00     0.137 C 
ATOM     14  C   UNL     1     137.597 133.112 138.278  1.00  0.00    -0.019 C 
ATOM     15  O   UNL     1     136.896 131.743 141.531  1.00  0.00    -0.299 OA
ATOM     16  C   UNL     1     138.133 131.068 139.629  1.00  0.00     0.080 C 
ATOM     17  C   UNL     1     138.209 131.670 138.215  1.00  0.00     0.007 C 
ATOM     18  C   UNL     1     136.714 133.427 137.036  1.00  0.00     0.008 C 
ATOM     19  C   UNL     1     138.775 134.118 138.327  1.00  0.00     0.012 C 
ATOM     20  C   UNL     1     137.601 130.760 137.110  1.00  0.00     0.001 C 
ATOM     21  C   UNL     1     137.303 132.922 135.709  1.00  0.00     0.005 C 
ATOM     22  C   UNL     1     137.780 131.426 135.712  1.00  0.00     0.003 C 
ATOM     23  C   UNL     1     136.142 130.269 137.376  1.00  0.00     0.031 C 
ATOM     24  C   UNL     1     137.110 130.541 134.598  1.00  0.00    -0.008 C 
ATOM     25  C   UNL     1     135.203 130.346 136.190  1.00  0.00    -0.027 C 
ATOM     26  C   UNL     1     135.625 130.455 134.911  1.00  0.00    -0.065 C 
ATOM     27  C   UNL     1     137.344 131.140 133.170  1.00  0.00     0.014 C 
ATOM     28  C   UNL     1     137.711 129.106 134.601  1.00  0.00     0.016 C 
ATOM     29  C   UNL     1     134.621 130.647 133.799  1.00  0.00     0.063 C 
ATOM     30  C   UNL     1     136.499 130.476 132.059  1.00  0.00     0.033 C 
ATOM     31  C   UNL     1     135.112 129.958 132.521  1.00  0.00     0.118 C 
BRANCH  31  32
ATOM     32  O   UNL     1     134.162 130.151 131.506  1.00  0.00    -0.393 OA
ATOM     33  H   UNL     1     133.910 129.249 131.176  1.00  0.00     0.210 HD
ENDBRANCH  31  32
ENDBRANCH  10  12
ENDBRANCH   8  10
ENDBRANCH   1   8
TORSDOF 8
ENDMDL
MODEL 2
REMARK VINA RESULT:    -5.786      8.395     12.441
REMARK INTER + INTRA:          -8.521
REMARK INTER:                  -7.818
REMARK INTRA:                  -0.703
REMARK UNBOUND:                -0.368
REMARK SMILES C[C@H](CO)CCC(=O)[C@H](C)[C@@H]1C(=O)C[C@H]2[C@H]3CC=C4C[C@@H](O)CC[C@@]4(C)[C@H]3CC[C@]21C
REMARK SMILES IDX 6 1 5 2 2 3 1 4 3 5 4 6 7 8 8 9 9 10 10 11 11 12 12 13 30 14
REMARK SMILES IDX 13 15 14 16 15 17 29 18 31 19 16 20 28 21 27 22 17 23 25 24
REMARK SMILES IDX 18 25 19 26 24 27 26 28 20 29 23 30 21 31 22 32
REMARK H PARENT 4 7 22 33
REMARK Flexibility Score: inf
ROOT
ATOM      1  C   UNL     1     131.764 120.623 139.450  1.00  0.00     0.076 C 
ENDROOT
BRANCH   1   2
ATOM      2  C   UNL     1     130.440 120.767 140.222  1.00  0.00     0.013 C 
BRANCH   2   3
ATOM      3  C   UNL     1     130.335 122.095 141.008  1.00  0.00     0.012 C 
ATOM      4  C   UNL     1     129.195 122.946 140.430  1.00  0.00     0.010 C 
BRANCH   3   5
ATOM      5  C   UNL     1     131.665 122.880 140.989  1.00  0.00     0.159 C 
BRANCH   5   6
ATOM      6  O   UNL     1     131.511 124.105 140.324  1.00  0.00    -0.396 OA
ATOM      7  H   UNL     1     130.816 123.970 139.627  1.00  0.00     0.210 HD
ENDBRANCH   5   6
ENDBRANCH   3   5
ENDBRANCH   2   3
ENDBRANCH   1   2
BRANCH   1   8
ATOM      8  C   UNL     1     131.500 120.347 137.985  1.00  0.00     0.136 C 
ATOM      9  O   UNL     1     132.414 119.882 137.319  1.00  0.00    -0.299 OA
BRANCH   8  10
ATOM     10  C   UNL     1     130.175 120.677 137.296  1.00  0.00     0.064 C 
ATOM     11  C   UNL     1     130.004 119.876 135.991  1.00  0.00     0.017 C 
BRANCH  10  12
ATOM     12  C   UNL     1     129.913 122.207 137.049  1.00  0.00     0.072 C 
ATOM     13  C   UNL     1     128.547 122.578 136.573  1.00  0.00     0.137 C 
ATOM     14  C   UNL     1     130.880 122.970 136.073  1.00  0.00    -0.019 C 
ATOM     15  O   UNL     1     127.521 122.082 137.007  1.00  0.00    -0.299 OA
ATOM     16  C   UNL     1     128.527 123.705 135.608  1.00  0.00     0.080 C 
ATOM     17  C   UNL     1     130.003 124.100 135.430  1.00  0.00     0.007 C 
ATOM     18  C   UNL     1     132.093 123.547 136.858  1.00  0.00     0.008 C 
ATOM     19  C   UNL     1     131.405 122.075 134.922  1.00  0.00     0.012 C 
ATOM     20  C   UNL     1     130.336 125.536 135.930  1.00  0.00     0.001 C 
ATOM     21  C   UNL     1     132.789 124.723 136.155  1.00  0.00     0.005 C 
ATOM     22  C   UNL     1     131.834 125.864 135.652  1.00  0.00     0.003 C 
ATOM     23  C   UNL     1     129.898 125.850 137.396  1.00  0.00     0.031 C 
ATOM     24  C   UNL     1     132.192 127.289 136.213  1.00  0.00    -0.008 C 
ATOM     25  C   UNL     1     130.923 126.582 138.238  1.00  0.00    -0.027 C 
ATOM     26  C   UNL     1     131.970 127.259 137.717  1.00  0.00    -0.065 C 
ATOM     27  C   UNL     1     133.668 127.684 135.876  1.00  0.00     0.014 C 
ATOM     28  C   UNL     1     131.268 128.373 135.587  1.00  0.00     0.016 C 
ATOM     29  C   UNL     1     133.011 127.860 138.631  1.00  0.00     0.063 C 
ATOM     30  C   UNL     1     134.170 128.946 136.616  1.00  0.00     0.033 C 
ATOM     31  C   UNL     1     133.559 129.156 138.026  1.00  0.00     0.118 C 
BRANCH  31  32
ATOM     32  O   UNL     1     134.522 129.693 138.895  1.00  0.00    -0.393 OA
ATOM     33  H   UNL     1     134.341 130.667 138.954  1.00  0.00     0.210 HD
ENDBRANCH  31  32
ENDBRANCH  10  12
ENDBRANCH   8  10
ENDBRANCH   1   8
TORSDOF 8
ENDMDL
MODEL 3
REMARK VINA RESULT:    -5.658      4.299      5.449
REMARK INTER + INTRA:          -8.341
REMARK INTER:                  -7.727
REMARK INTRA:                  -0.614
REMARK UNBOUND:                -0.368
REMARK SMILES C[C@H](CO)CCC(=O)[C@H](C)[C@@H]1C(=O)C[C@H]2[C@H]3CC=C4C[C@@H](O)CC[C@@]4(C)[C@H]3CC[C@]21C
REMARK SMILES IDX 6 1 5 2 2 3 1 4 3 5 4 6 7 8 8 9 9 10 10 11 11 12 12 13 30 14
REMARK SMILES IDX 13 15 14 16 15 17 29 18 31 19 16 20 28 21 27 22 17 23 25 24
REMARK SMILES IDX 18 25 19 26 24 27 26 28 20 29 23 30 21 31 22 32
REMARK H PARENT 4 7 22 33
REMARK Flexibility Score: inf
ROOT
ATOM      1  C   UNL     1     139.568 137.175 141.926  1.00  0.00     0.076 C 
ENDROOT
BRANCH   1   2
ATOM      2  C   UNL     1     140.632 138.246 142.229  1.00  0.00     0.013 C 
BRANCH   2   3
ATOM      3  C   UNL     1     142.041 137.653 142.466  1.00  0.00     0.012 C 
ATOM      4  C   UNL     1     142.902 137.856 141.211  1.00  0.00     0.010 C 
BRANCH   3   5
ATOM      5  C   UNL     1     141.978 136.158 142.848  1.00  0.00     0.159 C 
BRANCH   5   6
ATOM      6  O   UNL     1     141.620 136.003 144.195  1.00  0.00    -0.396 OA
ATOM      7  H   UNL     1     140.929 136.688 144.392  1.00  0.00     0.210 HD
ENDBRANCH   5   6
ENDBRANCH   3   5
ENDBRANCH   2   3
ENDBRANCH   1   2
BRANCH   1   8
ATOM      8  C   UNL     1     138.559 137.093 143.053  1.00  0.00     0.136 C 
ATOM      9  O   UNL     1     138.860 137.598 144.125  1.00  0.00    -0.299 OA
BRANCH   8  10
ATOM     10  C   UNL     1     137.222 136.362 142.929  1.00  0.00     0.064 C 
ATOM     11  C   UNL     1     136.192 136.896 143.943  1.00  0.00     0.017 C 
BRANCH  10  12
ATOM     12  C   UNL     1     137.309 134.794 142.995  1.00  0.00     0.072 C 
ATOM     13  C   UNL     1     138.511 134.224 143.673  1.00  0.00     0.137 C 
ATOM     14  C   UNL     1     137.216 133.996 141.644  1.00  0.00    -0.019 C 
ATOM     15  O   UNL     1     138.984 134.674 144.704  1.00  0.00    -0.299 OA
ATOM     16  C   UNL     1     139.016 132.972 143.059  1.00  0.00     0.080 C 
ATOM     17  C   UNL     1     138.072 132.703 141.874  1.00  0.00     0.007 C 
ATOM     18  C   UNL     1     135.732 133.664 141.316  1.00  0.00     0.008 C 
ATOM     19  C   UNL     1     137.837 134.761 140.447  1.00  0.00     0.012 C 
ATOM     20  C   UNL     1     137.240 131.396 142.015  1.00  0.00     0.001 C 
ATOM     21  C   UNL     1     135.556 132.472 140.361  1.00  0.00     0.005 C 
ATOM     22  C   UNL     1     136.365 131.181 140.744  1.00  0.00     0.003 C 
ATOM     23  C   UNL     1     136.436 131.258 143.348  1.00  0.00     0.031 C 
ATOM     24  C   UNL     1     135.473 129.896 140.908  1.00  0.00    -0.008 C 
ATOM     25  C   UNL     1     135.012 130.762 143.199  1.00  0.00    -0.027 C 
ATOM     26  C   UNL     1     134.555 130.124 142.100  1.00  0.00    -0.065 C 
ATOM     27  C   UNL     1     134.642 129.604 139.614  1.00  0.00     0.014 C 
ATOM     28  C   UNL     1     136.356 128.646 141.183  1.00  0.00     0.016 C 
ATOM     29  C   UNL     1     133.092 129.769 141.986  1.00  0.00     0.063 C 
ATOM     30  C   UNL     1     133.553 128.520 139.792  1.00  0.00     0.033 C 
ATOM     31  C   UNL     1     132.925 128.459 141.209  1.00  0.00     0.118 C 
BRANCH  31  32
ATOM     32  O   UNL     1     131.558 128.153 141.118  1.00  0.00    -0.393 OA
ATOM     33  H   UNL     1     131.493 127.169 141.007  1.00  0.00     0.210 HD
ENDBRANCH  31  32
ENDBRANCH  10  12
ENDBRANCH   8  10
ENDBRANCH   1   8
TORSDOF 8
ENDMDL
MODEL 4
REMARK VINA RESULT:    -5.644      8.564     11.632
REMARK INTER + INTRA:          -8.321
REMARK INTER:                  -7.690
REMARK INTRA:                  -0.631
REMARK UNBOUND:                -0.368
REMARK SMILES C[C@H](CO)CCC(=O)[C@H](C)[C@@H]1C(=O)C[C@H]2[C@H]3CC=C4C[C@@H](O)CC[C@@]4(C)[C@H]3CC[C@]21C
REMARK SMILES IDX 6 1 5 2 2 3 1 4 3 5 4 6 7 8 8 9 9 10 10 11 11 12 12 13 30 14
REMARK SMILES IDX 13 15 14 16 15 17 29 18 31 19 16 20 28 21 27 22 17 23 25 24
REMARK SMILES IDX 18 25 19 26 24 27 26 28 20 29 23 30 21 31 22 32
REMARK H PARENT 4 7 22 33
REMARK Flexibility Score: inf
ROOT
ATOM      1  C   UNL     1     130.512 123.939 141.864  1.00  0.00     0.076 C 
ENDROOT
BRANCH   1   2
ATOM      2  C   UNL     1     129.574 122.890 141.237  1.00  0.00     0.013 C 
BRANCH   2   3
ATOM      3  C   UNL     1     130.303 121.922 140.276  1.00  0.00     0.012 C 
ATOM      4  C   UNL     1     129.925 120.474 140.621  1.00  0.00     0.010 C 
BRANCH   3   5
ATOM      5  C   UNL     1     131.835 122.111 140.322  1.00  0.00     0.159 C 
BRANCH   5   6
ATOM      6  O   UNL     1     132.304 122.669 139.123  1.00  0.00    -0.396 OA
ATOM      7  H   UNL     1     132.501 123.626 139.306  1.00  0.00     0.210 HD
ENDBRANCH   5   6
ENDBRANCH   3   5
ENDBRANCH   2   3
ENDBRANCH   1   2
BRANCH   1   8
ATOM      8  C   UNL     1     129.952 125.333 141.677  1.00  0.00     0.136 C 
ATOM      9  O   UNL     1     128.768 125.511 141.927  1.00  0.00    -0.299 OA
BRANCH   8  10
ATOM     10  C   UNL     1     130.778 126.502 141.137  1.00  0.00     0.064 C 
ATOM     11  C   UNL     1     130.130 127.857 141.483  1.00  0.00     0.017 C 
BRANCH  10  12
ATOM     12  C   UNL     1     131.125 126.425 139.606  1.00  0.00     0.072 C 
ATOM     13  C   UNL     1     132.090 127.442 139.092  1.00  0.00     0.137 C 
ATOM     14  C   UNL     1     129.935 126.473 138.580  1.00  0.00    -0.019 C 
ATOM     15  O   UNL     1     133.095 127.786 139.693  1.00  0.00    -0.299 OA
ATOM     16  C   UNL     1     131.797 127.915 137.718  1.00  0.00     0.080 C 
ATOM     17  C   UNL     1     130.529 127.151 137.297  1.00  0.00     0.007 C 
ATOM     18  C   UNL     1     129.415 125.035 138.293  1.00  0.00     0.008 C 
ATOM     19  C   UNL     1     128.753 127.348 139.067  1.00  0.00     0.012 C 
ATOM     20  C   UNL     1     130.745 126.184 136.098  1.00  0.00     0.001 C 
ATOM     21  C   UNL     1     128.663 124.899 136.960  1.00  0.00     0.005 C 
ATOM     22  C   UNL     1     129.396 125.507 135.711  1.00  0.00     0.003 C 
ATOM     23  C   UNL     1     131.920 125.168 136.263  1.00  0.00     0.031 C 
ATOM     24  C   UNL     1     129.619 124.479 134.541  1.00  0.00    -0.008 C 
ATOM     25  C   UNL     1     131.612 123.745 135.845  1.00  0.00    -0.027 C 
ATOM     26  C   UNL     1     130.575 123.410 135.046  1.00  0.00    -0.065 C 
ATOM     27  C   UNL     1     128.269 123.841 134.070  1.00  0.00     0.014 C 
ATOM     28  C   UNL     1     130.254 125.182 133.306  1.00  0.00     0.016 C 
ATOM     29  C   UNL     1     130.270 121.956 134.775  1.00  0.00     0.063 C 
ATOM     30  C   UNL     1     128.438 122.638 133.114  1.00  0.00     0.033 C 
ATOM     31  C   UNL     1     129.712 121.789 133.358  1.00  0.00     0.118 C 
BRANCH  31  32
ATOM     32  O   UNL     1     129.438 120.431 133.132  1.00  0.00    -0.393 OA
ATOM     33  H   UNL     1     130.262 119.930 133.367  1.00  0.00     0.210 HD
ENDBRANCH  31  32
ENDBRANCH  10  12
ENDBRANCH   8  10
ENDBRANCH   1   8
TORSDOF 8
ENDMDL
MODEL 5
REMARK VINA RESULT:    -5.640      1.921      2.520
REMARK INTER + INTRA:          -8.316
REMARK INTER:                  -8.208
REMARK INTRA:                  -0.107
REMARK UNBOUND:                -0.368
REMARK SMILES C[C@H](CO)CCC(=O)[C@H](C)[C@@H]1C(=O)C[C@H]2[C@H]3CC=C4C[C@@H](O)CC[C@@]4(C)[C@H]3CC[C@]21C
REMARK SMILES IDX 6 1 5 2 2 3 1 4 3 5 4 6 7 8 8 9 9 10 10 11 11 12 12 13 30 14
REMARK SMILES IDX 13 15 14 16 15 17 29 18 31 19 16 20 28 21 27 22 17 23 25 24
REMARK SMILES IDX 18 25 19 26 24 27 26 28 20 29 23 30 21 31 22 32
REMARK H PARENT 4 7 22 33
REMARK Flexibility Score: inf
ROOT
ATOM      1  C   UNL     1     136.832 135.992 141.375  1.00  0.00     0.076 C 
ENDROOT
BRANCH   1   2
ATOM      2  C   UNL     1     136.372 137.083 142.359  1.00  0.00     0.013 C 
BRANCH   2   3
ATOM      3  C   UNL     1     137.525 137.650 143.220  1.00  0.00     0.012 C 
ATOM      4  C   UNL     1     138.856 137.482 142.474  1.00  0.00     0.010 C 
BRANCH   3   5
ATOM      5  C   UNL     1     137.589 136.977 144.609  1.00  0.00     0.159 C 
BRANCH   5   6
ATOM      6  O   UNL     1     138.664 137.480 145.356  1.00  0.00    -0.396 OA
ATOM      7  H   UNL     1     139.493 137.263 144.854  1.00  0.00     0.210 HD
ENDBRANCH   5   6
ENDBRANCH   3   5
ENDBRANCH   2   3
ENDBRANCH   1   2
BRANCH   1   8
ATOM      8  C   UNL     1     135.712 135.009 141.106  1.00  0.00     0.136 C 
ATOM      9  O   UNL     1     134.730 135.417 140.502  1.00  0.00    -0.299 OA
BRANCH   8  10
ATOM     10  C   UNL     1     135.727 133.563 141.604  1.00  0.00     0.064 C 
ATOM     11  C   UNL     1     136.656 133.396 142.822  1.00  0.00     0.017 C 
BRANCH  10  12
ATOM     12  C   UNL     1     136.044 132.482 140.507  1.00  0.00     0.072 C 
ATOM     13  C   UNL     1     135.825 131.058 140.897  1.00  0.00     0.137 C 
ATOM     14  C   UNL     1     137.478 132.488 139.865  1.00  0.00    -0.019 C 
ATOM     15  O   UNL     1     134.864 130.673 141.543  1.00  0.00    -0.299 OA
ATOM     16  C   UNL     1     136.812 130.113 140.320  1.00  0.00     0.080 C 
ATOM     17  C   UNL     1     137.763 130.992 139.489  1.00  0.00     0.007 C 
ATOM     18  C   UNL     1     137.505 133.418 138.617  1.00  0.00     0.008 C 
ATOM     19  C   UNL     1     138.582 132.940 140.854  1.00  0.00     0.012 C 
ATOM     20  C   UNL     1     137.727 130.692 137.964  1.00  0.00     0.001 C 
ATOM     21  C   UNL     1     138.635 133.099 137.626  1.00  0.00     0.005 C 
ATOM     22  C   UNL     1     138.764 131.587 137.220  1.00  0.00     0.003 C 
ATOM     23  C   UNL     1     136.308 130.721 137.311  1.00  0.00     0.031 C 
ATOM     24  C   UNL     1     138.687 131.335 135.669  1.00  0.00    -0.008 C 
ATOM     25  C   UNL     1     136.217 131.446 135.983  1.00  0.00    -0.027 C 
ATOM     26  C   UNL     1     137.290 131.722 135.210  1.00  0.00    -0.065 C 
ATOM     27  C   UNL     1     139.774 132.157 134.899  1.00  0.00     0.014 C 
ATOM     28  C   UNL     1     138.927 129.832 135.345  1.00  0.00     0.016 C 
ATOM     29  C   UNL     1     137.126 132.553 133.960  1.00  0.00     0.063 C 
ATOM     30  C   UNL     1     139.591 132.165 133.364  1.00  0.00     0.033 C 
ATOM     31  C   UNL     1     138.117 132.093 132.886  1.00  0.00     0.118 C 
BRANCH  31  32
ATOM     32  O   UNL     1     137.942 132.879 131.737  1.00  0.00    -0.393 OA
ATOM     33  H   UNL     1     138.317 133.774 131.944  1.00  0.00     0.210 HD
ENDBRANCH  31  32
ENDBRANCH  10  12
ENDBRANCH   8  10
ENDBRANCH   1   8
TORSDOF 8
ENDMDL
MODEL 6
REMARK VINA RESULT:    -5.606      4.832      6.789
REMARK INTER + INTRA:          -8.268
REMARK INTER:                  -8.124
REMARK INTRA:                  -0.144
REMARK UNBOUND:                -0.368
REMARK SMILES C[C@H](CO)CCC(=O)[C@H](C)[C@@H]1C(=O)C[C@H]2[C@H]3CC=C4C[C@@H](O)CC[C@@]4(C)[C@H]3CC[C@]21C
REMARK SMILES IDX 6 1 5 2 2 3 1 4 3 5 4 6 7 8 8 9 9 10 10 11 11 12 12 13 30 14
REMARK SMILES IDX 13 15 14 16 15 17 29 18 31 19 16 20 28 21 27 22 17 23 25 24
REMARK SMILES IDX 18 25 19 26 24 27 26 28 20 29 23 30 21 31 22 32
REMARK H PARENT 4 7 22 33
REMARK Flexibility Score: inf
ROOT
ATOM      1  C   UNL     1     140.691 138.289 142.004  1.00  0.00     0.076 C 
ENDROOT
BRANCH   1   2
ATOM      2  C   UNL     1     142.071 138.291 142.686  1.00  0.00     0.013 C 
BRANCH   2   3
ATOM      3  C   UNL     1     143.125 137.450 141.928  1.00  0.00     0.012 C 
ATOM      4  C   UNL     1     142.868 137.544 140.417  1.00  0.00     0.010 C 
BRANCH   3   5
ATOM      5  C   UNL     1     143.125 135.977 142.390  1.00  0.00     0.159 C 
BRANCH   5   6
ATOM      6  O   UNL     1     142.856 135.886 143.764  1.00  0.00    -0.396 OA
ATOM      7  H   UNL     1     142.712 134.925 143.968  1.00  0.00     0.210 HD
ENDBRANCH   5   6
ENDBRANCH   3   5
ENDBRANCH   2   3
ENDBRANCH   1   2
BRANCH   1   8
ATOM      8  C   UNL     1     139.705 137.459 142.799  1.00  0.00     0.136 C 
ATOM      9  O   UNL     1     140.101 136.939 143.832  1.00  0.00    -0.299 OA
BRANCH   8  10
ATOM     10  C   UNL     1     138.270 137.196 142.341  1.00  0.00     0.064 C 
ATOM     11  C   UNL     1     137.249 137.623 143.413  1.00  0.00     0.017 C 
BRANCH  10  12
ATOM     12  C   UNL     1     137.983 135.731 141.850  1.00  0.00     0.072 C 
ATOM     13  C   UNL     1     138.626 135.323 140.565  1.00  0.00     0.137 C 
ATOM     14  C   UNL     1     136.482 135.293 141.683  1.00  0.00    -0.019 C 
ATOM     15  O   UNL     1     139.774 135.607 140.263  1.00  0.00    -0.299 OA
ATOM     16  C   UNL     1     137.794 134.425 139.729  1.00  0.00     0.080 C 
ATOM     17  C   UNL     1     136.493 134.233 140.527  1.00  0.00     0.007 C 
ATOM     18  C   UNL     1     135.944 134.699 143.016  1.00  0.00     0.008 C 
ATOM     19  C   UNL     1     135.560 136.457 141.241  1.00  0.00     0.012 C 
ATOM     20  C   UNL     1     136.249 132.769 140.994  1.00  0.00     0.001 C 
ATOM     21  C   UNL     1     134.729 133.774 142.840  1.00  0.00     0.005 C 
ATOM     22  C   UNL     1     134.883 132.667 141.737  1.00  0.00     0.003 C 
ATOM     23  C   UNL     1     137.430 132.114 141.780  1.00  0.00     0.031 C 
ATOM     24  C   UNL     1     134.661 131.203 142.267  1.00  0.00    -0.008 C 
ATOM     25  C   UNL     1     137.033 131.337 143.019  1.00  0.00    -0.027 C 
ATOM     26  C   UNL     1     135.778 130.898 143.254  1.00  0.00    -0.065 C 
ATOM     27  C   UNL     1     133.260 131.044 142.947  1.00  0.00     0.014 C 
ATOM     28  C   UNL     1     134.727 130.179 141.098  1.00  0.00     0.016 C 
ATOM     29  C   UNL     1     135.443 130.235 144.569  1.00  0.00     0.063 C 
ATOM     30  C   UNL     1     133.078 129.718 143.720  1.00  0.00     0.033 C 
ATOM     31  C   UNL     1     134.375 129.157 144.360  1.00  0.00     0.118 C 
BRANCH  31  32
ATOM     32  O   UNL     1     134.083 128.558 145.595  1.00  0.00    -0.393 OA
ATOM     33  H   UNL     1     133.109 128.369 145.598  1.00  0.00     0.210 HD
ENDBRANCH  31  32
ENDBRANCH  10  12
ENDBRANCH   8  10
ENDBRANCH   1   8
TORSDOF 8
ENDMDL
MODEL 7
REMARK VINA RESULT:    -5.595      1.896      3.245
REMARK INTER + INTRA:          -8.253
REMARK INTER:                  -7.418
REMARK INTRA:                  -0.835
REMARK UNBOUND:                -0.368
REMARK SMILES C[C@H](CO)CCC(=O)[C@H](C)[C@@H]1C(=O)C[C@H]2[C@H]3CC=C4C[C@@H](O)CC[C@@]4(C)[C@H]3CC[C@]21C
REMARK SMILES IDX 6 1 5 2 2 3 1 4 3 5 4 6 7 8 8 9 9 10 10 11 11 12 12 13 30 14
REMARK SMILES IDX 13 15 14 16 15 17 29 18 31 19 16 20 28 21 27 22 17 23 25 24
REMARK SMILES IDX 18 25 19 26 24 27 26 28 20 29 23 30 21 31 22 32
REMARK H PARENT 4 7 22 33
REMARK Flexibility Score: inf
ROOT
ATOM      1  C   UNL     1     137.878 137.093 143.922  1.00  0.00     0.076 C 
ENDROOT
BRANCH   1   2
ATOM      2  C   UNL     1     139.327 136.760 144.323  1.00  0.00     0.013 C 
BRANCH   2   3
ATOM      3  C   UNL     1     140.269 136.585 143.108  1.00  0.00     0.012 C 
ATOM      4  C   UNL     1     141.523 135.810 143.538  1.00  0.00     0.010 C 
BRANCH   3   5
ATOM      5  C   UNL     1     140.654 137.942 142.480  1.00  0.00     0.159 C 
BRANCH   5   6
ATOM      6  O   UNL     1     141.646 138.580 143.241  1.00  0.00    -0.396 OA
ATOM      7  H   UNL     1     141.943 139.374 142.723  1.00  0.00     0.210 HD
ENDBRANCH   5   6
ENDBRANCH   3   5
ENDBRANCH   2   3
ENDBRANCH   1   2
BRANCH   1   8
ATOM      8  C   UNL     1     136.934 136.002 144.383  1.00  0.00     0.136 C 
ATOM      9  O   UNL     1     136.963 135.685 145.563  1.00  0.00    -0.299 OA
BRANCH   8  10
ATOM     10  C   UNL     1     136.000 135.247 143.436  1.00  0.00     0.064 C 
ATOM     11  C   UNL     1     134.759 134.712 144.177  1.00  0.00     0.017 C 
BRANCH  10  12
ATOM     12  C   UNL     1     136.680 134.108 142.593  1.00  0.00     0.072 C 
ATOM     13  C   UNL     1     137.978 133.583 143.112  1.00  0.00     0.137 C 
ATOM     14  C   UNL     1     136.961 134.389 141.072  1.00  0.00    -0.019 C 
ATOM     15  O   UNL     1     138.196 133.364 144.293  1.00  0.00    -0.299 OA
ATOM     16  C   UNL     1     138.952 133.222 142.054  1.00  0.00     0.080 C 
ATOM     17  C   UNL     1     138.237 133.545 140.730  1.00  0.00     0.007 C 
ATOM     18  C   UNL     1     135.735 133.967 140.212  1.00  0.00     0.008 C 
ATOM     19  C   UNL     1     137.292 135.875 140.784  1.00  0.00     0.012 C 
ATOM     20  C   UNL     1     137.967 132.298 139.840  1.00  0.00     0.001 C 
ATOM     21  C   UNL     1     136.073 133.688 138.740  1.00  0.00     0.005 C 
ATOM     22  C   UNL     1     137.298 132.734 138.502  1.00  0.00     0.003 C 
ATOM     23  C   UNL     1     137.220 131.122 140.548  1.00  0.00     0.031 C 
ATOM     24  C   UNL     1     136.963 131.472 137.625  1.00  0.00    -0.008 C 
ATOM     25  C   UNL     1     136.105 130.484 139.746  1.00  0.00    -0.027 C 
ATOM     26  C   UNL     1     135.977 130.618 138.408  1.00  0.00    -0.065 C 
ATOM     27  C   UNL     1     136.366 131.880 136.236  1.00  0.00     0.014 C 
ATOM     28  C   UNL     1     138.247 130.638 137.350  1.00  0.00     0.016 C 
ATOM     29  C   UNL     1     134.769 130.048 137.703  1.00  0.00     0.063 C 
ATOM     30  C   UNL     1     135.771 130.700 135.433  1.00  0.00     0.033 C 
ATOM     31  C   UNL     1     135.153 129.571 136.299  1.00  0.00     0.118 C 
BRANCH  31  32
ATOM     32  O   UNL     1     134.015 129.046 135.668  1.00  0.00    -0.393 OA
ATOM     33  H   UNL     1     133.286 129.706 135.800  1.00  0.00     0.210 HD
ENDBRANCH  31  32
ENDBRANCH  10  12
ENDBRANCH   8  10
ENDBRANCH   1   8
TORSDOF 8
ENDMDL
MODEL 8
REMARK VINA RESULT:    -5.556      1.720      2.810
REMARK INTER + INTRA:          -8.197
REMARK INTER:                  -7.996
REMARK INTRA:                  -0.201
REMARK UNBOUND:                -0.368
REMARK SMILES C[C@H](CO)CCC(=O)[C@H](C)[C@@H]1C(=O)C[C@H]2[C@H]3CC=C4C[C@@H](O)CC[C@@]4(C)[C@H]3CC[C@]21C
REMARK SMILES IDX 6 1 5 2 2 3 1 4 3 5 4 6 7 8 8 9 9 10 10 11 11 12 12 13 30 14
REMARK SMILES IDX 13 15 14 16 15 17 29 18 31 19 16 20 28 21 27 22 17 23 25 24
REMARK SMILES IDX 18 25 19 26 24 27 26 28 20 29 23 30 21 31 22 32
REMARK H PARENT 4 7 22 33
REMARK Flexibility Score: inf
ROOT
ATOM      1  C   UNL     1     139.876 135.198 141.721  1.00  0.00     0.076 C 
ENDROOT
BRANCH   1   2
ATOM      2  C   UNL     1     138.667 135.602 142.584  1.00  0.00     0.013 C 
BRANCH   2   3
ATOM      3  C   UNL     1     138.466 137.134 142.671  1.00  0.00     0.012 C 
ATOM      4  C   UNL     1     139.780 137.845 142.318  1.00  0.00     0.010 C 
BRANCH   3   5
ATOM      5  C   UNL     1     137.967 137.570 144.065  1.00  0.00     0.159 C 
BRANCH   5   6
ATOM      6  O   UNL     1     139.010 137.533 145.002  1.00  0.00    -0.396 OA
ATOM      7  H   UNL     1     138.605 137.295 145.877  1.00  0.00     0.210 HD
ENDBRANCH   5   6
ENDBRANCH   3   5
ENDBRANCH   2   3
ENDBRANCH   1   2
BRANCH   1   8
ATOM      8  C   UNL     1     139.614 133.883 141.019  1.00  0.00     0.136 C 
ATOM      9  O   UNL     1     139.155 132.964 141.682  1.00  0.00    -0.299 OA
BRANCH   8  10
ATOM     10  C   UNL     1     139.949 133.637 139.547  1.00  0.00     0.064 C 
ATOM     11  C   UNL     1     140.878 134.732 138.990  1.00  0.00     0.017 C 
BRANCH  10  12
ATOM     12  C   UNL     1     138.708 133.425 138.605  1.00  0.00     0.072 C 
ATOM     13  C   UNL     1     137.385 133.862 139.142  1.00  0.00     0.137 C 
ATOM     14  C   UNL     1     138.440 131.976 138.058  1.00  0.00    -0.019 C 
ATOM     15  O   UNL     1     137.216 134.897 139.766  1.00  0.00    -0.299 OA
ATOM     16  C   UNL     1     136.252 132.994 138.742  1.00  0.00     0.080 C 
ATOM     17  C   UNL     1     136.885 131.889 137.877  1.00  0.00     0.007 C 
ATOM     18  C   UNL     1     139.197 131.759 136.716  1.00  0.00     0.008 C 
ATOM     19  C   UNL     1     138.857 130.867 139.057  1.00  0.00     0.012 C 
ATOM     20  C   UNL     1     136.407 131.896 136.397  1.00  0.00     0.001 C 
ATOM     21  C   UNL     1     138.608 130.641 135.842  1.00  0.00     0.005 C 
ATOM     22  C   UNL     1     137.054 130.709 135.623  1.00  0.00     0.003 C 
ATOM     23  C   UNL     1     136.547 133.265 135.657  1.00  0.00     0.031 C 
ATOM     24  C   UNL     1     136.626 130.748 134.110  1.00  0.00    -0.008 C 
ATOM     25  C   UNL     1     137.107 133.189 134.252  1.00  0.00    -0.027 C 
ATOM     26  C   UNL     1     137.139 132.053 133.521  1.00  0.00    -0.065 C 
ATOM     27  C   UNL     1     137.192 129.521 133.320  1.00  0.00     0.014 C 
ATOM     28  C   UNL     1     135.076 130.709 133.977  1.00  0.00     0.016 C 
ATOM     29  C   UNL     1     137.823 132.040 132.175  1.00  0.00     0.063 C 
ATOM     30  C   UNL     1     137.035 129.629 131.786  1.00  0.00     0.033 C 
ATOM     31  C   UNL     1     137.104 131.075 131.227  1.00  0.00     0.118 C 
BRANCH  31  32
ATOM     32  O   UNL     1     137.759 131.082 129.986  1.00  0.00    -0.393 OA
ATOM     33  H   UNL     1     137.425 130.294 129.483  1.00  0.00     0.210 HD
ENDBRANCH  31  32
ENDBRANCH  10  12
ENDBRANCH   8  10
ENDBRANCH   1   8
TORSDOF 8
ENDMDL
MODEL 9
REMARK VINA RESULT:    -5.527     11.715     15.790
REMARK INTER + INTRA:          -8.157
REMARK INTER:                  -7.249
REMARK INTRA:                  -0.908
REMARK UNBOUND:                -0.368
REMARK SMILES C[C@H](CO)CCC(=O)[C@H](C)[C@@H]1C(=O)C[C@H]2[C@H]3CC=C4C[C@@H](O)CC[C@@]4(C)[C@H]3CC[C@]21C
REMARK SMILES IDX 6 1 5 2 2 3 1 4 3 5 4 6 7 8 8 9 9 10 10 11 11 12 12 13 30 14
REMARK SMILES IDX 13 15 14 16 15 17 29 18 31 19 16 20 28 21 27 22 17 23 25 24
REMARK SMILES IDX 18 25 19 26 24 27 26 28 20 29 23 30 21 31 22 32
REMARK H PARENT 4 7 22 33
REMARK Flexibility Score: inf
ROOT
ATOM      1  C   UNL     1     130.048 120.832 135.406  1.00  0.00     0.076 C 
ENDROOT
BRANCH   1   2
ATOM      2  C   UNL     1     130.955 121.889 134.752  1.00  0.00     0.013 C 
BRANCH   2   3
ATOM      3  C   UNL     1     132.312 122.057 135.476  1.00  0.00     0.012 C 
ATOM      4  C   UNL     1     132.394 121.073 136.651  1.00  0.00     0.010 C 
BRANCH   3   5
ATOM      5  C   UNL     1     132.528 123.507 135.962  1.00  0.00     0.159 C 
BRANCH   5   6
ATOM      6  O   UNL     1     133.726 123.617 136.683  1.00  0.00    -0.396 OA
ATOM      7  H   UNL     1     133.649 124.429 137.251  1.00  0.00     0.210 HD
ENDBRANCH   5   6
ENDBRANCH   3   5
ENDBRANCH   2   3
ENDBRANCH   1   2
BRANCH   1   8
ATOM      8  C   UNL     1     128.615 121.320 135.462  1.00  0.00     0.136 C 
ATOM      9  O   UNL     1     128.182 121.927 134.494  1.00  0.00    -0.299 OA
BRANCH   8  10
ATOM     10  C   UNL     1     127.716 121.142 136.687  1.00  0.00     0.064 C 
ATOM     11  C   UNL     1     126.230 121.325 136.325  1.00  0.00     0.017 C 
BRANCH  10  12
ATOM     12  C   UNL     1     128.101 122.021 137.932  1.00  0.00     0.072 C 
ATOM     13  C   UNL     1     129.018 123.170 137.675  1.00  0.00     0.137 C 
ATOM     14  C   UNL     1     128.733 121.296 139.175  1.00  0.00    -0.019 C 
ATOM     15  O   UNL     1     128.927 123.905 136.704  1.00  0.00    -0.299 OA
ATOM     16  C   UNL     1     129.982 123.434 138.771  1.00  0.00     0.080 C 
ATOM     17  C   UNL     1     129.677 122.362 139.832  1.00  0.00     0.007 C 
ATOM     18  C   UNL     1     127.616 120.826 140.150  1.00  0.00     0.008 C 
ATOM     19  C   UNL     1     129.606 120.077 138.783  1.00  0.00     0.012 C 
ATOM     20  C   UNL     1     129.157 122.939 141.179  1.00  0.00     0.001 C 
ATOM     21  C   UNL     1     128.098 120.608 141.592  1.00  0.00     0.005 C 
ATOM     22  C   UNL     1     128.937 121.786 142.204  1.00  0.00     0.003 C 
ATOM     23  C   UNL     1     127.933 123.904 141.065  1.00  0.00     0.031 C 
ATOM     24  C   UNL     1     128.350 122.356 143.547  1.00  0.00    -0.008 C 
ATOM     25  C   UNL     1     126.832 123.680 142.080  1.00  0.00    -0.027 C 
ATOM     26  C   UNL     1     127.005 122.989 143.228  1.00  0.00    -0.065 C 
ATOM     27  C   UNL     1     128.195 121.235 144.629  1.00  0.00     0.014 C 
ATOM     28  C   UNL     1     129.292 123.443 144.140  1.00  0.00     0.016 C 
ATOM     29  C   UNL     1     125.824 122.711 144.127  1.00  0.00     0.063 C 
ATOM     30  C   UNL     1     127.385 121.664 145.874  1.00  0.00     0.033 C 
ATOM     31  C   UNL     1     126.267 122.703 145.594  1.00  0.00     0.118 C 
BRANCH  31  32
ATOM     32  O   UNL     1     125.153 122.443 146.406  1.00  0.00    -0.393 OA
ATOM     33  H   UNL     1     125.485 121.937 147.193  1.00  0.00     0.210 HD
ENDBRANCH  31  32
ENDBRANCH  10  12
ENDBRANCH   8  10
ENDBRANCH   1   8
TORSDOF 8
ENDMDL
