MODEL 1
REMARK VINA RESULT:    -6.280      0.000      0.000
REMARK INTER + INTRA:          -7.446
REMARK INTER:                  -7.382
REMARK INTRA:                  -0.065
REMARK UNBOUND:                -0.065
REMARK SMILES O=c1c(O)c(-c2ccc(O)c(O)c2)oc2cc(O)ccc12
REMARK SMILES IDX 5 1 3 2 2 3 1 4 21 5 15 6 14 7 16 8 17 9 19 10 20 11 6 12
REMARK SMILES IDX 7 13 8 14 9 15 13 16 11 17 10 18 12 20 4 22 18 24
REMARK H PARENT 10 19 12 21 4 23 18 25
REMARK Flexibility Score: inf
ROOT
ATOM      1  C   UNL     1     -11.504 -16.313  31.946  1.00  0.00     0.180 A 
ATOM      2  C   UNL     1     -10.999 -17.624  31.828  1.00  0.00     0.208 A 
ATOM      3  C   UNL     1     -11.206 -18.323  30.630  1.00  0.00     0.235 A 
ATOM      4  O   UNL     1     -10.773 -19.502  30.504  1.00  0.00    -0.285 OA
ATOM      5  C   UNL     1     -11.889 -17.699  29.575  1.00  0.00     0.069 A 
ATOM      6  C   UNL     1     -12.343 -16.375  29.762  1.00  0.00     0.142 A 
ATOM      7  O   UNL     1     -12.134 -15.751  30.916  1.00  0.00    -0.452 OA
ATOM      8  C   UNL     1     -13.019 -15.714  28.731  1.00  0.00     0.094 A 
ATOM      9  C   UNL     1     -13.251 -16.360  27.512  1.00  0.00     0.119 A 
ATOM     10  C   UNL     1     -12.804 -17.674  27.323  1.00  0.00     0.047 A 
ATOM     11  C   UNL     1     -12.125 -18.343  28.346  1.00  0.00     0.020 A 
ENDROOT
BRANCH   1  12
ATOM     12  C   UNL     1     -11.343 -15.517  33.184  1.00  0.00     0.025 A 
ATOM     13  C   UNL     1     -10.053 -15.245  33.666  1.00  0.00     0.016 A 
ATOM     14  C   UNL     1      -9.875 -14.479  34.822  1.00  0.00     0.051 A 
ATOM     15  C   UNL     1     -10.985 -13.960  35.501  1.00  0.00     0.157 A 
ATOM     16  C   UNL     1     -12.452 -14.977  33.858  1.00  0.00     0.062 A 
ATOM     17  C   UNL     1     -12.275 -14.206  35.016  1.00  0.00     0.158 A 
BRANCH  15  18
ATOM     18  O   UNL     1     -10.813 -13.197  36.654  1.00  0.00    -0.504 OA
ATOM     19  H   UNL     1      -9.920 -13.151  37.132  1.00  0.00     0.293 HD
ENDBRANCH  15  18
BRANCH  17  20
ATOM     20  O   UNL     1     -13.377 -13.677  35.687  1.00  0.00    -0.504 OA
ATOM     21  H   UNL     1     -13.270 -13.121  36.527  1.00  0.00     0.293 HD
ENDBRANCH  17  20
ENDBRANCH   1  12
BRANCH   2  22
ATOM     22  O   UNL     1     -10.280 -18.203  32.877  1.00  0.00    -0.502 OA
ATOM     23  H   UNL     1      -9.799 -17.648  33.575  1.00  0.00     0.293 HD
ENDBRANCH   2  22
BRANCH   9  24
ATOM     24  O   UNL     1     -13.927 -15.687  26.497  1.00  0.00    -0.508 OA
ATOM     25  H   UNL     1     -13.442 -15.339  25.677  1.00  0.00     0.293 HD
ENDBRANCH   9  24
TORSDOF 5
ENDMDL
MODEL 2
REMARK VINA RESULT:    -5.208      1.685      2.157
REMARK INTER + INTRA:          -6.187
REMARK INTER:                  -5.960
REMARK INTRA:                  -0.226
REMARK UNBOUND:                -0.065
REMARK SMILES O=c1c(O)c(-c2ccc(O)c(O)c2)oc2cc(O)ccc12
REMARK SMILES IDX 5 1 3 2 2 3 1 4 21 5 15 6 14 7 16 8 17 9 19 10 20 11 6 12
REMARK SMILES IDX 7 13 8 14 9 15 13 16 11 17 10 18 12 20 4 22 18 24
REMARK H PARENT 10 19 12 21 4 23 18 25
REMARK Flexibility Score: inf
ROOT
ATOM      1  C   UNL     1     -12.480 -16.368  31.844  1.00  0.00     0.180 A 
ATOM      2  C   UNL     1     -13.127 -17.620  31.904  1.00  0.00     0.208 A 
ATOM      3  C   UNL     1     -13.175 -18.412  30.747  1.00  0.00     0.235 A 
ATOM      4  O   UNL     1     -13.757 -19.532  30.772  1.00  0.00    -0.285 OA
ATOM      5  C   UNL     1     -12.565 -17.953  29.569  1.00  0.00     0.069 A 
ATOM      6  C   UNL     1     -11.917 -16.699  29.597  1.00  0.00     0.142 A 
ATOM      7  O   UNL     1     -11.901 -15.976  30.710  1.00  0.00    -0.452 OA
ATOM      8  C   UNL     1     -11.288 -16.211  28.446  1.00  0.00     0.094 A 
ATOM      9  C   UNL     1     -11.300 -16.959  27.264  1.00  0.00     0.119 A 
ATOM     10  C   UNL     1     -11.943 -18.203  27.232  1.00  0.00     0.047 A 
ATOM     11  C   UNL     1     -12.573 -18.701  28.377  1.00  0.00     0.020 A 
ENDROOT
BRANCH   1  12
ATOM     12  C   UNL     1     -12.403 -15.466  33.016  1.00  0.00     0.025 A 
ATOM     13  C   UNL     1     -13.564 -14.815  33.461  1.00  0.00     0.016 A 
ATOM     14  C   UNL     1     -13.520 -13.975  34.577  1.00  0.00     0.051 A 
ATOM     15  C   UNL     1     -12.319 -13.788  35.273  1.00  0.00     0.157 A 
ATOM     16  C   UNL     1     -11.204 -15.291  33.729  1.00  0.00     0.062 A 
ATOM     17  C   UNL     1     -11.160 -14.451  34.851  1.00  0.00     0.158 A 
BRANCH  15  18
ATOM     18  O   UNL     1     -12.270 -12.951  36.386  1.00  0.00    -0.504 OA
ATOM     19  H   UNL     1     -12.469 -13.295  37.318  1.00  0.00     0.293 HD
ENDBRANCH  15  18
BRANCH  17  20
ATOM     20  O   UNL     1      -9.969 -14.274  35.553  1.00  0.00    -0.504 OA
ATOM     21  H   UNL     1      -9.698 -13.368  35.918  1.00  0.00     0.293 HD
ENDBRANCH  17  20
ENDBRANCH   1  12
BRANCH   2  22
ATOM     22  O   UNL     1     -13.683 -18.073  33.103  1.00  0.00    -0.502 OA
ATOM     23  H   UNL     1     -13.385 -17.721  34.005  1.00  0.00     0.293 HD
ENDBRANCH   2  22
BRANCH   9  24
ATOM     24  O   UNL     1     -10.669 -16.457  26.128  1.00  0.00    -0.508 OA
ATOM     25  H   UNL     1     -10.737 -15.478  25.873  1.00  0.00     0.293 HD
ENDBRANCH   9  24
TORSDOF 5
ENDMDL
MODEL 3
REMARK VINA RESULT:    -5.132      2.281      3.620
REMARK INTER + INTRA:          -6.097
REMARK INTER:                  -6.426
REMARK INTRA:                   0.329
REMARK UNBOUND:                -0.065
REMARK SMILES O=c1c(O)c(-c2ccc(O)c(O)c2)oc2cc(O)ccc12
REMARK SMILES IDX 5 1 3 2 2 3 1 4 21 5 15 6 14 7 16 8 17 9 19 10 20 11 6 12
REMARK SMILES IDX 7 13 8 14 9 15 13 16 11 17 10 18 12 20 4 22 18 24
REMARK H PARENT 10 19 12 21 4 23 18 25
REMARK Flexibility Score: inf
ROOT
ATOM      1  C   UNL     1     -12.137 -15.034  33.809  1.00  0.00     0.180 A 
ATOM      2  C   UNL     1     -13.472 -15.067  33.357  1.00  0.00     0.208 A 
ATOM      3  C   UNL     1     -13.833 -16.009  32.382  1.00  0.00     0.235 A 
ATOM      4  O   UNL     1     -15.020 -16.052  31.954  1.00  0.00    -0.285 OA
ATOM      5  C   UNL     1     -12.868 -16.905  31.897  1.00  0.00     0.069 A 
ATOM      6  C   UNL     1     -11.558 -16.824  32.417  1.00  0.00     0.142 A 
ATOM      7  O   UNL     1     -11.255 -15.911  33.333  1.00  0.00    -0.452 OA
ATOM      8  C   UNL     1     -10.569 -17.706  31.966  1.00  0.00     0.094 A 
ATOM      9  C   UNL     1     -10.872 -18.669  30.998  1.00  0.00     0.119 A 
ATOM     10  C   UNL     1     -12.170 -18.752  30.478  1.00  0.00     0.047 A 
ATOM     11  C   UNL     1     -13.166 -17.877  30.923  1.00  0.00     0.020 A 
ENDROOT
BRANCH   1  12
ATOM     12  C   UNL     1     -11.673 -14.057  34.821  1.00  0.00     0.025 A 
ATOM     13  C   UNL     1     -10.331 -13.647  34.819  1.00  0.00     0.016 A 
ATOM     14  C   UNL     1      -9.875 -12.711  35.752  1.00  0.00     0.051 A 
ATOM     15  C   UNL     1     -10.760 -12.160  36.688  1.00  0.00     0.157 A 
ATOM     16  C   UNL     1     -12.561 -13.487  35.750  1.00  0.00     0.062 A 
ATOM     17  C   UNL     1     -12.106 -12.546  36.684  1.00  0.00     0.158 A 
BRANCH  15  18
ATOM     18  O   UNL     1     -10.310 -11.228  37.621  1.00  0.00    -0.504 OA
ATOM     19  H   UNL     1      -9.387 -11.295  38.035  1.00  0.00     0.293 HD
ENDBRANCH  15  18
BRANCH  17  20
ATOM     20  O   UNL     1     -12.987 -11.986  37.608  1.00  0.00    -0.504 OA
ATOM     21  H   UNL     1     -13.991 -12.065  37.499  1.00  0.00     0.293 HD
ENDBRANCH  17  20
ENDBRANCH   1  12
BRANCH   2  22
ATOM     22  O   UNL     1     -14.423 -14.195  33.894  1.00  0.00    -0.502 OA
ATOM     23  H   UNL     1     -15.418 -14.348  33.789  1.00  0.00     0.293 HD
ENDBRANCH   2  22
BRANCH   9  24
ATOM     24  O   UNL     1      -9.875 -19.538  30.560  1.00  0.00    -0.508 OA
ATOM     25  H   UNL     1      -8.938 -19.506  30.943  1.00  0.00     0.293 HD
ENDBRANCH   9  24
TORSDOF 5
ENDMDL
MODEL 4
REMARK VINA RESULT:    -4.776      1.626      2.362
REMARK INTER + INTRA:          -5.678
REMARK INTER:                  -5.563
REMARK INTRA:                  -0.115
REMARK UNBOUND:                -0.065
REMARK SMILES O=c1c(O)c(-c2ccc(O)c(O)c2)oc2cc(O)ccc12
REMARK SMILES IDX 5 1 3 2 2 3 1 4 21 5 15 6 14 7 16 8 17 9 19 10 20 11 6 12
REMARK SMILES IDX 7 13 8 14 9 15 13 16 11 17 10 18 12 20 4 22 18 24
REMARK H PARENT 10 19 12 21 4 23 18 25
REMARK Flexibility Score: inf
ROOT
ATOM      1  C   UNL     1     -11.441 -16.232  31.822  1.00  0.00     0.180 A 
ATOM      2  C   UNL     1     -10.722 -15.814  30.682  1.00  0.00     0.208 A 
ATOM      3  C   UNL     1     -10.898 -16.512  29.478  1.00  0.00     0.235 A 
ATOM      4  O   UNL     1     -10.258 -16.163  28.447  1.00  0.00    -0.285 OA
ATOM      5  C   UNL     1     -11.793 -17.592  29.430  1.00  0.00     0.069 A 
ATOM      6  C   UNL     1     -12.492 -17.934  30.608  1.00  0.00     0.142 A 
ATOM      7  O   UNL     1     -12.292 -17.253  31.730  1.00  0.00    -0.452 OA
ATOM      8  C   UNL     1     -13.401 -18.998  30.598  1.00  0.00     0.094 A 
ATOM      9  C   UNL     1     -13.620 -19.728  29.425  1.00  0.00     0.119 A 
ATOM     10  C   UNL     1     -12.927 -19.393  28.255  1.00  0.00     0.047 A 
ATOM     11  C   UNL     1     -12.018 -18.330  28.253  1.00  0.00     0.020 A 
ENDROOT
BRANCH   1  12
ATOM     12  C   UNL     1     -11.297 -15.559  33.133  1.00  0.00     0.025 A 
ATOM     13  C   UNL     1     -10.040 -15.532  33.759  1.00  0.00     0.016 A 
ATOM     14  C   UNL     1      -9.875 -14.885  34.987  1.00  0.00     0.051 A 
ATOM     15  C   UNL     1     -10.960 -14.243  35.597  1.00  0.00     0.157 A 
ATOM     16  C   UNL     1     -12.378 -14.897  33.740  1.00  0.00     0.062 A 
ATOM     17  C   UNL     1     -12.212 -14.245  34.971  1.00  0.00     0.158 A 
BRANCH  15  18
ATOM     18  O   UNL     1     -10.801 -13.598  36.822  1.00  0.00    -0.504 OA
ATOM     19  H   UNL     1      -9.893 -13.516  37.264  1.00  0.00     0.293 HD
ENDBRANCH  15  18
BRANCH  17  20
ATOM     20  O   UNL     1     -13.287 -13.594  35.574  1.00  0.00    -0.504 OA
ATOM     21  H   UNL     1     -14.106 -13.320  35.044  1.00  0.00     0.293 HD
ENDBRANCH  17  20
ENDBRANCH   1  12
BRANCH   2  22
ATOM     22  O   UNL     1      -9.875 -14.705  30.748  1.00  0.00    -0.502 OA
ATOM     23  H   UNL     1     -10.178 -13.813  31.122  1.00  0.00     0.293 HD
ENDBRANCH   2  22
BRANCH   9  24
ATOM     24  O   UNL     1     -14.528 -20.785  29.434  1.00  0.00    -0.508 OA
ATOM     25  H   UNL     1     -14.286 -21.688  29.824  1.00  0.00     0.293 HD
ENDBRANCH   9  24
TORSDOF 5
ENDMDL
MODEL 5
REMARK VINA RESULT:    -4.637      1.816      3.639
REMARK INTER + INTRA:          -5.515
REMARK INTER:                  -5.375
REMARK INTRA:                  -0.140
REMARK UNBOUND:                -0.065
REMARK SMILES O=c1c(O)c(-c2ccc(O)c(O)c2)oc2cc(O)ccc12
REMARK SMILES IDX 5 1 3 2 2 3 1 4 21 5 15 6 14 7 16 8 17 9 19 10 20 11 6 12
REMARK SMILES IDX 7 13 8 14 9 15 13 16 11 17 10 18 12 20 4 22 18 24
REMARK H PARENT 10 19 12 21 4 23 18 25
REMARK Flexibility Score: inf
ROOT
ATOM      1  C   UNL     1     -12.700 -16.328  32.223  1.00  0.00     0.180 A 
ATOM      2  C   UNL     1     -13.064 -15.963  30.910  1.00  0.00     0.208 A 
ATOM      3  C   UNL     1     -13.148 -16.963  29.929  1.00  0.00     0.235 A 
ATOM      4  O   UNL     1     -13.462 -16.660  28.745  1.00  0.00    -0.285 OA
ATOM      5  C   UNL     1     -12.888 -18.297  30.279  1.00  0.00     0.069 A 
ATOM      6  C   UNL     1     -12.551 -18.584  31.620  1.00  0.00     0.142 A 
ATOM      7  O   UNL     1     -12.475 -17.607  32.516  1.00  0.00    -0.452 OA
ATOM      8  C   UNL     1     -12.295 -19.903  32.010  1.00  0.00     0.094 A 
ATOM      9  C   UNL     1     -12.367 -20.942  31.077  1.00  0.00     0.119 A 
ATOM     10  C   UNL     1     -12.699 -20.661  29.745  1.00  0.00     0.047 A 
ATOM     11  C   UNL     1     -12.959 -19.347  29.344  1.00  0.00     0.020 A 
ENDROOT
BRANCH   1  12
ATOM     12  C   UNL     1     -12.571 -15.329  33.309  1.00  0.00     0.025 A 
ATOM     13  C   UNL     1     -13.711 -14.634  33.744  1.00  0.00     0.016 A 
ATOM     14  C   UNL     1     -13.618 -13.701  34.781  1.00  0.00     0.051 A 
ATOM     15  C   UNL     1     -12.388 -13.463  35.408  1.00  0.00     0.157 A 
ATOM     16  C   UNL     1     -11.343 -15.101  33.954  1.00  0.00     0.062 A 
ATOM     17  C   UNL     1     -11.250 -14.168  34.997  1.00  0.00     0.158 A 
BRANCH  15  18
ATOM     18  O   UNL     1     -12.291 -12.534  36.441  1.00  0.00    -0.504 OA
ATOM     19  H   UNL     1     -12.934 -12.542  37.224  1.00  0.00     0.293 HD
ENDBRANCH  15  18
BRANCH  17  20
ATOM     20  O   UNL     1     -10.030 -13.939  35.631  1.00  0.00    -0.504 OA
ATOM     21  H   UNL     1      -9.148 -14.125  35.169  1.00  0.00     0.293 HD
ENDBRANCH  17  20
ENDBRANCH   1  12
BRANCH   2  22
ATOM     22  O   UNL     1     -13.366 -14.634  30.602  1.00  0.00    -0.502 OA
ATOM     23  H   UNL     1     -14.146 -14.379  30.009  1.00  0.00     0.293 HD
ENDBRANCH   2  22
BRANCH   9  24
ATOM     24  O   UNL     1     -12.108 -22.249  31.483  1.00  0.00    -0.508 OA
ATOM     25  H   UNL     1     -11.201 -22.678  31.340  1.00  0.00     0.293 HD
ENDBRANCH   9  24
TORSDOF 5
ENDMDL
MODEL 6
REMARK VINA RESULT:    -4.620      1.895      6.929
REMARK INTER + INTRA:          -5.495
REMARK INTER:                  -5.491
REMARK INTRA:                  -0.004
REMARK UNBOUND:                -0.065
REMARK SMILES O=c1c(O)c(-c2ccc(O)c(O)c2)oc2cc(O)ccc12
REMARK SMILES IDX 5 1 3 2 2 3 1 4 21 5 15 6 14 7 16 8 17 9 19 10 20 11 6 12
REMARK SMILES IDX 7 13 8 14 9 15 13 16 11 17 10 18 12 20 4 22 18 24
REMARK H PARENT 10 19 12 21 4 23 18 25
REMARK Flexibility Score: inf
ROOT
ATOM      1  C   UNL     1     -12.194 -15.720  31.467  1.00  0.00     0.180 A 
ATOM      2  C   UNL     1     -13.550 -15.403  31.693  1.00  0.00     0.208 A 
ATOM      3  C   UNL     1     -13.920 -14.860  32.932  1.00  0.00     0.235 A 
ATOM      4  O   UNL     1     -15.128 -14.578  33.162  1.00  0.00    -0.285 OA
ATOM      5  C   UNL     1     -12.936 -14.628  33.906  1.00  0.00     0.069 A 
ATOM      6  C   UNL     1     -11.597 -14.951  33.595  1.00  0.00     0.142 A 
ATOM      7  O   UNL     1     -11.290 -15.471  32.412  1.00  0.00    -0.452 OA
ATOM      8  C   UNL     1     -10.586 -14.725  34.536  1.00  0.00     0.094 A 
ATOM      9  C   UNL     1     -10.895 -14.183  35.787  1.00  0.00     0.119 A 
ATOM     10  C   UNL     1     -12.222 -13.863  36.100  1.00  0.00     0.047 A 
ATOM     11  C   UNL     1     -13.240 -14.083  35.167  1.00  0.00     0.020 A 
ENDROOT
BRANCH   1  12
ATOM     12  C   UNL     1     -11.727 -16.313  30.193  1.00  0.00     0.025 A 
ATOM     13  C   UNL     1     -10.584 -15.790  29.568  1.00  0.00     0.016 A 
ATOM     14  C   UNL     1     -10.112 -16.347  28.375  1.00  0.00     0.051 A 
ATOM     15  C   UNL     1     -10.769 -17.443  27.800  1.00  0.00     0.157 A 
ATOM     16  C   UNL     1     -12.370 -17.425  29.623  1.00  0.00     0.062 A 
ATOM     17  C   UNL     1     -11.897 -17.985  28.428  1.00  0.00     0.158 A 
BRANCH  15  18
ATOM     18  O   UNL     1     -10.303 -18.000  26.611  1.00  0.00    -0.504 OA
ATOM     19  H   UNL     1     -10.463 -18.974  26.383  1.00  0.00     0.293 HD
ENDBRANCH  15  18
BRANCH  17  20
ATOM     20  O   UNL     1     -12.540 -19.085  27.860  1.00  0.00    -0.504 OA
ATOM     21  H   UNL     1     -12.424 -20.019  28.236  1.00  0.00     0.293 HD
ENDBRANCH  17  20
ENDBRANCH   1  12
BRANCH   2  22
ATOM     22  O   UNL     1     -14.499 -15.599  30.687  1.00  0.00    -0.502 OA
ATOM     23  H   UNL     1     -14.566 -16.465  30.166  1.00  0.00     0.293 HD
ENDBRANCH   2  22
BRANCH   9  24
ATOM     24  O   UNL     1      -9.875 -13.966  36.711  1.00  0.00    -0.508 OA
ATOM     25  H   UNL     1      -9.535 -13.033  36.915  1.00  0.00     0.293 HD
ENDBRANCH   9  24
TORSDOF 5
ENDMDL
MODEL 7
REMARK VINA RESULT:    -3.466      1.431      6.654
REMARK INTER + INTRA:          -4.138
REMARK INTER:                  -4.112
REMARK INTRA:                  -0.026
REMARK UNBOUND:                -0.065
REMARK SMILES O=c1c(O)c(-c2ccc(O)c(O)c2)oc2cc(O)ccc12
REMARK SMILES IDX 5 1 3 2 2 3 1 4 21 5 15 6 14 7 16 8 17 9 19 10 20 11 6 12
REMARK SMILES IDX 7 13 8 14 9 15 13 16 11 17 10 18 12 20 4 22 18 24
REMARK H PARENT 10 19 12 21 4 23 18 25
REMARK Flexibility Score: inf
ROOT
ATOM      1  C   UNL     1     -12.365 -16.107  31.298  1.00  0.00     0.180 A 
ATOM      2  C   UNL     1     -11.246 -16.726  31.895  1.00  0.00     0.208 A 
ATOM      3  C   UNL     1     -10.879 -16.348  33.195  1.00  0.00     0.235 A 
ATOM      4  O   UNL     1      -9.875 -16.879  33.747  1.00  0.00    -0.285 OA
ATOM      5  C   UNL     1     -11.639 -15.384  33.875  1.00  0.00     0.069 A 
ATOM      6  C   UNL     1     -12.758 -14.829  33.218  1.00  0.00     0.142 A 
ATOM      7  O   UNL     1     -13.068 -15.208  31.984  1.00  0.00    -0.452 OA
ATOM      8  C   UNL     1     -13.547 -13.872  33.867  1.00  0.00     0.094 A 
ATOM      9  C   UNL     1     -13.231 -13.460  35.165  1.00  0.00     0.119 A 
ATOM     10  C   UNL     1     -12.120 -14.007  35.820  1.00  0.00     0.047 A 
ATOM     11  C   UNL     1     -11.326 -14.965  35.182  1.00  0.00     0.020 A 
ENDROOT
BRANCH   1  12
ATOM     12  C   UNL     1     -12.805 -16.437  29.923  1.00  0.00     0.025 A 
ATOM     13  C   UNL     1     -12.918 -15.412  28.971  1.00  0.00     0.016 A 
ATOM     14  C   UNL     1     -13.312 -15.703  27.662  1.00  0.00     0.051 A 
ATOM     15  C   UNL     1     -13.582 -17.024  27.283  1.00  0.00     0.157 A 
ATOM     16  C   UNL     1     -13.058 -17.764  29.533  1.00  0.00     0.062 A 
ATOM     17  C   UNL     1     -13.450 -18.057  28.219  1.00  0.00     0.158 A 
BRANCH  15  18
ATOM     18  O   UNL     1     -13.976 -17.318  25.979  1.00  0.00    -0.504 OA
ATOM     19  H   UNL     1     -14.360 -18.223  25.733  1.00  0.00     0.293 HD
ENDBRANCH  15  18
BRANCH  17  20
ATOM     20  O   UNL     1     -13.706 -19.373  27.836  1.00  0.00    -0.504 OA
ATOM     21  H   UNL     1     -13.228 -20.154  28.269  1.00  0.00     0.293 HD
ENDBRANCH  17  20
ENDBRANCH   1  12
BRANCH   2  22
ATOM     22  O   UNL     1     -10.538 -17.718  31.212  1.00  0.00    -0.502 OA
ATOM     23  H   UNL     1     -10.782 -18.698  31.275  1.00  0.00     0.293 HD
ENDBRANCH   2  22
BRANCH   9  24
ATOM     24  O   UNL     1     -14.028 -12.506  35.795  1.00  0.00    -0.508 OA
ATOM     25  H   UNL     1     -14.473 -12.693  36.687  1.00  0.00     0.293 HD
ENDBRANCH   9  24
TORSDOF 5
ENDMDL
