MODEL 1
REMARK VINA RESULT:    -3.964      0.000      0.000
REMARK INTER + INTRA:          -4.363
REMARK INTER:                  -4.312
REMARK INTRA:                  -0.051
REMARK UNBOUND:                -0.051
REMARK SMILES CCc1cccc(O)c1
REMARK SMILES IDX 3 1 9 2 7 3 6 4 5 5 4 6 2 7 1 8 8 9
REMARK H PARENT 8 10
REMARK Flexibility Score: inf
ROOT
ATOM      1  C   UNL     1     145.281 129.591 115.598  1.00  0.00    -0.045 A 
ATOM      2  C   UNL     1     145.653 128.915 116.772  1.00  0.00     0.049 A 
ATOM      3  C   UNL     1     145.997 127.559 116.728  1.00  0.00     0.115 A 
ATOM      4  C   UNL     1     145.979 126.875 115.505  1.00  0.00     0.046 A 
ATOM      5  C   UNL     1     145.623 127.546 114.331  1.00  0.00     0.004 A 
ATOM      6  C   UNL     1     145.280 128.900 114.375  1.00  0.00     0.004 A 
ENDROOT
BRANCH   1   7
ATOM      7  C   UNL     1     144.943 131.058 115.642  1.00  0.00     0.032 C 
ATOM      8  C   UNL     1     146.197 131.894 115.878  1.00  0.00     0.009 C 
ENDBRANCH   1   7
BRANCH   3   9
ATOM      9  O   UNL     1     146.358 126.903 117.902  1.00  0.00    -0.508 OA
ATOM     10  H   UNL     1     147.215 126.368 117.968  1.00  0.00     0.293 HD
ENDBRANCH   3   9
TORSDOF 2
ENDMDL
MODEL 2
REMARK VINA RESULT:    -3.914      1.920      3.210
REMARK INTER + INTRA:          -4.308
REMARK INTER:                  -4.243
REMARK INTRA:                  -0.065
REMARK UNBOUND:                -0.051
REMARK SMILES CCc1cccc(O)c1
REMARK SMILES IDX 3 1 9 2 7 3 6 4 5 5 4 6 2 7 1 8 8 9
REMARK H PARENT 8 10
REMARK Flexibility Score: inf
ROOT
ATOM      1  C   UNL     1     145.116 128.135 115.996  1.00  0.00    -0.045 A 
ATOM      2  C   UNL     1     145.738 129.009 116.903  1.00  0.00     0.049 A 
ATOM      3  C   UNL     1     145.452 128.929 118.271  1.00  0.00     0.115 A 
ATOM      4  C   UNL     1     144.546 127.966 118.738  1.00  0.00     0.046 A 
ATOM      5  C   UNL     1     143.934 127.086 117.841  1.00  0.00     0.004 A 
ATOM      6  C   UNL     1     144.220 127.165 116.476  1.00  0.00     0.004 A 
ENDROOT
BRANCH   1   7
ATOM      7  C   UNL     1     145.450 128.201 114.529  1.00  0.00     0.032 C 
ATOM      8  C   UNL     1     146.044 126.880 114.051  1.00  0.00     0.009 C 
ENDBRANCH   1   7
BRANCH   3   9
ATOM      9  O   UNL     1     146.073 129.806 119.156  1.00  0.00    -0.508 OA
ATOM     10  H   UNL     1     147.081 129.894 119.194  1.00  0.00     0.293 HD
ENDBRANCH   3   9
TORSDOF 2
ENDMDL
MODEL 3
REMARK VINA RESULT:    -3.897      1.597      2.262
REMARK INTER + INTRA:          -4.290
REMARK INTER:                  -4.240
REMARK INTRA:                  -0.050
REMARK UNBOUND:                -0.051
REMARK SMILES CCc1cccc(O)c1
REMARK SMILES IDX 3 1 9 2 7 3 6 4 5 5 4 6 2 7 1 8 8 9
REMARK H PARENT 8 10
REMARK Flexibility Score: inf
ROOT
ATOM      1  C   UNL     1     145.477 129.636 115.764  1.00  0.00    -0.045 A 
ATOM      2  C   UNL     1     145.629 129.016 114.513  1.00  0.00     0.049 A 
ATOM      3  C   UNL     1     145.886 127.642 114.431  1.00  0.00     0.115 A 
ATOM      4  C   UNL     1     145.983 126.881 115.604  1.00  0.00     0.046 A 
ATOM      5  C   UNL     1     145.820 127.490 116.851  1.00  0.00     0.004 A 
ATOM      6  C   UNL     1     145.563 128.861 116.933  1.00  0.00     0.004 A 
ENDROOT
BRANCH   1   7
ATOM      7  C   UNL     1     145.167 131.107 115.850  1.00  0.00     0.032 C 
ATOM      8  C   UNL     1     146.452 131.924 115.940  1.00  0.00     0.009 C 
ENDBRANCH   1   7
BRANCH   3   9
ATOM      9  O   UNL     1     146.040 127.045 113.183  1.00  0.00    -0.508 OA
ATOM     10  H   UNL     1     146.088 127.596 112.335  1.00  0.00     0.293 HD
ENDBRANCH   3   9
TORSDOF 2
ENDMDL
MODEL 4
REMARK VINA RESULT:    -3.887      2.873      3.871
REMARK INTER + INTRA:          -4.278
REMARK INTER:                  -4.228
REMARK INTRA:                  -0.050
REMARK UNBOUND:                -0.051
REMARK SMILES CCc1cccc(O)c1
REMARK SMILES IDX 3 1 9 2 7 3 6 4 5 5 4 6 2 7 1 8 8 9
REMARK H PARENT 8 10
REMARK Flexibility Score: inf
ROOT
ATOM      1  C   UNL     1     143.234 127.568 115.976  1.00  0.00    -0.045 A 
ATOM      2  C   UNL     1     143.966 127.567 114.778  1.00  0.00     0.049 A 
ATOM      3  C   UNL     1     145.333 127.262 114.784  1.00  0.00     0.115 A 
ATOM      4  C   UNL     1     145.971 126.948 115.992  1.00  0.00     0.046 A 
ATOM      5  C   UNL     1     145.244 126.935 117.186  1.00  0.00     0.004 A 
ATOM      6  C   UNL     1     143.880 127.239 117.180  1.00  0.00     0.004 A 
ENDROOT
BRANCH   1   7
ATOM      7  C   UNL     1     141.758 127.864 115.963  1.00  0.00     0.032 C 
ATOM      8  C   UNL     1     141.017 126.875 115.069  1.00  0.00     0.009 C 
ENDBRANCH   1   7
BRANCH   3   9
ATOM      9  O   UNL     1     146.045 127.271 113.588  1.00  0.00    -0.508 OA
ATOM     10  H   UNL     1     145.799 127.897 112.830  1.00  0.00     0.293 HD
ENDBRANCH   3   9
TORSDOF 2
ENDMDL
MODEL 5
REMARK VINA RESULT:    -3.841      2.443      3.207
REMARK INTER + INTRA:          -4.228
REMARK INTER:                  -4.160
REMARK INTRA:                  -0.068
REMARK UNBOUND:                -0.051
REMARK SMILES CCc1cccc(O)c1
REMARK SMILES IDX 3 1 9 2 7 3 6 4 5 5 4 6 2 7 1 8 8 9
REMARK H PARENT 8 10
REMARK Flexibility Score: inf
ROOT
ATOM      1  C   UNL     1     143.309 127.468 116.052  1.00  0.00    -0.045 A 
ATOM      2  C   UNL     1     144.135 127.243 117.166  1.00  0.00     0.049 A 
ATOM      3  C   UNL     1     145.523 127.141 117.008  1.00  0.00     0.115 A 
ATOM      4  C   UNL     1     146.090 127.271 115.733  1.00  0.00     0.046 A 
ATOM      5  C   UNL     1     145.273 127.508 114.623  1.00  0.00     0.004 A 
ATOM      6  C   UNL     1     143.889 127.611 114.780  1.00  0.00     0.004 A 
ENDROOT
BRANCH   1   7
ATOM      7  C   UNL     1     141.821 127.611 116.228  1.00  0.00     0.032 C 
ATOM      8  C   UNL     1     141.073 126.875 115.122  1.00  0.00     0.009 C 
ENDBRANCH   1   7
BRANCH   3   9
ATOM      9  O   UNL     1     146.326 126.912 118.121  1.00  0.00    -0.508 OA
ATOM     10  H   UNL     1     146.835 126.044 118.238  1.00  0.00     0.293 HD
ENDBRANCH   3   9
TORSDOF 2
ENDMDL
MODEL 6
REMARK VINA RESULT:    -3.786      1.444      3.339
REMARK INTER + INTRA:          -4.168
REMARK INTER:                  -4.117
REMARK INTRA:                  -0.052
REMARK UNBOUND:                -0.051
REMARK SMILES CCc1cccc(O)c1
REMARK SMILES IDX 3 1 9 2 7 3 6 4 5 5 4 6 2 7 1 8 8 9
REMARK H PARENT 8 10
REMARK Flexibility Score: inf
ROOT
ATOM      1  C   UNL     1     145.149 129.187 115.437  1.00  0.00    -0.045 A 
ATOM      2  C   UNL     1     145.666 129.033 116.734  1.00  0.00     0.049 A 
ATOM      3  C   UNL     1     145.481 130.037 117.693  1.00  0.00     0.115 A 
ATOM      4  C   UNL     1     144.769 131.196 117.358  1.00  0.00     0.046 A 
ATOM      5  C   UNL     1     144.241 131.349 116.073  1.00  0.00     0.004 A 
ATOM      6  C   UNL     1     144.425 130.347 115.116  1.00  0.00     0.004 A 
ENDROOT
BRANCH   1   7
ATOM      7  C   UNL     1     145.321 128.092 114.418  1.00  0.00     0.032 C 
ATOM      8  C   UNL     1     145.996 126.875 115.041  1.00  0.00     0.009 C 
ENDBRANCH   1   7
BRANCH   3   9
ATOM      9  O   UNL     1     146.005 129.870 118.972  1.00  0.00    -0.508 OA
ATOM     10  H   UNL     1     145.475 130.121 119.798  1.00  0.00     0.293 HD
ENDBRANCH   3   9
TORSDOF 2
ENDMDL
MODEL 7
REMARK VINA RESULT:    -3.732      2.287      3.311
REMARK INTER + INTRA:          -4.109
REMARK INTER:                  -4.059
REMARK INTRA:                  -0.050
REMARK UNBOUND:                -0.051
REMARK SMILES CCc1cccc(O)c1
REMARK SMILES IDX 3 1 9 2 7 3 6 4 5 5 4 6 2 7 1 8 8 9
REMARK H PARENT 8 10
REMARK Flexibility Score: inf
ROOT
ATOM      1  C   UNL     1     144.992 127.498 115.739  1.00  0.00    -0.045 A 
ATOM      2  C   UNL     1     143.617 127.544 116.023  1.00  0.00     0.049 A 
ATOM      3  C   UNL     1     143.150 127.247 117.309  1.00  0.00     0.115 A 
ATOM      4  C   UNL     1     144.060 126.911 118.320  1.00  0.00     0.046 A 
ATOM      5  C   UNL     1     145.431 126.877 118.047  1.00  0.00     0.004 A 
ATOM      6  C   UNL     1     145.897 127.173 116.764  1.00  0.00     0.004 A 
ENDROOT
BRANCH   1   7
ATOM      7  C   UNL     1     145.496 127.849 114.364  1.00  0.00     0.032 C 
ATOM      8  C   UNL     1     145.279 129.330 114.072  1.00  0.00     0.009 C 
ENDBRANCH   1   7
BRANCH   3   9
ATOM      9  O   UNL     1     141.783 127.292 117.571  1.00  0.00    -0.508 OA
ATOM     10  H   UNL     1     141.226 128.105 117.340  1.00  0.00     0.293 HD
ENDBRANCH   3   9
TORSDOF 2
ENDMDL
MODEL 8
REMARK VINA RESULT:    -3.715      2.767      3.638
REMARK INTER + INTRA:          -4.091
REMARK INTER:                  -4.020
REMARK INTRA:                  -0.071
REMARK UNBOUND:                -0.051
REMARK SMILES CCc1cccc(O)c1
REMARK SMILES IDX 3 1 9 2 7 3 6 4 5 5 4 6 2 7 1 8 8 9
REMARK H PARENT 8 10
REMARK Flexibility Score: inf
ROOT
ATOM      1  C   UNL     1     145.219 127.145 117.205  1.00  0.00    -0.045 A 
ATOM      2  C   UNL     1     145.905 127.168 115.980  1.00  0.00     0.049 A 
ATOM      3  C   UNL     1     145.208 127.367 114.782  1.00  0.00     0.115 A 
ATOM      4  C   UNL     1     143.820 127.553 114.807  1.00  0.00     0.046 A 
ATOM      5  C   UNL     1     143.133 127.545 116.025  1.00  0.00     0.004 A 
ATOM      6  C   UNL     1     143.828 127.346 117.221  1.00  0.00     0.004 A 
ENDROOT
BRANCH   1   7
ATOM      7  C   UNL     1     145.974 126.964 118.495  1.00  0.00     0.032 C 
ATOM      8  C   UNL     1     145.451 127.916 119.565  1.00  0.00     0.009 C 
ENDBRANCH   1   7
BRANCH   3   9
ATOM      9  O   UNL     1     145.904 127.381 113.576  1.00  0.00    -0.508 OA
ATOM     10  H   UNL     1     146.477 126.598 113.286  1.00  0.00     0.293 HD
ENDBRANCH   3   9
TORSDOF 2
ENDMDL
