MODEL 1
REMARK VINA RESULT:    -3.812      0.000      0.000
REMARK INTER + INTRA:          -7.475
REMARK INTER:                  -6.708
REMARK INTRA:                  -0.767
REMARK UNBOUND:                -0.767
REMARK SMILES CCCCCCCCCCCCCCC(=O)[O-]
REMARK SMILES IDX 9 1 10 2 11 3 12 4 13 5 14 6 15 7 16 8 17 9 8 10 7 11 6 12
REMARK SMILES IDX 5 13 4 14 3 15 2 16 1 17
REMARK H PARENT
REMARK Flexibility Score: inf
ROOT
ATOM      1  C   UNL     1      14.470  -8.429   6.899  1.00  0.00     0.000 C 
ENDROOT
BRANCH   1   2
ATOM      2  C   UNL     1      15.697  -7.493   6.919  1.00  0.00     0.000 C 
BRANCH   2   3
ATOM      3  C   UNL     1      16.119  -6.942   5.545  1.00  0.00     0.000 C 
BRANCH   3   4
ATOM      4  C   UNL     1      17.267  -7.739   4.908  1.00  0.00     0.000 C 
BRANCH   4   5
ATOM      5  C   UNL     1      17.985  -8.601   5.956  1.00  0.00     0.006 C 
BRANCH   5   6
ATOM      6  C   UNL     1      19.275  -7.944   6.463  1.00  0.00     0.053 C 
BRANCH   6   7
ATOM      7  C   UNL     1      19.310  -7.871   7.959  1.00  0.00     0.041 C 
ATOM      8  O   UNL     1      19.732  -8.848   8.631  1.00  0.00    -0.550 OA
ATOM      9  O   UNL     1      18.845  -6.736   8.610  1.00  0.00    -0.550 OA
ENDBRANCH   6   7
ENDBRANCH   5   6
ENDBRANCH   4   5
ENDBRANCH   3   4
ENDBRANCH   2   3
ENDBRANCH   1   2
BRANCH   1  10
ATOM     10  C   UNL     1      13.466  -8.167   5.762  1.00  0.00     0.000 C 
BRANCH  10  11
ATOM     11  C   UNL     1      12.017  -8.485   6.159  1.00  0.00    -0.000 C 
BRANCH  11  12
ATOM     12  C   UNL     1      11.031  -7.584   5.400  1.00  0.00    -0.000 C 
BRANCH  12  13
ATOM     13  C   UNL     1       9.603  -8.154   5.378  1.00  0.00    -0.000 C 
BRANCH  13  14
ATOM     14  C   UNL     1       9.257  -8.927   6.662  1.00  0.00    -0.000 C 
BRANCH  14  15
ATOM     15  C   UNL     1       7.764  -8.843   7.027  1.00  0.00    -0.000 C 
BRANCH  15  16
ATOM     16  C   UNL     1       6.909  -7.989   6.073  1.00  0.00    -0.003 C 
ATOM     17  C   UNL     1       6.434  -6.680   6.703  1.00  0.00     0.004 C 
ENDBRANCH  15  16
ENDBRANCH  14  15
ENDBRANCH  13  14
ENDBRANCH  12  13
ENDBRANCH  11  12
ENDBRANCH  10  11
ENDBRANCH   1  10
TORSDOF 13
ENDMDL
MODEL 2
REMARK VINA RESULT:    -3.797      1.117      1.874
REMARK INTER + INTRA:          -7.449
REMARK INTER:                  -6.228
REMARK INTRA:                  -1.221
REMARK UNBOUND:                -0.767
REMARK SMILES CCCCCCCCCCCCCCC(=O)[O-]
REMARK SMILES IDX 9 1 10 2 11 3 12 4 13 5 14 6 15 7 16 8 17 9 8 10 7 11 6 12
REMARK SMILES IDX 5 13 4 14 3 15 2 16 1 17
REMARK H PARENT
REMARK Flexibility Score: inf
ROOT
ATOM      1  C   UNL     1      12.119  -8.499   6.368  1.00  0.00     0.000 C 
ENDROOT
BRANCH   1   2
ATOM      2  C   UNL     1      13.615  -8.656   6.025  1.00  0.00     0.000 C 
BRANCH   2   3
ATOM      3  C   UNL     1      14.134  -7.717   4.921  1.00  0.00     0.000 C 
BRANCH   3   4
ATOM      4  C   UNL     1      15.564  -7.222   5.181  1.00  0.00     0.000 C 
BRANCH   4   5
ATOM      5  C   UNL     1      16.219  -8.010   6.326  1.00  0.00     0.006 C 
BRANCH   5   6
ATOM      6  C   UNL     1      16.890  -7.090   7.354  1.00  0.00     0.053 C 
BRANCH   6   7
ATOM      7  C   UNL     1      18.348  -7.399   7.506  1.00  0.00     0.041 C 
ATOM      8  O   UNL     1      18.908  -8.214   6.727  1.00  0.00    -0.550 OA
ATOM      9  O   UNL     1      19.080  -6.812   8.530  1.00  0.00    -0.550 OA
ENDBRANCH   6   7
ENDBRANCH   5   6
ENDBRANCH   4   5
ENDBRANCH   3   4
ENDBRANCH   2   3
ENDBRANCH   1   2
BRANCH   1  10
ATOM     10  C   UNL     1      11.350  -7.495   5.491  1.00  0.00     0.000 C 
BRANCH  10  11
ATOM     11  C   UNL     1      10.147  -8.127   4.775  1.00  0.00    -0.000 C 
BRANCH  11  12
ATOM     12  C   UNL     1      10.077  -9.637   5.051  1.00  0.00    -0.000 C 
BRANCH  12  13
ATOM     13  C   UNL     1       8.738 -10.063   5.676  1.00  0.00    -0.000 C 
BRANCH  13  14
ATOM     14  C   UNL     1       8.693  -9.826   7.195  1.00  0.00    -0.000 C 
BRANCH  14  15
ATOM     15  C   UNL     1       7.737  -8.688   7.595  1.00  0.00    -0.000 C 
BRANCH  15  16
ATOM     16  C   UNL     1       6.764  -8.238   6.490  1.00  0.00    -0.003 C 
ATOM     17  C   UNL     1       6.461  -6.741   6.530  1.00  0.00     0.004 C 
ENDBRANCH  15  16
ENDBRANCH  14  15
ENDBRANCH  13  14
ENDBRANCH  12  13
ENDBRANCH  11  12
ENDBRANCH  10  11
ENDBRANCH   1  10
TORSDOF 13
ENDMDL
MODEL 3
REMARK VINA RESULT:    -3.744      4.591      9.480
REMARK INTER + INTRA:          -7.356
REMARK INTER:                  -6.703
REMARK INTRA:                  -0.653
REMARK UNBOUND:                -0.767
REMARK SMILES CCCCCCCCCCCCCCC(=O)[O-]
REMARK SMILES IDX 9 1 10 2 11 3 12 4 13 5 14 6 15 7 16 8 17 9 8 10 7 11 6 12
REMARK SMILES IDX 5 13 4 14 3 15 2 16 1 17
REMARK H PARENT
REMARK Flexibility Score: inf
ROOT
ATOM      1  C   UNL     1      11.501  -8.110   6.362  1.00  0.00     0.000 C 
ENDROOT
BRANCH   1   2
ATOM      2  C   UNL     1      10.418  -8.227   5.269  1.00  0.00     0.000 C 
BRANCH   2   3
ATOM      3  C   UNL     1       9.294  -9.235   5.569  1.00  0.00     0.000 C 
BRANCH   3   4
ATOM      4  C   UNL     1       9.076  -9.458   7.073  1.00  0.00     0.000 C 
BRANCH   4   5
ATOM      5  C   UNL     1       7.774  -8.795   7.543  1.00  0.00     0.006 C 
BRANCH   5   6
ATOM      6  C   UNL     1       6.736  -8.690   6.417  1.00  0.00     0.053 C 
BRANCH   6   7
ATOM      7  C   UNL     1       6.458  -7.265   6.050  1.00  0.00     0.041 C 
ATOM      8  O   UNL     1       6.283  -6.401   6.950  1.00  0.00    -0.550 OA
ATOM      9  O   UNL     1       6.360  -6.898   4.714  1.00  0.00    -0.550 OA
ENDBRANCH   6   7
ENDBRANCH   5   6
ENDBRANCH   4   5
ENDBRANCH   3   4
ENDBRANCH   2   3
ENDBRANCH   1   2
BRANCH   1  10
ATOM     10  C   UNL     1      12.949  -8.276   5.867  1.00  0.00     0.000 C 
BRANCH  10  11
ATOM     11  C   UNL     1      13.930  -8.623   6.997  1.00  0.00    -0.000 C 
BRANCH  11  12
ATOM     12  C   UNL     1      15.372  -8.682   6.471  1.00  0.00    -0.000 C 
BRANCH  12  13
ATOM     13  C   UNL     1      15.968  -7.288   6.218  1.00  0.00    -0.000 C 
BRANCH  13  14
ATOM     14  C   UNL     1      17.293  -7.345   5.436  1.00  0.00    -0.000 C 
BRANCH  14  15
ATOM     15  C   UNL     1      18.351  -8.233   6.116  1.00  0.00    -0.000 C 
BRANCH  15  16
ATOM     16  C   UNL     1      19.414  -7.471   6.927  1.00  0.00    -0.003 C 
ATOM     17  C   UNL     1      18.945  -7.104   8.334  1.00  0.00     0.004 C 
ENDBRANCH  15  16
ENDBRANCH  14  15
ENDBRANCH  13  14
ENDBRANCH  12  13
ENDBRANCH  11  12
ENDBRANCH  10  11
ENDBRANCH   1  10
TORSDOF 13
ENDMDL
MODEL 4
REMARK VINA RESULT:    -3.612      4.154      8.936
REMARK INTER + INTRA:          -7.125
REMARK INTER:                  -6.097
REMARK INTRA:                  -1.027
REMARK UNBOUND:                -0.767
REMARK SMILES CCCCCCCCCCCCCCC(=O)[O-]
REMARK SMILES IDX 9 1 10 2 11 3 12 4 13 5 14 6 15 7 16 8 17 9 8 10 7 11 6 12
REMARK SMILES IDX 5 13 4 14 3 15 2 16 1 17
REMARK H PARENT
REMARK Flexibility Score: inf
ROOT
ATOM      1  C   UNL     1      14.403  -8.290   7.130  1.00  0.00     0.000 C 
ENDROOT
BRANCH   1   2
ATOM      2  C   UNL     1      13.013  -8.675   6.581  1.00  0.00     0.000 C 
BRANCH   2   3
ATOM      3  C   UNL     1      12.557  -7.882   5.343  1.00  0.00     0.000 C 
BRANCH   3   4
ATOM      4  C   UNL     1      11.054  -7.565   5.357  1.00  0.00     0.000 C 
BRANCH   4   5
ATOM      5  C   UNL     1      10.273  -8.639   6.127  1.00  0.00     0.006 C 
BRANCH   5   6
ATOM      6  C   UNL     1       8.879  -8.880   5.533  1.00  0.00     0.053 C 
BRANCH   6   7
ATOM      7  C   UNL     1       7.808  -8.794   6.578  1.00  0.00     0.041 C 
ATOM      8  O   UNL     1       6.631  -8.488   6.255  1.00  0.00    -0.550 OA
ATOM      9  O   UNL     1       8.120  -9.021   7.912  1.00  0.00    -0.550 OA
ENDBRANCH   6   7
ENDBRANCH   5   6
ENDBRANCH   4   5
ENDBRANCH   3   4
ENDBRANCH   2   3
ENDBRANCH   1   2
BRANCH   1  10
ATOM     10  C   UNL     1      15.559  -8.407   6.119  1.00  0.00     0.000 C 
BRANCH  10  11
ATOM     11  C   UNL     1      16.143  -7.044   5.721  1.00  0.00    -0.000 C 
BRANCH  11  12
ATOM     12  C   UNL     1      16.610  -7.055   4.257  1.00  0.00    -0.000 C 
BRANCH  12  13
ATOM     13  C   UNL     1      18.126  -6.838   4.117  1.00  0.00    -0.000 C 
BRANCH  13  14
ATOM     14  C   UNL     1      18.946  -7.978   4.745  1.00  0.00    -0.000 C 
BRANCH  14  15
ATOM     15  C   UNL     1      19.780  -7.520   5.955  1.00  0.00    -0.000 C 
BRANCH  15  16
ATOM     16  C   UNL     1      19.364  -8.137   7.303  1.00  0.00    -0.003 C 
ATOM     17  C   UNL     1      18.927  -7.093   8.330  1.00  0.00     0.004 C 
ENDBRANCH  15  16
ENDBRANCH  14  15
ENDBRANCH  13  14
ENDBRANCH  12  13
ENDBRANCH  11  12
ENDBRANCH  10  11
ENDBRANCH   1  10
TORSDOF 13
ENDMDL
MODEL 5
REMARK VINA RESULT:    -3.574      1.615      1.888
REMARK INTER + INTRA:          -7.057
REMARK INTER:                  -6.211
REMARK INTRA:                  -0.846
REMARK UNBOUND:                -0.767
REMARK SMILES CCCCCCCCCCCCCCC(=O)[O-]
REMARK SMILES IDX 9 1 10 2 11 3 12 4 13 5 14 6 15 7 16 8 17 9 8 10 7 11 6 12
REMARK SMILES IDX 5 13 4 14 3 15 2 16 1 17
REMARK H PARENT
REMARK Flexibility Score: inf
ROOT
ATOM      1  C   UNL     1      13.549  -8.607   6.882  1.00  0.00     0.000 C 
ENDROOT
BRANCH   1   2
ATOM      2  C   UNL     1      15.053  -8.770   6.581  1.00  0.00     0.000 C 
BRANCH   2   3
ATOM      3  C   UNL     1      15.868  -7.464   6.597  1.00  0.00     0.000 C 
BRANCH   3   4
ATOM      4  C   UNL     1      16.042  -6.852   5.199  1.00  0.00     0.000 C 
BRANCH   4   5
ATOM      5  C   UNL     1      17.372  -7.291   4.569  1.00  0.00     0.006 C 
BRANCH   5   6
ATOM      6  C   UNL     1      18.477  -7.477   5.617  1.00  0.00     0.053 C 
BRANCH   6   7
ATOM      7  C   UNL     1      19.825  -7.119   5.071  1.00  0.00     0.041 C 
ATOM      8  O   UNL     1      20.328  -7.792   4.133  1.00  0.00    -0.550 OA
ATOM      9  O   UNL     1      20.539  -6.062   5.619  1.00  0.00    -0.550 OA
ENDBRANCH   6   7
ENDBRANCH   5   6
ENDBRANCH   4   5
ENDBRANCH   3   4
ENDBRANCH   2   3
ENDBRANCH   1   2
BRANCH   1  10
ATOM     10  C   UNL     1      12.654  -8.403   5.647  1.00  0.00     0.000 C 
BRANCH  10  11
ATOM     11  C   UNL     1      11.305  -7.752   5.988  1.00  0.00    -0.000 C 
BRANCH  11  12
ATOM     12  C   UNL     1      10.245  -8.104   4.933  1.00  0.00    -0.000 C 
BRANCH  12  13
ATOM     13  C   UNL     1       9.283  -9.207   5.405  1.00  0.00    -0.000 C 
BRANCH  13  14
ATOM     14  C   UNL     1       9.209  -9.309   6.938  1.00  0.00    -0.000 C 
BRANCH  14  15
ATOM     15  C   UNL     1       7.850  -8.859   7.503  1.00  0.00    -0.000 C 
BRANCH  15  16
ATOM     16  C   UNL     1       6.824  -8.408   6.448  1.00  0.00    -0.003 C 
ATOM     17  C   UNL     1       6.528  -6.910   6.501  1.00  0.00     0.004 C 
ENDBRANCH  15  16
ENDBRANCH  14  15
ENDBRANCH  13  14
ENDBRANCH  12  13
ENDBRANCH  11  12
ENDBRANCH  10  11
ENDBRANCH   1  10
TORSDOF 13
ENDMDL
MODEL 6
REMARK VINA RESULT:    -3.490      3.925      8.646
REMARK INTER + INTRA:          -6.909
REMARK INTER:                  -5.455
REMARK INTRA:                  -1.454
REMARK UNBOUND:                -0.767
REMARK SMILES CCCCCCCCCCCCCCC(=O)[O-]
REMARK SMILES IDX 9 1 10 2 11 3 12 4 13 5 14 6 15 7 16 8 17 9 8 10 7 11 6 12
REMARK SMILES IDX 5 13 4 14 3 15 2 16 1 17
REMARK H PARENT
REMARK Flexibility Score: inf
ROOT
ATOM      1  C   UNL     1      15.796  -7.656   6.594  1.00  0.00     0.000 C 
ENDROOT
BRANCH   1   2
ATOM      2  C   UNL     1      14.778  -8.806   6.444  1.00  0.00     0.000 C 
BRANCH   2   3
ATOM      3  C   UNL     1      13.368  -8.376   5.999  1.00  0.00     0.000 C 
BRANCH   3   4
ATOM      4  C   UNL     1      12.942  -9.011   4.668  1.00  0.00     0.000 C 
BRANCH   4   5
ATOM      5  C   UNL     1      11.437  -9.319   4.663  1.00  0.00     0.006 C 
BRANCH   5   6
ATOM      6  C   UNL     1      10.663  -8.444   5.657  1.00  0.00     0.053 C 
BRANCH   6   7
ATOM      7  C   UNL     1       9.586  -7.654   4.978  1.00  0.00     0.041 C 
ATOM      8  O   UNL     1       9.845  -6.526   4.482  1.00  0.00    -0.550 OA
ATOM      9  O   UNL     1       8.290  -8.150   4.922  1.00  0.00    -0.550 OA
ENDBRANCH   6   7
ENDBRANCH   5   6
ENDBRANCH   4   5
ENDBRANCH   3   4
ENDBRANCH   2   3
ENDBRANCH   1   2
BRANCH   1  10
ATOM     10  C   UNL     1      16.187  -6.954   5.281  1.00  0.00     0.000 C 
BRANCH  10  11
ATOM     11  C   UNL     1      16.624  -7.937   4.186  1.00  0.00    -0.000 C 
BRANCH  11  12
ATOM     12  C   UNL     1      18.138  -8.191   4.250  1.00  0.00    -0.000 C 
BRANCH  12  13
ATOM     13  C   UNL     1      18.943  -6.911   4.527  1.00  0.00    -0.000 C 
BRANCH  13  14
ATOM     14  C   UNL     1      19.977  -7.095   5.652  1.00  0.00    -0.000 C 
BRANCH  14  15
ATOM     15  C   UNL     1      19.839  -8.446   6.376  1.00  0.00    -0.000 C 
BRANCH  15  16
ATOM     16  C   UNL     1      19.444  -8.350   7.861  1.00  0.00    -0.003 C 
ATOM     17  C   UNL     1      19.057  -6.935   8.288  1.00  0.00     0.004 C 
ENDBRANCH  15  16
ENDBRANCH  14  15
ENDBRANCH  13  14
ENDBRANCH  12  13
ENDBRANCH  11  12
ENDBRANCH  10  11
ENDBRANCH   1  10
TORSDOF 13
ENDMDL
MODEL 7
REMARK VINA RESULT:    -3.347      1.316      2.340
REMARK INTER + INTRA:          -6.658
REMARK INTER:                  -5.427
REMARK INTRA:                  -1.231
REMARK UNBOUND:                -0.767
REMARK SMILES CCCCCCCCCCCCCCC(=O)[O-]
REMARK SMILES IDX 9 1 10 2 11 3 12 4 13 5 14 6 15 7 16 8 17 9 8 10 7 11 6 12
REMARK SMILES IDX 5 13 4 14 3 15 2 16 1 17
REMARK H PARENT
REMARK Flexibility Score: inf
ROOT
ATOM      1  C   UNL     1      16.003  -7.517   6.449  1.00  0.00     0.000 C 
ENDROOT
BRANCH   1   2
ATOM      2  C   UNL     1      16.172  -6.796   5.096  1.00  0.00     0.000 C 
BRANCH   2   3
ATOM      3  C   UNL     1      17.155  -7.463   4.118  1.00  0.00     0.000 C 
BRANCH   3   4
ATOM      4  C   UNL     1      18.538  -6.795   4.111  1.00  0.00     0.000 C 
BRANCH   4   5
ATOM      5  C   UNL     1      19.585  -7.691   4.788  1.00  0.00     0.006 C 
BRANCH   5   6
ATOM      6  C   UNL     1      19.713  -7.401   6.290  1.00  0.00     0.053 C 
BRANCH   6   7
ATOM      7  C   UNL     1      19.419  -8.615   7.116  1.00  0.00     0.041 C 
ATOM      8  O   UNL     1      19.755  -8.653   8.329  1.00  0.00    -0.550 OA
ATOM      9  O   UNL     1      18.803  -9.717   6.538  1.00  0.00    -0.550 OA
ENDBRANCH   6   7
ENDBRANCH   5   6
ENDBRANCH   4   5
ENDBRANCH   3   4
ENDBRANCH   2   3
ENDBRANCH   1   2
BRANCH   1  10
ATOM     10  C   UNL     1      14.642  -8.205   6.658  1.00  0.00     0.000 C 
BRANCH  10  11
ATOM     11  C   UNL     1      14.443  -9.425   5.747  1.00  0.00    -0.000 C 
BRANCH  11  12
ATOM     12  C   UNL     1      13.233  -9.225   4.820  1.00  0.00    -0.000 C 
BRANCH  12  13
ATOM     13  C   UNL     1      12.719  -7.776   4.822  1.00  0.00    -0.000 C 
BRANCH  13  14
ATOM     14  C   UNL     1      11.209  -7.686   5.102  1.00  0.00    -0.000 C 
BRANCH  14  15
ATOM     15  C   UNL     1      10.789  -8.447   6.372  1.00  0.00    -0.000 C 
BRANCH  15  16
ATOM     16  C   UNL     1       9.323  -8.917   6.394  1.00  0.00    -0.003 C 
ATOM     17  C   UNL     1       8.434  -8.150   5.416  1.00  0.00     0.004 C 
ENDBRANCH  15  16
ENDBRANCH  14  15
ENDBRANCH  13  14
ENDBRANCH  12  13
ENDBRANCH  11  12
ENDBRANCH  10  11
ENDBRANCH   1  10
TORSDOF 13
ENDMDL
MODEL 8
REMARK VINA RESULT:    -3.098      2.358      4.516
REMARK INTER + INTRA:          -6.219
REMARK INTER:                  -5.575
REMARK INTRA:                  -0.643
REMARK UNBOUND:                -0.767
REMARK SMILES CCCCCCCCCCCCCCC(=O)[O-]
REMARK SMILES IDX 9 1 10 2 11 3 12 4 13 5 14 6 15 7 16 8 17 9 8 10 7 11 6 12
REMARK SMILES IDX 5 13 4 14 3 15 2 16 1 17
REMARK H PARENT
REMARK Flexibility Score: inf
ROOT
ATOM      1  C   UNL     1      10.003  -9.538   5.108  1.00  0.00     0.000 C 
ENDROOT
BRANCH   1   2
ATOM      2  C   UNL     1      10.817  -8.400   5.757  1.00  0.00     0.000 C 
BRANCH   2   3
ATOM      3  C   UNL     1      11.670  -7.569   4.783  1.00  0.00     0.000 C 
BRANCH   3   4
ATOM      4  C   UNL     1      13.156  -7.958   4.808  1.00  0.00     0.000 C 
BRANCH   4   5
ATOM      5  C   UNL     1      13.627  -8.236   6.243  1.00  0.00     0.006 C 
BRANCH   5   6
ATOM      6  C   UNL     1      15.109  -8.625   6.303  1.00  0.00     0.053 C 
BRANCH   6   7
ATOM      7  C   UNL     1      15.997  -7.420   6.361  1.00  0.00     0.041 C 
ATOM      8  O   UNL     1      16.323  -6.926   7.472  1.00  0.00    -0.550 OA
ATOM      9  O   UNL     1      16.440  -6.825   5.186  1.00  0.00    -0.550 OA
ENDBRANCH   6   7
ENDBRANCH   5   6
ENDBRANCH   4   5
ENDBRANCH   3   4
ENDBRANCH   2   3
ENDBRANCH   1   2
BRANCH   1  10
ATOM     10  C   UNL     1       8.493  -9.266   4.972  1.00  0.00     0.000 C 
BRANCH  10  11
ATOM     11  C   UNL     1       8.119  -7.810   5.283  1.00  0.00    -0.000 C 
BRANCH  11  12
ATOM     12  C   UNL     1       7.010  -7.744   6.345  1.00  0.00    -0.000 C 
BRANCH  12  13
ATOM     13  C   UNL     1       5.922  -6.713   6.003  1.00  0.00    -0.000 C 
BRANCH  13  14
ATOM     14  C   UNL     1       4.968  -7.206   4.900  1.00  0.00    -0.000 C 
BRANCH  14  15
ATOM     15  C   UNL     1       4.490  -6.074   3.973  1.00  0.00    -0.000 C 
BRANCH  15  16
ATOM     16  C   UNL     1       3.064  -5.566   4.249  1.00  0.00    -0.003 C 
ATOM     17  C   UNL     1       3.033  -4.154   4.833  1.00  0.00     0.004 C 
ENDBRANCH  15  16
ENDBRANCH  14  15
ENDBRANCH  13  14
ENDBRANCH  12  13
ENDBRANCH  11  12
ENDBRANCH  10  11
ENDBRANCH   1  10
TORSDOF 13
ENDMDL
MODEL 9
REMARK VINA RESULT:    -3.083      2.527      3.491
REMARK INTER + INTRA:          -6.193
REMARK INTER:                  -5.583
REMARK INTRA:                  -0.610
REMARK UNBOUND:                -0.767
REMARK SMILES CCCCCCCCCCCCCCC(=O)[O-]
REMARK SMILES IDX 9 1 10 2 11 3 12 4 13 5 14 6 15 7 16 8 17 9 8 10 7 11 6 12
REMARK SMILES IDX 5 13 4 14 3 15 2 16 1 17
REMARK H PARENT
REMARK Flexibility Score: inf
ROOT
ATOM      1  C   UNL     1      16.258  -7.217   5.801  1.00  0.00     0.000 C 
ENDROOT
BRANCH   1   2
ATOM      2  C   UNL     1      17.430  -8.216   5.901  1.00  0.00     0.000 C 
BRANCH   2   3
ATOM      3  C   UNL     1      18.608  -7.755   6.777  1.00  0.00     0.000 C 
BRANCH   3   4
ATOM      4  C   UNL     1      19.953  -8.348   6.331  1.00  0.00     0.000 C 
BRANCH   4   5
ATOM      5  C   UNL     1      20.486  -7.625   5.086  1.00  0.00     0.006 C 
BRANCH   5   6
ATOM      6  C   UNL     1      20.458  -6.099   5.244  1.00  0.00     0.053 C 
BRANCH   6   7
ATOM      7  C   UNL     1      21.509  -5.436   4.407  1.00  0.00     0.041 C 
ATOM      8  O   UNL     1      22.612  -6.008   4.204  1.00  0.00    -0.550 OA
ATOM      9  O   UNL     1      21.281  -4.172   3.878  1.00  0.00    -0.550 OA
ENDBRANCH   6   7
ENDBRANCH   5   6
ENDBRANCH   4   5
ENDBRANCH   3   4
ENDBRANCH   2   3
ENDBRANCH   1   2
BRANCH   1  10
ATOM     10  C   UNL     1      15.835  -6.848   4.367  1.00  0.00     0.000 C 
BRANCH  10  11
ATOM     11  C   UNL     1      14.402  -7.289   4.036  1.00  0.00    -0.000 C 
BRANCH  11  12
ATOM     12  C   UNL     1      13.739  -7.956   5.251  1.00  0.00    -0.000 C 
BRANCH  12  13
ATOM     13  C   UNL     1      12.485  -8.761   4.875  1.00  0.00    -0.000 C 
BRANCH  13  14
ATOM     14  C   UNL     1      11.287  -8.452   5.790  1.00  0.00    -0.000 C 
BRANCH  14  15
ATOM     15  C   UNL     1       9.991  -9.145   5.334  1.00  0.00    -0.000 C 
BRANCH  15  16
ATOM     16  C   UNL     1       8.767  -8.890   6.232  1.00  0.00    -0.003 C 
ATOM     17  C   UNL     1       8.661  -9.875   7.396  1.00  0.00     0.004 C 
ENDBRANCH  15  16
ENDBRANCH  14  15
ENDBRANCH  13  14
ENDBRANCH  12  13
ENDBRANCH  11  12
ENDBRANCH  10  11
ENDBRANCH   1  10
TORSDOF 13
ENDMDL
