MODEL 1
REMARK VINA RESULT:    -2.965      0.000      0.000
REMARK INTER + INTRA:          -2.965
REMARK INTER:                  -2.965
REMARK INTRA:                   0.000
REMARK UNBOUND:                 0.000
REMARK SMILES c1cc[nH]c1
REMARK SMILES IDX 1 1 5 2 4 3 3 4 2 5
REMARK H PARENT 4 6
REMARK Flexibility Score: inf
ROOT
ATOM      1  C   UNL     1     135.988 152.618 163.086  1.00  0.00     0.019 A 
ATOM      2  C   UNL     1     137.203 152.460 163.719  1.00  0.00     0.082 A 
ATOM      3  N   UNL     1     137.897 153.610 163.676  1.00  0.00    -0.368 N 
ATOM      4  C   UNL     1     137.138 154.505 163.020  1.00  0.00     0.082 A 
ATOM      5  C   UNL     1     135.946 153.924 162.640  1.00  0.00     0.019 A 
ATOM      6  H   UNL     1     138.847 153.777 164.076  1.00  0.00     0.165 HD
ENDROOT
TORSDOF 0
ENDMDL
MODEL 2
REMARK VINA RESULT:    -2.960     22.653     23.554
REMARK INTER + INTRA:          -2.960
REMARK INTER:                  -2.960
REMARK INTRA:                   0.000
REMARK UNBOUND:                 0.000
REMARK SMILES c1cc[nH]c1
REMARK SMILES IDX 1 1 5 2 4 3 3 4 2 5
REMARK H PARENT 4 6
REMARK Flexibility Score: inf
ROOT
ATOM      1  C   UNL     1     154.709 138.075 163.077  1.00  0.00     0.019 A 
ATOM      2  C   UNL     1     153.509 138.237 163.738  1.00  0.00     0.082 A 
ATOM      3  N   UNL     1     152.793 137.101 163.674  1.00  0.00    -0.368 N 
ATOM      4  C   UNL     1     153.523 136.212 162.977  1.00  0.00     0.082 A 
ATOM      5  C   UNL     1     154.718 136.782 162.591  1.00  0.00     0.019 A 
ATOM      6  H   UNL     1     151.848 136.940 164.086  1.00  0.00     0.165 HD
ENDROOT
TORSDOF 0
ENDMDL
MODEL 3
REMARK VINA RESULT:    -2.946     16.174     16.683
REMARK INTER + INTRA:          -2.946
REMARK INTER:                  -2.946
REMARK INTRA:                   0.000
REMARK UNBOUND:                 0.000
REMARK SMILES c1cc[nH]c1
REMARK SMILES IDX 1 1 5 2 4 3 3 4 2 5
REMARK H PARENT 4 6
REMARK Flexibility Score: inf
ROOT
ATOM      1  C   UNL     1     153.272 153.312 163.425  1.00  0.00     0.019 A 
ATOM      2  C   UNL     1     152.296 153.885 162.635  1.00  0.00     0.082 A 
ATOM      3  N   UNL     1     152.837 154.835 161.853  1.00  0.00    -0.368 N 
ATOM      4  C   UNL     1     154.151 154.876 162.133  1.00  0.00     0.082 A 
ATOM      5  C   UNL     1     154.457 153.945 163.103  1.00  0.00     0.019 A 
ATOM      6  H   UNL     1     152.332 155.429 161.159  1.00  0.00     0.165 HD
ENDROOT
TORSDOF 0
ENDMDL
MODEL 4
REMARK VINA RESULT:    -2.941     16.130     16.679
REMARK INTER + INTRA:          -2.941
REMARK INTER:                  -2.941
REMARK INTRA:                   0.000
REMARK UNBOUND:                 0.000
REMARK SMILES c1cc[nH]c1
REMARK SMILES IDX 1 1 5 2 4 3 3 4 2 5
REMARK H PARENT 4 6
REMARK Flexibility Score: inf
ROOT
ATOM      1  C   UNL     1     154.427 153.989 163.027  1.00  0.00     0.019 A 
ATOM      2  C   UNL     1     154.077 154.876 162.031  1.00  0.00     0.082 A 
ATOM      3  N   UNL     1     152.755 154.805 161.795  1.00  0.00    -0.368 N 
ATOM      4  C   UNL     1     152.254 153.879 162.633  1.00  0.00     0.082 A 
ATOM      5  C   UNL     1     153.263 153.353 163.412  1.00  0.00     0.019 A 
ATOM      6  H   UNL     1     152.219 155.362 161.094  1.00  0.00     0.165 HD
ENDROOT
TORSDOF 0
ENDMDL
MODEL 5
REMARK VINA RESULT:    -2.937     16.408     16.931
REMARK INTER + INTRA:          -2.937
REMARK INTER:                  -2.937
REMARK INTRA:                   0.000
REMARK UNBOUND:                 0.000
REMARK SMILES c1cc[nH]c1
REMARK SMILES IDX 1 1 5 2 4 3 3 4 2 5
REMARK H PARENT 4 6
REMARK Flexibility Score: inf
ROOT
ATOM      1  C   UNL     1     136.324 136.766 163.048  1.00  0.00     0.019 A 
ATOM      2  C   UNL     1     136.660 135.894 162.034  1.00  0.00     0.082 A 
ATOM      3  N   UNL     1     137.979 135.963 161.785  1.00  0.00    -0.368 N 
ATOM      4  C   UNL     1     138.493 136.873 162.632  1.00  0.00     0.082 A 
ATOM      5  C   UNL     1     137.495 137.391 163.431  1.00  0.00     0.019 A 
ATOM      6  H   UNL     1     138.506 135.415 161.069  1.00  0.00     0.165 HD
ENDROOT
TORSDOF 0
ENDMDL
MODEL 6
REMARK VINA RESULT:    -2.936     16.411     16.956
REMARK INTER + INTRA:          -2.936
REMARK INTER:                  -2.936
REMARK INTRA:                   0.000
REMARK UNBOUND:                 0.000
REMARK SMILES c1cc[nH]c1
REMARK SMILES IDX 1 1 5 2 4 3 3 4 2 5
REMARK H PARENT 4 6
REMARK Flexibility Score: inf
ROOT
ATOM      1  C   UNL     1     137.495 137.380 163.437  1.00  0.00     0.019 A 
ATOM      2  C   UNL     1     138.500 136.898 162.625  1.00  0.00     0.082 A 
ATOM      3  N   UNL     1     138.003 135.990 161.767  1.00  0.00    -0.368 N 
ATOM      4  C   UNL     1     136.686 135.886 162.022  1.00  0.00     0.082 A 
ATOM      5  C   UNL     1     136.337 136.734 163.052  1.00  0.00     0.019 A 
ATOM      6  H   UNL     1     138.537 135.465 161.040  1.00  0.00     0.165 HD
ENDROOT
TORSDOF 0
ENDMDL
MODEL 7
REMARK VINA RESULT:    -2.876     17.092     17.865
REMARK INTER + INTRA:          -2.876
REMARK INTER:                  -2.876
REMARK INTRA:                   0.000
REMARK UNBOUND:                 0.000
REMARK SMILES c1cc[nH]c1
REMARK SMILES IDX 1 1 5 2 4 3 3 4 2 5
REMARK H PARENT 4 6
REMARK Flexibility Score: inf
ROOT
ATOM      1  C   UNL     1     139.317 135.680 161.822  1.00  0.00     0.019 A 
ATOM      2  C   UNL     1     138.487 136.609 162.414  1.00  0.00     0.082 A 
ATOM      3  N   UNL     1     137.216 136.403 162.027  1.00  0.00    -0.368 N 
ATOM      4  C   UNL     1     137.224 135.350 161.191  1.00  0.00     0.082 A 
ATOM      5  C   UNL     1     138.511 134.876 161.041  1.00  0.00     0.019 A 
ATOM      6  H   UNL     1     136.381 136.956 162.320  1.00  0.00     0.165 HD
ENDROOT
TORSDOF 0
ENDMDL
MODEL 8
REMARK VINA RESULT:    -2.849     22.276     22.660
REMARK INTER + INTRA:          -2.849
REMARK INTER:                  -2.849
REMARK INTRA:                   0.000
REMARK UNBOUND:                 0.000
REMARK SMILES c1cc[nH]c1
REMARK SMILES IDX 1 1 5 2 4 3 3 4 2 5
REMARK H PARENT 4 6
REMARK Flexibility Score: inf
ROOT
ATOM      1  C   UNL     1     152.386 137.569 160.898  1.00  0.00     0.019 A 
ATOM      2  C   UNL     1     151.281 136.758 161.052  1.00  0.00     0.082 A 
ATOM      3  N   UNL     1     151.337 136.125 162.237  1.00  0.00    -0.368 N 
ATOM      4  C   UNL     1     152.469 136.523 162.844  1.00  0.00     0.082 A 
ATOM      5  C   UNL     1     153.145 137.419 162.042  1.00  0.00     0.019 A 
ATOM      6  H   UNL     1     150.635 135.452 162.614  1.00  0.00     0.165 HD
ENDROOT
TORSDOF 0
ENDMDL
MODEL 9
REMARK VINA RESULT:    -2.824      2.279      2.644
REMARK INTER + INTRA:          -2.824
REMARK INTER:                  -2.824
REMARK INTRA:                   0.000
REMARK UNBOUND:                 0.000
REMARK SMILES c1cc[nH]c1
REMARK SMILES IDX 1 1 5 2 4 3 3 4 2 5
REMARK H PARENT 4 6
REMARK Flexibility Score: inf
ROOT
ATOM      1  C   UNL     1     138.367 153.200 160.897  1.00  0.00     0.019 A 
ATOM      2  C   UNL     1     139.450 154.031 161.099  1.00  0.00     0.082 A 
ATOM      3  N   UNL     1     139.355 154.625 162.301  1.00  0.00    -0.368 N 
ATOM      4  C   UNL     1     138.221 154.183 162.873  1.00  0.00     0.082 A 
ATOM      5  C   UNL     1     137.583 153.297 162.030  1.00  0.00     0.019 A 
ATOM      6  H   UNL     1     140.034 155.303 162.713  1.00  0.00     0.165 HD
ENDROOT
TORSDOF 0
ENDMDL
