MODEL 1
REMARK VINA RESULT:    -3.631      0.000      0.000
REMARK INTER + INTRA:          -5.877
REMARK INTER:                  -5.542
REMARK INTRA:                  -0.335
REMARK UNBOUND:                -0.335
REMARK SMILES CC1=CCC[C@@H](C)C(=O)C[C@H](C(C)C)C(=O)C1
REMARK SMILES IDX 8 1 9 2 6 3 7 4 5 5 4 6 3 7 2 8 1 9 10 11 11 12 15 13 16 14
REMARK SMILES IDX 17 15 12 17 13 18 14 19
REMARK H PARENT
REMARK Flexibility Score: 70.00
ROOT
ATOM      1  C   UNL     1      25.934  -4.118  52.317  1.00  0.00     0.136 C 
ATOM      2  O   UNL     1      25.766  -4.099  51.105  1.00  0.00    -0.299 OA
ENDROOT
BRANCH   1   3
ATOM      3  C   UNL     1      25.079  -3.239  53.220  1.00  0.00     0.053 C 
ATOM      4  C   UNL     1      25.769  -1.907  53.561  1.00  0.00     0.016 C 
BRANCH   3   5
ATOM      5  C   UNL     1      24.634  -3.976  54.503  1.00  0.00     0.015 C 
BRANCH   5   6
ATOM      6  C   UNL     1      25.127  -3.303  55.798  1.00  0.00     0.028 C 
BRANCH   6   7
ATOM      7  C   UNL     1      25.749  -4.277  56.766  1.00  0.00    -0.028 C 
ATOM      8  C   UNL     1      27.078  -4.487  56.943  1.00  0.00    -0.070 CG0
ATOM      9  C   UNL     1      27.486  -5.431  58.048  1.00  0.00     0.039 C 
ATOM     10  G   UNL     1      28.170  -3.882  56.064  1.00  0.00     0.000 G0
ENDBRANCH   6   7
ENDBRANCH   5   6
ENDBRANCH   3   5
ENDBRANCH   1   3
BRANCH   1  11
ATOM     11  C   UNL     1      26.973  -5.050  52.894  1.00  0.00     0.087 C 
BRANCH  11  12
ATOM     12  C   UNL     1      28.221  -4.299  53.442  1.00  0.00     0.066 C 
BRANCH  12  13
ATOM     13  C   UNL     1      28.590  -4.684  54.871  1.00  0.00     0.140 C 
ATOM     14  O   UNL     1      29.138  -5.762  55.061  1.00  0.00    -0.299 OA
BRANCH  13  15
ATOM     15  C   UNL     1      28.175  -3.865  56.070  1.00  0.00     0.106 CG0
ATOM     16  G   UNL     1      27.081  -4.505  56.920  1.00  0.00     0.000 G0
ENDBRANCH  13  15
ENDBRANCH  12  13
BRANCH  12  17
ATOM     17  C   UNL     1      29.464  -4.374  52.496  1.00  0.00    -0.006 C 
ATOM     18  C   UNL     1      29.729  -3.025  51.807  1.00  0.00     0.008 C 
ATOM     19  C   UNL     1      29.386  -5.487  51.435  1.00  0.00     0.008 C 
ENDBRANCH  12  17
ENDBRANCH  11  12
ENDBRANCH   1  11
TORSDOF 1
ENDMDL
MODEL 2
REMARK VINA RESULT:    -3.462      9.747     12.051
REMARK INTER + INTRA:          -5.618
REMARK INTER:                  -5.377
REMARK INTRA:                  -0.241
REMARK UNBOUND:                -0.335
REMARK SMILES CC1=CCC[C@@H](C)C(=O)C[C@H](C(C)C)C(=O)C1
REMARK SMILES IDX 8 1 9 2 6 3 7 4 5 5 4 6 3 7 2 8 1 9 10 11 11 12 15 13 16 14
REMARK SMILES IDX 17 15 12 17 13 18 14 19
REMARK H PARENT
REMARK Flexibility Score: 70.00
ROOT
ATOM      1  C   UNL     1      15.978  -2.944  60.305  1.00  0.00     0.136 C 
ATOM      2  O   UNL     1      14.862  -2.673  60.732  1.00  0.00    -0.299 OA
ENDROOT
BRANCH   1   3
ATOM      3  C   UNL     1      16.712  -4.177  60.815  1.00  0.00     0.053 C 
ATOM      4  C   UNL     1      15.936  -5.475  60.536  1.00  0.00     0.016 C 
BRANCH   3   5
ATOM      5  C   UNL     1      17.078  -4.062  62.312  1.00  0.00     0.015 C 
BRANCH   5   6
ATOM      6  C   UNL     1      18.003  -2.871  62.626  1.00  0.00     0.028 C 
BRANCH   6   7
ATOM      7  C   UNL     1      19.379  -3.022  62.028  1.00  0.00    -0.028 C 
ATOM      8  C   UNL     1      20.079  -2.054  61.383  1.00  0.00    -0.070 CG0
ATOM      9  C   UNL     1      21.489  -2.389  60.960  1.00  0.00     0.039 C 
ATOM     10  G   UNL     1      19.513  -0.686  61.009  1.00  0.00     0.000 G0
ENDBRANCH   6   7
ENDBRANCH   5   6
ENDBRANCH   3   5
ENDBRANCH   1   3
BRANCH   1  11
ATOM     11  C   UNL     1      16.587  -2.057  59.245  1.00  0.00     0.087 C 
BRANCH  11  12
ATOM     12  C   UNL     1      17.149  -0.726  59.823  1.00  0.00     0.066 C 
BRANCH  12  13
ATOM     13  C   UNL     1      18.671  -0.628  59.767  1.00  0.00     0.140 C 
ATOM     14  O   UNL     1      19.216  -0.646  58.671  1.00  0.00    -0.299 OA
BRANCH  13  15
ATOM     15  C   UNL     1      19.537  -0.662  61.003  1.00  0.00     0.106 CG0
ATOM     16  G   UNL     1      20.075  -2.046  61.356  1.00  0.00     0.000 G0
ENDBRANCH  13  15
ENDBRANCH  12  13
BRANCH  12  17
ATOM     17  C   UNL     1      16.478   0.552  59.223  1.00  0.00    -0.006 C 
ATOM     18  C   UNL     1      15.109   0.824  59.869  1.00  0.00     0.008 C 
ATOM     19  C   UNL     1      16.328   0.529  57.691  1.00  0.00     0.008 C 
ENDBRANCH  12  17
ENDBRANCH  11  12
ENDBRANCH   1  11
TORSDOF 1
ENDMDL
MODEL 3
REMARK VINA RESULT:    -3.450     10.646     12.598
REMARK INTER + INTRA:          -5.600
REMARK INTER:                  -5.350
REMARK INTRA:                  -0.250
REMARK UNBOUND:                -0.335
REMARK SMILES CC1=CCC[C@@H](C)C(=O)C[C@H](C(C)C)C(=O)C1
REMARK SMILES IDX 8 1 9 2 6 3 7 4 5 5 4 6 3 7 2 8 1 9 10 11 11 12 15 13 16 14
REMARK SMILES IDX 17 15 12 17 13 18 14 19
REMARK H PARENT
REMARK Flexibility Score: 70.00
ROOT
ATOM      1  C   UNL     1      16.134  -1.008  58.990  1.00  0.00     0.136 C 
ATOM      2  O   UNL     1      16.797  -1.660  58.194  1.00  0.00    -0.299 OA
ENDROOT
BRANCH   1   3
ATOM      3  C   UNL     1      15.810   0.452  58.699  1.00  0.00     0.053 C 
ATOM      4  C   UNL     1      15.042   0.626  57.377  1.00  0.00     0.016 C 
BRANCH   3   5
ATOM      5  C   UNL     1      17.067   1.348  58.732  1.00  0.00     0.015 C 
BRANCH   5   6
ATOM      6  C   UNL     1      17.689   1.480  60.135  1.00  0.00     0.028 C 
BRANCH   6   7
ATOM      7  C   UNL     1      18.925   0.635  60.311  1.00  0.00    -0.028 C 
ATOM      8  C   UNL     1      19.026  -0.479  61.081  1.00  0.00    -0.070 CG0
ATOM      9  C   UNL     1      20.330  -1.238  61.026  1.00  0.00     0.039 C 
ATOM     10  G   UNL     1      17.939  -0.970  62.033  1.00  0.00     0.000 G0
ENDBRANCH   6   7
ENDBRANCH   5   6
ENDBRANCH   3   5
ENDBRANCH   1   3
BRANCH   1  11
ATOM     11  C   UNL     1      15.620  -1.687  60.237  1.00  0.00     0.087 C 
BRANCH  11  12
ATOM     12  C   UNL     1      16.548  -2.836  60.725  1.00  0.00     0.066 C 
BRANCH  12  13
ATOM     13  C   UNL     1      17.513  -2.418  61.831  1.00  0.00     0.140 C 
ATOM     14  O   UNL     1      17.861  -3.258  62.649  1.00  0.00    -0.299 OA
BRANCH  13  15
ATOM     15  C   UNL     1      17.935  -0.984  62.046  1.00  0.00     0.106 CG0
ATOM     16  G   UNL     1      19.012  -0.493  61.082  1.00  0.00     0.000 G0
ENDBRANCH  13  15
ENDBRANCH  12  13
BRANCH  12  17
ATOM     17  C   UNL     1      15.781  -4.143  61.109  1.00  0.00    -0.006 C 
ATOM     18  C   UNL     1      15.927  -5.221  60.022  1.00  0.00     0.008 C 
ATOM     19  C   UNL     1      14.290  -3.932  61.426  1.00  0.00     0.008 C 
ENDBRANCH  12  17
ENDBRANCH  11  12
ENDBRANCH   1  11
TORSDOF 1
ENDMDL
MODEL 4
REMARK VINA RESULT:    -3.442     11.054     13.298
REMARK INTER + INTRA:          -5.588
REMARK INTER:                  -5.193
REMARK INTRA:                  -0.395
REMARK UNBOUND:                -0.335
REMARK SMILES CC1=CCC[C@@H](C)C(=O)C[C@H](C(C)C)C(=O)C1
REMARK SMILES IDX 8 1 9 2 6 3 7 4 5 5 4 6 3 7 2 8 1 9 10 11 11 12 15 13 16 14
REMARK SMILES IDX 17 15 12 17 13 18 14 19
REMARK H PARENT
REMARK Flexibility Score: 70.00
ROOT
ATOM      1  C   UNL     1      14.863  -3.107  62.257  1.00  0.00     0.136 C 
ATOM      2  O   UNL     1      14.147  -3.952  61.734  1.00  0.00    -0.299 OA
ENDROOT
BRANCH   1   3
ATOM      3  C   UNL     1      14.511  -1.630  62.141  1.00  0.00     0.053 C 
ATOM      4  C   UNL     1      13.011  -1.406  61.881  1.00  0.00     0.016 C 
BRANCH   3   5
ATOM      5  C   UNL     1      15.370  -0.906  61.081  1.00  0.00     0.015 C 
BRANCH   5   6
ATOM      6  C   UNL     1      16.358   0.111  61.684  1.00  0.00     0.028 C 
BRANCH   6   7
ATOM      7  C   UNL     1      17.743   0.004  61.098  1.00  0.00    -0.028 C 
ATOM      8  C   UNL     1      18.694  -0.895  61.458  1.00  0.00    -0.070 CG0
ATOM      9  C   UNL     1      19.977  -0.899  60.662  1.00  0.00     0.039 C 
ATOM     10  G   UNL     1      18.573  -1.848  62.645  1.00  0.00     0.000 G0
ENDBRANCH   6   7
ENDBRANCH   5   6
ENDBRANCH   3   5
ENDBRANCH   1   3
BRANCH   1  11
ATOM     11  C   UNL     1      16.071  -3.562  63.041  1.00  0.00     0.087 C 
BRANCH  11  12
ATOM     12  C   UNL     1      17.214  -4.100  62.133  1.00  0.00     0.066 C 
BRANCH  12  13
ATOM     13  C   UNL     1      18.525  -3.333  62.276  1.00  0.00     0.140 C 
ATOM     14  O   UNL     1      19.575  -3.957  62.210  1.00  0.00    -0.299 OA
BRANCH  13  15
ATOM     15  C   UNL     1      18.577  -1.870  62.646  1.00  0.00     0.106 CG0
ATOM     16  G   UNL     1      18.718  -0.925  61.456  1.00  0.00     0.000 G0
ENDBRANCH  13  15
ENDBRANCH  12  13
BRANCH  12  17
ATOM     17  C   UNL     1      17.443  -5.641  62.259  1.00  0.00    -0.006 C 
ATOM     18  C   UNL     1      16.892  -6.395  61.037  1.00  0.00     0.008 C 
ATOM     19  C   UNL     1      16.872  -6.263  63.547  1.00  0.00     0.008 C 
ENDBRANCH  12  17
ENDBRANCH  11  12
ENDBRANCH   1  11
TORSDOF 1
ENDMDL
MODEL 5
REMARK VINA RESULT:    -3.351     11.622     13.384
REMARK INTER + INTRA:          -5.449
REMARK INTER:                  -5.148
REMARK INTRA:                  -0.300
REMARK UNBOUND:                -0.335
REMARK SMILES CC1=CCC[C@@H](C)C(=O)C[C@H](C(C)C)C(=O)C1
REMARK SMILES IDX 8 1 9 2 6 3 7 4 5 5 4 6 3 7 2 8 1 9 10 11 11 12 15 13 16 14
REMARK SMILES IDX 17 15 12 17 13 18 14 19
REMARK H PARENT
REMARK Flexibility Score: 70.00
ROOT
ATOM      1  C   UNL     1      15.699   2.945  60.501  1.00  0.00     0.136 C 
ATOM      2  O   UNL     1      15.546   4.160  60.506  1.00  0.00    -0.299 OA
ENDROOT
BRANCH   1   3
ATOM      3  C   UNL     1      16.330   2.251  61.701  1.00  0.00     0.053 C 
ATOM      4  C   UNL     1      15.726   2.726  63.034  1.00  0.00     0.016 C 
BRANCH   3   5
ATOM      5  C   UNL     1      17.869   2.385  61.712  1.00  0.00     0.015 C 
BRANCH   5   6
ATOM      6  C   UNL     1      18.594   1.166  61.109  1.00  0.00     0.028 C 
BRANCH   6   7
ATOM      7  C   UNL     1      17.780  -0.100  61.189  1.00  0.00    -0.028 C 
ATOM      8  C   UNL     1      17.410  -0.878  60.139  1.00  0.00    -0.070 CG0
ATOM      9  C   UNL     1      16.689  -2.166  60.456  1.00  0.00     0.039 C 
ATOM     10  G   UNL     1      17.621  -0.504  58.674  1.00  0.00     0.000 G0
ENDBRANCH   6   7
ENDBRANCH   5   6
ENDBRANCH   3   5
ENDBRANCH   1   3
BRANCH   1  11
ATOM     11  C   UNL     1      15.220   2.155  59.306  1.00  0.00     0.087 C 
BRANCH  11  12
ATOM     12  C   UNL     1      16.367   1.804  58.316  1.00  0.00     0.066 C 
BRANCH  12  13
ATOM     13  C   UNL     1      16.518   0.307  58.057  1.00  0.00     0.140 C 
ATOM     14  O   UNL     1      15.638  -0.267  57.431  1.00  0.00    -0.299 OA
BRANCH  13  15
ATOM     15  C   UNL     1      17.625  -0.518  58.667  1.00  0.00     0.106 CG0
ATOM     16  G   UNL     1      17.404  -0.881  60.133  1.00  0.00     0.000 G0
ENDBRANCH  13  15
ENDBRANCH  12  13
BRANCH  12  17
ATOM     17  C   UNL     1      16.307   2.607  56.975  1.00  0.00    -0.006 C 
ATOM     18  C   UNL     1      17.624   2.491  56.190  1.00  0.00     0.008 C 
ATOM     19  C   UNL     1      15.936   4.092  57.143  1.00  0.00     0.008 C 
ENDBRANCH  12  17
ENDBRANCH  11  12
ENDBRANCH   1  11
TORSDOF 1
ENDMDL
MODEL 6
REMARK VINA RESULT:    -3.259     11.045     13.451
REMARK INTER + INTRA:          -5.309
REMARK INTER:                  -5.048
REMARK INTRA:                  -0.261
REMARK UNBOUND:                -0.335
REMARK SMILES CC1=CCC[C@@H](C)C(=O)C[C@H](C(C)C)C(=O)C1
REMARK SMILES IDX 8 1 9 2 6 3 7 4 5 5 4 6 3 7 2 8 1 9 10 11 11 12 15 13 16 14
REMARK SMILES IDX 17 15 12 17 13 18 14 19
REMARK H PARENT
REMARK Flexibility Score: 70.00
ROOT
ATOM      1  C   UNL     1      15.696   1.202  61.422  1.00  0.00     0.136 C 
ATOM      2  O   UNL     1      14.881   1.559  62.263  1.00  0.00    -0.299 OA
ENDROOT
BRANCH   1   3
ATOM      3  C   UNL     1      15.794   1.937  60.092  1.00  0.00     0.053 C 
ATOM      4  C   UNL     1      16.044   3.444  60.276  1.00  0.00     0.016 C 
BRANCH   3   5
ATOM      5  C   UNL     1      14.564   1.685  59.193  1.00  0.00     0.015 C 
BRANCH   5   6
ATOM      6  C   UNL     1      14.817   0.643  58.086  1.00  0.00     0.028 C 
BRANCH   6   7
ATOM      7  C   UNL     1      16.158   0.810  57.418  1.00  0.00    -0.028 C 
ATOM      8  C   UNL     1      17.168  -0.098  57.418  1.00  0.00    -0.070 CG0
ATOM      9  C   UNL     1      18.388   0.227  56.591  1.00  0.00     0.039 C 
ATOM     10  G   UNL     1      17.170  -1.382  58.244  1.00  0.00     0.000 G0
ENDBRANCH   6   7
ENDBRANCH   5   6
ENDBRANCH   3   5
ENDBRANCH   1   3
BRANCH   1  11
ATOM     11  C   UNL     1      16.618   0.050  61.746  1.00  0.00     0.087 C 
BRANCH  11  12
ATOM     12  C   UNL     1      16.439  -1.156  60.779  1.00  0.00     0.066 C 
BRANCH  12  13
ATOM     13  C   UNL     1      17.508  -1.234  59.692  1.00  0.00     0.140 C 
ATOM     14  O   UNL     1      18.673  -1.032  60.005  1.00  0.00    -0.299 OA
BRANCH  13  15
ATOM     15  C   UNL     1      17.172  -1.399  58.230  1.00  0.00     0.106 CG0
ATOM     16  G   UNL     1      17.187  -0.099  57.430  1.00  0.00     0.000 G0
ENDBRANCH  13  15
ENDBRANCH  12  13
BRANCH  12  17
ATOM     17  C   UNL     1      16.275  -2.528  61.511  1.00  0.00    -0.006 C 
ATOM     18  C   UNL     1      14.796  -2.935  61.618  1.00  0.00     0.008 C 
ATOM     19  C   UNL     1      16.927  -2.584  62.905  1.00  0.00     0.008 C 
ENDBRANCH  12  17
ENDBRANCH  11  12
ENDBRANCH   1  11
TORSDOF 1
ENDMDL
MODEL 7
REMARK VINA RESULT:    -3.254     10.772     13.412
REMARK INTER + INTRA:          -5.301
REMARK INTER:                  -4.976
REMARK INTRA:                  -0.325
REMARK UNBOUND:                -0.335
REMARK SMILES CC1=CCC[C@@H](C)C(=O)C[C@H](C(C)C)C(=O)C1
REMARK SMILES IDX 8 1 9 2 6 3 7 4 5 5 4 6 3 7 2 8 1 9 10 11 11 12 15 13 16 14
REMARK SMILES IDX 17 15 12 17 13 18 14 19
REMARK H PARENT
REMARK Flexibility Score: 70.00
ROOT
ATOM      1  C   UNL     1      18.196  -1.216  60.173  1.00  0.00     0.136 C 
ATOM      2  O   UNL     1      18.587  -1.943  61.076  1.00  0.00    -0.299 OA
ENDROOT
BRANCH   1   3
ATOM      3  C   UNL     1      19.072  -0.072  59.679  1.00  0.00     0.053 C 
ATOM      4  C   UNL     1      20.468  -0.552  59.245  1.00  0.00     0.016 C 
BRANCH   3   5
ATOM      5  C   UNL     1      19.177   1.073  60.711  1.00  0.00     0.015 C 
BRANCH   5   6
ATOM      6  C   UNL     1      18.423   2.348  60.288  1.00  0.00     0.028 C 
BRANCH   6   7
ATOM      7  C   UNL     1      18.168   2.415  58.804  1.00  0.00    -0.028 C 
ATOM      8  C   UNL     1      16.958   2.307  58.197  1.00  0.00    -0.070 CG0
ATOM      9  C   UNL     1      16.915   2.515  56.703  1.00  0.00     0.039 C 
ATOM     10  G   UNL     1      15.665   1.930  58.916  1.00  0.00     0.000 G0
ENDBRANCH   6   7
ENDBRANCH   5   6
ENDBRANCH   3   5
ENDBRANCH   1   3
BRANCH   1  11
ATOM     11  C   UNL     1      16.853  -1.498  59.541  1.00  0.00     0.087 C 
BRANCH  11  12
ATOM     12  C   UNL     1      15.754  -0.491  59.985  1.00  0.00     0.066 C 
BRANCH  12  13
ATOM     13  C   UNL     1      15.318   0.468  58.880  1.00  0.00     0.140 C 
ATOM     14  O   UNL     1      14.785   0.003  57.882  1.00  0.00    -0.299 OA
BRANCH  13  15
ATOM     15  C   UNL     1      15.653   1.940  58.900  1.00  0.00     0.106 CG0
ATOM     16  G   UNL     1      16.961   2.297  58.200  1.00  0.00     0.000 G0
ENDBRANCH  13  15
ENDBRANCH  12  13
BRANCH  12  17
ATOM     17  C   UNL     1      14.519  -1.168  60.665  1.00  0.00    -0.006 C 
ATOM     18  C   UNL     1      13.957  -0.301  61.803  1.00  0.00     0.008 C 
ATOM     19  C   UNL     1      14.787  -2.592  61.187  1.00  0.00     0.008 C 
ENDBRANCH  12  17
ENDBRANCH  11  12
ENDBRANCH   1  11
TORSDOF 1
ENDMDL
MODEL 8
REMARK VINA RESULT:    -3.184     11.439     12.606
REMARK INTER + INTRA:          -5.194
REMARK INTER:                  -4.900
REMARK INTRA:                  -0.293
REMARK UNBOUND:                -0.335
REMARK SMILES CC1=CCC[C@@H](C)C(=O)C[C@H](C(C)C)C(=O)C1
REMARK SMILES IDX 8 1 9 2 6 3 7 4 5 5 4 6 3 7 2 8 1 9 10 11 11 12 15 13 16 14
REMARK SMILES IDX 17 15 12 17 13 18 14 19
REMARK H PARENT
REMARK Flexibility Score: 70.00
ROOT
ATOM      1  C   UNL     1      17.375   1.585  57.045  1.00  0.00     0.136 C 
ATOM      2  O   UNL     1      17.042   2.385  56.180  1.00  0.00    -0.299 OA
ENDROOT
BRANCH   1   3
ATOM      3  C   UNL     1      16.728   0.207  57.102  1.00  0.00     0.053 C 
ATOM      4  C   UNL     1      16.803  -0.528  55.752  1.00  0.00     0.016 C 
BRANCH   3   5
ATOM      5  C   UNL     1      15.275   0.264  57.621  1.00  0.00     0.015 C 
BRANCH   5   6
ATOM      6  C   UNL     1      15.160   0.056  59.143  1.00  0.00     0.028 C 
BRANCH   6   7
ATOM      7  C   UNL     1      16.095  -1.006  59.663  1.00  0.00    -0.028 C 
ATOM      8  C   UNL     1      17.010  -0.848  60.653  1.00  0.00    -0.070 CG0
ATOM      9  C   UNL     1      17.768  -2.077  61.094  1.00  0.00     0.039 C 
ATOM     10  G   UNL     1      17.360   0.491  61.296  1.00  0.00     0.000 G0
ENDBRANCH   6   7
ENDBRANCH   5   6
ENDBRANCH   3   5
ENDBRANCH   1   3
BRANCH   1  11
ATOM     11  C   UNL     1      18.457   1.978  58.023  1.00  0.00     0.087 C 
BRANCH  11  12
ATOM     12  C   UNL     1      17.901   2.306  59.439  1.00  0.00     0.066 C 
BRANCH  12  13
ATOM     13  C   UNL     1      18.345   1.319  60.516  1.00  0.00     0.140 C 
ATOM     14  O   UNL     1      19.542   1.111  60.658  1.00  0.00    -0.299 OA
BRANCH  13  15
ATOM     15  C   UNL     1      17.369   0.480  61.305  1.00  0.00     0.106 CG0
ATOM     16  G   UNL     1      17.016  -0.854  60.652  1.00  0.00     0.000 G0
ENDBRANCH  13  15
ENDBRANCH  12  13
BRANCH  12  17
ATOM     17  C   UNL     1      18.153   3.782  59.887  1.00  0.00    -0.006 C 
ATOM     18  C   UNL     1      17.638   4.033  61.314  1.00  0.00     0.008 C 
ATOM     19  C   UNL     1      17.567   4.841  58.935  1.00  0.00     0.008 C 
ENDBRANCH  12  17
ENDBRANCH  11  12
ENDBRANCH   1  11
TORSDOF 1
ENDMDL
MODEL 9
REMARK VINA RESULT:    -3.125     10.808     12.784
REMARK INTER + INTRA:          -5.105
REMARK INTER:                  -4.848
REMARK INTRA:                  -0.257
REMARK UNBOUND:                -0.335
REMARK SMILES CC1=CCC[C@@H](C)C(=O)C[C@H](C(C)C)C(=O)C1
REMARK SMILES IDX 8 1 9 2 6 3 7 4 5 5 4 6 3 7 2 8 1 9 10 11 11 12 15 13 16 14
REMARK SMILES IDX 17 15 12 17 13 18 14 19
REMARK H PARENT
REMARK Flexibility Score: 70.00
ROOT
ATOM      1  C   UNL     1      18.998  -0.109  58.866  1.00  0.00     0.136 C 
ATOM      2  O   UNL     1      19.863  -0.676  58.211  1.00  0.00    -0.299 OA
ENDROOT
BRANCH   1   3
ATOM      3  C   UNL     1      18.656  -0.597  60.268  1.00  0.00     0.053 C 
ATOM      4  C   UNL     1      19.866  -1.232  60.974  1.00  0.00     0.016 C 
BRANCH   3   5
ATOM      5  C   UNL     1      17.445  -1.555  60.274  1.00  0.00     0.015 C 
BRANCH   5   6
ATOM      6  C   UNL     1      16.297  -1.085  61.188  1.00  0.00     0.028 C 
BRANCH   6   7
ATOM      7  C   UNL     1      16.404   0.371  61.563  1.00  0.00    -0.028 C 
ATOM      8  C   UNL     1      15.796   1.405  60.927  1.00  0.00    -0.070 CG0
ATOM      9  C   UNL     1      15.949   2.777  61.538  1.00  0.00     0.039 C 
ATOM     10  G   UNL     1      15.028   1.276  59.614  1.00  0.00     0.000 G0
ENDBRANCH   6   7
ENDBRANCH   5   6
ENDBRANCH   3   5
ENDBRANCH   1   3
BRANCH   1  11
ATOM     11  C   UNL     1      18.309   1.097  58.271  1.00  0.00     0.087 C 
BRANCH  11  12
ATOM     12  C   UNL     1      16.872   0.782  57.764  1.00  0.00     0.066 C 
BRANCH  12  13
ATOM     13  C   UNL     1      15.796   1.674  58.378  1.00  0.00     0.140 C 
ATOM     14  O   UNL     1      15.647   2.801  57.927  1.00  0.00    -0.299 OA
BRANCH  13  15
ATOM     15  C   UNL     1      15.016   1.281  59.610  1.00  0.00     0.106 CG0
ATOM     16  G   UNL     1      15.798   1.403  60.915  1.00  0.00     0.000 G0
ENDBRANCH  13  15
ENDBRANCH  12  13
BRANCH  12  17
ATOM     17  C   UNL     1      16.751   0.741  56.206  1.00  0.00    -0.006 C 
ATOM     18  C   UNL     1      17.082  -0.655  55.653  1.00  0.00     0.008 C 
ATOM     19  C   UNL     1      17.600   1.798  55.477  1.00  0.00     0.008 C 
ENDBRANCH  12  17
ENDBRANCH  11  12
ENDBRANCH   1  11
TORSDOF 1
ENDMDL
