MODEL 1
REMARK VINA RESULT:    -6.757      0.000      0.000
REMARK INTER + INTRA:          -8.206
REMARK INTER:                  -7.943
REMARK INTRA:                  -0.263
REMARK UNBOUND:                -0.263
REMARK SMILES O=c1c(O)c(-c2ccc(O)c(O)c2)oc2cc(O)ccc12
REMARK SMILES IDX 5 1 3 2 2 3 1 4 21 5 15 6 14 7 16 8 17 9 19 10 20 11 6 12
REMARK SMILES IDX 7 13 8 14 9 15 13 16 11 17 10 18 12 20 4 22 18 24
REMARK H PARENT 10 19 12 21 4 23 18 25
REMARK Flexibility Score: inf
ROOT
ATOM      1  C   UNL     1      31.029 -36.530  13.857  1.00  0.00     0.180 A 
ATOM      2  C   UNL     1      32.144 -37.240  14.350  1.00  0.00     0.208 A 
ATOM      3  C   UNL     1      32.062 -38.637  14.456  1.00  0.00     0.235 A 
ATOM      4  O   UNL     1      33.049 -39.296  14.885  1.00  0.00    -0.285 OA
ATOM      5  C   UNL     1      30.873 -39.290  14.091  1.00  0.00     0.069 A 
ATOM      6  C   UNL     1      29.794 -38.505  13.630  1.00  0.00     0.142 A 
ATOM      7  O   UNL     1      29.916 -37.186  13.535  1.00  0.00    -0.452 OA
ATOM      8  C   UNL     1      28.591 -39.117  13.266  1.00  0.00     0.094 A 
ATOM      9  C   UNL     1      28.450 -40.508  13.355  1.00  0.00     0.119 A 
ATOM     10  C   UNL     1      29.518 -41.287  13.811  1.00  0.00     0.047 A 
ATOM     11  C   UNL     1      30.726 -40.686  14.179  1.00  0.00     0.020 A 
ENDROOT
BRANCH   1  12
ATOM     12  C   UNL     1      31.043 -35.058  13.698  1.00  0.00     0.025 A 
ATOM     13  C   UNL     1      31.761 -34.440  12.659  1.00  0.00     0.016 A 
ATOM     14  C   UNL     1      31.739 -33.052  12.513  1.00  0.00     0.051 A 
ATOM     15  C   UNL     1      30.992 -32.260  13.391  1.00  0.00     0.157 A 
ATOM     16  C   UNL     1      30.277 -34.262  14.565  1.00  0.00     0.062 A 
ATOM     17  C   UNL     1      30.254 -32.867  14.421  1.00  0.00     0.158 A 
BRANCH  15  18
ATOM     18  O   UNL     1      30.992 -30.876  13.222  1.00  0.00    -0.504 OA
ATOM     19  H   UNL     1      30.571 -30.251  13.899  1.00  0.00     0.293 HD
ENDBRANCH  15  18
BRANCH  17  20
ATOM     20  O   UNL     1      29.502 -32.084  15.295  1.00  0.00    -0.504 OA
ATOM     21  H   UNL     1      29.860 -31.212  15.668  1.00  0.00     0.293 HD
ENDBRANCH  17  20
ENDBRANCH   1  12
BRANCH   2  22
ATOM     22  O   UNL     1      33.295 -36.559  14.751  1.00  0.00    -0.502 OA
ATOM     23  H   UNL     1      33.502 -35.617  14.442  1.00  0.00     0.293 HD
ENDBRANCH   2  22
BRANCH   9  24
ATOM     24  O   UNL     1      27.255 -41.126  12.994  1.00  0.00    -0.508 OA
ATOM     25  H   UNL     1      26.761 -40.869  12.147  1.00  0.00     0.293 HD
ENDBRANCH   9  24
TORSDOF 5
ENDMDL
MODEL 2
REMARK VINA RESULT:    -6.684      2.890      6.712
REMARK INTER + INTRA:          -8.119
REMARK INTER:                  -7.903
REMARK INTRA:                  -0.216
REMARK UNBOUND:                -0.263
REMARK SMILES O=c1c(O)c(-c2ccc(O)c(O)c2)oc2cc(O)ccc12
REMARK SMILES IDX 5 1 3 2 2 3 1 4 21 5 15 6 14 7 16 8 17 9 19 10 20 11 6 12
REMARK SMILES IDX 7 13 8 14 9 15 13 16 11 17 10 18 12 20 4 22 18 24
REMARK H PARENT 10 19 12 21 4 23 18 25
REMARK Flexibility Score: inf
ROOT
ATOM      1  C   UNL     1      32.030 -35.593  13.100  1.00  0.00     0.180 A 
ATOM      2  C   UNL     1      32.213 -34.482  12.250  1.00  0.00     0.208 A 
ATOM      3  C   UNL     1      33.414 -33.759  12.330  1.00  0.00     0.235 A 
ATOM      4  O   UNL     1      33.606 -32.768  11.573  1.00  0.00    -0.285 OA
ATOM      5  C   UNL     1      34.391 -34.145  13.263  1.00  0.00     0.069 A 
ATOM      6  C   UNL     1      34.122 -35.253  14.094  1.00  0.00     0.142 A 
ATOM      7  O   UNL     1      32.977 -35.916  13.980  1.00  0.00    -0.452 OA
ATOM      8  C   UNL     1      35.065 -35.661  15.042  1.00  0.00     0.094 A 
ATOM      9  C   UNL     1      36.280 -34.975  15.170  1.00  0.00     0.119 A 
ATOM     10  C   UNL     1      36.550 -33.877  14.347  1.00  0.00     0.047 A 
ATOM     11  C   UNL     1      35.613 -33.460  13.396  1.00  0.00     0.020 A 
ENDROOT
BRANCH   1  12
ATOM     12  C   UNL     1      30.801 -36.416  13.064  1.00  0.00     0.025 A 
ATOM     13  C   UNL     1      29.848 -36.355  14.096  1.00  0.00     0.016 A 
ATOM     14  C   UNL     1      28.683 -37.123  14.029  1.00  0.00     0.051 A 
ATOM     15  C   UNL     1      28.445 -37.952  12.928  1.00  0.00     0.157 A 
ATOM     16  C   UNL     1      30.548 -37.233  11.950  1.00  0.00     0.062 A 
ATOM     17  C   UNL     1      29.380 -38.006  11.881  1.00  0.00     0.158 A 
BRANCH  15  18
ATOM     18  O   UNL     1      27.274 -38.708  12.891  1.00  0.00    -0.504 OA
ATOM     19  H   UNL     1      27.288 -39.716  12.789  1.00  0.00     0.293 HD
ENDBRANCH  15  18
BRANCH  17  20
ATOM     20  O   UNL     1      29.145 -38.824  10.778  1.00  0.00    -0.504 OA
ATOM     21  H   UNL     1      28.988 -39.820  10.880  1.00  0.00     0.293 HD
ENDBRANCH  17  20
ENDBRANCH   1  12
BRANCH   2  22
ATOM     22  O   UNL     1      31.204 -34.093  11.367  1.00  0.00    -0.502 OA
ATOM     23  H   UNL     1      30.722 -33.206  11.453  1.00  0.00     0.293 HD
ENDBRANCH   2  22
BRANCH   9  24
ATOM     24  O   UNL     1      37.227 -35.375  16.111  1.00  0.00    -0.508 OA
ATOM     25  H   UNL     1      38.218 -35.375  15.898  1.00  0.00     0.293 HD
ENDBRANCH   9  24
TORSDOF 5
ENDMDL
MODEL 3
REMARK VINA RESULT:    -6.559      2.424      2.831
REMARK INTER + INTRA:          -7.972
REMARK INTER:                  -7.884
REMARK INTRA:                  -0.088
REMARK UNBOUND:                -0.263
REMARK SMILES O=c1c(O)c(-c2ccc(O)c(O)c2)oc2cc(O)ccc12
REMARK SMILES IDX 5 1 3 2 2 3 1 4 21 5 15 6 14 7 16 8 17 9 19 10 20 11 6 12
REMARK SMILES IDX 7 13 8 14 9 15 13 16 11 17 10 18 12 20 4 22 18 24
REMARK H PARENT 10 19 12 21 4 23 18 25
REMARK Flexibility Score: inf
ROOT
ATOM      1  C   UNL     1      29.182 -36.327  13.464  1.00  0.00     0.180 A 
ATOM      2  C   UNL     1      29.311 -37.115  12.301  1.00  0.00     0.208 A 
ATOM      3  C   UNL     1      28.860 -38.444  12.330  1.00  0.00     0.235 A 
ATOM      4  O   UNL     1      28.955 -39.165  11.299  1.00  0.00    -0.285 OA
ATOM      5  C   UNL     1      28.311 -38.961  13.514  1.00  0.00     0.069 A 
ATOM      6  C   UNL     1      28.239 -38.116  14.643  1.00  0.00     0.142 A 
ATOM      7  O   UNL     1      28.668 -36.861  14.571  1.00  0.00    -0.452 OA
ATOM      8  C   UNL     1      27.708 -38.598  15.844  1.00  0.00     0.094 A 
ATOM      9  C   UNL     1      27.246 -39.918  15.932  1.00  0.00     0.119 A 
ATOM     10  C   UNL     1      27.316 -40.756  14.816  1.00  0.00     0.047 A 
ATOM     11  C   UNL     1      27.846 -40.285  13.610  1.00  0.00     0.020 A 
ENDROOT
BRANCH   1  12
ATOM     12  C   UNL     1      29.617 -34.913  13.508  1.00  0.00     0.025 A 
ATOM     13  C   UNL     1      29.127 -33.967  12.590  1.00  0.00     0.016 A 
ATOM     14  C   UNL     1      29.533 -32.633  12.667  1.00  0.00     0.051 A 
ATOM     15  C   UNL     1      30.420 -32.220  13.665  1.00  0.00     0.157 A 
ATOM     16  C   UNL     1      30.491 -34.490  14.523  1.00  0.00     0.062 A 
ATOM     17  C   UNL     1      30.900 -33.152  14.601  1.00  0.00     0.158 A 
BRANCH  15  18
ATOM     18  O   UNL     1      30.809 -30.881  13.715  1.00  0.00    -0.504 OA
ATOM     19  H   UNL     1      30.675 -30.253  12.931  1.00  0.00     0.293 HD
ENDBRANCH  15  18
BRANCH  17  20
ATOM     20  O   UNL     1      31.779 -32.744  15.603  1.00  0.00    -0.504 OA
ATOM     21  H   UNL     1      32.570 -32.143  15.403  1.00  0.00     0.293 HD
ENDBRANCH  17  20
ENDBRANCH   1  12
BRANCH   2  22
ATOM     22  O   UNL     1      29.906 -36.587  11.152  1.00  0.00    -0.502 OA
ATOM     23  H   UNL     1      30.336 -37.174  10.448  1.00  0.00     0.293 HD
ENDBRANCH   2  22
BRANCH   9  24
ATOM     24  O   UNL     1      26.715 -40.406  17.125  1.00  0.00    -0.508 OA
ATOM     25  H   UNL     1      26.665 -41.400  17.313  1.00  0.00     0.293 HD
ENDBRANCH   9  24
TORSDOF 5
ENDMDL
MODEL 4
REMARK VINA RESULT:    -6.469      4.434      9.863
REMARK INTER + INTRA:          -7.867
REMARK INTER:                  -7.544
REMARK INTRA:                  -0.323
REMARK UNBOUND:                -0.263
REMARK SMILES O=c1c(O)c(-c2ccc(O)c(O)c2)oc2cc(O)ccc12
REMARK SMILES IDX 5 1 3 2 2 3 1 4 21 5 15 6 14 7 16 8 17 9 19 10 20 11 6 12
REMARK SMILES IDX 7 13 8 14 9 15 13 16 11 17 10 18 12 20 4 22 18 24
REMARK H PARENT 10 19 12 21 4 23 18 25
REMARK Flexibility Score: inf
ROOT
ATOM      1  C   UNL     1      28.608 -43.957  14.441  1.00  0.00     0.180 A 
ATOM      2  C   UNL     1      27.453 -43.958  15.251  1.00  0.00     0.208 A 
ATOM      3  C   UNL     1      26.933 -42.729  15.688  1.00  0.00     0.235 A 
ATOM      4  O   UNL     1      25.894 -42.703  16.405  1.00  0.00    -0.285 OA
ATOM      5  C   UNL     1      27.582 -41.537  15.327  1.00  0.00     0.069 A 
ATOM      6  C   UNL     1      28.746 -41.623  14.534  1.00  0.00     0.142 A 
ATOM      7  O   UNL     1      29.200 -42.805  14.134  1.00  0.00    -0.452 OA
ATOM      8  C   UNL     1      29.426 -40.459  14.163  1.00  0.00     0.094 A 
ATOM      9  C   UNL     1      28.955 -39.204  14.574  1.00  0.00     0.119 A 
ATOM     10  C   UNL     1      27.801 -39.117  15.359  1.00  0.00     0.047 A 
ATOM     11  C   UNL     1      27.114 -40.275  15.737  1.00  0.00     0.020 A 
ENDROOT
BRANCH   1  12
ATOM     12  C   UNL     1      29.207 -45.209  13.926  1.00  0.00     0.025 A 
ATOM     13  C   UNL     1      28.831 -45.742  12.680  1.00  0.00     0.016 A 
ATOM     14  C   UNL     1      29.427 -46.911  12.202  1.00  0.00     0.051 A 
ATOM     15  C   UNL     1      30.415 -47.558  12.952  1.00  0.00     0.157 A 
ATOM     16  C   UNL     1      30.214 -45.850  14.666  1.00  0.00     0.062 A 
ATOM     17  C   UNL     1      30.813 -47.024  14.189  1.00  0.00     0.158 A 
BRANCH  15  18
ATOM     18  O   UNL     1      30.990 -48.725  12.449  1.00  0.00    -0.504 OA
ATOM     19  H   UNL     1      31.943 -48.750  12.107  1.00  0.00     0.293 HD
ENDBRANCH  15  18
BRANCH  17  20
ATOM     20  O   UNL     1      31.802 -47.661  14.937  1.00  0.00    -0.504 OA
ATOM     21  H   UNL     1      32.119 -48.596  14.710  1.00  0.00     0.293 HD
ENDBRANCH  17  20
ENDBRANCH   1  12
BRANCH   2  22
ATOM     22  O   UNL     1      26.858 -45.162  15.634  1.00  0.00    -0.502 OA
ATOM     23  H   UNL     1      27.044 -46.034  15.153  1.00  0.00     0.293 HD
ENDBRANCH   2  22
BRANCH   9  24
ATOM     24  O   UNL     1      29.626 -38.039  14.208  1.00  0.00    -0.508 OA
ATOM     25  H   UNL     1      29.470 -37.164  14.695  1.00  0.00     0.293 HD
ENDBRANCH   9  24
TORSDOF 5
ENDMDL
MODEL 5
REMARK VINA RESULT:    -6.356      2.317      6.782
REMARK INTER + INTRA:          -7.734
REMARK INTER:                  -7.551
REMARK INTRA:                  -0.184
REMARK UNBOUND:                -0.263
REMARK SMILES O=c1c(O)c(-c2ccc(O)c(O)c2)oc2cc(O)ccc12
REMARK SMILES IDX 5 1 3 2 2 3 1 4 21 5 15 6 14 7 16 8 17 9 19 10 20 11 6 12
REMARK SMILES IDX 7 13 8 14 9 15 13 16 11 17 10 18 12 20 4 22 18 24
REMARK H PARENT 10 19 12 21 4 23 18 25
REMARK Flexibility Score: inf
ROOT
ATOM      1  C   UNL     1      30.899 -36.627  13.351  1.00  0.00     0.180 A 
ATOM      2  C   UNL     1      30.654 -35.667  12.347  1.00  0.00     0.208 A 
ATOM      3  C   UNL     1      31.640 -34.706  12.074  1.00  0.00     0.235 A 
ATOM      4  O   UNL     1      31.448 -33.843  11.174  1.00  0.00    -0.285 OA
ATOM      5  C   UNL     1      32.832 -34.710  12.816  1.00  0.00     0.069 A 
ATOM      6  C   UNL     1      32.992 -35.689  13.821  1.00  0.00     0.142 A 
ATOM      7  O   UNL     1      32.038 -36.587  14.041  1.00  0.00    -0.452 OA
ATOM      8  C   UNL     1      34.161 -35.719  14.587  1.00  0.00     0.094 A 
ATOM      9  C   UNL     1      35.178 -34.782  14.362  1.00  0.00     0.119 A 
ATOM     10  C   UNL     1      35.022 -33.812  13.368  1.00  0.00     0.047 A 
ATOM     11  C   UNL     1      33.857 -33.772  12.595  1.00  0.00     0.020 A 
ENDROOT
BRANCH   1  12
ATOM     12  C   UNL     1      29.918 -37.684  13.685  1.00  0.00     0.025 A 
ATOM     13  C   UNL     1      29.229 -37.682  14.910  1.00  0.00     0.016 A 
ATOM     14  C   UNL     1      28.289 -38.675  15.195  1.00  0.00     0.051 A 
ATOM     15  C   UNL     1      28.014 -39.677  14.258  1.00  0.00     0.157 A 
ATOM     16  C   UNL     1      29.624 -38.679  12.739  1.00  0.00     0.062 A 
ATOM     17  C   UNL     1      28.682 -39.678  13.022  1.00  0.00     0.158 A 
BRANCH  15  18
ATOM     18  O   UNL     1      27.073 -40.656  14.571  1.00  0.00    -0.504 OA
ATOM     19  H   UNL     1      27.335 -41.541  14.988  1.00  0.00     0.293 HD
ENDBRANCH  15  18
BRANCH  17  20
ATOM     20  O   UNL     1      28.406 -40.669  12.082  1.00  0.00    -0.504 OA
ATOM     21  H   UNL     1      28.531 -40.508  11.089  1.00  0.00     0.293 HD
ENDBRANCH  17  20
ENDBRANCH   1  12
BRANCH   2  22
ATOM     22  O   UNL     1      29.438 -35.658  11.660  1.00  0.00    -0.502 OA
ATOM     23  H   UNL     1      28.549 -35.768  12.133  1.00  0.00     0.293 HD
ENDBRANCH   2  22
BRANCH   9  24
ATOM     24  O   UNL     1      36.346 -34.805  15.121  1.00  0.00    -0.508 OA
ATOM     25  H   UNL     1      36.393 -34.367  16.033  1.00  0.00     0.293 HD
ENDBRANCH   9  24
TORSDOF 5
ENDMDL
MODEL 6
REMARK VINA RESULT:    -6.343      1.806      6.784
REMARK INTER + INTRA:          -7.719
REMARK INTER:                  -7.399
REMARK INTRA:                  -0.319
REMARK UNBOUND:                -0.263
REMARK SMILES O=c1c(O)c(-c2ccc(O)c(O)c2)oc2cc(O)ccc12
REMARK SMILES IDX 5 1 3 2 2 3 1 4 21 5 15 6 14 7 16 8 17 9 19 10 20 11 6 12
REMARK SMILES IDX 7 13 8 14 9 15 13 16 11 17 10 18 12 20 4 22 18 24
REMARK H PARENT 10 19 12 21 4 23 18 25
REMARK Flexibility Score: inf
ROOT
ATOM      1  C   UNL     1      30.104 -36.994  13.322  1.00  0.00     0.180 A 
ATOM      2  C   UNL     1      30.812 -36.476  12.218  1.00  0.00     0.208 A 
ATOM      3  C   UNL     1      30.941 -35.084  12.089  1.00  0.00     0.235 A 
ATOM      4  O   UNL     1      31.579 -34.597  11.115  1.00  0.00    -0.285 OA
ATOM      5  C   UNL     1      30.348 -34.244  13.046  1.00  0.00     0.069 A 
ATOM      6  C   UNL     1      29.635 -34.840  14.109  1.00  0.00     0.142 A 
ATOM      7  O   UNL     1      29.545 -36.162  14.199  1.00  0.00    -0.452 OA
ATOM      8  C   UNL     1      29.022 -34.037  15.075  1.00  0.00     0.094 A 
ATOM      9  C   UNL     1      29.114 -32.641  14.996  1.00  0.00     0.119 A 
ATOM     10  C   UNL     1      29.820 -32.049  13.945  1.00  0.00     0.047 A 
ATOM     11  C   UNL     1      30.436 -32.842  12.971  1.00  0.00     0.020 A 
ENDROOT
BRANCH   1  12
ATOM     12  C   UNL     1      29.939 -38.449  13.538  1.00  0.00     0.025 A 
ATOM     13  C   UNL     1      30.929 -39.209  14.186  1.00  0.00     0.016 A 
ATOM     14  C   UNL     1      30.742 -40.576  14.401  1.00  0.00     0.051 A 
ATOM     15  C   UNL     1      29.562 -41.203  13.986  1.00  0.00     0.157 A 
ATOM     16  C   UNL     1      28.747 -39.077  13.142  1.00  0.00     0.062 A 
ATOM     17  C   UNL     1      28.557 -40.449  13.356  1.00  0.00     0.158 A 
BRANCH  15  18
ATOM     18  O   UNL     1      29.405 -42.569  14.213  1.00  0.00    -0.504 OA
ATOM     19  H   UNL     1      28.507 -42.976  14.447  1.00  0.00     0.293 HD
ENDBRANCH  15  18
BRANCH  17  20
ATOM     20  O   UNL     1      27.376 -41.066  12.947  1.00  0.00    -0.504 OA
ATOM     21  H   UNL     1      27.052 -41.008  11.989  1.00  0.00     0.293 HD
ENDBRANCH  17  20
ENDBRANCH   1  12
BRANCH   2  22
ATOM     22  O   UNL     1      31.349 -37.335  11.256  1.00  0.00    -0.502 OA
ATOM     23  H   UNL     1      30.786 -38.025  10.773  1.00  0.00     0.293 HD
ENDBRANCH   2  22
BRANCH   9  24
ATOM     24  O   UNL     1      28.507 -31.833  15.956  1.00  0.00    -0.508 OA
ATOM     25  H   UNL     1      29.053 -31.332  16.647  1.00  0.00     0.293 HD
ENDBRANCH   9  24
TORSDOF 5
ENDMDL
MODEL 7
REMARK VINA RESULT:    -6.342      2.696      4.208
REMARK INTER + INTRA:          -7.717
REMARK INTER:                  -7.403
REMARK INTRA:                  -0.313
REMARK UNBOUND:                -0.263
REMARK SMILES O=c1c(O)c(-c2ccc(O)c(O)c2)oc2cc(O)ccc12
REMARK SMILES IDX 5 1 3 2 2 3 1 4 21 5 15 6 14 7 16 8 17 9 19 10 20 11 6 12
REMARK SMILES IDX 7 13 8 14 9 15 13 16 11 17 10 18 12 20 4 22 18 24
REMARK H PARENT 10 19 12 21 4 23 18 25
REMARK Flexibility Score: inf
ROOT
ATOM      1  C   UNL     1      32.150 -35.262  13.928  1.00  0.00     0.180 A 
ATOM      2  C   UNL     1      31.168 -34.540  14.639  1.00  0.00     0.208 A 
ATOM      3  C   UNL     1      29.859 -35.045  14.686  1.00  0.00     0.235 A 
ATOM      4  O   UNL     1      28.966 -34.423  15.324  1.00  0.00    -0.285 OA
ATOM      5  C   UNL     1      29.555 -36.239  14.013  1.00  0.00     0.069 A 
ATOM      6  C   UNL     1      30.587 -36.890  13.304  1.00  0.00     0.142 A 
ATOM      7  O   UNL     1      31.815 -36.384  13.292  1.00  0.00    -0.452 OA
ATOM      8  C   UNL     1      30.321 -38.075  12.612  1.00  0.00     0.094 A 
ATOM      9  C   UNL     1      29.032 -38.624  12.621  1.00  0.00     0.119 A 
ATOM     10  C   UNL     1      28.007 -37.982  13.323  1.00  0.00     0.047 A 
ATOM     11  C   UNL     1      28.262 -36.795  14.017  1.00  0.00     0.020 A 
ENDROOT
BRANCH   1  12
ATOM     12  C   UNL     1      33.556 -34.806  13.846  1.00  0.00     0.025 A 
ATOM     13  C   UNL     1      33.972 -33.891  12.863  1.00  0.00     0.016 A 
ATOM     14  C   UNL     1      35.299 -33.456  12.820  1.00  0.00     0.051 A 
ATOM     15  C   UNL     1      36.225 -33.916  13.762  1.00  0.00     0.157 A 
ATOM     16  C   UNL     1      34.483 -35.249  14.803  1.00  0.00     0.062 A 
ATOM     17  C   UNL     1      35.816 -34.815  14.761  1.00  0.00     0.158 A 
BRANCH  15  18
ATOM     18  O   UNL     1      37.542 -33.465  13.692  1.00  0.00    -0.504 OA
ATOM     19  H   UNL     1      38.102 -33.568  12.854  1.00  0.00     0.293 HD
ENDBRANCH  15  18
BRANCH  17  20
ATOM     20  O   UNL     1      36.732 -35.270  15.707  1.00  0.00    -0.504 OA
ATOM     21  H   UNL     1      37.726 -35.299  15.512  1.00  0.00     0.293 HD
ENDBRANCH  17  20
ENDBRANCH   1  12
BRANCH   2  22
ATOM     22  O   UNL     1      31.490 -33.330  15.257  1.00  0.00    -0.502 OA
ATOM     23  H   UNL     1      31.078 -32.450  14.971  1.00  0.00     0.293 HD
ENDBRANCH   2  22
BRANCH   9  24
ATOM     24  O   UNL     1      28.757 -39.805  11.936  1.00  0.00    -0.508 OA
ATOM     25  H   UNL     1      28.540 -40.664  12.428  1.00  0.00     0.293 HD
ENDBRANCH   9  24
TORSDOF 5
ENDMDL
MODEL 8
REMARK VINA RESULT:    -6.291      3.228      4.862
REMARK INTER + INTRA:          -7.658
REMARK INTER:                  -7.355
REMARK INTRA:                  -0.302
REMARK UNBOUND:                -0.263
REMARK SMILES O=c1c(O)c(-c2ccc(O)c(O)c2)oc2cc(O)ccc12
REMARK SMILES IDX 5 1 3 2 2 3 1 4 21 5 15 6 14 7 16 8 17 9 19 10 20 11 6 12
REMARK SMILES IDX 7 13 8 14 9 15 13 16 11 17 10 18 12 20 4 22 18 24
REMARK H PARENT 10 19 12 21 4 23 18 25
REMARK Flexibility Score: inf
ROOT
ATOM      1  C   UNL     1      32.672 -34.676  13.891  1.00  0.00     0.180 A 
ATOM      2  C   UNL     1      31.787 -33.728  13.337  1.00  0.00     0.208 A 
ATOM      3  C   UNL     1      30.582 -34.176  12.773  1.00  0.00     0.235 A 
ATOM      4  O   UNL     1      29.769 -33.346  12.280  1.00  0.00    -0.285 OA
ATOM      5  C   UNL     1      30.297 -35.551  12.756  1.00  0.00     0.069 A 
ATOM      6  C   UNL     1      31.245 -36.438  13.310  1.00  0.00     0.142 A 
ATOM      7  O   UNL     1      32.369 -35.972  13.842  1.00  0.00    -0.452 OA
ATOM      8  C   UNL     1      31.001 -37.815  13.302  1.00  0.00     0.094 A 
ATOM      9  C   UNL     1      29.817 -38.319  12.749  1.00  0.00     0.119 A 
ATOM     10  C   UNL     1      28.876 -37.443  12.201  1.00  0.00     0.047 A 
ATOM     11  C   UNL     1      29.110 -36.064  12.202  1.00  0.00     0.020 A 
ENDROOT
BRANCH   1  12
ATOM     12  C   UNL     1      33.953 -34.282  14.520  1.00  0.00     0.025 A 
ATOM     13  C   UNL     1      34.075 -34.152  15.914  1.00  0.00     0.016 A 
ATOM     14  C   UNL     1      35.299 -33.803  16.487  1.00  0.00     0.051 A 
ATOM     15  C   UNL     1      36.423 -33.593  15.682  1.00  0.00     0.157 A 
ATOM     16  C   UNL     1      35.088 -34.091  13.715  1.00  0.00     0.062 A 
ATOM     17  C   UNL     1      36.319 -33.740  14.288  1.00  0.00     0.158 A 
BRANCH  15  18
ATOM     18  O   UNL     1      37.632 -33.244  16.283  1.00  0.00    -0.504 OA
ATOM     19  H   UNL     1      37.766 -33.288  17.286  1.00  0.00     0.293 HD
ENDBRANCH  15  18
BRANCH  17  20
ATOM     20  O   UNL     1      37.437 -33.539  13.480  1.00  0.00    -0.504 OA
ATOM     21  H   UNL     1      37.358 -33.476  12.472  1.00  0.00     0.293 HD
ENDBRANCH  17  20
ENDBRANCH   1  12
BRANCH   2  22
ATOM     22  O   UNL     1      32.121 -32.372  13.324  1.00  0.00    -0.502 OA
ATOM     23  H   UNL     1      32.293 -31.849  14.175  1.00  0.00     0.293 HD
ENDBRANCH   2  22
BRANCH   9  24
ATOM     24  O   UNL     1      29.566 -39.690  12.739  1.00  0.00    -0.508 OA
ATOM     25  H   UNL     1      29.773 -40.260  11.927  1.00  0.00     0.293 HD
ENDBRANCH   9  24
TORSDOF 5
ENDMDL
MODEL 9
REMARK VINA RESULT:    -6.244      2.229      2.905
REMARK INTER + INTRA:          -7.603
REMARK INTER:                  -7.336
REMARK INTRA:                  -0.266
REMARK UNBOUND:                -0.263
REMARK SMILES O=c1c(O)c(-c2ccc(O)c(O)c2)oc2cc(O)ccc12
REMARK SMILES IDX 5 1 3 2 2 3 1 4 21 5 15 6 14 7 16 8 17 9 19 10 20 11 6 12
REMARK SMILES IDX 7 13 8 14 9 15 13 16 11 17 10 18 12 20 4 22 18 24
REMARK H PARENT 10 19 12 21 4 23 18 25
REMARK Flexibility Score: inf
ROOT
ATOM      1  C   UNL     1      29.129 -35.885  14.253  1.00  0.00     0.180 A 
ATOM      2  C   UNL     1      28.548 -36.063  15.525  1.00  0.00     0.208 A 
ATOM      3  C   UNL     1      28.014 -37.319  15.856  1.00  0.00     0.235 A 
ATOM      4  O   UNL     1      27.498 -37.506  16.992  1.00  0.00    -0.285 OA
ATOM      5  C   UNL     1      28.054 -38.356  14.910  1.00  0.00     0.069 A 
ATOM      6  C   UNL     1      28.632 -38.091  13.650  1.00  0.00     0.142 A 
ATOM      7  O   UNL     1      29.134 -36.891  13.380  1.00  0.00    -0.452 OA
ATOM      8  C   UNL     1      28.681 -39.096  12.678  1.00  0.00     0.094 A 
ATOM      9  C   UNL     1      28.161 -40.368  12.951  1.00  0.00     0.119 A 
ATOM     10  C   UNL     1      27.589 -40.633  14.199  1.00  0.00     0.047 A 
ATOM     11  C   UNL     1      27.533 -39.636  15.177  1.00  0.00     0.020 A 
ENDROOT
BRANCH   1  12
ATOM     12  C   UNL     1      29.729 -34.597  13.835  1.00  0.00     0.025 A 
ATOM     13  C   UNL     1      28.928 -33.504  13.461  1.00  0.00     0.016 A 
ATOM     14  C   UNL     1      29.515 -32.291  13.095  1.00  0.00     0.051 A 
ATOM     15  C   UNL     1      30.906 -32.145  13.108  1.00  0.00     0.157 A 
ATOM     16  C   UNL     1      31.124 -34.441  13.868  1.00  0.00     0.062 A 
ATOM     17  C   UNL     1      31.716 -33.225  13.499  1.00  0.00     0.158 A 
BRANCH  15  18
ATOM     18  O   UNL     1      31.462 -30.923  12.735  1.00  0.00    -0.504 OA
ATOM     19  H   UNL     1      31.880 -30.778  11.823  1.00  0.00     0.293 HD
ENDBRANCH  15  18
BRANCH  17  20
ATOM     20  O   UNL     1      33.102 -33.084  13.522  1.00  0.00    -0.504 OA
ATOM     21  H   UNL     1      33.675 -33.348  12.729  1.00  0.00     0.293 HD
ENDBRANCH  17  20
ENDBRANCH   1  12
BRANCH   2  22
ATOM     22  O   UNL     1      28.478 -34.998  16.426  1.00  0.00    -0.502 OA
ATOM     23  H   UNL     1      28.878 -35.049  17.356  1.00  0.00     0.293 HD
ENDBRANCH   2  22
BRANCH   9  24
ATOM     24  O   UNL     1      28.206 -41.375  11.989  1.00  0.00    -0.508 OA
ATOM     25  H   UNL     1      27.486 -42.085  11.932  1.00  0.00     0.293 HD
ENDBRANCH   9  24
TORSDOF 5
ENDMDL
