MODEL 1
REMARK VINA RESULT:    -5.042      0.000      0.000
REMARK INTER + INTRA:          -6.073
REMARK INTER:                  -5.779
REMARK INTRA:                  -0.294
REMARK UNBOUND:                -0.294
REMARK SMILES O=C1C[C@@H](c2ccc(O)cc2)Oc2cc(O)cc(O)c21
REMARK SMILES IDX 3 1 4 2 12 3 13 4 14 5 15 6 17 7 18 8 20 9 2 10 1 11 5 12
REMARK SMILES IDX 6 13 11 14 7 15 10 16 8 17 9 18 19 20 16 22
REMARK H PARENT 9 19 19 21 16 23
REMARK Flexibility Score: inf
ROOT
ATOM      1  C   UNL     1     139.004 169.245 175.323  1.00  0.00     0.131 C 
ATOM      2  C   UNL     1     140.021 169.610 176.414  1.00  0.00     0.211 C 
ATOM      3  O   UNL     1     139.363 170.202 177.537  1.00  0.00    -0.484 OA
ATOM      4  C   UNL     1     138.124 169.749 178.013  1.00  0.00     0.138 A 
ATOM      5  C   UNL     1     137.680 170.183 179.264  1.00  0.00     0.093 A 
ATOM      6  C   UNL     1     136.456 169.738 179.771  1.00  0.00     0.123 A 
ATOM      7  C   UNL     1     135.661 168.879 179.010  1.00  0.00     0.093 A 
ATOM      8  C   UNL     1     136.068 168.464 177.735  1.00  0.00     0.133 A 
ATOM      9  C   UNL     1     137.332 168.875 177.238  1.00  0.00     0.102 A 
ATOM     10  C   UNL     1     137.895 168.441 175.935  1.00  0.00     0.174 C 
ATOM     11  O   UNL     1     137.505 167.391 175.360  1.00  0.00    -0.294 OA
ENDROOT
BRANCH   2  12
ATOM     12  C   UNL     1     141.069 170.552 175.873  1.00  0.00    -0.007 A 
ATOM     13  C   UNL     1     140.730 171.868 175.514  1.00  0.00     0.011 A 
ATOM     14  C   UNL     1     142.385 170.105 175.669  1.00  0.00     0.011 A 
ATOM     15  C   UNL     1     141.698 172.728 174.985  1.00  0.00     0.046 A 
ATOM     16  C   UNL     1     143.351 170.965 175.140  1.00  0.00     0.046 A 
ATOM     17  C   UNL     1     143.011 172.278 174.797  1.00  0.00     0.115 A 
BRANCH  17  18
ATOM     18  O   UNL     1     143.984 173.125 174.272  1.00  0.00    -0.508 OA
ATOM     19  H   UNL     1     144.354 172.991 173.338  1.00  0.00     0.293 HD
ENDBRANCH  17  18
ENDBRANCH   2  12
BRANCH   8  20
ATOM     20  O   UNL     1     135.175 167.681 177.000  1.00  0.00    -0.507 OA
ATOM     21  H   UNL     1     134.612 168.032 176.239  1.00  0.00     0.293 HD
ENDBRANCH   8  20
BRANCH   6  22
ATOM     22  O   UNL     1     136.017 170.147 181.028  1.00  0.00    -0.508 OA
ATOM     23  H   UNL     1     136.235 171.068 181.391  1.00  0.00     0.293 HD
ENDBRANCH   6  22
TORSDOF 4
ENDMDL
MODEL 2
REMARK VINA RESULT:    -4.871      3.975      8.176
REMARK INTER + INTRA:          -5.877
REMARK INTER:                  -5.581
REMARK INTRA:                  -0.296
REMARK UNBOUND:                -0.294
REMARK SMILES O=C1C[C@@H](c2ccc(O)cc2)Oc2cc(O)cc(O)c21
REMARK SMILES IDX 3 1 4 2 12 3 13 4 14 5 15 6 17 7 18 8 20 9 2 10 1 11 5 12
REMARK SMILES IDX 6 13 11 14 7 15 10 16 8 17 9 18 19 20 16 22
REMARK H PARENT 9 19 19 21 16 23
REMARK Flexibility Score: inf
ROOT
ATOM      1  C   UNL     1     140.159 171.659 172.097  1.00  0.00     0.131 C 
ATOM      2  C   UNL     1     141.185 172.286 173.051  1.00  0.00     0.211 C 
ATOM      3  O   UNL     1     142.478 171.710 172.849  1.00  0.00    -0.484 OA
ATOM      4  C   UNL     1     142.973 171.392 171.576  1.00  0.00     0.138 A 
ATOM      5  C   UNL     1     144.332 171.098 171.432  1.00  0.00     0.093 A 
ATOM      6  C   UNL     1     144.857 170.792 170.174  1.00  0.00     0.123 A 
ATOM      7  C   UNL     1     144.014 170.750 169.062  1.00  0.00     0.093 A 
ATOM      8  C   UNL     1     142.642 171.001 169.190  1.00  0.00     0.133 A 
ATOM      9  C   UNL     1     142.113 171.361 170.457  1.00  0.00     0.102 A 
ATOM     10  C   UNL     1     140.692 171.716 170.696  1.00  0.00     0.174 C 
ATOM     11  O   UNL     1     139.943 172.114 169.766  1.00  0.00    -0.294 OA
ENDROOT
BRANCH   2  12
ATOM     12  C   UNL     1     140.758 172.106 174.487  1.00  0.00    -0.007 A 
ATOM     13  C   UNL     1     141.527 172.644 175.534  1.00  0.00     0.011 A 
ATOM     14  C   UNL     1     139.614 171.349 174.797  1.00  0.00     0.011 A 
ATOM     15  C   UNL     1     141.143 172.448 176.865  1.00  0.00     0.046 A 
ATOM     16  C   UNL     1     139.234 171.155 176.127  1.00  0.00     0.046 A 
ATOM     17  C   UNL     1     139.995 171.704 177.165  1.00  0.00     0.115 A 
BRANCH  17  18
ATOM     18  O   UNL     1     139.604 171.503 178.486  1.00  0.00    -0.508 OA
ATOM     19  H   UNL     1     139.336 172.277 179.082  1.00  0.00     0.293 HD
ENDBRANCH  17  18
ENDBRANCH   2  12
BRANCH   8  20
ATOM     20  O   UNL     1     141.852 170.849 168.048  1.00  0.00    -0.507 OA
ATOM     21  H   UNL     1     141.052 170.235 167.993  1.00  0.00     0.293 HD
ENDBRANCH   8  20
BRANCH   6  22
ATOM     22  O   UNL     1     146.214 170.520 170.019  1.00  0.00    -0.508 OA
ATOM     23  H   UNL     1     146.898 170.834 170.697  1.00  0.00     0.293 HD
ENDBRANCH   6  22
TORSDOF 4
ENDMDL
MODEL 3
REMARK VINA RESULT:    -4.817      9.136     11.184
REMARK INTER + INTRA:          -5.815
REMARK INTER:                  -5.529
REMARK INTRA:                  -0.286
REMARK UNBOUND:                -0.294
REMARK SMILES O=C1C[C@@H](c2ccc(O)cc2)Oc2cc(O)cc(O)c21
REMARK SMILES IDX 3 1 4 2 12 3 13 4 14 5 15 6 17 7 18 8 20 9 2 10 1 11 5 12
REMARK SMILES IDX 6 13 11 14 7 15 10 16 8 17 9 18 19 20 16 22
REMARK H PARENT 9 19 19 21 16 23
REMARK Flexibility Score: inf
ROOT
ATOM      1  C   UNL     1     143.449 166.281 170.151  1.00  0.00     0.131 C 
ATOM      2  C   UNL     1     144.030 166.630 168.775  1.00  0.00     0.211 C 
ATOM      3  O   UNL     1     145.099 165.740 168.439  1.00  0.00    -0.484 OA
ATOM      4  C   UNL     1     145.063 164.370 168.734  1.00  0.00     0.138 A 
ATOM      5  C   UNL     1     146.002 163.524 168.138  1.00  0.00     0.093 A 
ATOM      6  C   UNL     1     145.982 162.153 168.402  1.00  0.00     0.123 A 
ATOM      7  C   UNL     1     145.039 161.630 169.289  1.00  0.00     0.093 A 
ATOM      8  C   UNL     1     144.115 162.465 169.929  1.00  0.00     0.133 A 
ATOM      9  C   UNL     1     144.100 163.852 169.627  1.00  0.00     0.102 A 
ATOM     10  C   UNL     1     143.123 164.817 170.190  1.00  0.00     0.174 C 
ATOM     11  O   UNL     1     142.011 164.444 170.648  1.00  0.00    -0.294 OA
ENDROOT
BRANCH   2  12
ATOM     12  C   UNL     1     144.518 168.057 168.747  1.00  0.00    -0.007 A 
ATOM     13  C   UNL     1     145.334 168.554 169.779  1.00  0.00     0.011 A 
ATOM     14  C   UNL     1     144.116 168.924 167.716  1.00  0.00     0.011 A 
ATOM     15  C   UNL     1     145.758 169.887 169.766  1.00  0.00     0.046 A 
ATOM     16  C   UNL     1     144.541 170.255 167.705  1.00  0.00     0.046 A 
ATOM     17  C   UNL     1     145.363 170.740 168.727  1.00  0.00     0.115 A 
BRANCH  17  18
ATOM     18  O   UNL     1     145.780 172.069 168.703  1.00  0.00    -0.508 OA
ATOM     19  H   UNL     1     146.119 172.502 167.852  1.00  0.00     0.293 HD
ENDBRANCH  17  18
ENDBRANCH   2  12
BRANCH   8  20
ATOM     20  O   UNL     1     143.266 161.880 170.872  1.00  0.00    -0.507 OA
ATOM     21  H   UNL     1     143.114 162.249 171.799  1.00  0.00     0.293 HD
ENDBRANCH   8  20
BRANCH   6  22
ATOM     22  O   UNL     1     146.900 161.299 167.793  1.00  0.00    -0.508 OA
ATOM     23  H   UNL     1     146.679 160.811 166.933  1.00  0.00     0.293 HD
ENDBRANCH   6  22
TORSDOF 4
ENDMDL
MODEL 4
REMARK VINA RESULT:    -4.743      2.178      3.852
REMARK INTER + INTRA:          -5.730
REMARK INTER:                  -5.446
REMARK INTRA:                  -0.284
REMARK UNBOUND:                -0.294
REMARK SMILES O=C1C[C@@H](c2ccc(O)cc2)Oc2cc(O)cc(O)c21
REMARK SMILES IDX 3 1 4 2 12 3 13 4 14 5 15 6 17 7 18 8 20 9 2 10 1 11 5 12
REMARK SMILES IDX 6 13 11 14 7 15 10 16 8 17 9 18 19 20 16 22
REMARK H PARENT 9 19 19 21 16 23
REMARK Flexibility Score: inf
ROOT
ATOM      1  C   UNL     1     141.402 172.035 175.849  1.00  0.00     0.131 C 
ATOM      2  C   UNL     1     140.739 171.835 174.480  1.00  0.00     0.211 C 
ATOM      3  O   UNL     1     140.035 170.591 174.437  1.00  0.00    -0.484 OA
ATOM      4  C   UNL     1     139.300 170.102 175.525  1.00  0.00     0.138 A 
ATOM      5  C   UNL     1     138.422 169.034 175.323  1.00  0.00     0.093 A 
ATOM      6  C   UNL     1     137.665 168.533 176.385  1.00  0.00     0.123 A 
ATOM      7  C   UNL     1     137.809 169.084 177.660  1.00  0.00     0.093 A 
ATOM      8  C   UNL     1     138.713 170.127 177.894  1.00  0.00     0.133 A 
ATOM      9  C   UNL     1     139.448 170.671 176.808  1.00  0.00     0.102 A 
ATOM     10  C   UNL     1     140.379 171.821 176.926  1.00  0.00     0.174 C 
ATOM     11  O   UNL     1     140.297 172.647 177.872  1.00  0.00    -0.294 OA
ENDROOT
BRANCH   2  12
ATOM     12  C   UNL     1     141.768 171.886 173.377  1.00  0.00    -0.007 A 
ATOM     13  C   UNL     1     141.390 172.204 172.060  1.00  0.00     0.011 A 
ATOM     14  C   UNL     1     143.109 171.559 173.643  1.00  0.00     0.011 A 
ATOM     15  C   UNL     1     142.342 172.219 171.035  1.00  0.00     0.046 A 
ATOM     16  C   UNL     1     144.058 171.574 172.617  1.00  0.00     0.046 A 
ATOM     17  C   UNL     1     143.678 171.905 171.312  1.00  0.00     0.115 A 
BRANCH  17  18
ATOM     18  O   UNL     1     144.635 171.917 170.300  1.00  0.00    -0.508 OA
ATOM     19  H   UNL     1     145.582 171.597 170.463  1.00  0.00     0.293 HD
ENDBRANCH  17  18
ENDBRANCH   2  12
BRANCH   8  20
ATOM     20  O   UNL     1     138.867 170.560 179.213  1.00  0.00    -0.507 OA
ATOM     21  H   UNL     1     139.707 170.425 179.757  1.00  0.00     0.293 HD
ENDBRANCH   8  20
BRANCH   6  22
ATOM     22  O   UNL     1     136.770 167.484 176.187  1.00  0.00    -0.508 OA
ATOM     23  H   UNL     1     136.780 166.932 175.337  1.00  0.00     0.293 HD
ENDBRANCH   6  22
TORSDOF 4
ENDMDL
MODEL 5
REMARK VINA RESULT:    -4.721      2.330      3.005
REMARK INTER + INTRA:          -5.705
REMARK INTER:                  -5.392
REMARK INTRA:                  -0.313
REMARK UNBOUND:                -0.294
REMARK SMILES O=C1C[C@@H](c2ccc(O)cc2)Oc2cc(O)cc(O)c21
REMARK SMILES IDX 3 1 4 2 12 3 13 4 14 5 15 6 17 7 18 8 20 9 2 10 1 11 5 12
REMARK SMILES IDX 6 13 11 14 7 15 10 16 8 17 9 18 19 20 16 22
REMARK H PARENT 9 19 19 21 16 23
REMARK Flexibility Score: inf
ROOT
ATOM      1  C   UNL     1     141.309 169.776 177.469  1.00  0.00     0.131 C 
ATOM      2  C   UNL     1     140.650 171.155 177.335  1.00  0.00     0.211 C 
ATOM      3  O   UNL     1     139.265 171.088 177.686  1.00  0.00    -0.484 OA
ATOM      4  C   UNL     1     138.793 170.310 178.752  1.00  0.00     0.138 A 
ATOM      5  C   UNL     1     137.487 170.507 179.207  1.00  0.00     0.093 A 
ATOM      6  C   UNL     1     136.993 169.756 180.277  1.00  0.00     0.123 A 
ATOM      7  C   UNL     1     137.798 168.784 180.874  1.00  0.00     0.093 A 
ATOM      8  C   UNL     1     139.096 168.542 180.407  1.00  0.00     0.133 A 
ATOM      9  C   UNL     1     139.619 169.335 179.352  1.00  0.00     0.102 A 
ATOM     10  C   UNL     1     141.001 169.214 178.826  1.00  0.00     0.174 C 
ATOM     11  O   UNL     1     141.929 168.704 179.508  1.00  0.00    -0.294 OA
ENDROOT
BRANCH   2  12
ATOM     12  C   UNL     1     140.802 171.684 175.930  1.00  0.00    -0.007 A 
ATOM     13  C   UNL     1     139.687 171.781 175.078  1.00  0.00     0.011 A 
ATOM     14  C   UNL     1     142.071 172.035 175.438  1.00  0.00     0.011 A 
ATOM     15  C   UNL     1     139.838 172.243 173.766  1.00  0.00     0.046 A 
ATOM     16  C   UNL     1     142.219 172.497 174.127  1.00  0.00     0.046 A 
ATOM     17  C   UNL     1     141.105 172.603 173.289  1.00  0.00     0.115 A 
BRANCH  17  18
ATOM     18  O   UNL     1     141.267 173.065 171.985  1.00  0.00    -0.508 OA
ATOM     19  H   UNL     1     140.504 173.497 171.478  1.00  0.00     0.293 HD
ENDBRANCH  17  18
ENDBRANCH   2  12
BRANCH   8  20
ATOM     20  O   UNL     1     139.804 167.490 180.995  1.00  0.00    -0.507 OA
ATOM     21  H   UNL     1     140.392 167.593 181.810  1.00  0.00     0.293 HD
ENDBRANCH   8  20
BRANCH   6  22
ATOM     22  O   UNL     1     135.699 169.963 180.752  1.00  0.00    -0.508 OA
ATOM     23  H   UNL     1     134.891 169.594 180.265  1.00  0.00     0.293 HD
ENDBRANCH   6  22
TORSDOF 4
ENDMDL
MODEL 6
REMARK VINA RESULT:    -4.683      2.555      7.131
REMARK INTER + INTRA:          -5.662
REMARK INTER:                  -5.340
REMARK INTRA:                  -0.321
REMARK UNBOUND:                -0.294
REMARK SMILES O=C1C[C@@H](c2ccc(O)cc2)Oc2cc(O)cc(O)c21
REMARK SMILES IDX 3 1 4 2 12 3 13 4 14 5 15 6 17 7 18 8 20 9 2 10 1 11 5 12
REMARK SMILES IDX 6 13 11 14 7 15 10 16 8 17 9 18 19 20 16 22
REMARK H PARENT 9 19 19 21 16 23
REMARK Flexibility Score: inf
ROOT
ATOM      1  C   UNL     1     139.540 171.597 175.449  1.00  0.00     0.131 C 
ATOM      2  C   UNL     1     140.430 171.579 176.699  1.00  0.00     0.211 C 
ATOM      3  O   UNL     1     141.711 171.019 176.396  1.00  0.00    -0.484 OA
ATOM      4  C   UNL     1     142.385 171.280 175.195  1.00  0.00     0.138 A 
ATOM      5  C   UNL     1     143.734 170.931 175.085  1.00  0.00     0.093 A 
ATOM      6  C   UNL     1     144.435 171.191 173.906  1.00  0.00     0.123 A 
ATOM      7  C   UNL     1     143.778 171.775 172.821  1.00  0.00     0.093 A 
ATOM      8  C   UNL     1     142.416 172.095 172.894  1.00  0.00     0.133 A 
ATOM      9  C   UNL     1     141.711 171.877 174.107  1.00  0.00     0.102 A 
ATOM     10  C   UNL     1     140.289 172.242 174.321  1.00  0.00     0.174 C 
ATOM     11  O   UNL     1     139.715 173.114 173.617  1.00  0.00    -0.294 OA
ENDROOT
BRANCH   2  12
ATOM     12  C   UNL     1     139.774 170.798 177.811  1.00  0.00    -0.007 A 
ATOM     13  C   UNL     1     140.490 169.809 178.508  1.00  0.00     0.011 A 
ATOM     14  C   UNL     1     138.421 171.012 178.124  1.00  0.00     0.011 A 
ATOM     15  C   UNL     1     139.869 169.066 179.518  1.00  0.00     0.046 A 
ATOM     16  C   UNL     1     137.803 170.269 179.133  1.00  0.00     0.046 A 
ATOM     17  C   UNL     1     138.523 169.295 179.833  1.00  0.00     0.115 A 
BRANCH  17  18
ATOM     18  O   UNL     1     137.894 168.563 180.836  1.00  0.00    -0.508 OA
ATOM     19  H   UNL     1     138.225 168.584 181.794  1.00  0.00     0.293 HD
ENDBRANCH  17  18
ENDBRANCH   2  12
BRANCH   8  20
ATOM     20  O   UNL     1     141.810 172.588 171.736  1.00  0.00    -0.507 OA
ATOM     21  H   UNL     1     141.745 172.074 170.870  1.00  0.00     0.293 HD
ENDBRANCH   8  20
BRANCH   6  22
ATOM     22  O   UNL     1     145.786 170.868 173.797  1.00  0.00    -0.508 OA
ATOM     23  H   UNL     1     146.459 171.164 174.494  1.00  0.00     0.293 HD
ENDBRANCH   6  22
TORSDOF 4
ENDMDL
MODEL 7
REMARK VINA RESULT:    -4.674      3.873      8.310
REMARK INTER + INTRA:          -5.651
REMARK INTER:                  -5.354
REMARK INTRA:                  -0.297
REMARK UNBOUND:                -0.294
REMARK SMILES O=C1C[C@@H](c2ccc(O)cc2)Oc2cc(O)cc(O)c21
REMARK SMILES IDX 3 1 4 2 12 3 13 4 14 5 15 6 17 7 18 8 20 9 2 10 1 11 5 12
REMARK SMILES IDX 6 13 11 14 7 15 10 16 8 17 9 18 19 20 16 22
REMARK H PARENT 9 19 19 21 16 23
REMARK Flexibility Score: inf
ROOT
ATOM      1  C   UNL     1     143.601 171.258 173.775  1.00  0.00     0.131 C 
ATOM      2  C   UNL     1     142.214 170.603 173.742  1.00  0.00     0.211 C 
ATOM      3  O   UNL     1     141.561 170.868 172.497  1.00  0.00    -0.484 OA
ATOM      4  C   UNL     1     142.243 170.869 171.272  1.00  0.00     0.138 A 
ATOM      5  C   UNL     1     141.504 170.858 170.086  1.00  0.00     0.093 A 
ATOM      6  C   UNL     1     142.155 170.844 168.850  1.00  0.00     0.123 A 
ATOM      7  C   UNL     1     143.550 170.871 168.800  1.00  0.00     0.093 A 
ATOM      8  C   UNL     1     144.310 170.923 169.976  1.00  0.00     0.133 A 
ATOM      9  C   UNL     1     143.654 170.888 171.234  1.00  0.00     0.102 A 
ATOM     10  C   UNL     1     144.358 170.868 172.540  1.00  0.00     0.174 C 
ATOM     11  O   UNL     1     145.552 170.481 172.644  1.00  0.00    -0.294 OA
ENDROOT
BRANCH   2  12
ATOM     12  C   UNL     1     141.363 171.097 174.887  1.00  0.00    -0.007 A 
ATOM     13  C   UNL     1     141.907 171.945 175.868  1.00  0.00     0.011 A 
ATOM     14  C   UNL     1     140.031 170.668 175.015  1.00  0.00     0.011 A 
ATOM     15  C   UNL     1     141.123 172.375 176.944  1.00  0.00     0.046 A 
ATOM     16  C   UNL     1     139.250 171.099 176.091  1.00  0.00     0.046 A 
ATOM     17  C   UNL     1     139.792 171.954 177.057  1.00  0.00     0.115 A 
BRANCH  17  18
ATOM     18  O   UNL     1     139.002 172.376 178.123  1.00  0.00    -0.508 OA
ATOM     19  H   UNL     1     139.408 172.808 178.945  1.00  0.00     0.293 HD
ENDBRANCH  17  18
ENDBRANCH   2  12
BRANCH   8  20
ATOM     20  O   UNL     1     145.695 171.042 169.840  1.00  0.00    -0.507 OA
ATOM     21  H   UNL     1     146.222 170.650 169.073  1.00  0.00     0.293 HD
ENDBRANCH   8  20
BRANCH   6  22
ATOM     22  O   UNL     1     141.426 170.810 167.664  1.00  0.00    -0.508 OA
ATOM     23  H   UNL     1     141.639 170.145 166.930  1.00  0.00     0.293 HD
ENDBRANCH   6  22
TORSDOF 4
ENDMDL
MODEL 8
REMARK VINA RESULT:    -4.633     10.664     12.400
REMARK INTER + INTRA:          -5.605
REMARK INTER:                  -5.293
REMARK INTRA:                  -0.312
REMARK UNBOUND:                -0.294
REMARK SMILES O=C1C[C@@H](c2ccc(O)cc2)Oc2cc(O)cc(O)c21
REMARK SMILES IDX 3 1 4 2 12 3 13 4 14 5 15 6 17 7 18 8 20 9 2 10 1 11 5 12
REMARK SMILES IDX 6 13 11 14 7 15 10 16 8 17 9 18 19 20 16 22
REMARK H PARENT 9 19 19 21 16 23
REMARK Flexibility Score: inf
ROOT
ATOM      1  C   UNL     1     128.015 166.257 182.599  1.00  0.00     0.131 C 
ATOM      2  C   UNL     1     129.167 165.992 181.621  1.00  0.00     0.211 C 
ATOM      3  O   UNL     1     130.360 166.650 182.058  1.00  0.00    -0.484 OA
ATOM      4  C   UNL     1     130.735 166.717 183.407  1.00  0.00     0.138 A 
ATOM      5  C   UNL     1     132.032 167.123 183.730  1.00  0.00     0.093 A 
ATOM      6  C   UNL     1     132.439 167.186 185.065  1.00  0.00     0.123 A 
ATOM      7  C   UNL     1     131.536 166.870 186.082  1.00  0.00     0.093 A 
ATOM      8  C   UNL     1     130.219 166.499 185.783  1.00  0.00     0.133 A 
ATOM      9  C   UNL     1     129.815 166.387 184.426  1.00  0.00     0.102 A 
ATOM     10  C   UNL     1     128.470 165.936 183.993  1.00  0.00     0.174 C 
ATOM     11  O   UNL     1     127.727 165.248 184.741  1.00  0.00    -0.294 OA
ENDROOT
BRANCH   2  12
ATOM     12  C   UNL     1     128.804 166.452 180.231  1.00  0.00    -0.007 A 
ATOM     13  C   UNL     1     127.597 166.044 179.636  1.00  0.00     0.011 A 
ATOM     14  C   UNL     1     129.695 167.249 179.492  1.00  0.00     0.011 A 
ATOM     15  C   UNL     1     127.278 166.448 178.335  1.00  0.00     0.046 A 
ATOM     16  C   UNL     1     129.374 167.651 178.192  1.00  0.00     0.046 A 
ATOM     17  C   UNL     1     128.166 167.254 177.611  1.00  0.00     0.115 A 
BRANCH  17  18
ATOM     18  O   UNL     1     127.860 167.662 176.315  1.00  0.00    -0.508 OA
ATOM     19  H   UNL     1     128.508 167.523 175.549  1.00  0.00     0.293 HD
ENDBRANCH  17  18
ENDBRANCH   2  12
BRANCH   8  20
ATOM     20  O   UNL     1     129.351 166.289 186.858  1.00  0.00    -0.507 OA
ATOM     21  H   UNL     1     129.178 166.969 187.584  1.00  0.00     0.293 HD
ENDBRANCH   8  20
BRANCH   6  22
ATOM     22  O   UNL     1     133.738 167.568 185.394  1.00  0.00    -0.508 OA
ATOM     23  H   UNL     1     134.410 167.828 184.682  1.00  0.00     0.293 HD
ENDBRANCH   6  22
TORSDOF 4
ENDMDL
MODEL 9
REMARK VINA RESULT:    -4.625      9.959     11.649
REMARK INTER + INTRA:          -5.595
REMARK INTER:                  -5.284
REMARK INTRA:                  -0.311
REMARK UNBOUND:                -0.294
REMARK SMILES O=C1C[C@@H](c2ccc(O)cc2)Oc2cc(O)cc(O)c21
REMARK SMILES IDX 3 1 4 2 12 3 13 4 14 5 15 6 17 7 18 8 20 9 2 10 1 11 5 12
REMARK SMILES IDX 6 13 11 14 7 15 10 16 8 17 9 18 19 20 16 22
REMARK H PARENT 9 19 19 21 16 23
REMARK Flexibility Score: inf
ROOT
ATOM      1  C   UNL     1     143.076 165.674 167.678  1.00  0.00     0.131 C 
ATOM      2  C   UNL     1     143.991 165.502 168.898  1.00  0.00     0.211 C 
ATOM      3  O   UNL     1     144.852 166.634 169.046  1.00  0.00    -0.484 OA
ATOM      4  C   UNL     1     144.420 167.948 168.813  1.00  0.00     0.138 A 
ATOM      5  C   UNL     1     145.221 169.010 169.240  1.00  0.00     0.093 A 
ATOM      6  C   UNL     1     144.810 170.329 169.035  1.00  0.00     0.123 A 
ATOM      7  C   UNL     1     143.608 170.587 168.373  1.00  0.00     0.093 A 
ATOM      8  C   UNL     1     142.809 169.538 167.900  1.00  0.00     0.133 A 
ATOM      9  C   UNL     1     143.199 168.196 168.149  1.00  0.00     0.102 A 
ATOM     10  C   UNL     1     142.397 167.010 167.757  1.00  0.00     0.174 C 
ATOM     11  O   UNL     1     141.159 167.087 167.544  1.00  0.00    -0.294 OA
ENDROOT
BRANCH   2  12
ATOM     12  C   UNL     1     144.811 164.241 168.776  1.00  0.00    -0.007 A 
ATOM     13  C   UNL     1     144.187 162.981 168.755  1.00  0.00     0.011 A 
ATOM     14  C   UNL     1     146.214 164.310 168.738  1.00  0.00     0.011 A 
ATOM     15  C   UNL     1     144.954 161.814 168.673  1.00  0.00     0.046 A 
ATOM     16  C   UNL     1     146.978 163.142 168.656  1.00  0.00     0.046 A 
ATOM     17  C   UNL     1     146.351 161.892 168.623  1.00  0.00     0.115 A 
BRANCH  17  18
ATOM     18  O   UNL     1     147.125 160.737 168.540  1.00  0.00    -0.508 OA
ATOM     19  H   UNL     1     148.069 160.757 168.172  1.00  0.00     0.293 HD
ENDBRANCH  17  18
ENDBRANCH   2  12
BRANCH   8  20
ATOM     20  O   UNL     1     141.670 169.879 167.167  1.00  0.00    -0.507 OA
ATOM     21  H   UNL     1     140.732 169.857 167.540  1.00  0.00     0.293 HD
ENDBRANCH   8  20
BRANCH   6  22
ATOM     22  O   UNL     1     145.592 171.393 169.479  1.00  0.00    -0.508 OA
ATOM     23  H   UNL     1     146.122 171.967 168.833  1.00  0.00     0.293 HD
ENDBRANCH   6  22
TORSDOF 4
ENDMDL
