MODEL 1
REMARK VINA RESULT:    -5.096      0.000      0.000
REMARK INTER + INTRA:          -6.988
REMARK INTER:                  -6.585
REMARK INTRA:                  -0.402
REMARK UNBOUND:                -0.402
REMARK SMILES CCO[C@H]1O[C@@H](CO)[C@@H](O)[C@@H](O)[C@@H]1O
REMARK SMILES IDX 4 1 13 2 11 3 9 4 6 5 5 6 3 7 2 8 1 9 14 10 12 12 7 14 8 15
REMARK SMILES IDX 10 17
REMARK H PARENT 14 11 12 13 8 16 10 18
REMARK Flexibility Score: inf
ROOT
ATOM      1  C   UNL     1     148.310 153.103 127.378  1.00  0.00     0.281 C 
ATOM      2  C   UNL     1     148.408 154.622 127.136  1.00  0.00     0.202 C 
ATOM      3  C   UNL     1     149.009 155.335 128.355  1.00  0.00     0.179 C 
ATOM      4  C   UNL     1     148.252 154.926 129.625  1.00  0.00     0.177 C 
ATOM      5  C   UNL     1     148.084 153.385 129.744  1.00  0.00     0.178 C 
ATOM      6  O   UNL     1     147.573 152.790 128.556  1.00  0.00    -0.341 OA
ENDROOT
BRANCH   1   7
ATOM      7  O   UNL     1     149.605 152.527 127.403  1.00  0.00    -0.350 OA
BRANCH   7   8
ATOM      8  C   UNL     1     150.142 152.468 126.097  1.00  0.00     0.160 C 
ATOM      9  C   UNL     1     150.099 151.029 125.607  1.00  0.00     0.035 C 
ENDBRANCH   7   8
ENDBRANCH   1   7
BRANCH   2  10
ATOM     10  O   UNL     1     147.132 155.149 126.876  1.00  0.00    -0.385 OA
ATOM     11  H   UNL     1     146.511 154.745 127.538  1.00  0.00     0.211 HD
ENDBRANCH   2  10
BRANCH   3  12
ATOM     12  O   UNL     1     150.377 155.040 128.482  1.00  0.00    -0.387 OA
ATOM     13  H   UNL     1     150.491 154.566 129.346  1.00  0.00     0.211 HD
ENDBRANCH   3  12
BRANCH   5  14
ATOM     14  C   UNL     1     149.318 152.629 130.293  1.00  0.00     0.191 C 
BRANCH  14  15
ATOM     15  O   UNL     1     149.586 152.999 131.619  1.00  0.00    -0.394 OA
ATOM     16  H   UNL     1     148.789 152.745 132.154  1.00  0.00     0.210 HD
ENDBRANCH  14  15
ENDBRANCH   5  14
BRANCH   4  17
ATOM     17  O   UNL     1     148.893 155.463 130.753  1.00  0.00    -0.387 OA
ATOM     18  H   UNL     1     149.252 156.349 130.485  1.00  0.00     0.211 HD
ENDBRANCH   4  17
TORSDOF 7
ENDMDL
MODEL 2
REMARK VINA RESULT:    -4.683      1.670      3.509
REMARK INTER + INTRA:          -6.454
REMARK INTER:                  -6.223
REMARK INTRA:                  -0.231
REMARK UNBOUND:                -0.402
REMARK SMILES CCO[C@H]1O[C@@H](CO)[C@@H](O)[C@@H](O)[C@@H]1O
REMARK SMILES IDX 4 1 13 2 11 3 9 4 6 5 5 6 3 7 2 8 1 9 14 10 12 12 7 14 8 15
REMARK SMILES IDX 10 17
REMARK H PARENT 14 11 12 13 8 16 10 18
REMARK Flexibility Score: inf
ROOT
ATOM      1  C   UNL     1     148.063 152.759 128.948  1.00  0.00     0.281 C 
ATOM      2  C   UNL     1     147.062 153.927 129.055  1.00  0.00     0.202 C 
ATOM      3  C   UNL     1     147.102 154.803 127.795  1.00  0.00     0.179 C 
ATOM      4  C   UNL     1     148.549 155.212 127.490  1.00  0.00     0.177 C 
ATOM      5  C   UNL     1     149.525 154.002 127.516  1.00  0.00     0.178 C 
ATOM      6  O   UNL     1     149.390 153.208 128.691  1.00  0.00    -0.341 OA
ENDROOT
BRANCH   1   7
ATOM      7  O   UNL     1     147.626 151.830 127.972  1.00  0.00    -0.350 OA
BRANCH   7   8
ATOM      8  C   UNL     1     148.018 150.520 128.329  1.00  0.00     0.160 C 
ATOM      9  C   UNL     1     147.772 150.315 129.816  1.00  0.00     0.035 C 
ENDBRANCH   7   8
ENDBRANCH   1   7
BRANCH   2  10
ATOM     10  O   UNL     1     147.366 154.717 130.176  1.00  0.00    -0.385 OA
ATOM     11  H   UNL     1     147.727 155.578 129.836  1.00  0.00     0.211 HD
ENDBRANCH   2  10
BRANCH   3  12
ATOM     12  O   UNL     1     146.541 154.127 126.699  1.00  0.00    -0.387 OA
ATOM     13  H   UNL     1     146.598 153.156 126.898  1.00  0.00     0.211 HD
ENDBRANCH   3  12
BRANCH   5  14
ATOM     14  C   UNL     1     149.545 153.143 126.229  1.00  0.00     0.191 C 
BRANCH  14  15
ATOM     15  O   UNL     1     150.861 152.857 125.837  1.00  0.00    -0.394 OA
ATOM     16  H   UNL     1     150.903 151.880 125.664  1.00  0.00     0.210 HD
ENDBRANCH  14  15
ENDBRANCH   5  14
BRANCH   4  17
ATOM     17  O   UNL     1     148.601 155.888 126.260  1.00  0.00    -0.387 OA
ATOM     18  H   UNL     1     148.179 156.776 126.402  1.00  0.00     0.211 HD
ENDBRANCH   4  17
TORSDOF 7
ENDMDL
MODEL 3
REMARK VINA RESULT:    -4.606      1.659      4.166
REMARK INTER + INTRA:          -6.355
REMARK INTER:                  -5.899
REMARK INTRA:                  -0.457
REMARK UNBOUND:                -0.402
REMARK SMILES CCO[C@H]1O[C@@H](CO)[C@@H](O)[C@@H](O)[C@@H]1O
REMARK SMILES IDX 4 1 13 2 11 3 9 4 6 5 5 6 3 7 2 8 1 9 14 10 12 12 7 14 8 15
REMARK SMILES IDX 10 17
REMARK H PARENT 14 11 12 13 8 16 10 18
REMARK Flexibility Score: inf
ROOT
ATOM      1  C   UNL     1     148.439 154.482 129.385  1.00  0.00     0.281 C 
ATOM      2  C   UNL     1     149.204 155.448 128.458  1.00  0.00     0.202 C 
ATOM      3  C   UNL     1     149.005 155.070 126.984  1.00  0.00     0.179 C 
ATOM      4  C   UNL     1     149.323 153.584 126.779  1.00  0.00     0.177 C 
ATOM      5  C   UNL     1     148.613 152.676 127.823  1.00  0.00     0.178 C 
ATOM      6  O   UNL     1     148.800 153.122 129.163  1.00  0.00    -0.341 OA
ENDROOT
BRANCH   1   7
ATOM      7  O   UNL     1     147.043 154.682 129.253  1.00  0.00    -0.350 OA
BRANCH   7   8
ATOM      8  C   UNL     1     146.438 154.788 130.525  1.00  0.00     0.160 C 
ATOM      9  C   UNL     1     145.521 153.594 130.741  1.00  0.00     0.035 C 
ENDBRANCH   7   8
ENDBRANCH   1   7
BRANCH   2  10
ATOM     10  O   UNL     1     150.576 155.417 128.761  1.00  0.00    -0.385 OA
ATOM     11  H   UNL     1     150.842 156.344 128.999  1.00  0.00     0.211 HD
ENDBRANCH   2  10
BRANCH   3  12
ATOM     12  O   UNL     1     147.693 155.354 126.569  1.00  0.00    -0.387 OA
ATOM     13  H   UNL     1     147.708 155.405 125.578  1.00  0.00     0.211 HD
ENDBRANCH   3  12
BRANCH   5  14
ATOM     14  C   UNL     1     147.131 152.353 127.516  1.00  0.00     0.191 C 
BRANCH  14  15
ATOM     15  O   UNL     1     147.027 151.368 126.523  1.00  0.00    -0.394 OA
ATOM     16  H   UNL     1     147.952 151.143 126.243  1.00  0.00     0.210 HD
ENDBRANCH  14  15
ENDBRANCH   5  14
BRANCH   4  17
ATOM     17  O   UNL     1     149.000 153.206 125.465  1.00  0.00    -0.387 OA
ATOM     18  H   UNL     1     148.331 153.861 125.135  1.00  0.00     0.211 HD
ENDBRANCH   4  17
TORSDOF 7
ENDMDL
MODEL 4
REMARK VINA RESULT:    -4.555      1.491      3.166
REMARK INTER + INTRA:          -6.289
REMARK INTER:                  -5.851
REMARK INTRA:                  -0.438
REMARK UNBOUND:                -0.402
REMARK SMILES CCO[C@H]1O[C@@H](CO)[C@@H](O)[C@@H](O)[C@@H]1O
REMARK SMILES IDX 4 1 13 2 11 3 9 4 6 5 5 6 3 7 2 8 1 9 14 10 12 12 7 14 8 15
REMARK SMILES IDX 10 17
REMARK H PARENT 14 11 12 13 8 16 10 18
REMARK Flexibility Score: inf
ROOT
ATOM      1  C   UNL     1     147.957 152.678 129.063  1.00  0.00     0.281 C 
ATOM      2  C   UNL     1     148.130 152.297 127.579  1.00  0.00     0.202 C 
ATOM      3  C   UNL     1     148.771 153.445 126.788  1.00  0.00     0.179 C 
ATOM      4  C   UNL     1     147.999 154.747 127.040  1.00  0.00     0.177 C 
ATOM      5  C   UNL     1     147.756 155.008 128.553  1.00  0.00     0.178 C 
ATOM      6  O   UNL     1     147.210 153.879 129.229  1.00  0.00    -0.341 OA
ENDROOT
BRANCH   1   7
ATOM      7  O   UNL     1     149.222 152.756 129.698  1.00  0.00    -0.350 OA
BRANCH   7   8
ATOM      8  C   UNL     1     149.149 152.231 131.008  1.00  0.00     0.160 C 
ATOM      9  C   UNL     1     148.706 150.778 130.938  1.00  0.00     0.035 C 
ENDBRANCH   7   8
ENDBRANCH   1   7
BRANCH   2  10
ATOM     10  O   UNL     1     146.881 151.988 127.016  1.00  0.00    -0.385 OA
ATOM     11  H   UNL     1     146.310 151.639 127.749  1.00  0.00     0.211 HD
ENDBRANCH   2  10
BRANCH   3  12
ATOM     12  O   UNL     1     150.123 153.599 127.138  1.00  0.00    -0.387 OA
ATOM     13  H   UNL     1     150.256 154.557 127.359  1.00  0.00     0.211 HD
ENDBRANCH   3  12
BRANCH   5  14
ATOM     14  C   UNL     1     148.953 155.624 129.316  1.00  0.00     0.191 C 
BRANCH  14  15
ATOM     15  O   UNL     1     148.699 155.671 130.695  1.00  0.00    -0.394 OA
ATOM     16  H   UNL     1     148.479 156.614 130.914  1.00  0.00     0.210 HD
ENDBRANCH  14  15
ENDBRANCH   5  14
BRANCH   4  17
ATOM     17  O   UNL     1     148.671 155.822 126.434  1.00  0.00    -0.387 OA
ATOM     18  H   UNL     1     148.148 156.068 125.626  1.00  0.00     0.211 HD
ENDBRANCH   4  17
TORSDOF 7
ENDMDL
MODEL 5
REMARK VINA RESULT:    -4.453      2.003      4.257
REMARK INTER + INTRA:          -6.158
REMARK INTER:                  -5.791
REMARK INTRA:                  -0.366
REMARK UNBOUND:                -0.402
REMARK SMILES CCO[C@H]1O[C@@H](CO)[C@@H](O)[C@@H](O)[C@@H]1O
REMARK SMILES IDX 4 1 13 2 11 3 9 4 6 5 5 6 3 7 2 8 1 9 14 10 12 12 7 14 8 15
REMARK SMILES IDX 10 17
REMARK H PARENT 14 11 12 13 8 16 10 18
REMARK Flexibility Score: inf
ROOT
ATOM      1  C   UNL     1     146.738 152.778 128.796  1.00  0.00     0.281 C 
ATOM      2  C   UNL     1     147.686 152.535 129.987  1.00  0.00     0.202 C 
ATOM      3  C   UNL     1     148.815 153.575 130.011  1.00  0.00     0.179 C 
ATOM      4  C   UNL     1     149.497 153.637 128.639  1.00  0.00     0.177 C 
ATOM      5  C   UNL     1     148.475 153.761 127.474  1.00  0.00     0.178 C 
ATOM      6  O   UNL     1     147.428 152.797 127.550  1.00  0.00    -0.341 OA
ENDROOT
BRANCH   1   7
ATOM      7  O   UNL     1     145.992 153.965 128.999  1.00  0.00    -0.350 OA
BRANCH   7   8
ATOM      8  C   UNL     1     144.630 153.751 128.691  1.00  0.00     0.160 C 
ATOM      9  C   UNL     1     143.823 154.962 129.134  1.00  0.00     0.035 C 
ENDBRANCH   7   8
ENDBRANCH   1   7
BRANCH   2  10
ATOM     10  O   UNL     1     148.245 151.249 129.900  1.00  0.00    -0.385 OA
ATOM     11  H   UNL     1     148.281 151.013 128.935  1.00  0.00     0.211 HD
ENDBRANCH   2  10
BRANCH   3  12
ATOM     12  O   UNL     1     148.321 154.840 130.373  1.00  0.00    -0.387 OA
ATOM     13  H   UNL     1     149.103 155.388 130.643  1.00  0.00     0.211 HD
ENDBRANCH   3  12
BRANCH   5  14
ATOM     14  C   UNL     1     147.936 155.190 127.219  1.00  0.00     0.191 C 
BRANCH  14  15
ATOM     15  O   UNL     1     148.766 155.888 126.331  1.00  0.00    -0.394 OA
ATOM     16  H   UNL     1     148.329 155.852 125.440  1.00  0.00     0.210 HD
ENDBRANCH  14  15
ENDBRANCH   5  14
BRANCH   4  17
ATOM     17  O   UNL     1     150.429 154.688 128.619  1.00  0.00    -0.387 OA
ATOM     18  H   UNL     1     151.054 154.531 129.374  1.00  0.00     0.211 HD
ENDBRANCH   4  17
TORSDOF 7
ENDMDL
MODEL 6
REMARK VINA RESULT:    -4.402      1.700      3.509
REMARK INTER + INTRA:          -6.091
REMARK INTER:                  -5.667
REMARK INTRA:                  -0.424
REMARK UNBOUND:                -0.402
REMARK SMILES CCO[C@H]1O[C@@H](CO)[C@@H](O)[C@@H](O)[C@@H]1O
REMARK SMILES IDX 4 1 13 2 11 3 9 4 6 5 5 6 3 7 2 8 1 9 14 10 12 12 7 14 8 15
REMARK SMILES IDX 10 17
REMARK H PARENT 14 11 12 13 8 16 10 18
REMARK Flexibility Score: inf
ROOT
ATOM      1  C   UNL     1     149.462 154.189 128.323  1.00  0.00     0.281 C 
ATOM      2  C   UNL     1     148.938 153.645 126.979  1.00  0.00     0.202 C 
ATOM      3  C   UNL     1     147.403 153.637 126.949  1.00  0.00     0.179 C 
ATOM      4  C   UNL     1     146.861 152.925 128.195  1.00  0.00     0.177 C 
ATOM      5  C   UNL     1     147.520 153.439 129.505  1.00  0.00     0.178 C 
ATOM      6  O   UNL     1     148.942 153.468 129.436  1.00  0.00    -0.341 OA
ENDROOT
BRANCH   1   7
ATOM      7  O   UNL     1     149.193 155.576 128.427  1.00  0.00    -0.350 OA
BRANCH   7   8
ATOM      8  C   UNL     1     150.308 156.327 127.991  1.00  0.00     0.160 C 
ATOM      9  C   UNL     1     149.854 157.322 126.934  1.00  0.00     0.035 C 
ENDBRANCH   7   8
ENDBRANCH   1   7
BRANCH   2  10
ATOM     10  O   UNL     1     149.410 152.338 126.774  1.00  0.00    -0.385 OA
ATOM     11  H   UNL     1     150.401 152.390 126.737  1.00  0.00     0.211 HD
ENDBRANCH   2  10
BRANCH   3  12
ATOM     12  O   UNL     1     146.899 154.947 126.873  1.00  0.00    -0.387 OA
ATOM     13  H   UNL     1     147.500 155.452 126.267  1.00  0.00     0.211 HD
ENDBRANCH   3  12
BRANCH   5  14
ATOM     14  C   UNL     1     146.935 154.759 130.063  1.00  0.00     0.191 C 
BRANCH  14  15
ATOM     15  O   UNL     1     145.888 154.505 130.962  1.00  0.00    -0.394 OA
ATOM     16  H   UNL     1     146.070 153.619 131.371  1.00  0.00     0.210 HD
ENDBRANCH  14  15
ENDBRANCH   5  14
BRANCH   4  17
ATOM     17  O   UNL     1     145.462 153.047 128.240  1.00  0.00    -0.387 OA
ATOM     18  H   UNL     1     145.264 153.984 128.503  1.00  0.00     0.211 HD
ENDBRANCH   4  17
TORSDOF 7
ENDMDL
MODEL 7
REMARK VINA RESULT:    -4.395      1.707      4.003
REMARK INTER + INTRA:          -6.082
REMARK INTER:                  -5.622
REMARK INTRA:                  -0.460
REMARK UNBOUND:                -0.402
REMARK SMILES CCO[C@H]1O[C@@H](CO)[C@@H](O)[C@@H](O)[C@@H]1O
REMARK SMILES IDX 4 1 13 2 11 3 9 4 6 5 5 6 3 7 2 8 1 9 14 10 12 12 7 14 8 15
REMARK SMILES IDX 10 17
REMARK H PARENT 14 11 12 13 8 16 10 18
REMARK Flexibility Score: inf
ROOT
ATOM      1  C   UNL     1     148.242 153.993 130.126  1.00  0.00     0.281 C 
ATOM      2  C   UNL     1     146.709 153.829 130.162  1.00  0.00     0.202 C 
ATOM      3  C   UNL     1     146.152 153.561 128.758  1.00  0.00     0.179 C 
ATOM      4  C   UNL     1     146.671 154.622 127.779  1.00  0.00     0.177 C 
ATOM      5  C   UNL     1     148.209 154.821 127.881  1.00  0.00     0.178 C 
ATOM      6  O   UNL     1     148.656 155.011 129.220  1.00  0.00    -0.341 OA
ENDROOT
BRANCH   1   7
ATOM      7  O   UNL     1     148.859 152.751 129.836  1.00  0.00    -0.350 OA
BRANCH   7   8
ATOM      8  C   UNL     1     149.048 152.005 131.022  1.00  0.00     0.160 C 
ATOM      9  C   UNL     1     148.555 150.584 130.799  1.00  0.00     0.035 C 
ENDBRANCH   7   8
ENDBRANCH   1   7
BRANCH   2  10
ATOM     10  O   UNL     1     146.116 154.993 130.679  1.00  0.00    -0.385 OA
ATOM     11  H   UNL     1     146.818 155.474 131.191  1.00  0.00     0.211 HD
ENDBRANCH   2  10
BRANCH   3  12
ATOM     12  O   UNL     1     146.505 152.273 128.319  1.00  0.00    -0.387 OA
ATOM     13  H   UNL     1     147.366 152.045 128.755  1.00  0.00     0.211 HD
ENDBRANCH   3  12
BRANCH   5  14
ATOM     14  C   UNL     1     149.061 153.774 127.123  1.00  0.00     0.191 C 
BRANCH  14  15
ATOM     15  O   UNL     1     148.881 153.888 125.737  1.00  0.00    -0.394 OA
ATOM     16  H   UNL     1     149.734 154.234 125.364  1.00  0.00     0.210 HD
ENDBRANCH  14  15
ENDBRANCH   5  14
BRANCH   4  17
ATOM     17  O   UNL     1     146.281 154.292 126.470  1.00  0.00    -0.387 OA
ATOM     18  H   UNL     1     145.961 153.352 126.495  1.00  0.00     0.211 HD
ENDBRANCH   4  17
TORSDOF 7
ENDMDL
MODEL 8
REMARK VINA RESULT:    -4.331      1.693      2.892
REMARK INTER + INTRA:          -6.000
REMARK INTER:                  -5.578
REMARK INTRA:                  -0.422
REMARK UNBOUND:                -0.402
REMARK SMILES CCO[C@H]1O[C@@H](CO)[C@@H](O)[C@@H](O)[C@@H]1O
REMARK SMILES IDX 4 1 13 2 11 3 9 4 6 5 5 6 3 7 2 8 1 9 14 10 12 12 7 14 8 15
REMARK SMILES IDX 10 17
REMARK H PARENT 14 11 12 13 8 16 10 18
REMARK Flexibility Score: inf
ROOT
ATOM      1  C   UNL     1     146.509 153.076 128.401  1.00  0.00     0.281 C 
ATOM      2  C   UNL     1     147.140 153.598 127.095  1.00  0.00     0.202 C 
ATOM      3  C   UNL     1     148.667 153.690 127.220  1.00  0.00     0.179 C 
ATOM      4  C   UNL     1     149.041 154.475 128.483  1.00  0.00     0.177 C 
ATOM      5  C   UNL     1     148.278 153.973 129.741  1.00  0.00     0.178 C 
ATOM      6  O   UNL     1     146.873 153.864 129.530  1.00  0.00    -0.341 OA
ENDROOT
BRANCH   1   7
ATOM      7  O   UNL     1     146.835 151.710 128.588  1.00  0.00    -0.350 OA
BRANCH   7   8
ATOM      8  C   UNL     1     145.664 150.947 128.793  1.00  0.00     0.160 C 
ATOM      9  C   UNL     1     145.478 150.711 130.284  1.00  0.00     0.035 C 
ENDBRANCH   7   8
ENDBRANCH   1   7
BRANCH   2  10
ATOM     10  O   UNL     1     146.626 154.870 126.790  1.00  0.00    -0.385 OA
ATOM     11  H   UNL     1     146.251 154.818 125.871  1.00  0.00     0.211 HD
ENDBRANCH   2  10
BRANCH   3  12
ATOM     12  O   UNL     1     149.243 152.408 127.249  1.00  0.00    -0.387 OA
ATOM     13  H   UNL     1     148.532 151.766 126.990  1.00  0.00     0.211 HD
ENDBRANCH   3  12
BRANCH   5  14
ATOM     14  C   UNL     1     148.868 152.708 130.409  1.00  0.00     0.191 C 
BRANCH  14  15
ATOM     15  O   UNL     1     149.831 153.050 131.370  1.00  0.00    -0.394 OA
ATOM     16  H   UNL     1     149.705 152.432 132.137  1.00  0.00     0.210 HD
ENDBRANCH  14  15
ENDBRANCH   5  14
BRANCH   4  17
ATOM     17  O   UNL     1     150.432 154.432 128.675  1.00  0.00    -0.387 OA
ATOM     18  H   UNL     1     150.704 153.480 128.593  1.00  0.00     0.211 HD
ENDBRANCH   4  17
TORSDOF 7
ENDMDL
