MODEL 1
REMARK VINA RESULT:    -3.707      0.000      0.000
REMARK INTER + INTRA:          -3.815
REMARK INTER:                  -3.815
REMARK INTRA:                   0.000
REMARK UNBOUND:                 0.000
REMARK SMILES Nc1ncnc2nc[nH]c12
REMARK SMILES IDX 8 1 7 2 6 3 5 4 4 5 3 6 2 7 10 8 9 9 1 11
REMARK H PARENT 9 10 1 12 1 13
REMARK Flexibility Score: inf
ROOT
ATOM      1  C   UNL     1       7.546  -2.171  -2.792  1.00  0.00     0.199 A 
ATOM      2  N   UNL     1       6.283  -2.201  -3.300  1.00  0.00    -0.217 NA
ATOM      3  C   UNL     1       5.570  -2.666  -2.262  1.00  0.00     0.182 A 
ATOM      4  N   UNL     1       4.233  -2.888  -2.235  1.00  0.00    -0.215 NA
ATOM      5  C   UNL     1       3.681  -3.367  -1.080  1.00  0.00     0.226 A 
ATOM      6  N   UNL     1       4.467  -3.612   0.018  1.00  0.00    -0.217 NA
ATOM      7  C   UNL     1       5.815  -3.388  -0.006  1.00  0.00     0.152 A 
ATOM      8  C   UNL     1       6.362  -2.901  -1.191  1.00  0.00     0.127 A 
ATOM      9  N   UNL     1       7.626  -2.593  -1.504  1.00  0.00    -0.340 N 
ATOM     10  H   UNL     1       8.480  -2.657  -0.909  1.00  0.00     0.168 HD
ENDROOT
BRANCH   7  11
ATOM     11  N   UNL     1       6.613  -3.650   1.148  1.00  0.00    -0.382 N 
ATOM     12  H   UNL     1       6.609  -4.585   1.611  1.00  0.00     0.158 HD
ATOM     13  H   UNL     1       7.218  -2.899   1.547  1.00  0.00     0.158 HD
ENDBRANCH   7  11
TORSDOF 1
ENDMDL
MODEL 2
REMARK VINA RESULT:    -3.644     14.817     15.040
REMARK INTER + INTRA:          -3.750
REMARK INTER:                  -3.750
REMARK INTRA:                   0.000
REMARK UNBOUND:                 0.000
REMARK SMILES Nc1ncnc2nc[nH]c12
REMARK SMILES IDX 8 1 7 2 6 3 5 4 4 5 3 6 2 7 10 8 9 9 1 11
REMARK H PARENT 9 10 1 12 1 13
REMARK Flexibility Score: inf
ROOT
ATOM      1  C   UNL     1      -8.211  -5.868   2.723  1.00  0.00     0.199 A 
ATOM      2  N   UNL     1      -8.172  -6.355   1.452  1.00  0.00    -0.217 NA
ATOM      3  C   UNL     1      -7.808  -7.633   1.649  1.00  0.00     0.182 A 
ATOM      4  N   UNL     1      -7.621  -8.576   0.693  1.00  0.00    -0.215 NA
ATOM      5  C   UNL     1      -7.249  -9.831   1.088  1.00  0.00     0.226 A 
ATOM      6  N   UNL     1      -7.072 -10.118   2.419  1.00  0.00    -0.217 NA
ATOM      7  C   UNL     1      -7.259  -9.169   3.383  1.00  0.00     0.152 A 
ATOM      8  C   UNL     1      -7.638  -7.896   2.965  1.00  0.00     0.127 A 
ATOM      9  N   UNL     1      -7.889  -6.786   3.670  1.00  0.00    -0.340 N 
ATOM     10  H   UNL     1      -7.850  -6.646   4.703  1.00  0.00     0.168 HD
ENDROOT
BRANCH   7  11
ATOM     11  N   UNL     1      -7.069  -9.490   4.762  1.00  0.00    -0.382 N 
ATOM     12  H   UNL     1      -6.132  -9.411   5.214  1.00  0.00     0.158 HD
ATOM     13  H   UNL     1      -7.876  -9.812   5.339  1.00  0.00     0.158 HD
ENDBRANCH   7  11
TORSDOF 1
ENDMDL
MODEL 3
REMARK VINA RESULT:    -3.554     17.409     18.582
REMARK INTER + INTRA:          -3.658
REMARK INTER:                  -3.658
REMARK INTRA:                   0.000
REMARK UNBOUND:                 0.000
REMARK SMILES Nc1ncnc2nc[nH]c12
REMARK SMILES IDX 8 1 7 2 6 3 5 4 4 5 3 6 2 7 10 8 9 9 1 11
REMARK H PARENT 9 10 1 12 1 13
REMARK Flexibility Score: inf
ROOT
ATOM      1  C   UNL     1      -4.408   6.454   9.518  1.00  0.00     0.199 A 
ATOM      2  N   UNL     1      -5.432   7.297   9.823  1.00  0.00    -0.217 NA
ATOM      3  C   UNL     1      -6.507   6.506   9.667  1.00  0.00     0.182 A 
ATOM      4  N   UNL     1      -7.803   6.859   9.851  1.00  0.00    -0.215 NA
ATOM      5  C   UNL     1      -8.766   5.911   9.643  1.00  0.00     0.226 A 
ATOM      6  N   UNL     1      -8.419   4.639   9.260  1.00  0.00    -0.217 NA
ATOM      7  C   UNL     1      -7.114   4.282   9.075  1.00  0.00     0.152 A 
ATOM      8  C   UNL     1      -6.145   5.259   9.290  1.00  0.00     0.127 A 
ATOM      9  N   UNL     1      -4.812   5.201   9.188  1.00  0.00    -0.340 N 
ATOM     10  H   UNL     1      -4.213   4.390   8.919  1.00  0.00     0.168 HD
ENDROOT
BRANCH   7  11
ATOM     11  N   UNL     1      -6.777   2.952   8.676  1.00  0.00    -0.382 N 
ATOM     12  H   UNL     1      -5.893   2.747   8.162  1.00  0.00     0.158 HD
ATOM     13  H   UNL     1      -7.422   2.162   8.896  1.00  0.00     0.158 HD
ENDBRANCH   7  11
TORSDOF 1
ENDMDL
MODEL 4
REMARK VINA RESULT:    -3.483     13.418     14.609
REMARK INTER + INTRA:          -3.585
REMARK INTER:                  -3.585
REMARK INTRA:                   0.000
REMARK UNBOUND:                 0.000
REMARK SMILES Nc1ncnc2nc[nH]c12
REMARK SMILES IDX 8 1 7 2 6 3 5 4 4 5 3 6 2 7 10 8 9 9 1 11
REMARK H PARENT 9 10 1 12 1 13
REMARK Flexibility Score: inf
ROOT
ATOM      1  C   UNL     1      -4.875  -7.078   5.593  1.00  0.00     0.199 A 
ATOM      2  N   UNL     1      -5.372  -6.036   4.872  1.00  0.00    -0.217 NA
ATOM      3  C   UNL     1      -6.360  -6.620   4.173  1.00  0.00     0.182 A 
ATOM      4  N   UNL     1      -7.187  -6.016   3.286  1.00  0.00    -0.215 NA
ATOM      5  C   UNL     1      -8.139  -6.778   2.668  1.00  0.00     0.226 A 
ATOM      6  N   UNL     1      -8.245  -8.118   2.945  1.00  0.00    -0.217 NA
ATOM      7  C   UNL     1      -7.412  -8.729   3.839  1.00  0.00     0.152 A 
ATOM      8  C   UNL     1      -6.448  -7.938   4.460  1.00  0.00     0.127 A 
ATOM      9  N   UNL     1      -5.511  -8.255   5.362  1.00  0.00    -0.340 N 
ATOM     10  H   UNL     1      -5.309  -9.182   5.795  1.00  0.00     0.168 HD
ENDROOT
BRANCH   7  11
ATOM     11  N   UNL     1      -7.541 -10.125   4.112  1.00  0.00    -0.382 N 
ATOM     12  H   UNL     1      -8.105 -10.749   3.495  1.00  0.00     0.158 HD
ATOM     13  H   UNL     1      -7.065 -10.541   4.942  1.00  0.00     0.158 HD
ENDBRANCH   7  11
TORSDOF 1
ENDMDL
MODEL 5
REMARK VINA RESULT:    -3.425      1.265      3.187
REMARK INTER + INTRA:          -3.525
REMARK INTER:                  -3.525
REMARK INTRA:                   0.000
REMARK UNBOUND:                 0.000
REMARK SMILES Nc1ncnc2nc[nH]c12
REMARK SMILES IDX 8 1 7 2 6 3 5 4 4 5 3 6 2 7 10 8 9 9 1 11
REMARK H PARENT 9 10 1 12 1 13
REMARK Flexibility Score: inf
ROOT
ATOM      1  C   UNL     1       5.599  -3.342   0.089  1.00  0.00     0.199 A 
ATOM      2  N   UNL     1       4.640  -2.666  -0.602  1.00  0.00    -0.217 NA
ATOM      3  C   UNL     1       5.332  -2.178  -1.645  1.00  0.00     0.182 A 
ATOM      4  N   UNL     1       4.842  -1.418  -2.654  1.00  0.00    -0.215 NA
ATOM      5  C   UNL     1       5.704  -1.012  -3.634  1.00  0.00     0.226 A 
ATOM      6  N   UNL     1       7.029  -1.371  -3.588  1.00  0.00    -0.217 NA
ATOM      7  C   UNL     1       7.524  -2.137  -2.571  1.00  0.00     0.152 A 
ATOM      8  C   UNL     1       6.633  -2.542  -1.581  1.00  0.00     0.127 A 
ATOM      9  N   UNL     1       6.828  -3.284  -0.484  1.00  0.00    -0.340 N 
ATOM     10  H   UNL     1       7.711  -3.721  -0.141  1.00  0.00     0.168 HD
ENDROOT
BRANCH   7  11
ATOM     11  N   UNL     1       8.906  -2.498  -2.544  1.00  0.00    -0.382 N 
ATOM     12  H   UNL     1       9.634  -1.895  -2.987  1.00  0.00     0.158 HD
ATOM     13  H   UNL     1       9.206  -3.380  -2.075  1.00  0.00     0.158 HD
ENDBRANCH   7  11
TORSDOF 1
ENDMDL
MODEL 6
REMARK VINA RESULT:    -3.416     13.841     15.802
REMARK INTER + INTRA:          -3.516
REMARK INTER:                  -3.516
REMARK INTRA:                   0.000
REMARK UNBOUND:                 0.000
REMARK SMILES Nc1ncnc2nc[nH]c12
REMARK SMILES IDX 8 1 7 2 6 3 5 4 4 5 3 6 2 7 10 8 9 9 1 11
REMARK H PARENT 9 10 1 12 1 13
REMARK Flexibility Score: inf
ROOT
ATOM      1  C   UNL     1      -4.897  -7.289   5.259  1.00  0.00     0.199 A 
ATOM      2  N   UNL     1      -4.897  -6.591   6.427  1.00  0.00    -0.217 NA
ATOM      3  C   UNL     1      -5.918  -7.155   7.094  1.00  0.00     0.182 A 
ATOM      4  N   UNL     1      -6.354  -6.824   8.334  1.00  0.00    -0.215 NA
ATOM      5  C   UNL     1      -7.414  -7.514   8.852  1.00  0.00     0.226 A 
ATOM      6  N   UNL     1      -8.014  -8.514   8.128  1.00  0.00    -0.217 NA
ATOM      7  C   UNL     1      -7.576  -8.849   6.878  1.00  0.00     0.152 A 
ATOM      8  C   UNL     1      -6.496  -8.136   6.365  1.00  0.00     0.127 A 
ATOM      9  N   UNL     1      -5.862  -8.241   5.190  1.00  0.00    -0.340 N 
ATOM     10  H   UNL     1      -6.055  -8.895   4.401  1.00  0.00     0.168 HD
ENDROOT
BRANCH   7  11
ATOM     11  N   UNL     1      -8.216  -9.893   6.143  1.00  0.00    -0.382 N 
ATOM     12  H   UNL     1      -8.654  -9.713   5.213  1.00  0.00     0.158 HD
ATOM     13  H   UNL     1      -8.254 -10.860   6.533  1.00  0.00     0.158 HD
ENDBRANCH   7  11
TORSDOF 1
ENDMDL
MODEL 7
REMARK VINA RESULT:    -3.406     13.782     15.264
REMARK INTER + INTRA:          -3.506
REMARK INTER:                  -3.506
REMARK INTRA:                   0.000
REMARK UNBOUND:                 0.000
REMARK SMILES Nc1ncnc2nc[nH]c12
REMARK SMILES IDX 8 1 7 2 6 3 5 4 4 5 3 6 2 7 10 8 9 9 1 11
REMARK H PARENT 9 10 1 12 1 13
REMARK Flexibility Score: inf
ROOT
ATOM      1  C   UNL     1      -8.091  -5.704   3.433  1.00  0.00     0.199 A 
ATOM      2  N   UNL     1      -8.995  -6.385   4.189  1.00  0.00    -0.217 NA
ATOM      3  C   UNL     1      -8.204  -7.161   4.948  1.00  0.00     0.182 A 
ATOM      4  N   UNL     1      -8.606  -8.049   5.890  1.00  0.00    -0.215 NA
ATOM      5  C   UNL     1      -7.649  -8.753   6.565  1.00  0.00     0.226 A 
ATOM      6  N   UNL     1      -6.318  -8.559   6.289  1.00  0.00    -0.217 NA
ATOM      7  C   UNL     1      -5.910  -7.664   5.340  1.00  0.00     0.152 A 
ATOM      8  C   UNL     1      -6.898  -6.955   4.661  1.00  0.00     0.127 A 
ATOM      9  N   UNL     1      -6.800  -6.031   3.698  1.00  0.00    -0.340 N 
ATOM     10  H   UNL     1      -5.942  -5.645   3.249  1.00  0.00     0.168 HD
ENDROOT
BRANCH   7  11
ATOM     11  N   UNL     1      -4.520  -7.479   5.070  1.00  0.00    -0.382 N 
ATOM     12  H   UNL     1      -4.179  -7.244   4.113  1.00  0.00     0.158 HD
ATOM     13  H   UNL     1      -3.821  -7.578   5.839  1.00  0.00     0.158 HD
ENDBRANCH   7  11
TORSDOF 1
ENDMDL
MODEL 8
REMARK VINA RESULT:    -3.400     13.549     15.158
REMARK INTER + INTRA:          -3.499
REMARK INTER:                  -3.499
REMARK INTRA:                   0.000
REMARK UNBOUND:                 0.000
REMARK SMILES Nc1ncnc2nc[nH]c12
REMARK SMILES IDX 8 1 7 2 6 3 5 4 4 5 3 6 2 7 10 8 9 9 1 11
REMARK H PARENT 9 10 1 12 1 13
REMARK Flexibility Score: inf
ROOT
ATOM      1  C   UNL     1      -8.646  -6.157   3.104  1.00  0.00     0.199 A 
ATOM      2  N   UNL     1      -7.358  -5.720   3.074  1.00  0.00    -0.217 NA
ATOM      3  C   UNL     1      -6.812  -6.373   4.114  1.00  0.00     0.182 A 
ATOM      4  N   UNL     1      -5.525  -6.293   4.532  1.00  0.00    -0.215 NA
ATOM      5  C   UNL     1      -5.152  -7.037   5.616  1.00  0.00     0.226 A 
ATOM      6  N   UNL     1      -6.063  -7.840   6.257  1.00  0.00    -0.217 NA
ATOM      7  C   UNL     1      -7.360  -7.922   5.837  1.00  0.00     0.152 A 
ATOM      8  C   UNL     1      -7.725  -7.158   4.731  1.00  0.00     0.127 A 
ATOM      9  N   UNL     1      -8.902  -7.037   4.106  1.00  0.00    -0.340 N 
ATOM     10  H   UNL     1      -9.809  -7.503   4.326  1.00  0.00     0.168 HD
ENDROOT
BRANCH   7  11
ATOM     11  N   UNL     1      -8.290  -8.764   6.519  1.00  0.00    -0.382 N 
ATOM     12  H   UNL     1      -8.768  -9.552   6.032  1.00  0.00     0.158 HD
ATOM     13  H   UNL     1      -8.504  -8.596   7.527  1.00  0.00     0.158 HD
ENDBRANCH   7  11
TORSDOF 1
ENDMDL
MODEL 9
REMARK VINA RESULT:    -3.390     14.711     14.778
REMARK INTER + INTRA:          -3.489
REMARK INTER:                  -3.489
REMARK INTRA:                   0.000
REMARK UNBOUND:                 0.000
REMARK SMILES Nc1ncnc2nc[nH]c12
REMARK SMILES IDX 8 1 7 2 6 3 5 4 4 5 3 6 2 7 10 8 9 9 1 11
REMARK H PARENT 9 10 1 12 1 13
REMARK Flexibility Score: inf
ROOT
ATOM      1  C   UNL     1      -7.135  -9.817   1.214  1.00  0.00     0.199 A 
ATOM      2  N   UNL     1      -7.613  -8.649   0.703  1.00  0.00    -0.217 NA
ATOM      3  C   UNL     1      -7.602  -7.843   1.777  1.00  0.00     0.182 A 
ATOM      4  N   UNL     1      -7.988  -6.544   1.816  1.00  0.00    -0.215 NA
ATOM      5  C   UNL     1      -7.904  -5.881   3.008  1.00  0.00     0.226 A 
ATOM      6  N   UNL     1      -7.440  -6.522   4.130  1.00  0.00    -0.217 NA
ATOM      7  C   UNL     1      -7.050  -7.831   4.093  1.00  0.00     0.152 A 
ATOM      8  C   UNL     1      -7.142  -8.492   2.870  1.00  0.00     0.127 A 
ATOM      9  N   UNL     1      -6.838  -9.752   2.537  1.00  0.00    -0.340 N 
ATOM     10  H   UNL     1      -6.461 -10.515   3.142  1.00  0.00     0.168 HD
ENDROOT
BRANCH   7  11
ATOM     11  N   UNL     1      -6.571  -8.477   5.273  1.00  0.00    -0.382 N 
ATOM     12  H   UNL     1      -5.573  -8.768   5.366  1.00  0.00     0.158 HD
ATOM     13  H   UNL     1      -7.222  -8.668   6.065  1.00  0.00     0.158 HD
ENDBRANCH   7  11
TORSDOF 1
ENDMDL
