MODEL 1
REMARK VINA RESULT:    -5.794      0.000      0.000
REMARK INTER + INTRA:          -5.963
REMARK INTER:                  -5.963
REMARK INTRA:                   0.000
REMARK UNBOUND:                 0.000
REMARK SMILES O=c1ccc2ccc(O)cc2o1
REMARK SMILES IDX 6 1 7 2 8 3 10 4 11 5 5 6 4 7 3 8 2 9 1 10 12 11 9 12
REMARK H PARENT 9 13
REMARK Flexibility Score: inf
ROOT
ATOM      1  C   UNL     1     -35.747  15.589  51.859  1.00  0.00     0.016 A 
ATOM      2  C   UNL     1     -36.060  16.274  50.679  1.00  0.00     0.047 A 
ATOM      3  C   UNL     1     -35.042  16.667  49.798  1.00  0.00     0.119 A 
ATOM      4  C   UNL     1     -33.706  16.375  50.099  1.00  0.00     0.094 A 
ATOM      5  C   UNL     1     -33.384  15.690  51.276  1.00  0.00     0.142 A 
ATOM      6  C   UNL     1     -34.412  15.296  52.162  1.00  0.00     0.018 A 
ATOM      7  C   UNL     1     -34.058  14.614  53.331  1.00  0.00     0.019 A 
ATOM      8  C   UNL     1     -32.714  14.345  53.586  1.00  0.00     0.094 A 
ATOM      9  C   UNL     1     -31.750  14.766  52.664  1.00  0.00     0.336 A 
ATOM     10  O   UNL     1     -30.532  14.534  52.877  1.00  0.00    -0.246 OA
ATOM     11  O   UNL     1     -32.113  15.414  51.559  1.00  0.00    -0.423 OA
ENDROOT
BRANCH   3  12
ATOM     12  O   UNL     1     -35.347  17.349  48.622  1.00  0.00    -0.508 OA
ATOM     13  H   UNL     1     -35.904  18.195  48.629  1.00  0.00     0.293 HD
ENDBRANCH   3  12
TORSDOF 1
ENDMDL
MODEL 2
REMARK VINA RESULT:    -5.636      1.530      2.266
REMARK INTER + INTRA:          -5.801
REMARK INTER:                  -5.801
REMARK INTRA:                   0.000
REMARK UNBOUND:                 0.000
REMARK SMILES O=c1ccc2ccc(O)cc2o1
REMARK SMILES IDX 6 1 7 2 8 3 10 4 11 5 5 6 4 7 3 8 2 9 1 10 12 11 9 12
REMARK H PARENT 9 13
REMARK Flexibility Score: inf
ROOT
ATOM      1  C   UNL     1     -33.993  16.654  49.962  1.00  0.00     0.016 A 
ATOM      2  C   UNL     1     -35.327  16.802  49.565  1.00  0.00     0.047 A 
ATOM      3  C   UNL     1     -36.359  16.244  50.332  1.00  0.00     0.119 A 
ATOM      4  C   UNL     1     -36.057  15.536  51.501  1.00  0.00     0.094 A 
ATOM      5  C   UNL     1     -34.727  15.383  51.906  1.00  0.00     0.142 A 
ATOM      6  C   UNL     1     -33.688  15.945  51.132  1.00  0.00     0.018 A 
ATOM      7  C   UNL     1     -32.369  15.775  51.562  1.00  0.00     0.019 A 
ATOM      8  C   UNL     1     -32.118  15.062  52.734  1.00  0.00     0.094 A 
ATOM      9  C   UNL     1     -33.196  14.533  53.450  1.00  0.00     0.336 A 
ATOM     10  O   UNL     1     -32.991  13.885  54.510  1.00  0.00    -0.246 OA
ATOM     11  O   UNL     1     -34.444  14.708  53.018  1.00  0.00    -0.423 OA
ENDROOT
BRANCH   3  12
ATOM     12  O   UNL     1     -37.689  16.388  49.942  1.00  0.00    -0.508 OA
ATOM     13  H   UNL     1     -37.947  16.490  48.967  1.00  0.00     0.293 HD
ENDBRANCH   3  12
TORSDOF 1
ENDMDL
MODEL 3
REMARK VINA RESULT:    -5.626      1.243      1.734
REMARK INTER + INTRA:          -5.791
REMARK INTER:                  -5.791
REMARK INTRA:                   0.000
REMARK UNBOUND:                 0.000
REMARK SMILES O=c1ccc2ccc(O)cc2o1
REMARK SMILES IDX 6 1 7 2 8 3 10 4 11 5 5 6 4 7 3 8 2 9 1 10 12 11 9 12
REMARK H PARENT 9 13
REMARK Flexibility Score: inf
ROOT
ATOM      1  C   UNL     1     -34.596  15.306  52.867  1.00  0.00     0.016 A 
ATOM      2  C   UNL     1     -34.730  16.099  51.722  1.00  0.00     0.047 A 
ATOM      3  C   UNL     1     -33.616  16.369  50.914  1.00  0.00     0.119 A 
ATOM      4  C   UNL     1     -32.363  15.844  51.253  1.00  0.00     0.094 A 
ATOM      5  C   UNL     1     -32.220  15.050  52.396  1.00  0.00     0.142 A 
ATOM      6  C   UNL     1     -33.344  14.780  53.208  1.00  0.00     0.018 A 
ATOM      7  C   UNL     1     -33.168  13.984  54.345  1.00  0.00     0.019 A 
ATOM      8  C   UNL     1     -31.901  13.483  54.640  1.00  0.00     0.094 A 
ATOM      9  C   UNL     1     -30.834  13.792  53.791  1.00  0.00     0.336 A 
ATOM     10  O   UNL     1     -29.682  13.350  54.041  1.00  0.00    -0.246 OA
ATOM     11  O   UNL     1     -31.027  14.553  52.715  1.00  0.00    -0.423 OA
ENDROOT
BRANCH   3  12
ATOM     12  O   UNL     1     -33.743  17.158  49.772  1.00  0.00    -0.508 OA
ATOM     13  H   UNL     1     -33.678  18.168  49.817  1.00  0.00     0.293 HD
ENDBRANCH   3  12
TORSDOF 1
ENDMDL
MODEL 4
REMARK VINA RESULT:    -5.607      1.682      4.802
REMARK INTER + INTRA:          -5.771
REMARK INTER:                  -5.771
REMARK INTRA:                   0.000
REMARK UNBOUND:                 0.000
REMARK SMILES O=c1ccc2ccc(O)cc2o1
REMARK SMILES IDX 6 1 7 2 8 3 10 4 11 5 5 6 4 7 3 8 2 9 1 10 12 11 9 12
REMARK H PARENT 9 13
REMARK Flexibility Score: inf
ROOT
ATOM      1  C   UNL     1     -32.495  15.766  51.388  1.00  0.00     0.016 A 
ATOM      2  C   UNL     1     -32.143  15.119  52.578  1.00  0.00     0.047 A 
ATOM      3  C   UNL     1     -33.137  14.650  53.449  1.00  0.00     0.119 A 
ATOM      4  C   UNL     1     -34.489  14.829  53.128  1.00  0.00     0.094 A 
ATOM      5  C   UNL     1     -34.850  15.474  51.941  1.00  0.00     0.142 A 
ATOM      6  C   UNL     1     -33.847  15.947  51.065  1.00  0.00     0.018 A 
ATOM      7  C   UNL     1     -34.239  16.589  49.887  1.00  0.00     0.019 A 
ATOM      8  C   UNL     1     -35.598  16.743  49.611  1.00  0.00     0.094 A 
ATOM      9  C   UNL     1     -36.536  16.250  50.525  1.00  0.00     0.336 A 
ATOM     10  O   UNL     1     -37.766  16.380  50.294  1.00  0.00    -0.246 OA
ATOM     11  O   UNL     1     -36.135  15.643  51.640  1.00  0.00    -0.423 OA
ENDROOT
BRANCH   3  12
ATOM     12  O   UNL     1     -32.793  14.004  54.635  1.00  0.00    -0.508 OA
ATOM     13  H   UNL     1     -32.606  13.009  54.661  1.00  0.00     0.293 HD
ENDBRANCH   3  12
TORSDOF 1
ENDMDL
MODEL 5
REMARK VINA RESULT:    -5.470      1.169      4.463
REMARK INTER + INTRA:          -5.630
REMARK INTER:                  -5.630
REMARK INTRA:                   0.000
REMARK UNBOUND:                 0.000
REMARK SMILES O=c1ccc2ccc(O)cc2o1
REMARK SMILES IDX 6 1 7 2 8 3 10 4 11 5 5 6 4 7 3 8 2 9 1 10 12 11 9 12
REMARK H PARENT 9 13
REMARK Flexibility Score: inf
ROOT
ATOM      1  C   UNL     1     -33.132  14.108  54.243  1.00  0.00     0.016 A 
ATOM      2  C   UNL     1     -31.840  13.602  54.423  1.00  0.00     0.047 A 
ATOM      3  C   UNL     1     -30.840  13.861  53.474  1.00  0.00     0.119 A 
ATOM      4  C   UNL     1     -31.135  14.630  52.341  1.00  0.00     0.094 A 
ATOM      5  C   UNL     1     -32.424  15.140  52.153  1.00  0.00     0.142 A 
ATOM      6  C   UNL     1     -33.429  14.876  53.110  1.00  0.00     0.018 A 
ATOM      7  C   UNL     1     -34.708  15.399  52.894  1.00  0.00     0.019 A 
ATOM      8  C   UNL     1     -34.952  16.159  51.751  1.00  0.00     0.094 A 
ATOM      9  C   UNL     1     -33.909  16.379  50.846  1.00  0.00     0.336 A 
ATOM     10  O   UNL     1     -34.109  17.061  49.807  1.00  0.00    -0.246 OA
ATOM     11  O   UNL     1     -32.700  15.869  51.075  1.00  0.00    -0.423 OA
ENDROOT
BRANCH   3  12
ATOM     12  O   UNL     1     -29.551  13.361  53.647  1.00  0.00    -0.508 OA
ATOM     13  H   UNL     1     -29.176  13.172  54.569  1.00  0.00     0.293 HD
ENDBRANCH   3  12
TORSDOF 1
ENDMDL
MODEL 6
REMARK VINA RESULT:    -5.390      2.646      3.747
REMARK INTER + INTRA:          -5.547
REMARK INTER:                  -5.547
REMARK INTRA:                   0.000
REMARK UNBOUND:                 0.000
REMARK SMILES O=c1ccc2ccc(O)cc2o1
REMARK SMILES IDX 6 1 7 2 8 3 10 4 11 5 5 6 4 7 3 8 2 9 1 10 12 11 9 12
REMARK H PARENT 9 13
REMARK Flexibility Score: inf
ROOT
ATOM      1  C   UNL     1     -33.264  15.049  52.680  1.00  0.00     0.016 A 
ATOM      2  C   UNL     1     -32.486  15.908  51.896  1.00  0.00     0.047 A 
ATOM      3  C   UNL     1     -31.087  15.814  51.918  1.00  0.00     0.119 A 
ATOM      4  C   UNL     1     -30.464  14.855  52.726  1.00  0.00     0.094 A 
ATOM      5  C   UNL     1     -31.233  13.992  53.513  1.00  0.00     0.142 A 
ATOM      6  C   UNL     1     -32.643  14.089  53.490  1.00  0.00     0.018 A 
ATOM      7  C   UNL     1     -33.384  13.212  54.287  1.00  0.00     0.019 A 
ATOM      8  C   UNL     1     -32.718  12.274  55.075  1.00  0.00     0.094 A 
ATOM      9  C   UNL     1     -31.320  12.235  55.048  1.00  0.00     0.336 A 
ATOM     10  O   UNL     1     -30.700  11.397  55.753  1.00  0.00    -0.246 OA
ATOM     11  O   UNL     1     -30.637  13.082  54.280  1.00  0.00    -0.423 OA
ENDROOT
BRANCH   3  12
ATOM     12  O   UNL     1     -30.307  16.667  51.140  1.00  0.00    -0.508 OA
ATOM     13  H   UNL     1     -29.440  16.355  50.718  1.00  0.00     0.293 HD
ENDBRANCH   3  12
TORSDOF 1
ENDMDL
MODEL 7
REMARK VINA RESULT:    -5.383      7.036      8.151
REMARK INTER + INTRA:          -5.540
REMARK INTER:                  -5.540
REMARK INTRA:                   0.000
REMARK UNBOUND:                 0.000
REMARK SMILES O=c1ccc2ccc(O)cc2o1
REMARK SMILES IDX 6 1 7 2 8 3 10 4 11 5 5 6 4 7 3 8 2 9 1 10 12 11 9 12
REMARK H PARENT 9 13
REMARK Flexibility Score: inf
ROOT
ATOM      1  C   UNL     1     -26.102  16.075  55.355  1.00  0.00     0.016 A 
ATOM      2  C   UNL     1     -26.788  17.096  54.689  1.00  0.00     0.047 A 
ATOM      3  C   UNL     1     -27.312  16.876  53.407  1.00  0.00     0.119 A 
ATOM      4  C   UNL     1     -27.150  15.630  52.789  1.00  0.00     0.094 A 
ATOM      5  C   UNL     1     -26.467  14.603  53.448  1.00  0.00     0.142 A 
ATOM      6  C   UNL     1     -25.938  14.827  54.740  1.00  0.00     0.018 A 
ATOM      7  C   UNL     1     -25.259  13.781  55.372  1.00  0.00     0.019 A 
ATOM      8  C   UNL     1     -25.124  12.557  54.717  1.00  0.00     0.094 A 
ATOM      9  C   UNL     1     -25.673  12.408  53.439  1.00  0.00     0.336 A 
ATOM     10  O   UNL     1     -25.561  11.311  52.831  1.00  0.00    -0.246 OA
ATOM     11  O   UNL     1     -26.314  13.420  52.858  1.00  0.00    -0.423 OA
ENDROOT
BRANCH   3  12
ATOM     12  O   UNL     1     -27.996  17.890  52.738  1.00  0.00    -0.508 OA
ATOM     13  H   UNL     1     -27.738  18.173  51.800  1.00  0.00     0.293 HD
ENDBRANCH   3  12
TORSDOF 1
ENDMDL
MODEL 8
REMARK VINA RESULT:    -5.322      8.469     10.944
REMARK INTER + INTRA:          -5.478
REMARK INTER:                  -5.478
REMARK INTRA:                   0.000
REMARK UNBOUND:                 0.000
REMARK SMILES O=c1ccc2ccc(O)cc2o1
REMARK SMILES IDX 6 1 7 2 8 3 10 4 11 5 5 6 4 7 3 8 2 9 1 10 12 11 9 12
REMARK H PARENT 9 13
REMARK Flexibility Score: inf
ROOT
ATOM      1  C   UNL     1     -24.037  11.928  54.844  1.00  0.00     0.016 A 
ATOM      2  C   UNL     1     -23.638  10.820  55.598  1.00  0.00     0.047 A 
ATOM      3  C   UNL     1     -24.243  10.551  56.834  1.00  0.00     0.119 A 
ATOM      4  C   UNL     1     -25.251  11.394  57.318  1.00  0.00     0.094 A 
ATOM      5  C   UNL     1     -25.657  12.504  56.570  1.00  0.00     0.142 A 
ATOM      6  C   UNL     1     -25.046  12.774  55.325  1.00  0.00     0.018 A 
ATOM      7  C   UNL     1     -25.472  13.891  54.602  1.00  0.00     0.019 A 
ATOM      8  C   UNL     1     -26.481  14.701  55.125  1.00  0.00     0.094 A 
ATOM      9  C   UNL     1     -27.040  14.373  56.364  1.00  0.00     0.336 A 
ATOM     10  O   UNL     1     -27.950  15.092  56.853  1.00  0.00    -0.246 OA
ATOM     11  O   UNL     1     -26.615  13.303  57.033  1.00  0.00    -0.423 OA
ENDROOT
BRANCH   3  12
ATOM     12  O   UNL     1     -23.849   9.448  57.591  1.00  0.00    -0.508 OA
ATOM     13  H   UNL     1     -24.439   9.070  58.322  1.00  0.00     0.293 HD
ENDBRANCH   3  12
TORSDOF 1
ENDMDL
MODEL 9
REMARK VINA RESULT:    -5.188      6.997      7.958
REMARK INTER + INTRA:          -5.339
REMARK INTER:                  -5.339
REMARK INTRA:                   0.000
REMARK UNBOUND:                 0.000
REMARK SMILES O=c1ccc2ccc(O)cc2o1
REMARK SMILES IDX 6 1 7 2 8 3 10 4 11 5 5 6 4 7 3 8 2 9 1 10 12 11 9 12
REMARK H PARENT 9 13
REMARK Flexibility Score: inf
ROOT
ATOM      1  C   UNL     1     -26.821  14.613  53.838  1.00  0.00     0.016 A 
ATOM      2  C   UNL     1     -27.115  15.677  52.979  1.00  0.00     0.047 A 
ATOM      3  C   UNL     1     -27.534  16.911  53.498  1.00  0.00     0.119 A 
ATOM      4  C   UNL     1     -27.658  17.080  54.883  1.00  0.00     0.094 A 
ATOM      5  C   UNL     1     -27.366  16.022  55.749  1.00  0.00     0.142 A 
ATOM      6  C   UNL     1     -26.945  14.780  55.223  1.00  0.00     0.018 A 
ATOM      7  C   UNL     1     -26.661  13.740  56.115  1.00  0.00     0.019 A 
ATOM      8  C   UNL     1     -26.799  13.958  57.485  1.00  0.00     0.094 A 
ATOM      9  C   UNL     1     -27.221  15.213  57.935  1.00  0.00     0.336 A 
ATOM     10  O   UNL     1     -27.353  15.429  59.168  1.00  0.00    -0.246 OA
ATOM     11  O   UNL     1     -27.486  16.186  57.065  1.00  0.00    -0.423 OA
ENDROOT
BRANCH   3  12
ATOM     12  O   UNL     1     -27.828  17.975  52.648  1.00  0.00    -0.508 OA
ATOM     13  H   UNL     1     -27.110  18.421  52.090  1.00  0.00     0.293 HD
ENDBRANCH   3  12
TORSDOF 1
ENDMDL
