MODEL 1
REMARK VINA RESULT:    -5.108      0.000      0.000
REMARK INTER + INTRA:          -9.771
REMARK INTER:                  -8.691
REMARK INTRA:                  -1.080
REMARK UNBOUND:                -1.080
REMARK SMILES CCCCCCCCCCCCCC(=O)[O-]
REMARK SMILES IDX 8 1 9 2 10 3 11 4 12 5 13 6 14 7 15 8 16 9 7 10 6 11 5 12
REMARK SMILES IDX 4 13 3 14 2 15 1 16
REMARK H PARENT
REMARK Flexibility Score: inf
ROOT
ATOM      1  C   UNL     1      46.019  50.823  11.781  1.00  0.00     0.000 C 
ENDROOT
BRANCH   1   2
ATOM      2  C   UNL     1      46.947  50.949  10.562  1.00  0.00     0.000 C 
BRANCH   2   3
ATOM      3  C   UNL     1      47.105  49.628   9.791  1.00  0.00     0.000 C 
BRANCH   3   4
ATOM      4  C   UNL     1      47.482  48.406  10.655  1.00  0.00     0.000 C 
BRANCH   4   5
ATOM      5  C   UNL     1      46.863  47.071  10.202  1.00  0.00     0.006 C 
BRANCH   5   6
ATOM      6  C   UNL     1      45.331  47.074  10.261  1.00  0.00     0.053 C 
BRANCH   6   7
ATOM      7  C   UNL     1      44.831  45.827  10.916  1.00  0.00     0.041 C 
ATOM      8  O   UNL     1      45.384  44.720  10.675  1.00  0.00    -0.550 OA
ATOM      9  O   UNL     1      43.789  45.891  11.831  1.00  0.00    -0.550 OA
ENDBRANCH   6   7
ENDBRANCH   5   6
ENDBRANCH   4   5
ENDBRANCH   3   4
ENDBRANCH   2   3
ENDBRANCH   1   2
BRANCH   1  10
ATOM     10  C   UNL     1      44.556  50.689  11.345  1.00  0.00     0.000 C 
BRANCH  10  11
ATOM     11  C   UNL     1      43.846  49.578  12.131  1.00  0.00    -0.000 C 
BRANCH  11  12
ATOM     12  C   UNL     1      42.366  49.420  11.741  1.00  0.00    -0.000 C 
BRANCH  12  13
ATOM     13  C   UNL     1      41.358  49.810  12.840  1.00  0.00    -0.000 C 
BRANCH  13  14
ATOM     14  C   UNL     1      41.983  50.332  14.150  1.00  0.00    -0.000 C 
BRANCH  14  15
ATOM     15  C   UNL     1      41.051  51.205  15.007  1.00  0.00    -0.003 C 
ATOM     16  C   UNL     1      39.681  51.421  14.365  1.00  0.00     0.004 C 
ENDBRANCH  14  15
ENDBRANCH  13  14
ENDBRANCH  12  13
ENDBRANCH  11  12
ENDBRANCH  10  11
ENDBRANCH   1  10
TORSDOF 12
ENDMDL
MODEL 2
REMARK VINA RESULT:    -5.042      3.033      6.241
REMARK INTER + INTRA:          -9.658
REMARK INTER:                  -8.516
REMARK INTRA:                  -1.142
REMARK UNBOUND:                -1.080
REMARK SMILES CCCCCCCCCCCCCC(=O)[O-]
REMARK SMILES IDX 8 1 9 2 10 3 11 4 12 5 13 6 14 7 15 8 16 9 7 10 6 11 5 12
REMARK SMILES IDX 4 13 3 14 2 15 1 16
REMARK H PARENT
REMARK Flexibility Score: inf
ROOT
ATOM      1  C   UNL     1      45.900  50.523  11.708  1.00  0.00     0.000 C 
ENDROOT
BRANCH   1   2
ATOM      2  C   UNL     1      44.367  50.452  11.790  1.00  0.00     0.000 C 
BRANCH   2   3
ATOM      3  C   UNL     1      43.833  49.010  11.748  1.00  0.00     0.000 C 
BRANCH   3   4
ATOM      4  C   UNL     1      42.765  48.676  12.810  1.00  0.00     0.000 C 
BRANCH   4   5
ATOM      5  C   UNL     1      42.155  49.894  13.528  1.00  0.00     0.006 C 
BRANCH   5   6
ATOM      6  C   UNL     1      40.703  50.163  13.113  1.00  0.00     0.053 C 
BRANCH   6   7
ATOM      7  C   UNL     1      40.034  51.056  14.108  1.00  0.00     0.041 C 
ATOM      8  O   UNL     1      40.592  51.308  15.209  1.00  0.00    -0.550 OA
ATOM      9  O   UNL     1      38.816  51.650  13.802  1.00  0.00    -0.550 OA
ENDBRANCH   6   7
ENDBRANCH   5   6
ENDBRANCH   4   5
ENDBRANCH   3   4
ENDBRANCH   2   3
ENDBRANCH   1   2
BRANCH   1  10
ATOM     10  C   UNL     1      46.356  50.930  10.302  1.00  0.00     0.000 C 
BRANCH  10  11
ATOM     11  C   UNL     1      47.282  49.867   9.694  1.00  0.00    -0.000 C 
BRANCH  11  12
ATOM     12  C   UNL     1      47.340  48.576  10.529  1.00  0.00    -0.000 C 
BRANCH  12  13
ATOM     13  C   UNL     1      46.676  47.348   9.876  1.00  0.00    -0.000 C 
BRANCH  13  14
ATOM     14  C   UNL     1      46.531  46.115  10.791  1.00  0.00    -0.000 C 
BRANCH  14  15
ATOM     15  C   UNL     1      45.157  45.424  10.729  1.00  0.00    -0.003 C 
ATOM     16  C   UNL     1      44.254  45.993   9.636  1.00  0.00     0.004 C 
ENDBRANCH  14  15
ENDBRANCH  13  14
ENDBRANCH  12  13
ENDBRANCH  11  12
ENDBRANCH  10  11
ENDBRANCH   1  10
TORSDOF 12
ENDMDL
MODEL 3
REMARK VINA RESULT:    -4.877      3.219      6.504
REMARK INTER + INTRA:          -9.378
REMARK INTER:                  -8.416
REMARK INTRA:                  -0.962
REMARK UNBOUND:                -1.080
REMARK SMILES CCCCCCCCCCCCCC(=O)[O-]
REMARK SMILES IDX 8 1 9 2 10 3 11 4 12 5 13 6 14 7 15 8 16 9 7 10 6 11 5 12
REMARK SMILES IDX 4 13 3 14 2 15 1 16
REMARK H PARENT
REMARK Flexibility Score: inf
ROOT
ATOM      1  C   UNL     1      43.655  47.098  10.799  1.00  0.00     0.000 C 
ENDROOT
BRANCH   1   2
ATOM      2  C   UNL     1      42.769  46.664  11.977  1.00  0.00     0.000 C 
BRANCH   2   3
ATOM      3  C   UNL     1      41.989  47.834  12.601  1.00  0.00     0.000 C 
BRANCH   3   4
ATOM      4  C   UNL     1      42.857  48.997  13.123  1.00  0.00     0.000 C 
BRANCH   4   5
ATOM      5  C   UNL     1      42.082  50.123  13.832  1.00  0.00     0.006 C 
BRANCH   5   6
ATOM      6  C   UNL     1      40.640  50.260  13.329  1.00  0.00     0.053 C 
BRANCH   6   7
ATOM      7  C   UNL     1      39.858  51.163  14.228  1.00  0.00     0.041 C 
ATOM      8  O   UNL     1      38.821  51.739  13.801  1.00  0.00    -0.550 OA
ATOM      9  O   UNL     1      40.242  51.331  15.552  1.00  0.00    -0.550 OA
ENDBRANCH   6   7
ENDBRANCH   5   6
ENDBRANCH   4   5
ENDBRANCH   3   4
ENDBRANCH   2   3
ENDBRANCH   1   2
BRANCH   1  10
ATOM     10  C   UNL     1      44.902  46.212  10.694  1.00  0.00     0.000 C 
BRANCH  10  11
ATOM     11  C   UNL     1      45.533  46.313   9.298  1.00  0.00    -0.000 C 
BRANCH  11  12
ATOM     12  C   UNL     1      46.885  47.049   9.305  1.00  0.00    -0.000 C 
BRANCH  12  13
ATOM     13  C   UNL     1      47.173  47.868  10.579  1.00  0.00    -0.000 C 
BRANCH  13  14
ATOM     14  C   UNL     1      46.979  49.392  10.438  1.00  0.00    -0.000 C 
BRANCH  14  15
ATOM     15  C   UNL     1      45.899  49.992  11.354  1.00  0.00    -0.003 C 
ATOM     16  C   UNL     1      46.247  51.397  11.844  1.00  0.00     0.004 C 
ENDBRANCH  14  15
ENDBRANCH  13  14
ENDBRANCH  12  13
ENDBRANCH  11  12
ENDBRANCH  10  11
ENDBRANCH   1  10
TORSDOF 12
ENDMDL
MODEL 4
REMARK VINA RESULT:    -4.877      3.196      6.280
REMARK INTER + INTRA:          -9.378
REMARK INTER:                  -7.860
REMARK INTRA:                  -1.518
REMARK UNBOUND:                -1.080
REMARK SMILES CCCCCCCCCCCCCC(=O)[O-]
REMARK SMILES IDX 8 1 9 2 10 3 11 4 12 5 13 6 14 7 15 8 16 9 7 10 6 11 5 12
REMARK SMILES IDX 4 13 3 14 2 15 1 16
REMARK H PARENT
REMARK Flexibility Score: inf
ROOT
ATOM      1  C   UNL     1      42.679  50.819   9.987  1.00  0.00     0.000 C 
ENDROOT
BRANCH   1   2
ATOM      2  C   UNL     1      42.599  49.286  10.037  1.00  0.00     0.000 C 
BRANCH   2   3
ATOM      3  C   UNL     1      42.580  48.735  11.473  1.00  0.00     0.000 C 
BRANCH   3   4
ATOM      4  C   UNL     1      43.012  49.736  12.565  1.00  0.00     0.000 C 
BRANCH   4   5
ATOM      5  C   UNL     1      42.003  49.926  13.712  1.00  0.00     0.006 C 
BRANCH   5   6
ATOM      6  C   UNL     1      40.613  50.348  13.219  1.00  0.00     0.053 C 
BRANCH   6   7
ATOM      7  C   UNL     1      39.919  51.170  14.257  1.00  0.00     0.041 C 
ATOM      8  O   UNL     1      40.453  51.351  15.384  1.00  0.00    -0.550 OA
ATOM      9  O   UNL     1      38.707  51.781  13.964  1.00  0.00    -0.550 OA
ENDBRANCH   6   7
ENDBRANCH   5   6
ENDBRANCH   4   5
ENDBRANCH   3   4
ENDBRANCH   2   3
ENDBRANCH   1   2
BRANCH   1  10
ATOM     10  C   UNL     1      43.579  51.285   8.837  1.00  0.00     0.000 C 
BRANCH  10  11
ATOM     11  C   UNL     1      45.062  51.179   9.222  1.00  0.00    -0.000 C 
BRANCH  11  12
ATOM     12  C   UNL     1      45.353  51.711  10.636  1.00  0.00    -0.000 C 
BRANCH  12  13
ATOM     13  C   UNL     1      46.294  50.831  11.482  1.00  0.00    -0.000 C 
BRANCH  13  14
ATOM     14  C   UNL     1      47.480  50.213  10.715  1.00  0.00    -0.000 C 
BRANCH  14  15
ATOM     15  C   UNL     1      47.524  48.675  10.726  1.00  0.00    -0.003 C 
ATOM     16  C   UNL     1      46.158  48.039  10.471  1.00  0.00     0.004 C 
ENDBRANCH  14  15
ENDBRANCH  13  14
ENDBRANCH  12  13
ENDBRANCH  11  12
ENDBRANCH  10  11
ENDBRANCH   1  10
TORSDOF 12
ENDMDL
MODEL 5
REMARK VINA RESULT:    -4.826      2.575      5.408
REMARK INTER + INTRA:          -9.291
REMARK INTER:                  -7.574
REMARK INTRA:                  -1.717
REMARK UNBOUND:                -1.080
REMARK SMILES CCCCCCCCCCCCCC(=O)[O-]
REMARK SMILES IDX 8 1 9 2 10 3 11 4 12 5 13 6 14 7 15 8 16 9 7 10 6 11 5 12
REMARK SMILES IDX 4 13 3 14 2 15 1 16
REMARK H PARENT
REMARK Flexibility Score: inf
ROOT
ATOM      1  C   UNL     1      44.822  46.708  10.694  1.00  0.00     0.000 C 
ENDROOT
BRANCH   1   2
ATOM      2  C   UNL     1      44.007  47.285   9.526  1.00  0.00     0.000 C 
BRANCH   2   3
ATOM      3  C   UNL     1      42.601  47.744   9.949  1.00  0.00     0.000 C 
BRANCH   3   4
ATOM      4  C   UNL     1      41.881  46.816  10.949  1.00  0.00     0.000 C 
BRANCH   4   5
ATOM      5  C   UNL     1      41.326  47.515  12.204  1.00  0.00     0.006 C 
BRANCH   5   6
ATOM      6  C   UNL     1      42.374  48.377  12.918  1.00  0.00     0.053 C 
BRANCH   6   7
ATOM      7  C   UNL     1      41.834  49.747  13.177  1.00  0.00     0.041 C 
ATOM      8  O   UNL     1      41.007  50.264  12.378  1.00  0.00    -0.550 OA
ATOM      9  O   UNL     1      42.202  50.435  14.326  1.00  0.00    -0.550 OA
ENDBRANCH   6   7
ENDBRANCH   5   6
ENDBRANCH   4   5
ENDBRANCH   3   4
ENDBRANCH   2   3
ENDBRANCH   1   2
BRANCH   1  10
ATOM     10  C   UNL     1      46.287  46.503  10.292  1.00  0.00     0.000 C 
BRANCH  10  11
ATOM     11  C   UNL     1      46.873  47.782   9.674  1.00  0.00    -0.000 C 
BRANCH  11  12
ATOM     12  C   UNL     1      47.598  48.665  10.704  1.00  0.00    -0.000 C 
BRANCH  12  13
ATOM     13  C   UNL     1      47.404  50.183  10.511  1.00  0.00    -0.000 C 
BRANCH  13  14
ATOM     14  C   UNL     1      46.554  50.879  11.593  1.00  0.00    -0.000 C 
BRANCH  14  15
ATOM     15  C   UNL     1      45.080  50.441  11.636  1.00  0.00    -0.003 C 
ATOM     16  C   UNL     1      44.262  50.990  10.468  1.00  0.00     0.004 C 
ENDBRANCH  14  15
ENDBRANCH  13  14
ENDBRANCH  12  13
ENDBRANCH  11  12
ENDBRANCH  10  11
ENDBRANCH   1  10
TORSDOF 12
ENDMDL
MODEL 6
REMARK VINA RESULT:    -4.823      1.444      2.557
REMARK INTER + INTRA:          -9.286
REMARK INTER:                  -7.638
REMARK INTRA:                  -1.648
REMARK UNBOUND:                -1.080
REMARK SMILES CCCCCCCCCCCCCC(=O)[O-]
REMARK SMILES IDX 8 1 9 2 10 3 11 4 12 5 13 6 14 7 15 8 16 9 7 10 6 11 5 12
REMARK SMILES IDX 4 13 3 14 2 15 1 16
REMARK H PARENT
REMARK Flexibility Score: inf
ROOT
ATOM      1  C   UNL     1      47.291  49.734   9.960  1.00  0.00     0.000 C 
ENDROOT
BRANCH   1   2
ATOM      2  C   UNL     1      47.618  48.476  10.778  1.00  0.00     0.000 C 
BRANCH   2   3
ATOM      3  C   UNL     1      46.811  47.245  10.329  1.00  0.00     0.000 C 
BRANCH   3   4
ATOM      4  C   UNL     1      45.838  47.490   9.158  1.00  0.00     0.000 C 
BRANCH   4   5
ATOM      5  C   UNL     1      44.377  47.087   9.429  1.00  0.00     0.006 C 
BRANCH   5   6
ATOM      6  C   UNL     1      44.169  46.512  10.835  1.00  0.00     0.053 C 
BRANCH   6   7
ATOM      7  C   UNL     1      42.730  46.611  11.232  1.00  0.00     0.041 C 
ATOM      8  O   UNL     1      41.846  46.825  10.360  1.00  0.00    -0.550 OA
ATOM      9  O   UNL     1      42.358  46.416  12.555  1.00  0.00    -0.550 OA
ENDBRANCH   6   7
ENDBRANCH   5   6
ENDBRANCH   4   5
ENDBRANCH   3   4
ENDBRANCH   2   3
ENDBRANCH   1   2
BRANCH   1  10
ATOM     10  C   UNL     1      47.181  50.965  10.867  1.00  0.00     0.000 C 
BRANCH  10  11
ATOM     11  C   UNL     1      45.830  50.994  11.595  1.00  0.00    -0.000 C 
BRANCH  11  12
ATOM     12  C   UNL     1      44.631  51.021  10.631  1.00  0.00    -0.000 C 
BRANCH  12  13
ATOM     13  C   UNL     1      43.415  50.186  11.080  1.00  0.00    -0.000 C 
BRANCH  13  14
ATOM     14  C   UNL     1      43.354  49.876  12.590  1.00  0.00    -0.000 C 
BRANCH  14  15
ATOM     15  C   UNL     1      41.960  50.030  13.224  1.00  0.00    -0.003 C 
ATOM     16  C   UNL     1      42.017  50.458  14.689  1.00  0.00     0.004 C 
ENDBRANCH  14  15
ENDBRANCH  13  14
ENDBRANCH  12  13
ENDBRANCH  11  12
ENDBRANCH  10  11
ENDBRANCH   1  10
TORSDOF 12
ENDMDL
MODEL 7
REMARK VINA RESULT:    -4.821      2.394      5.257
REMARK INTER + INTRA:          -9.283
REMARK INTER:                  -7.730
REMARK INTRA:                  -1.553
REMARK UNBOUND:                -1.080
REMARK SMILES CCCCCCCCCCCCCC(=O)[O-]
REMARK SMILES IDX 8 1 9 2 10 3 11 4 12 5 13 6 14 7 15 8 16 9 7 10 6 11 5 12
REMARK SMILES IDX 4 13 3 14 2 15 1 16
REMARK H PARENT
REMARK Flexibility Score: inf
ROOT
ATOM      1  C   UNL     1      45.863  50.456  11.747  1.00  0.00     0.000 C 
ENDROOT
BRANCH   1   2
ATOM      2  C   UNL     1      44.666  50.910  10.896  1.00  0.00     0.000 C 
BRANCH   2   3
ATOM      3  C   UNL     1      43.531  49.872  10.859  1.00  0.00     0.000 C 
BRANCH   3   4
ATOM      4  C   UNL     1      43.741  48.638  11.762  1.00  0.00     0.000 C 
BRANCH   4   5
ATOM      5  C   UNL     1      42.563  48.304  12.694  1.00  0.00     0.006 C 
BRANCH   5   6
ATOM      6  C   UNL     1      42.104  46.846  12.574  1.00  0.00     0.053 C 
BRANCH   6   7
ATOM      7  C   UNL     1      40.878  46.753  11.724  1.00  0.00     0.041 C 
ATOM      8  O   UNL     1      39.746  46.607  12.258  1.00  0.00    -0.550 OA
ATOM      9  O   UNL     1      40.976  46.879  10.344  1.00  0.00    -0.550 OA
ENDBRANCH   6   7
ENDBRANCH   5   6
ENDBRANCH   4   5
ENDBRANCH   3   4
ENDBRANCH   2   3
ENDBRANCH   1   2
BRANCH   1  10
ATOM     10  C   UNL     1      47.144  50.403  10.908  1.00  0.00     0.000 C 
BRANCH  10  11
ATOM     11  C   UNL     1      47.544  48.952  10.604  1.00  0.00    -0.000 C 
BRANCH  11  12
ATOM     12  C   UNL     1      46.714  48.329   9.467  1.00  0.00    -0.000 C 
BRANCH  12  13
ATOM     13  C   UNL     1      46.773  46.790   9.387  1.00  0.00    -0.000 C 
BRANCH  13  14
ATOM     14  C   UNL     1      46.437  46.051  10.698  1.00  0.00    -0.000 C 
BRANCH  14  15
ATOM     15  C   UNL     1      45.049  45.388  10.727  1.00  0.00    -0.003 C 
ATOM     16  C   UNL     1      44.331  45.449   9.380  1.00  0.00     0.004 C 
ENDBRANCH  14  15
ENDBRANCH  13  14
ENDBRANCH  12  13
ENDBRANCH  11  12
ENDBRANCH  10  11
ENDBRANCH   1  10
TORSDOF 12
ENDMDL
MODEL 8
REMARK VINA RESULT:    -4.820      2.560      4.889
REMARK INTER + INTRA:          -9.281
REMARK INTER:                  -7.534
REMARK INTRA:                  -1.747
REMARK UNBOUND:                -1.080
REMARK SMILES CCCCCCCCCCCCCC(=O)[O-]
REMARK SMILES IDX 8 1 9 2 10 3 11 4 12 5 13 6 14 7 15 8 16 9 7 10 6 11 5 12
REMARK SMILES IDX 4 13 3 14 2 15 1 16
REMARK H PARENT
REMARK Flexibility Score: inf
ROOT
ATOM      1  C   UNL     1      47.551  50.103  10.187  1.00  0.00     0.000 C 
ENDROOT
BRANCH   1   2
ATOM      2  C   UNL     1      46.890  51.045  11.206  1.00  0.00     0.000 C 
BRANCH   2   3
ATOM      3  C   UNL     1      45.542  50.515  11.723  1.00  0.00     0.000 C 
BRANCH   3   4
ATOM      4  C   UNL     1      44.343  50.740  10.778  1.00  0.00     0.000 C 
BRANCH   4   5
ATOM      5  C   UNL     1      43.037  50.044  11.204  1.00  0.00     0.006 C 
BRANCH   5   6
ATOM      6  C   UNL     1      43.126  49.415  12.600  1.00  0.00     0.053 C 
BRANCH   6   7
ATOM      7  C   UNL     1      42.035  49.939  13.479  1.00  0.00     0.041 C 
ATOM      8  O   UNL     1      42.279  50.244  14.677  1.00  0.00    -0.550 OA
ATOM      9  O   UNL     1      40.762  50.141  12.963  1.00  0.00    -0.550 OA
ENDBRANCH   6   7
ENDBRANCH   5   6
ENDBRANCH   4   5
ENDBRANCH   3   4
ENDBRANCH   2   3
ENDBRANCH   1   2
BRANCH   1  10
ATOM     10  C   UNL     1      47.422  48.640  10.628  1.00  0.00     0.000 C 
BRANCH  10  11
ATOM     11  C   UNL     1      46.882  47.766   9.486  1.00  0.00    -0.000 C 
BRANCH  11  12
ATOM     12  C   UNL     1      45.410  47.365   9.685  1.00  0.00    -0.000 C 
BRANCH  12  13
ATOM     13  C   UNL     1      45.158  46.359  10.826  1.00  0.00    -0.000 C 
BRANCH  13  14
ATOM     14  C   UNL     1      43.674  46.099  11.156  1.00  0.00    -0.000 C 
BRANCH  14  15
ATOM     15  C   UNL     1      42.687  46.487  10.041  1.00  0.00    -0.003 C 
ATOM     16  C   UNL     1      41.292  46.816  10.570  1.00  0.00     0.004 C 
ENDBRANCH  14  15
ENDBRANCH  13  14
ENDBRANCH  12  13
ENDBRANCH  11  12
ENDBRANCH  10  11
ENDBRANCH   1  10
TORSDOF 12
ENDMDL
MODEL 9
REMARK VINA RESULT:    -4.787      2.181      5.746
REMARK INTER + INTRA:          -9.226
REMARK INTER:                  -7.896
REMARK INTRA:                  -1.330
REMARK UNBOUND:                -1.080
REMARK SMILES CCCCCCCCCCCCCC(=O)[O-]
REMARK SMILES IDX 8 1 9 2 10 3 11 4 12 5 13 6 14 7 15 8 16 9 7 10 6 11 5 12
REMARK SMILES IDX 4 13 3 14 2 15 1 16
REMARK H PARENT
REMARK Flexibility Score: inf
ROOT
ATOM      1  C   UNL     1      46.380  51.160  10.059  1.00  0.00     0.000 C 
ENDROOT
BRANCH   1   2
ATOM      2  C   UNL     1      46.430  51.172  11.594  1.00  0.00     0.000 C 
BRANCH   2   3
ATOM      3  C   UNL     1      45.061  50.891  12.239  1.00  0.00     0.000 C 
BRANCH   3   4
ATOM      4  C   UNL     1      44.039  50.184  11.325  1.00  0.00     0.000 C 
BRANCH   4   5
ATOM      5  C   UNL     1      43.775  48.706  11.663  1.00  0.00     0.006 C 
BRANCH   5   6
ATOM      6  C   UNL     1      42.782  48.528  12.818  1.00  0.00     0.053 C 
BRANCH   6   7
ATOM      7  C   UNL     1      41.726  47.535  12.449  1.00  0.00     0.041 C 
ATOM      8  O   UNL     1      40.532  47.907  12.297  1.00  0.00    -0.550 OA
ATOM      9  O   UNL     1      42.067  46.207  12.224  1.00  0.00    -0.550 OA
ENDBRANCH   6   7
ENDBRANCH   5   6
ENDBRANCH   4   5
ENDBRANCH   3   4
ENDBRANCH   2   3
ENDBRANCH   1   2
BRANCH   1  10
ATOM     10  C   UNL     1      47.240  50.026   9.490  1.00  0.00     0.000 C 
BRANCH  10  11
ATOM     11  C   UNL     1      47.646  49.037  10.593  1.00  0.00    -0.000 C 
BRANCH  11  12
ATOM     12  C   UNL     1      47.137  47.608  10.332  1.00  0.00    -0.000 C 
BRANCH  12  13
ATOM     13  C   UNL     1      46.127  47.479   9.175  1.00  0.00    -0.000 C 
BRANCH  13  14
ATOM     14  C   UNL     1      45.671  46.040   8.859  1.00  0.00    -0.000 C 
BRANCH  14  15
ATOM     15  C   UNL     1      46.703  44.948   9.191  1.00  0.00    -0.003 C 
ATOM     16  C   UNL     1      47.614  44.613   8.011  1.00  0.00     0.004 C 
ENDBRANCH  14  15
ENDBRANCH  13  14
ENDBRANCH  12  13
ENDBRANCH  11  12
ENDBRANCH  10  11
ENDBRANCH   1  10
TORSDOF 12
ENDMDL
