MODEL 1
REMARK VINA RESULT:    -2.414      0.000      0.000
REMARK INTER + INTRA:          -2.704
REMARK INTER:                  -2.697
REMARK INTRA:                  -0.007
REMARK UNBOUND:                -0.007
REMARK SMILES CCCC(=O)[O-]
REMARK SMILES IDX 3 1 4 2 5 3 6 4 2 5 1 6
REMARK H PARENT
REMARK Flexibility Score: inf
ROOT
ATOM      1  C   UNL     1      64.052  34.647  61.254  1.00  0.00     0.052 C 
ENDROOT
BRANCH   1   2
ATOM      2  C   UNL     1      64.905  35.825  61.601  1.00  0.00     0.041 C 
ATOM      3  O   UNL     1      66.076  35.915  61.148  1.00  0.00    -0.550 OA
ATOM      4  O   UNL     1      64.390  36.851  62.384  1.00  0.00    -0.550 OA
ENDBRANCH   1   2
BRANCH   1   5
ATOM      5  C   UNL     1      62.646  35.102  60.855  1.00  0.00     0.003 C 
ATOM      6  C   UNL     1      61.814  33.930  60.341  1.00  0.00     0.004 C 
ENDBRANCH   1   5
TORSDOF 2
ENDMDL
MODEL 2
REMARK VINA RESULT:    -2.409     15.758     16.847
REMARK INTER + INTRA:          -2.698
REMARK INTER:                  -2.688
REMARK INTRA:                  -0.010
REMARK UNBOUND:                -0.007
REMARK SMILES CCCC(=O)[O-]
REMARK SMILES IDX 3 1 4 2 5 3 6 4 2 5 1 6
REMARK H PARENT
REMARK Flexibility Score: inf
ROOT
ATOM      1  C   UNL     1      54.014  27.481  50.163  1.00  0.00     0.052 C 
ENDROOT
BRANCH   1   2
ATOM      2  C   UNL     1      54.686  26.160  49.966  1.00  0.00     0.041 C 
ATOM      3  O   UNL     1      54.024  25.166  49.565  1.00  0.00    -0.550 OA
ATOM      4  O   UNL     1      56.053  26.036  50.176  1.00  0.00    -0.550 OA
ENDBRANCH   1   2
BRANCH   1   5
ATOM      5  C   UNL     1      54.999  28.502  50.740  1.00  0.00     0.003 C 
ATOM      6  C   UNL     1      54.304  29.828  51.040  1.00  0.00     0.004 C 
ENDBRANCH   1   5
TORSDOF 2
ENDMDL
MODEL 3
REMARK VINA RESULT:    -2.375      5.119      5.910
REMARK INTER + INTRA:          -2.659
REMARK INTER:                  -2.625
REMARK INTRA:                  -0.035
REMARK UNBOUND:                -0.007
REMARK SMILES CCCC(=O)[O-]
REMARK SMILES IDX 3 1 4 2 5 3 6 4 2 5 1 6
REMARK H PARENT
REMARK Flexibility Score: inf
ROOT
ATOM      1  C   UNL     1      61.070  30.658  61.613  1.00  0.00     0.052 C 
ENDROOT
BRANCH   1   2
ATOM      2  C   UNL     1      62.197  29.683  61.491  1.00  0.00     0.041 C 
ATOM      3  O   UNL     1      63.389  30.087  61.513  1.00  0.00    -0.550 OA
ATOM      4  O   UNL     1      61.933  28.322  61.402  1.00  0.00    -0.550 OA
ENDBRANCH   1   2
BRANCH   1   5
ATOM      5  C   UNL     1      60.866  31.409  60.295  1.00  0.00     0.003 C 
ATOM      6  C   UNL     1      61.451  32.817  60.368  1.00  0.00     0.004 C 
ENDBRANCH   1   5
TORSDOF 2
ENDMDL
MODEL 4
REMARK VINA RESULT:    -2.349     13.577     14.276
REMARK INTER + INTRA:          -2.631
REMARK INTER:                  -2.599
REMARK INTRA:                  -0.031
REMARK UNBOUND:                -0.007
REMARK SMILES CCCC(=O)[O-]
REMARK SMILES IDX 3 1 4 2 5 3 6 4 2 5 1 6
REMARK H PARENT
REMARK Flexibility Score: inf
ROOT
ATOM      1  C   UNL     1      59.206  28.971  49.614  1.00  0.00     0.052 C 
ENDROOT
BRANCH   1   2
ATOM      2  C   UNL     1      60.053  27.742  49.704  1.00  0.00     0.041 C 
ATOM      3  O   UNL     1      59.517  26.602  49.713  1.00  0.00    -0.550 OA
ATOM      4  O   UNL     1      61.438  27.851  49.727  1.00  0.00    -0.550 OA
ENDBRANCH   1   2
BRANCH   1   5
ATOM      5  C   UNL     1      58.465  29.208  50.933  1.00  0.00     0.003 C 
ATOM      6  C   UNL     1      57.000  28.794  50.823  1.00  0.00     0.004 C 
ENDBRANCH   1   5
TORSDOF 2
ENDMDL
MODEL 5
REMARK VINA RESULT:    -2.346      4.618      5.413
REMARK INTER + INTRA:          -2.627
REMARK INTER:                  -2.603
REMARK INTRA:                  -0.024
REMARK UNBOUND:                -0.007
REMARK SMILES CCCC(=O)[O-]
REMARK SMILES IDX 3 1 4 2 5 3 6 4 2 5 1 6
REMARK H PARENT
REMARK Flexibility Score: inf
ROOT
ATOM      1  C   UNL     1      62.259  31.616  60.488  1.00  0.00     0.052 C 
ENDROOT
BRANCH   1   2
ATOM      2  C   UNL     1      61.555  30.656  61.392  1.00  0.00     0.041 C 
ATOM      3  O   UNL     1      60.411  30.930  61.841  1.00  0.00    -0.550 OA
ATOM      4  O   UNL     1      62.140  29.434  61.701  1.00  0.00    -0.550 OA
ENDBRANCH   1   2
BRANCH   1   5
ATOM      5  C   UNL     1      61.444  32.903  60.333  1.00  0.00     0.003 C 
ATOM      6  C   UNL     1      62.325  34.137  60.505  1.00  0.00     0.004 C 
ENDBRANCH   1   5
TORSDOF 2
ENDMDL
MODEL 6
REMARK VINA RESULT:    -2.344      1.528      1.800
REMARK INTER + INTRA:          -2.625
REMARK INTER:                  -2.613
REMARK INTRA:                  -0.012
REMARK UNBOUND:                -0.007
REMARK SMILES CCCC(=O)[O-]
REMARK SMILES IDX 3 1 4 2 5 3 6 4 2 5 1 6
REMARK H PARENT
REMARK Flexibility Score: inf
ROOT
ATOM      1  C   UNL     1      63.010  35.761  61.172  1.00  0.00     0.052 C 
ENDROOT
BRANCH   1   2
ATOM      2  C   UNL     1      64.304  35.020  61.276  1.00  0.00     0.041 C 
ATOM      3  O   UNL     1      64.329  33.768  61.148  1.00  0.00    -0.550 OA
ATOM      4  O   UNL     1      65.491  35.716  61.464  1.00  0.00    -0.550 OA
ENDBRANCH   1   2
BRANCH   1   5
ATOM      5  C   UNL     1      61.923  34.861  60.577  1.00  0.00     0.003 C 
ATOM      6  C   UNL     1      60.647  35.651  60.295  1.00  0.00     0.004 C 
ENDBRANCH   1   5
TORSDOF 2
ENDMDL
MODEL 7
REMARK VINA RESULT:    -2.313     14.737     15.934
REMARK INTER + INTRA:          -2.590
REMARK INTER:                  -2.581
REMARK INTRA:                  -0.009
REMARK UNBOUND:                -0.007
REMARK SMILES CCCC(=O)[O-]
REMARK SMILES IDX 3 1 4 2 5 3 6 4 2 5 1 6
REMARK H PARENT
REMARK Flexibility Score: inf
ROOT
ATOM      1  C   UNL     1      54.759  27.612  50.371  1.00  0.00     0.052 C 
ENDROOT
BRANCH   1   2
ATOM      2  C   UNL     1      55.972  28.307  50.900  1.00  0.00     0.041 C 
ATOM      3  O   UNL     1      55.851  29.277  51.694  1.00  0.00    -0.550 OA
ATOM      4  O   UNL     1      57.239  27.854  50.556  1.00  0.00    -0.550 OA
ENDBRANCH   1   2
BRANCH   1   5
ATOM      5  C   UNL     1      55.090  26.163  50.002  1.00  0.00     0.003 C 
ATOM      6  C   UNL     1      53.854  25.431  49.485  1.00  0.00     0.004 C 
ENDBRANCH   1   5
TORSDOF 2
ENDMDL
MODEL 8
REMARK VINA RESULT:    -2.292     20.443     21.391
REMARK INTER + INTRA:          -2.567
REMARK INTER:                  -2.554
REMARK INTRA:                  -0.012
REMARK UNBOUND:                -0.007
REMARK SMILES CCCC(=O)[O-]
REMARK SMILES IDX 3 1 4 2 5 3 6 4 2 5 1 6
REMARK H PARENT
REMARK Flexibility Score: inf
ROOT
ATOM      1  C   UNL     1      57.976  18.524  50.692  1.00  0.00     0.052 C 
ENDROOT
BRANCH   1   2
ATOM      2  C   UNL     1      56.615  18.784  51.252  1.00  0.00     0.041 C 
ATOM      3  O   UNL     1      55.595  18.315  50.682  1.00  0.00    -0.550 OA
ATOM      4  O   UNL     1      56.473  19.502  52.433  1.00  0.00    -0.550 OA
ENDBRANCH   1   2
BRANCH   1   5
ATOM      5  C   UNL     1      58.040  17.129  50.063  1.00  0.00     0.003 C 
ATOM      6  C   UNL     1      59.284  16.975  49.191  1.00  0.00     0.004 C 
ENDBRANCH   1   5
TORSDOF 2
ENDMDL
MODEL 9
REMARK VINA RESULT:    -2.275     14.867     15.706
REMARK INTER + INTRA:          -2.548
REMARK INTER:                  -2.527
REMARK INTRA:                  -0.021
REMARK UNBOUND:                -0.007
REMARK SMILES CCCC(=O)[O-]
REMARK SMILES IDX 3 1 4 2 5 3 6 4 2 5 1 6
REMARK H PARENT
REMARK Flexibility Score: inf
ROOT
ATOM      1  C   UNL     1      56.901  27.370  50.788  1.00  0.00     0.052 C 
ENDROOT
BRANCH   1   2
ATOM      2  C   UNL     1      55.490  27.150  50.345  1.00  0.00     0.041 C 
ATOM      3  O   UNL     1      54.670  28.105  50.342  1.00  0.00    -0.550 OA
ATOM      4  O   UNL     1      55.091  25.900  49.887  1.00  0.00    -0.550 OA
ENDBRANCH   1   2
BRANCH   1   5
ATOM      5  C   UNL     1      57.215  28.867  50.849  1.00  0.00     0.003 C 
ATOM      6  C   UNL     1      58.539  29.180  50.156  1.00  0.00     0.004 C 
ENDBRANCH   1   5
TORSDOF 2
ENDMDL
