MODEL 1
REMARK VINA RESULT:    -5.621      0.000      0.000
REMARK INTER + INTRA:          -7.896
REMARK INTER:                  -6.935
REMARK INTRA:                  -0.961
REMARK UNBOUND:                -0.961
REMARK SMILES CC(C)=CCC[C@@H](C)c1ccc(C)cc1
REMARK SMILES IDX 6 1 7 2 8 3 9 4 13 5 12 6 11 7 14 8 10 9 15 10 5 11 4 12
REMARK SMILES IDX 2 13 1 14 3 15
REMARK H PARENT
REMARK Flexibility Score: inf
ROOT
ATOM      1  C   UNL     1      -9.942 -13.030  17.923  1.00  0.00     0.012 C 
ENDROOT
BRANCH   1   2
ATOM      2  C   UNL     1     -10.853 -11.845  17.520  1.00  0.00     0.016 C 
ATOM      3  C   UNL     1     -12.003 -11.624  18.516  1.00  0.00     0.013 C 
BRANCH   2   4
ATOM      4  C   UNL     1     -10.029 -10.578  17.372  1.00  0.00    -0.045 A 
ATOM      5  C   UNL     1      -7.747  -6.933  16.964  1.00  0.00     0.044 C 
ATOM      6  C   UNL     1      -8.514  -8.212  17.114  1.00  0.00    -0.051 A 
ATOM      7  C   UNL     1      -9.156  -8.514  18.324  1.00  0.00     0.004 A 
ATOM      8  C   UNL     1      -8.655  -9.084  16.026  1.00  0.00     0.004 A 
ATOM      9  C   UNL     1      -9.903  -9.688  18.454  1.00  0.00     0.004 A 
ATOM     10  C   UNL     1      -9.401 -10.259  16.152  1.00  0.00     0.004 A 
ENDBRANCH   2   4
ENDBRANCH   1   2
BRANCH   1  11
ATOM     11  C   UNL     1     -10.068 -14.263  17.011  1.00  0.00     0.028 C 
BRANCH  11  12
ATOM     12  C   UNL     1      -9.689 -13.962  15.581  1.00  0.00    -0.028 C 
ATOM     13  C   UNL     1     -10.571 -13.773  14.575  1.00  0.00    -0.080 C 
ATOM     14  C   UNL     1     -10.034 -13.517  13.190  1.00  0.00     0.039 C 
ATOM     15  C   UNL     1     -12.064 -13.788  14.803  1.00  0.00     0.039 C 
ENDBRANCH  11  12
ENDBRANCH   1  11
TORSDOF 4
ENDMDL
MODEL 2
REMARK VINA RESULT:    -5.569      0.646      1.680
REMARK INTER + INTRA:          -7.832
REMARK INTER:                  -6.699
REMARK INTRA:                  -1.133
REMARK UNBOUND:                -0.961
REMARK SMILES CC(C)=CCC[C@@H](C)c1ccc(C)cc1
REMARK SMILES IDX 6 1 7 2 8 3 9 4 13 5 12 6 11 7 14 8 10 9 15 10 5 11 4 12
REMARK SMILES IDX 2 13 1 14 3 15
REMARK H PARENT
REMARK Flexibility Score: inf
ROOT
ATOM      1  C   UNL     1      -9.853 -13.018  18.025  1.00  0.00     0.012 C 
ENDROOT
BRANCH   1   2
ATOM      2  C   UNL     1     -10.799 -11.913  17.495  1.00  0.00     0.016 C 
ATOM      3  C   UNL     1     -11.994 -11.667  18.430  1.00  0.00     0.013 C 
BRANCH   2   4
ATOM      4  C   UNL     1     -10.026 -10.625  17.271  1.00  0.00    -0.045 A 
ATOM      5  C   UNL     1      -7.767  -7.002  16.619  1.00  0.00     0.044 C 
ATOM      6  C   UNL     1      -8.576  -8.246  16.836  1.00  0.00    -0.051 A 
ATOM      7  C   UNL     1      -8.708  -9.191  15.809  1.00  0.00     0.004 A 
ATOM      8  C   UNL     1      -9.148  -8.507  18.089  1.00  0.00     0.004 A 
ATOM      9  C   UNL     1      -9.431 -10.369  16.023  1.00  0.00     0.004 A 
ATOM     10  C   UNL     1      -9.871  -9.683  18.305  1.00  0.00     0.004 A 
ENDBRANCH   2   4
ENDBRANCH   1   2
BRANCH   1  11
ATOM     11  C   UNL     1      -9.831 -14.297  17.169  1.00  0.00     0.028 C 
BRANCH  11  12
ATOM     12  C   UNL     1     -10.295 -14.049  15.754  1.00  0.00    -0.028 C 
ATOM     13  C   UNL     1      -9.477 -13.782  14.711  1.00  0.00    -0.080 C 
ATOM     14  C   UNL     1     -10.098 -13.519  13.363  1.00  0.00     0.039 C 
ATOM     15  C   UNL     1      -7.974 -13.764  14.855  1.00  0.00     0.039 C 
ENDBRANCH  11  12
ENDBRANCH   1  11
TORSDOF 4
ENDMDL
MODEL 3
REMARK VINA RESULT:    -5.512      1.827      3.290
REMARK INTER + INTRA:          -7.762
REMARK INTER:                  -6.191
REMARK INTRA:                  -1.571
REMARK UNBOUND:                -0.961
REMARK SMILES CC(C)=CCC[C@@H](C)c1ccc(C)cc1
REMARK SMILES IDX 6 1 7 2 8 3 9 4 13 5 12 6 11 7 14 8 10 9 15 10 5 11 4 12
REMARK SMILES IDX 2 13 1 14 3 15
REMARK H PARENT
REMARK Flexibility Score: inf
ROOT
ATOM      1  C   UNL     1      -9.544 -13.445  14.148  1.00  0.00     0.012 C 
ENDROOT
BRANCH   1   2
ATOM      2  C   UNL     1     -10.748 -13.099  15.059  1.00  0.00     0.016 C 
ATOM      3  C   UNL     1     -11.225 -14.306  15.883  1.00  0.00     0.013 C 
BRANCH   2   4
ATOM      4  C   UNL     1     -10.396 -11.939  15.973  1.00  0.00    -0.045 A 
ATOM      5  C   UNL     1      -9.467  -8.626  18.585  1.00  0.00     0.044 C 
ATOM      6  C   UNL     1      -9.764  -9.788  17.686  1.00  0.00    -0.051 A 
ATOM      7  C   UNL     1     -10.476 -10.894  18.171  1.00  0.00     0.004 A 
ATOM      8  C   UNL     1      -9.393  -9.749  16.334  1.00  0.00     0.004 A 
ATOM      9  C   UNL     1     -10.785 -11.963  17.325  1.00  0.00     0.004 A 
ATOM     10  C   UNL     1      -9.701 -10.815  15.485  1.00  0.00     0.004 A 
ENDBRANCH   2   4
ENDBRANCH   1   2
BRANCH   1  11
ATOM     11  C   UNL     1      -8.434 -14.252  14.846  1.00  0.00     0.028 C 
BRANCH  11  12
ATOM     12  C   UNL     1      -7.305 -13.374  15.331  1.00  0.00    -0.028 C 
ATOM     13  C   UNL     1      -6.976 -13.192  16.629  1.00  0.00    -0.080 C 
ATOM     14  C   UNL     1      -5.843 -12.252  16.956  1.00  0.00     0.039 C 
ATOM     15  C   UNL     1      -7.690 -13.913  17.748  1.00  0.00     0.039 C 
ENDBRANCH  11  12
ENDBRANCH   1  11
TORSDOF 4
ENDMDL
MODEL 4
REMARK VINA RESULT:    -5.286      1.967      2.990
REMARK INTER + INTRA:          -7.484
REMARK INTER:                  -6.097
REMARK INTRA:                  -1.387
REMARK UNBOUND:                -0.961
REMARK SMILES CC(C)=CCC[C@@H](C)c1ccc(C)cc1
REMARK SMILES IDX 6 1 7 2 8 3 9 4 13 5 12 6 11 7 14 8 10 9 15 10 5 11 4 12
REMARK SMILES IDX 2 13 1 14 3 15
REMARK H PARENT
REMARK Flexibility Score: inf
ROOT
ATOM      1  C   UNL     1      -9.897 -13.489  16.871  1.00  0.00     0.012 C 
ENDROOT
BRANCH   1   2
ATOM      2  C   UNL     1     -10.839 -12.259  16.911  1.00  0.00     0.016 C 
ATOM      3  C   UNL     1     -11.787 -12.286  18.120  1.00  0.00     0.013 C 
BRANCH   2   4
ATOM      4  C   UNL     1     -10.025 -10.977  16.902  1.00  0.00    -0.045 A 
ATOM      5  C   UNL     1      -7.775  -7.290  16.885  1.00  0.00     0.044 C 
ATOM      6  C   UNL     1      -8.532  -8.584  16.903  1.00  0.00    -0.051 A 
ATOM      7  C   UNL     1      -9.335  -8.918  18.004  1.00  0.00     0.004 A 
ATOM      8  C   UNL     1      -8.500  -9.437  15.792  1.00  0.00     0.004 A 
ATOM      9  C   UNL     1     -10.072 -10.106  18.006  1.00  0.00     0.004 A 
ATOM     10  C   UNL     1      -9.235 -10.626  15.791  1.00  0.00     0.004 A 
ENDBRANCH   2   4
ENDBRANCH   1   2
BRANCH   1  11
ATOM     11  C   UNL     1      -9.030 -13.662  18.131  1.00  0.00     0.028 C 
BRANCH  11  12
ATOM     12  C   UNL     1      -7.585 -13.946  17.799  1.00  0.00    -0.028 C 
ATOM     13  C   UNL     1      -6.567 -13.077  17.987  1.00  0.00    -0.080 C 
ATOM     14  C   UNL     1      -5.180 -13.496  17.569  1.00  0.00     0.039 C 
ATOM     15  C   UNL     1      -6.775 -11.721  18.619  1.00  0.00     0.039 C 
ENDBRANCH  11  12
ENDBRANCH   1  11
TORSDOF 4
ENDMDL
MODEL 5
REMARK VINA RESULT:    -5.268      2.079      4.736
REMARK INTER + INTRA:          -7.461
REMARK INTER:                  -5.890
REMARK INTRA:                  -1.571
REMARK UNBOUND:                -0.961
REMARK SMILES CC(C)=CCC[C@@H](C)c1ccc(C)cc1
REMARK SMILES IDX 6 1 7 2 8 3 9 4 13 5 12 6 11 7 14 8 10 9 15 10 5 11 4 12
REMARK SMILES IDX 2 13 1 14 3 15
REMARK H PARENT
REMARK Flexibility Score: inf
ROOT
ATOM      1  C   UNL     1      -8.072  -9.229  18.089  1.00  0.00     0.012 C 
ENDROOT
BRANCH   1   2
ATOM      2  C   UNL     1      -9.013  -9.190  16.860  1.00  0.00     0.016 C 
ATOM      3  C   UNL     1      -8.255  -8.912  15.551  1.00  0.00     0.013 C 
BRANCH   2   4
ATOM      4  C   UNL     1      -9.792 -10.489  16.756  1.00  0.00    -0.045 A 
ATOM      5  C   UNL     1     -11.962 -14.215  16.511  1.00  0.00     0.044 C 
ATOM      6  C   UNL     1     -11.234 -12.907  16.589  1.00  0.00    -0.051 A 
ATOM      7  C   UNL     1     -11.130 -12.228  17.811  1.00  0.00     0.004 A 
ATOM      8  C   UNL     1     -10.591 -12.387  15.457  1.00  0.00     0.004 A 
ATOM      9  C   UNL     1     -10.420 -11.027  17.894  1.00  0.00     0.004 A 
ATOM     10  C   UNL     1      -9.880 -11.187  15.536  1.00  0.00     0.004 A 
ENDBRANCH   2   4
ENDBRANCH   1   2
BRANCH   1  11
ATOM     11  C   UNL     1      -6.762 -10.002  17.859  1.00  0.00     0.028 C 
BRANCH  11  12
ATOM     12  C   UNL     1      -6.898 -11.471  18.181  1.00  0.00    -0.028 C 
ATOM     13  C   UNL     1      -6.781 -12.471  17.279  1.00  0.00    -0.080 C 
ATOM     14  C   UNL     1      -6.981 -13.889  17.749  1.00  0.00     0.039 C 
ATOM     15  C   UNL     1      -6.436 -12.209  15.831  1.00  0.00     0.039 C 
ENDBRANCH  11  12
ENDBRANCH   1  11
TORSDOF 4
ENDMDL
MODEL 6
REMARK VINA RESULT:    -5.205      1.860      3.321
REMARK INTER + INTRA:          -7.384
REMARK INTER:                  -6.288
REMARK INTRA:                  -1.096
REMARK UNBOUND:                -0.961
REMARK SMILES CC(C)=CCC[C@@H](C)c1ccc(C)cc1
REMARK SMILES IDX 6 1 7 2 8 3 9 4 13 5 12 6 11 7 14 8 10 9 15 10 5 11 4 12
REMARK SMILES IDX 2 13 1 14 3 15
REMARK H PARENT
REMARK Flexibility Score: inf
ROOT
ATOM      1  C   UNL     1      -7.580 -13.875  17.187  1.00  0.00     0.012 C 
ENDROOT
BRANCH   1   2
ATOM      2  C   UNL     1      -7.432 -13.406  15.719  1.00  0.00     0.016 C 
ATOM      3  C   UNL     1      -8.476 -14.049  14.791  1.00  0.00     0.013 C 
BRANCH   2   4
ATOM      4  C   UNL     1      -7.515 -11.892  15.642  1.00  0.00    -0.045 A 
ATOM      5  C   UNL     1      -7.785  -7.591  15.357  1.00  0.00     0.044 C 
ATOM      6  C   UNL     1      -7.693  -9.081  15.486  1.00  0.00    -0.051 A 
ATOM      7  C   UNL     1      -8.854  -9.866  15.461  1.00  0.00     0.004 A 
ATOM      8  C   UNL     1      -6.441  -9.708  15.561  1.00  0.00     0.004 A 
ATOM      9  C   UNL     1      -8.767 -11.259  15.543  1.00  0.00     0.004 A 
ATOM     10  C   UNL     1      -6.351 -11.100  15.644  1.00  0.00     0.004 A 
ENDBRANCH   2   4
ENDBRANCH   1   2
BRANCH   1  11
ATOM     11  C   UNL     1      -8.977 -14.414  17.542  1.00  0.00     0.028 C 
BRANCH  11  12
ATOM     12  C   UNL     1      -9.888 -13.339  18.083  1.00  0.00    -0.028 C 
ATOM     13  C   UNL     1     -11.128 -13.073  17.615  1.00  0.00    -0.080 C 
ATOM     14  C   UNL     1     -11.901 -11.939  18.237  1.00  0.00     0.039 C 
ATOM     15  C   UNL     1     -11.761 -13.888  16.512  1.00  0.00     0.039 C 
ENDBRANCH  11  12
ENDBRANCH   1  11
TORSDOF 4
ENDMDL
MODEL 7
REMARK VINA RESULT:    -5.202      2.083      4.472
REMARK INTER + INTRA:          -7.379
REMARK INTER:                  -6.002
REMARK INTRA:                  -1.377
REMARK UNBOUND:                -0.961
REMARK SMILES CC(C)=CCC[C@@H](C)c1ccc(C)cc1
REMARK SMILES IDX 6 1 7 2 8 3 9 4 13 5 12 6 11 7 14 8 10 9 15 10 5 11 4 12
REMARK SMILES IDX 2 13 1 14 3 15
REMARK H PARENT
REMARK Flexibility Score: inf
ROOT
ATOM      1  C   UNL     1      -7.595  -9.910  17.471  1.00  0.00     0.012 C 
ENDROOT
BRANCH   1   2
ATOM      2  C   UNL     1      -8.957 -10.204  18.147  1.00  0.00     0.016 C 
ATOM      3  C   UNL     1      -9.736  -8.921  18.478  1.00  0.00     0.013 C 
BRANCH   2   4
ATOM      4  C   UNL     1      -9.792 -11.119  17.267  1.00  0.00    -0.045 A 
ATOM      5  C   UNL     1     -12.200 -13.661  14.738  1.00  0.00     0.044 C 
ATOM      6  C   UNL     1     -11.342 -12.799  15.615  1.00  0.00    -0.051 A 
ATOM      7  C   UNL     1     -10.513 -11.819  15.049  1.00  0.00     0.004 A 
ATOM      8  C   UNL     1     -11.414 -12.917  17.010  1.00  0.00     0.004 A 
ATOM      9  C   UNL     1      -9.741 -10.989  15.868  1.00  0.00     0.004 A 
ATOM     10  C   UNL     1     -10.643 -12.089  17.830  1.00  0.00     0.004 A 
ENDBRANCH   2   4
ENDBRANCH   1   2
BRANCH   1  11
ATOM     11  C   UNL     1      -6.554 -11.032  17.633  1.00  0.00     0.028 C 
BRANCH  11  12
ATOM     12  C   UNL     1      -6.389 -11.850  16.375  1.00  0.00    -0.028 C 
ATOM     13  C   UNL     1      -6.747 -13.147  16.248  1.00  0.00    -0.080 C 
ATOM     14  C   UNL     1      -6.483 -13.838  14.934  1.00  0.00     0.039 C 
ATOM     15  C   UNL     1      -7.420 -13.907  17.366  1.00  0.00     0.039 C 
ENDBRANCH  11  12
ENDBRANCH   1  11
TORSDOF 4
ENDMDL
MODEL 8
REMARK VINA RESULT:    -5.156      2.068      5.931
REMARK INTER + INTRA:          -7.322
REMARK INTER:                  -6.822
REMARK INTRA:                  -0.500
REMARK UNBOUND:                -0.961
REMARK SMILES CC(C)=CCC[C@@H](C)c1ccc(C)cc1
REMARK SMILES IDX 6 1 7 2 8 3 9 4 13 5 12 6 11 7 14 8 10 9 15 10 5 11 4 12
REMARK SMILES IDX 2 13 1 14 3 15
REMARK H PARENT
REMARK Flexibility Score: inf
ROOT
ATOM      1  C   UNL     1      -8.892  -9.110  15.771  1.00  0.00     0.012 C 
ENDROOT
BRANCH   1   2
ATOM      2  C   UNL     1      -9.049  -9.949  17.063  1.00  0.00     0.016 C 
ATOM      3  C   UNL     1      -9.649  -9.136  18.221  1.00  0.00     0.013 C 
BRANCH   2   4
ATOM      4  C   UNL     1      -9.893 -11.182  16.788  1.00  0.00    -0.045 A 
ATOM      5  C   UNL     1     -12.329 -14.649  15.951  1.00  0.00     0.044 C 
ATOM      6  C   UNL     1     -11.461 -13.463  16.250  1.00  0.00    -0.051 A 
ATOM      7  C   UNL     1     -10.658 -12.904  15.246  1.00  0.00     0.004 A 
ATOM      8  C   UNL     1     -11.498 -12.862  17.516  1.00  0.00     0.004 A 
ATOM      9  C   UNL     1      -9.877 -11.776  15.513  1.00  0.00     0.004 A 
ATOM     10  C   UNL     1     -10.718 -11.734  17.785  1.00  0.00     0.004 A 
ENDBRANCH   2   4
ENDBRANCH   1   2
BRANCH   1  11
ATOM     11  C   UNL     1      -7.983  -7.877  15.924  1.00  0.00     0.028 C 
BRANCH  11  12
ATOM     12  C   UNL     1      -6.873  -7.852  14.901  1.00  0.00    -0.028 C 
ATOM     13  C   UNL     1      -6.816  -7.005  13.849  1.00  0.00    -0.080 C 
ATOM     14  C   UNL     1      -5.657  -7.129  12.892  1.00  0.00     0.039 C 
ATOM     15  C   UNL     1      -7.857  -5.936  13.621  1.00  0.00     0.039 C 
ENDBRANCH  11  12
ENDBRANCH   1  11
TORSDOF 4
ENDMDL
MODEL 9
REMARK VINA RESULT:    -5.144      1.493      2.116
REMARK INTER + INTRA:          -7.308
REMARK INTER:                  -5.960
REMARK INTRA:                  -1.348
REMARK UNBOUND:                -0.961
REMARK SMILES CC(C)=CCC[C@@H](C)c1ccc(C)cc1
REMARK SMILES IDX 6 1 7 2 8 3 9 4 13 5 12 6 11 7 14 8 10 9 15 10 5 11 4 12
REMARK SMILES IDX 2 13 1 14 3 15
REMARK H PARENT
REMARK Flexibility Score: inf
ROOT
ATOM      1  C   UNL     1     -11.165 -12.500  17.647  1.00  0.00     0.012 C 
ENDROOT
BRANCH   1   2
ATOM      2  C   UNL     1      -9.769 -12.186  18.240  1.00  0.00     0.016 C 
ATOM      3  C   UNL     1      -8.944 -13.457  18.500  1.00  0.00     0.013 C 
BRANCH   2   4
ATOM      4  C   UNL     1      -9.012 -11.240  17.324  1.00  0.00    -0.045 A 
ATOM      5  C   UNL     1      -6.830  -8.516  14.780  1.00  0.00     0.044 C 
ATOM      6  C   UNL     1      -7.586  -9.482  15.641  1.00  0.00    -0.051 A 
ATOM      7  C   UNL     1      -6.901 -10.320  16.533  1.00  0.00     0.004 A 
ATOM      8  C   UNL     1      -8.988  -9.507  15.614  1.00  0.00     0.004 A 
ATOM      9  C   UNL     1      -7.607 -11.195  17.364  1.00  0.00     0.004 A 
ATOM     10  C   UNL     1      -9.696 -10.381  16.443  1.00  0.00     0.004 A 
ENDBRANCH   2   4
ENDBRANCH   1   2
BRANCH   1  11
ATOM     11  C   UNL     1     -11.237 -13.824  16.865  1.00  0.00     0.028 C 
BRANCH  11  12
ATOM     12  C   UNL     1     -11.165 -13.614  15.372  1.00  0.00    -0.028 C 
ATOM     13  C   UNL     1     -10.048 -13.769  14.626  1.00  0.00    -0.080 C 
ATOM     14  C   UNL     1     -10.128 -13.485  13.148  1.00  0.00     0.039 C 
ATOM     15  C   UNL     1      -8.742 -14.236  15.224  1.00  0.00     0.039 C 
ENDBRANCH  11  12
ENDBRANCH   1  11
TORSDOF 4
ENDMDL
