MODEL 1
REMARK VINA RESULT:    -3.614      0.000      0.000
REMARK INTER + INTRA:          -4.420
REMARK INTER:                  -4.354
REMARK INTRA:                  -0.066
REMARK UNBOUND:                -0.066
REMARK SMILES Oc1cc(O)c2c(c1)O[C@H](c1ccc(O)c(O)c1)[C@@H](O)C2
REMARK SMILES IDX 21 1 19 2 10 3 9 4 7 5 8 6 2 7 3 8 4 9 6 10 20 11 11 13
REMARK SMILES IDX 18 14 12 15 16 16 13 17 14 18 17 19 15 21 5 23 1 25
REMARK H PARENT 20 12 17 20 15 22 5 24 1 26
REMARK Flexibility Score: inf
ROOT
ATOM      1  C   UNL     1      14.525 -14.477  27.870  1.00  0.00     0.079 C 
ATOM      2  C   UNL     1      13.491 -13.366  28.126  1.00  0.00     0.164 C 
ATOM      3  C   UNL     1      13.971 -12.466  29.281  1.00  0.00     0.232 C 
ATOM      4  O   UNL     1      14.218 -13.253  30.447  1.00  0.00    -0.482 OA
ATOM      5  C   UNL     1      14.761 -14.540  30.384  1.00  0.00     0.131 A 
ATOM      6  C   UNL     1      15.134 -15.186  31.567  1.00  0.00     0.093 A 
ATOM      7  C   UNL     1      15.680 -16.475  31.524  1.00  0.00     0.122 A 
ATOM      8  C   UNL     1      15.854 -17.116  30.294  1.00  0.00     0.092 A 
ATOM      9  C   UNL     1      15.478 -16.480  29.101  1.00  0.00     0.126 A 
ATOM     10  C   UNL     1      14.910 -15.193  29.143  1.00  0.00     0.039 A 
ENDROOT
BRANCH   2  11
ATOM     11  O   UNL     1      13.323 -12.596  26.963  1.00  0.00    -0.389 OA
ATOM     12  H   UNL     1      13.412 -11.645  27.235  1.00  0.00     0.211 HD
ENDBRANCH   2  11
BRANCH   3  13
ATOM     13  C   UNL     1      12.953 -11.396  29.597  1.00  0.00    -0.001 A 
ATOM     14  C   UNL     1      11.604 -11.577  29.248  1.00  0.00     0.057 A 
ATOM     15  C   UNL     1      13.331 -10.231  30.285  1.00  0.00     0.012 A 
ATOM     16  C   UNL     1      10.649 -10.599  29.564  1.00  0.00     0.157 A 
ATOM     17  C   UNL     1      12.382  -9.256  30.600  1.00  0.00     0.050 A 
ATOM     18  C   UNL     1      11.040  -9.436  30.239  1.00  0.00     0.157 A 
BRANCH  16  19
ATOM     19  O   UNL     1       9.313 -10.778  29.212  1.00  0.00    -0.504 OA
ATOM     20  H   UNL     1       9.041 -11.018  28.265  1.00  0.00     0.293 HD
ENDBRANCH  16  19
BRANCH  18  21
ATOM     21  O   UNL     1      10.089  -8.465  30.551  1.00  0.00    -0.504 OA
ATOM     22  H   UNL     1       9.981  -7.629  29.990  1.00  0.00     0.293 HD
ENDBRANCH  18  21
ENDBRANCH   3  13
BRANCH   9  23
ATOM     23  O   UNL     1      15.668 -17.123  27.878  1.00  0.00    -0.507 OA
ATOM     24  H   UNL     1      15.885 -18.112  27.825  1.00  0.00     0.293 HD
ENDBRANCH   9  23
BRANCH   7  25
ATOM     25  O   UNL     1      16.057 -17.125  32.696  1.00  0.00    -0.508 OA
ATOM     26  H   UNL     1      15.415 -17.230  33.474  1.00  0.00     0.293 HD
ENDBRANCH   7  25
TORSDOF 6
ENDMDL
MODEL 2
REMARK VINA RESULT:    -2.113      1.660      6.812
REMARK INTER + INTRA:          -2.612
REMARK INTER:                  -2.592
REMARK INTRA:                  -0.020
REMARK UNBOUND:                -0.066
REMARK SMILES Oc1cc(O)c2c(c1)O[C@H](c1ccc(O)c(O)c1)[C@@H](O)C2
REMARK SMILES IDX 21 1 19 2 10 3 9 4 7 5 8 6 2 7 3 8 4 9 6 10 20 11 11 13
REMARK SMILES IDX 18 14 12 15 16 16 13 17 14 18 17 19 15 21 5 23 1 25
REMARK H PARENT 20 12 17 20 15 22 5 24 1 26
REMARK Flexibility Score: inf
ROOT
ATOM      1  C   UNL     1      10.885 -12.053  28.539  1.00  0.00     0.079 C 
ATOM      2  C   UNL     1      11.921 -12.951  27.838  1.00  0.00     0.164 C 
ATOM      3  C   UNL     1      12.886 -13.543  28.883  1.00  0.00     0.232 C 
ATOM      4  O   UNL     1      13.500 -12.495  29.635  1.00  0.00    -0.482 OA
ATOM      5  C   UNL     1      12.816 -11.330  29.998  1.00  0.00     0.131 A 
ATOM      6  C   UNL     1      13.421 -10.424  30.875  1.00  0.00     0.093 A 
ATOM      7  C   UNL     1      12.752  -9.253  31.251  1.00  0.00     0.122 A 
ATOM      8  C   UNL     1      11.474  -8.991  30.748  1.00  0.00     0.092 A 
ATOM      9  C   UNL     1      10.860  -9.888  29.863  1.00  0.00     0.126 A 
ATOM     10  C   UNL     1      11.539 -11.056  29.467  1.00  0.00     0.039 A 
ENDROOT
BRANCH   2  11
ATOM     11  O   UNL     1      11.265 -13.989  27.156  1.00  0.00    -0.389 OA
ATOM     12  H   UNL     1      11.691 -14.056  26.261  1.00  0.00     0.211 HD
ENDBRANCH   2  11
BRANCH   3  13
ATOM     13  C   UNL     1      13.951 -14.386  28.224  1.00  0.00    -0.001 A 
ATOM     14  C   UNL     1      14.643 -15.359  28.965  1.00  0.00     0.057 A 
ATOM     15  C   UNL     1      14.229 -14.243  26.854  1.00  0.00     0.012 A 
ATOM     16  C   UNL     1      15.614 -16.164  28.350  1.00  0.00     0.157 A 
ATOM     17  C   UNL     1      15.196 -15.044  26.241  1.00  0.00     0.050 A 
ATOM     18  C   UNL     1      15.892 -16.004  26.987  1.00  0.00     0.157 A 
BRANCH  16  19
ATOM     19  O   UNL     1      16.304 -17.125  29.087  1.00  0.00    -0.504 OA
ATOM     20  H   UNL     1      17.283 -17.011  29.322  1.00  0.00     0.293 HD
ENDBRANCH  16  19
BRANCH  18  21
ATOM     21  O   UNL     1      16.858 -16.805  26.379  1.00  0.00    -0.504 OA
ATOM     22  H   UNL     1      17.271 -17.594  26.859  1.00  0.00     0.293 HD
ENDBRANCH  18  21
ENDBRANCH   3  13
BRANCH   9  23
ATOM     23  O   UNL     1       9.579  -9.624  29.378  1.00  0.00    -0.507 OA
ATOM     24  H   UNL     1       8.753  -9.785  29.943  1.00  0.00     0.293 HD
ENDBRANCH   9  23
BRANCH   7  25
ATOM     25  O   UNL     1      13.346  -8.347  32.126  1.00  0.00    -0.508 OA
ATOM     26  H   UNL     1      14.322  -8.088  32.038  1.00  0.00     0.293 HD
ENDBRANCH   7  25
TORSDOF 6
ENDMDL
MODEL 3
REMARK VINA RESULT:    -1.520      9.148     11.493
REMARK INTER + INTRA:          -1.897
REMARK INTER:                  -1.538
REMARK INTRA:                  -0.359
REMARK UNBOUND:                -0.066
REMARK SMILES Oc1cc(O)c2c(c1)O[C@H](c1ccc(O)c(O)c1)[C@@H](O)C2
REMARK SMILES IDX 21 1 19 2 10 3 9 4 7 5 8 6 2 7 3 8 4 9 6 10 20 11 11 13
REMARK SMILES IDX 18 14 12 15 16 16 13 17 14 18 17 19 15 21 5 23 1 25
REMARK H PARENT 20 12 17 20 15 22 5 24 1 26
REMARK Flexibility Score: inf
ROOT
ATOM      1  C   UNL     1      17.963  -4.379  26.758  1.00  0.00     0.079 C 
ATOM      2  C   UNL     1      17.668  -2.874  26.622  1.00  0.00     0.164 C 
ATOM      3  C   UNL     1      16.375  -2.528  27.385  1.00  0.00     0.232 C 
ATOM      4  O   UNL     1      15.295  -3.334  26.913  1.00  0.00    -0.482 OA
ATOM      5  C   UNL     1      15.464  -4.670  26.535  1.00  0.00     0.131 A 
ATOM      6  C   UNL     1      14.339  -5.449  26.246  1.00  0.00     0.093 A 
ATOM      7  C   UNL     1      14.487  -6.789  25.866  1.00  0.00     0.122 A 
ATOM      8  C   UNL     1      15.765  -7.348  25.777  1.00  0.00     0.092 A 
ATOM      9  C   UNL     1      16.901  -6.575  26.058  1.00  0.00     0.126 A 
ATOM     10  C   UNL     1      16.756  -5.223  26.420  1.00  0.00     0.039 A 
ENDROOT
BRANCH   2  11
ATOM     11  O   UNL     1      18.740  -2.131  27.143  1.00  0.00    -0.389 OA
ATOM     12  H   UNL     1      19.365  -2.783  27.556  1.00  0.00     0.211 HD
ENDBRANCH   2  11
BRANCH   3  13
ATOM     13  C   UNL     1      16.025  -1.067  27.227  1.00  0.00    -0.001 A 
ATOM     14  C   UNL     1      15.879  -0.247  28.359  1.00  0.00     0.057 A 
ATOM     15  C   UNL     1      15.890  -0.500  25.949  1.00  0.00     0.012 A 
ATOM     16  C   UNL     1      15.581   1.116  28.217  1.00  0.00     0.157 A 
ATOM     17  C   UNL     1      15.593   0.858  25.806  1.00  0.00     0.050 A 
ATOM     18  C   UNL     1      15.436   1.668  26.938  1.00  0.00     0.157 A 
BRANCH  16  19
ATOM     19  O   UNL     1      15.430   1.926  29.340  1.00  0.00    -0.504 OA
ATOM     20  H   UNL     1      16.127   2.619  29.592  1.00  0.00     0.293 HD
ENDBRANCH  16  19
BRANCH  18  21
ATOM     21  O   UNL     1      15.139   3.023  26.799  1.00  0.00    -0.504 OA
ATOM     22  H   UNL     1      15.188   3.488  25.901  1.00  0.00     0.293 HD
ENDBRANCH  18  21
ENDBRANCH   3  13
BRANCH   9  23
ATOM     23  O   UNL     1      18.171  -7.147  25.980  1.00  0.00    -0.507 OA
ATOM     24  H   UNL     1      18.427  -7.771  25.223  1.00  0.00     0.293 HD
ENDBRANCH   9  23
BRANCH   7  25
ATOM     25  O   UNL     1      13.373  -7.572  25.579  1.00  0.00    -0.508 OA
ATOM     26  H   UNL     1      12.594  -7.641  26.224  1.00  0.00     0.293 HD
ENDBRANCH   7  25
TORSDOF 6
ENDMDL
MODEL 4
REMARK VINA RESULT:    -0.816      9.720     13.812
REMARK INTER + INTRA:          -1.050
REMARK INTER:                  -0.670
REMARK INTRA:                  -0.379
REMARK UNBOUND:                -0.066
REMARK SMILES Oc1cc(O)c2c(c1)O[C@H](c1ccc(O)c(O)c1)[C@@H](O)C2
REMARK SMILES IDX 21 1 19 2 10 3 9 4 7 5 8 6 2 7 3 8 4 9 6 10 20 11 11 13
REMARK SMILES IDX 18 14 12 15 16 16 13 17 14 18 17 19 15 21 5 23 1 25
REMARK H PARENT 20 12 17 20 15 22 5 24 1 26
REMARK Flexibility Score: inf
ROOT
ATOM      1  C   UNL     1      16.064  -0.325  29.003  1.00  0.00     0.079 C 
ATOM      2  C   UNL     1      15.960  -1.823  28.661  1.00  0.00     0.164 C 
ATOM      3  C   UNL     1      16.670  -2.101  27.322  1.00  0.00     0.232 C 
ATOM      4  O   UNL     1      16.121  -1.273  26.295  1.00  0.00    -0.482 OA
ATOM      5  C   UNL     1      15.710   0.043  26.529  1.00  0.00     0.131 A 
ATOM      6  C   UNL     1      15.343   0.850  25.448  1.00  0.00     0.093 A 
ATOM      7  C   UNL     1      14.930   2.171  25.662  1.00  0.00     0.122 A 
ATOM      8  C   UNL     1      14.887   2.684  26.962  1.00  0.00     0.092 A 
ATOM      9  C   UNL     1      15.247   1.882  28.055  1.00  0.00     0.126 A 
ATOM     10  C   UNL     1      15.643   0.548  27.844  1.00  0.00     0.039 A 
ENDROOT
BRANCH   2  11
ATOM     11  O   UNL     1      16.555  -2.585  29.681  1.00  0.00    -0.389 OA
ATOM     12  H   UNL     1      16.061  -2.379  30.517  1.00  0.00     0.211 HD
ENDBRANCH   2  11
BRANCH   3  13
ATOM     13  C   UNL     1      16.539  -3.553  26.928  1.00  0.00    -0.001 A 
ATOM     14  C   UNL     1      15.273  -4.104  26.666  1.00  0.00     0.057 A 
ATOM     15  C   UNL     1      17.681  -4.356  26.772  1.00  0.00     0.012 A 
ATOM     16  C   UNL     1      15.148  -5.444  26.272  1.00  0.00     0.157 A 
ATOM     17  C   UNL     1      17.558  -5.691  26.381  1.00  0.00     0.050 A 
ATOM     18  C   UNL     1      16.293  -6.239  26.132  1.00  0.00     0.157 A 
BRANCH  16  19
ATOM     19  O   UNL     1      13.892  -5.991  26.017  1.00  0.00    -0.504 OA
ATOM     20  H   UNL     1      13.408  -5.823  25.143  1.00  0.00     0.293 HD
ENDBRANCH  16  19
BRANCH  18  21
ATOM     21  O   UNL     1      16.166  -7.572  25.741  1.00  0.00    -0.504 OA
ATOM     22  H   UNL     1      16.359  -7.867  24.792  1.00  0.00     0.293 HD
ENDBRANCH  18  21
ENDBRANCH   3  13
BRANCH   9  23
ATOM     23  O   UNL     1      15.214   2.408  29.346  1.00  0.00    -0.507 OA
ATOM     24  H   UNL     1      15.777   3.209  29.609  1.00  0.00     0.293 HD
ENDBRANCH   9  23
BRANCH   7  25
ATOM     25  O   UNL     1      14.566   2.982  24.591  1.00  0.00    -0.508 OA
ATOM     26  H   UNL     1      15.051   3.850  24.393  1.00  0.00     0.293 HD
ENDBRANCH   7  25
TORSDOF 6
ENDMDL
MODEL 5
REMARK VINA RESULT:    -0.621      3.472      7.315
REMARK INTER + INTRA:          -0.815
REMARK INTER:                  -0.450
REMARK INTRA:                  -0.364
REMARK UNBOUND:                -0.066
REMARK SMILES Oc1cc(O)c2c(c1)O[C@H](c1ccc(O)c(O)c1)[C@@H](O)C2
REMARK SMILES IDX 21 1 19 2 10 3 9 4 7 5 8 6 2 7 3 8 4 9 6 10 20 11 11 13
REMARK SMILES IDX 18 14 12 15 16 16 13 17 14 18 17 19 15 21 5 23 1 25
REMARK H PARENT 20 12 17 20 15 22 5 24 1 26
REMARK Flexibility Score: inf
ROOT
ATOM      1  C   UNL     1      12.471  -9.558  27.581  1.00  0.00     0.079 C 
ATOM      2  C   UNL     1      12.755 -11.043  27.871  1.00  0.00     0.164 C 
ATOM      3  C   UNL     1      14.085 -11.178  28.637  1.00  0.00     0.232 C 
ATOM      4  O   UNL     1      15.141 -10.559  27.899  1.00  0.00    -0.482 OA
ATOM      5  C   UNL     1      14.955  -9.386  27.160  1.00  0.00     0.131 A 
ATOM      6  C   UNL     1      16.065  -8.743  26.603  1.00  0.00     0.093 A 
ATOM      7  C   UNL     1      15.899  -7.567  25.860  1.00  0.00     0.122 A 
ATOM      8  C   UNL     1      14.620  -7.035  25.678  1.00  0.00     0.092 A 
ATOM      9  C   UNL     1      13.498  -7.675  26.226  1.00  0.00     0.126 A 
ATOM     10  C   UNL     1      13.660  -8.868  26.955  1.00  0.00     0.039 A 
ENDROOT
BRANCH   2  11
ATOM     11  O   UNL     1      11.710 -11.586  28.636  1.00  0.00    -0.389 OA
ATOM     12  H   UNL     1      11.581 -10.982  29.413  1.00  0.00     0.211 HD
ENDBRANCH   2  11
BRANCH   3  13
ATOM     13  C   UNL     1      14.424 -12.627  28.889  1.00  0.00    -0.001 A 
ATOM     14  C   UNL     1      14.599 -13.095  30.203  1.00  0.00     0.057 A 
ATOM     15  C   UNL     1      14.519 -13.535  27.821  1.00  0.00     0.012 A 
ATOM     16  C   UNL     1      14.886 -14.447  30.444  1.00  0.00     0.157 A 
ATOM     17  C   UNL     1      14.805 -14.881  28.061  1.00  0.00     0.050 A 
ATOM     18  C   UNL     1      14.991 -15.340  29.371  1.00  0.00     0.157 A 
BRANCH  16  19
ATOM     19  O   UNL     1      15.066 -14.908  31.747  1.00  0.00    -0.504 OA
ATOM     20  H   UNL     1      14.573 -15.723  32.094  1.00  0.00     0.293 HD
ENDBRANCH  16  19
BRANCH  18  21
ATOM     21  O   UNL     1      15.278 -16.683  29.614  1.00  0.00    -0.504 OA
ATOM     22  H   UNL     1      14.792 -17.425  29.127  1.00  0.00     0.293 HD
ENDBRANCH  18  21
ENDBRANCH   3  13
BRANCH   9  23
ATOM     23  O   UNL     1      12.227  -7.129  26.049  1.00  0.00    -0.507 OA
ATOM     24  H   UNL     1      11.815  -7.030  25.129  1.00  0.00     0.293 HD
ENDBRANCH   9  23
BRANCH   7  25
ATOM     25  O   UNL     1      16.999  -6.919  25.305  1.00  0.00    -0.508 OA
ATOM     26  H   UNL     1      17.889  -7.390  25.190  1.00  0.00     0.293 HD
ENDBRANCH   7  25
TORSDOF 6
ENDMDL
