MODEL 1
REMARK VINA RESULT:    -2.439      0.000      0.000
REMARK INTER + INTRA:          -9.061
REMARK INTER:                  -5.290
REMARK INTRA:                  -3.771
REMARK UNBOUND:                -3.771
REMARK SMILES CCCCCCCCCCCCCCCCCCCCCC(=O)[O-]
REMARK SMILES IDX 12 1 11 2 10 3 9 4 8 5 7 6 6 7 5 8 4 9 3 10 2 11 1 12 13 13
REMARK SMILES IDX 14 14 15 15 16 16 17 17 18 18 19 19 20 20 21 21 22 22 23 23
REMARK SMILES IDX 24 24
REMARK H PARENT
REMARK Flexibility Score: inf
ROOT
ATOM      1  C   UNL     1      55.448 -35.728  21.990  1.00  0.00     0.000 C 
ENDROOT
BRANCH   1   2
ATOM      2  C   UNL     1      54.615 -34.797  22.891  1.00  0.00     0.000 C 
BRANCH   2   3
ATOM      3  C   UNL     1      54.141 -35.482  24.184  1.00  0.00     0.000 C 
BRANCH   3   4
ATOM      4  C   UNL     1      52.609 -35.586  24.265  1.00  0.00    -0.000 C 
BRANCH   4   5
ATOM      5  C   UNL     1      51.908 -34.860  23.103  1.00  0.00    -0.000 C 
BRANCH   5   6
ATOM      6  C   UNL     1      50.553 -34.265  23.515  1.00  0.00    -0.000 C 
BRANCH   6   7
ATOM      7  C   UNL     1      50.438 -32.770  23.176  1.00  0.00    -0.000 C 
BRANCH   7   8
ATOM      8  C   UNL     1      51.807 -32.074  23.079  1.00  0.00    -0.000 C 
BRANCH   8   9
ATOM      9  C   UNL     1      52.200 -31.306  24.357  1.00  0.00    -0.000 C 
BRANCH   9  10
ATOM     10  C   UNL     1      53.437 -31.913  25.043  1.00  0.00    -0.000 C 
BRANCH  10  11
ATOM     11  C   UNL     1      53.208 -32.187  26.537  1.00  0.00    -0.003 C 
ATOM     12  C   UNL     1      51.963 -33.037  26.797  1.00  0.00     0.004 C 
ENDBRANCH  10  11
ENDBRANCH   9  10
ENDBRANCH   8   9
ENDBRANCH   7   8
ENDBRANCH   6   7
ENDBRANCH   5   6
ENDBRANCH   4   5
ENDBRANCH   3   4
ENDBRANCH   2   3
ENDBRANCH   1   2
BRANCH   1  13
ATOM     13  C   UNL     1      56.464 -36.615  22.732  1.00  0.00     0.000 C 
BRANCH  13  14
ATOM     14  C   UNL     1      57.923 -36.252  22.409  1.00  0.00     0.000 C 
BRANCH  14  15
ATOM     15  C   UNL     1      58.691 -35.713  23.629  1.00  0.00     0.000 C 
BRANCH  15  16
ATOM     16  C   UNL     1      57.865 -35.594  24.926  1.00  0.00     0.000 C 
BRANCH  16  17
ATOM     17  C   UNL     1      57.489 -34.156  25.337  1.00  0.00     0.000 C 
BRANCH  17  18
ATOM     18  C   UNL     1      57.916 -33.064  24.339  1.00  0.00     0.000 C 
BRANCH  18  19
ATOM     19  C   UNL     1      56.789 -32.069  24.026  1.00  0.00     0.000 C 
BRANCH  19  20
ATOM     20  C   UNL     1      57.360 -30.737  23.517  1.00  0.00     0.006 C 
BRANCH  20  21
ATOM     21  C   UNL     1      57.484 -29.692  24.632  1.00  0.00     0.053 C 
BRANCH  21  22
ATOM     22  C   UNL     1      56.142 -29.201  25.083  1.00  0.00     0.041 C 
ATOM     23  O   UNL     1      55.449 -28.469  24.329  1.00  0.00    -0.550 OA
ATOM     24  O   UNL     1      55.672 -29.526  26.349  1.00  0.00    -0.550 OA
ENDBRANCH  21  22
ENDBRANCH  20  21
ENDBRANCH  19  20
ENDBRANCH  18  19
ENDBRANCH  17  18
ENDBRANCH  16  17
ENDBRANCH  15  16
ENDBRANCH  14  15
ENDBRANCH  13  14
ENDBRANCH   1  13
TORSDOF 20
ENDMDL
MODEL 2
REMARK VINA RESULT:    -2.400      0.863      2.440
REMARK INTER + INTRA:          -8.977
REMARK INTER:                  -5.013
REMARK INTRA:                  -3.964
REMARK UNBOUND:                -3.771
REMARK SMILES CCCCCCCCCCCCCCCCCCCCCC(=O)[O-]
REMARK SMILES IDX 12 1 11 2 10 3 9 4 8 5 7 6 6 7 5 8 4 9 3 10 2 11 1 12 13 13
REMARK SMILES IDX 14 14 15 15 16 16 17 17 18 18 19 19 20 20 21 21 22 22 23 23
REMARK SMILES IDX 24 24
REMARK H PARENT
REMARK Flexibility Score: inf
ROOT
ATOM      1  C   UNL     1      54.185 -35.562  24.003  1.00  0.00     0.000 C 
ENDROOT
BRANCH   1   2
ATOM      2  C   UNL     1      52.661 -35.576  24.223  1.00  0.00     0.000 C 
BRANCH   2   3
ATOM      3  C   UNL     1      51.892 -34.818  23.129  1.00  0.00     0.000 C 
BRANCH   3   4
ATOM      4  C   UNL     1      50.779 -33.926  23.702  1.00  0.00    -0.000 C 
BRANCH   4   5
ATOM      5  C   UNL     1      50.959 -32.446  23.323  1.00  0.00    -0.000 C 
BRANCH   5   6
ATOM      6  C   UNL     1      52.432 -32.010  23.342  1.00  0.00    -0.000 C 
BRANCH   6   7
ATOM      7  C   UNL     1      52.696 -30.868  24.338  1.00  0.00    -0.000 C 
BRANCH   7   8
ATOM      8  C   UNL     1      52.441 -31.280  25.799  1.00  0.00    -0.000 C 
BRANCH   8   9
ATOM      9  C   UNL     1      53.476 -32.285  26.345  1.00  0.00    -0.000 C 
BRANCH   9  10
ATOM     10  C   UNL     1      52.810 -33.475  27.057  1.00  0.00    -0.000 C 
BRANCH  10  11
ATOM     11  C   UNL     1      51.500 -33.085  27.758  1.00  0.00    -0.003 C 
ATOM     12  C   UNL     1      50.316 -33.947  27.318  1.00  0.00     0.004 C 
ENDBRANCH  10  11
ENDBRANCH   9  10
ENDBRANCH   8   9
ENDBRANCH   7   8
ENDBRANCH   6   7
ENDBRANCH   5   6
ENDBRANCH   4   5
ENDBRANCH   3   4
ENDBRANCH   2   3
ENDBRANCH   1   2
BRANCH   1  13
ATOM     13  C   UNL     1      54.652 -34.862  22.714  1.00  0.00     0.000 C 
BRANCH  13  14
ATOM     14  C   UNL     1      55.532 -35.761  21.829  1.00  0.00     0.000 C 
BRANCH  14  15
ATOM     15  C   UNL     1      56.515 -36.623  22.641  1.00  0.00     0.000 C 
BRANCH  15  16
ATOM     16  C   UNL     1      58.009 -36.348  22.372  1.00  0.00     0.000 C 
BRANCH  16  17
ATOM     17  C   UNL     1      58.842 -35.973  23.614  1.00  0.00     0.000 C 
BRANCH  17  18
ATOM     18  C   UNL     1      58.097 -35.128  24.664  1.00  0.00     0.000 C 
BRANCH  18  19
ATOM     19  C   UNL     1      58.074 -33.633  24.316  1.00  0.00     0.000 C 
BRANCH  19  20
ATOM     20  C   UNL     1      56.795 -32.967  24.847  1.00  0.00     0.006 C 
BRANCH  20  21
ATOM     21  C   UNL     1      56.383 -31.749  24.011  1.00  0.00     0.053 C 
BRANCH  21  22
ATOM     22  C   UNL     1      56.417 -30.487  24.816  1.00  0.00     0.041 C 
ATOM     23  O   UNL     1      55.948 -29.419  24.341  1.00  0.00    -0.550 OA
ATOM     24  O   UNL     1      56.996 -30.483  26.078  1.00  0.00    -0.550 OA
ENDBRANCH  21  22
ENDBRANCH  20  21
ENDBRANCH  19  20
ENDBRANCH  18  19
ENDBRANCH  17  18
ENDBRANCH  16  17
ENDBRANCH  15  16
ENDBRANCH  14  15
ENDBRANCH  13  14
ENDBRANCH   1  13
TORSDOF 20
ENDMDL
MODEL 3
REMARK VINA RESULT:    -2.376      2.735      5.092
REMARK INTER + INTRA:          -8.925
REMARK INTER:                  -5.179
REMARK INTRA:                  -3.747
REMARK UNBOUND:                -3.771
REMARK SMILES CCCCCCCCCCCCCCCCCCCCCC(=O)[O-]
REMARK SMILES IDX 12 1 11 2 10 3 9 4 8 5 7 6 6 7 5 8 4 9 3 10 2 11 1 12 13 13
REMARK SMILES IDX 14 14 15 15 16 16 17 17 18 18 19 19 20 20 21 21 22 22 23 23
REMARK SMILES IDX 24 24
REMARK H PARENT
REMARK Flexibility Score: inf
ROOT
ATOM      1  C   UNL     1      52.873 -31.689  24.680  1.00  0.00     0.000 C 
ENDROOT
BRANCH   1   2
ATOM      2  C   UNL     1      52.207 -31.862  23.303  1.00  0.00     0.000 C 
BRANCH   2   3
ATOM      3  C   UNL     1      50.678 -31.995  23.390  1.00  0.00     0.000 C 
BRANCH   3   4
ATOM      4  C   UNL     1      50.231 -33.426  23.730  1.00  0.00    -0.000 C 
BRANCH   4   5
ATOM      5  C   UNL     1      51.107 -34.493  23.049  1.00  0.00    -0.000 C 
BRANCH   5   6
ATOM      6  C   UNL     1      51.381 -35.698  23.962  1.00  0.00    -0.000 C 
BRANCH   6   7
ATOM      7  C   UNL     1      51.962 -35.284  25.324  1.00  0.00    -0.000 C 
BRANCH   7   8
ATOM      8  C   UNL     1      52.846 -36.377  25.951  1.00  0.00    -0.000 C 
BRANCH   8   9
ATOM      9  C   UNL     1      54.144 -35.831  26.582  1.00  0.00    -0.000 C 
BRANCH   9  10
ATOM     10  C   UNL     1      55.269 -36.881  26.595  1.00  0.00    -0.000 C 
BRANCH  10  11
ATOM     11  C   UNL     1      56.657 -36.261  26.379  1.00  0.00    -0.003 C 
ATOM     12  C   UNL     1      56.776 -34.858  26.975  1.00  0.00     0.004 C 
ENDBRANCH  10  11
ENDBRANCH   9  10
ENDBRANCH   8   9
ENDBRANCH   7   8
ENDBRANCH   6   7
ENDBRANCH   5   6
ENDBRANCH   4   5
ENDBRANCH   3   4
ENDBRANCH   2   3
ENDBRANCH   1   2
BRANCH   1  13
ATOM     13  C   UNL     1      54.245 -32.372  24.832  1.00  0.00     0.000 C 
BRANCH  13  14
ATOM     14  C   UNL     1      54.788 -32.926  23.504  1.00  0.00     0.000 C 
BRANCH  14  15
ATOM     15  C   UNL     1      55.195 -34.407  23.594  1.00  0.00     0.000 C 
BRANCH  15  16
ATOM     16  C   UNL     1      54.643 -35.311  22.472  1.00  0.00     0.000 C 
BRANCH  16  17
ATOM     17  C   UNL     1      55.661 -36.293  21.858  1.00  0.00     0.000 C 
BRANCH  17  18
ATOM     18  C   UNL     1      56.708 -36.842  22.844  1.00  0.00     0.000 C 
BRANCH  18  19
ATOM     19  C   UNL     1      58.147 -36.485  22.445  1.00  0.00     0.000 C 
BRANCH  19  20
ATOM     20  C   UNL     1      58.694 -35.350  23.325  1.00  0.00     0.006 C 
BRANCH  20  21
ATOM     21  C   UNL     1      60.091 -35.661  23.874  1.00  0.00     0.053 C 
BRANCH  21  22
ATOM     22  C   UNL     1      60.234 -35.231  25.301  1.00  0.00     0.041 C 
ATOM     23  O   UNL     1      60.302 -34.008  25.592  1.00  0.00    -0.550 OA
ATOM     24  O   UNL     1      60.323 -36.183  26.308  1.00  0.00    -0.550 OA
ENDBRANCH  21  22
ENDBRANCH  20  21
ENDBRANCH  19  20
ENDBRANCH  18  19
ENDBRANCH  17  18
ENDBRANCH  16  17
ENDBRANCH  15  16
ENDBRANCH  14  15
ENDBRANCH  13  14
ENDBRANCH   1  13
TORSDOF 20
ENDMDL
MODEL 4
REMARK VINA RESULT:    -2.350      2.971      6.392
REMARK INTER + INTRA:          -8.869
REMARK INTER:                  -4.972
REMARK INTRA:                  -3.898
REMARK UNBOUND:                -3.771
REMARK SMILES CCCCCCCCCCCCCCCCCCCCCC(=O)[O-]
REMARK SMILES IDX 12 1 11 2 10 3 9 4 8 5 7 6 6 7 5 8 4 9 3 10 2 11 1 12 13 13
REMARK SMILES IDX 14 14 15 15 16 16 17 17 18 18 19 19 20 20 21 21 22 22 23 23
REMARK SMILES IDX 24 24
REMARK H PARENT
REMARK Flexibility Score: inf
ROOT
ATOM      1  C   UNL     1      53.942 -34.193  23.807  1.00  0.00     0.000 C 
ENDROOT
BRANCH   1   2
ATOM      2  C   UNL     1      53.997 -35.466  22.943  1.00  0.00     0.000 C 
BRANCH   2   3
ATOM      3  C   UNL     1      55.213 -35.501  22.003  1.00  0.00     0.000 C 
BRANCH   3   4
ATOM      4  C   UNL     1      56.249 -36.557  22.421  1.00  0.00    -0.000 C 
BRANCH   4   5
ATOM      5  C   UNL     1      57.515 -35.929  23.030  1.00  0.00    -0.000 C 
BRANCH   5   6
ATOM      6  C   UNL     1      57.843 -36.498  24.419  1.00  0.00    -0.000 C 
BRANCH   6   7
ATOM      7  C   UNL     1      56.586 -36.713  25.279  1.00  0.00    -0.000 C 
BRANCH   7   8
ATOM      8  C   UNL     1      56.312 -35.540  26.236  1.00  0.00    -0.000 C 
BRANCH   8   9
ATOM      9  C   UNL     1      57.565 -34.700  26.555  1.00  0.00    -0.000 C 
BRANCH   9  10
ATOM     10  C   UNL     1      57.224 -33.219  26.801  1.00  0.00    -0.000 C 
BRANCH  10  11
ATOM     11  C   UNL     1      58.184 -32.265  26.075  1.00  0.00    -0.003 C 
ATOM     12  C   UNL     1      58.572 -32.764  24.683  1.00  0.00     0.004 C 
ENDBRANCH  10  11
ENDBRANCH   9  10
ENDBRANCH   8   9
ENDBRANCH   7   8
ENDBRANCH   6   7
ENDBRANCH   5   6
ENDBRANCH   4   5
ENDBRANCH   3   4
ENDBRANCH   2   3
ENDBRANCH   1   2
BRANCH   1  13
ATOM     13  C   UNL     1      55.020 -33.141  23.487  1.00  0.00     0.000 C 
BRANCH  13  14
ATOM     14  C   UNL     1      54.882 -31.866  24.336  1.00  0.00     0.000 C 
BRANCH  14  15
ATOM     15  C   UNL     1      53.882 -32.022  25.494  1.00  0.00     0.000 C 
BRANCH  15  16
ATOM     16  C   UNL     1      52.607 -31.161  25.383  1.00  0.00     0.000 C 
BRANCH  16  17
ATOM     17  C   UNL     1      52.373 -30.506  24.007  1.00  0.00     0.000 C 
BRANCH  17  18
ATOM     18  C   UNL     1      51.679 -31.407  22.969  1.00  0.00     0.000 C 
BRANCH  18  19
ATOM     19  C   UNL     1      50.231 -31.745  23.348  1.00  0.00     0.000 C 
BRANCH  19  20
ATOM     20  C   UNL     1      50.007 -33.265  23.355  1.00  0.00     0.006 C 
BRANCH  20  21
ATOM     21  C   UNL     1      50.304 -33.891  24.722  1.00  0.00     0.053 C 
BRANCH  21  22
ATOM     22  C   UNL     1      50.369 -35.386  24.646  1.00  0.00     0.041 C 
ATOM     23  O   UNL     1      50.507 -35.959  23.533  1.00  0.00    -0.550 OA
ATOM     24  O   UNL     1      50.247 -36.147  25.801  1.00  0.00    -0.550 OA
ENDBRANCH  21  22
ENDBRANCH  20  21
ENDBRANCH  19  20
ENDBRANCH  18  19
ENDBRANCH  17  18
ENDBRANCH  16  17
ENDBRANCH  15  16
ENDBRANCH  14  15
ENDBRANCH  13  14
ENDBRANCH   1  13
TORSDOF 20
ENDMDL
MODEL 5
REMARK VINA RESULT:    -2.350      1.202      5.249
REMARK INTER + INTRA:          -8.868
REMARK INTER:                  -4.930
REMARK INTRA:                  -3.939
REMARK UNBOUND:                -3.771
REMARK SMILES CCCCCCCCCCCCCCCCCCCCCC(=O)[O-]
REMARK SMILES IDX 12 1 11 2 10 3 9 4 8 5 7 6 6 7 5 8 4 9 3 10 2 11 1 12 13 13
REMARK SMILES IDX 14 14 15 15 16 16 17 17 18 18 19 19 20 20 21 21 22 22 23 23
REMARK SMILES IDX 24 24
REMARK H PARENT
REMARK Flexibility Score: inf
ROOT
ATOM      1  C   UNL     1      54.881 -34.567  22.936  1.00  0.00     0.000 C 
ENDROOT
BRANCH   1   2
ATOM      2  C   UNL     1      55.474 -35.526  21.886  1.00  0.00     0.000 C 
BRANCH   2   3
ATOM      3  C   UNL     1      56.158 -36.751  22.514  1.00  0.00     0.000 C 
BRANCH   3   4
ATOM      4  C   UNL     1      57.687 -36.604  22.576  1.00  0.00    -0.000 C 
BRANCH   4   5
ATOM      5  C   UNL     1      58.186 -36.241  23.986  1.00  0.00    -0.000 C 
BRANCH   5   6
ATOM      6  C   UNL     1      59.481 -35.415  23.957  1.00  0.00    -0.000 C 
BRANCH   6   7
ATOM      7  C   UNL     1      59.216 -33.907  23.816  1.00  0.00    -0.000 C 
BRANCH   7   8
ATOM      8  C   UNL     1      57.910 -33.465  24.499  1.00  0.00    -0.000 C 
BRANCH   8   9
ATOM      9  C   UNL     1      58.099 -33.039  25.970  1.00  0.00    -0.000 C 
BRANCH   9  10
ATOM     10  C   UNL     1      56.949 -33.528  26.868  1.00  0.00    -0.000 C 
BRANCH  10  11
ATOM     11  C   UNL     1      57.071 -35.017  27.224  1.00  0.00    -0.003 C 
ATOM     12  C   UNL     1      55.769 -35.601  27.773  1.00  0.00     0.004 C 
ENDBRANCH  10  11
ENDBRANCH   9  10
ENDBRANCH   8   9
ENDBRANCH   7   8
ENDBRANCH   6   7
ENDBRANCH   5   6
ENDBRANCH   4   5
ENDBRANCH   3   4
ENDBRANCH   2   3
ENDBRANCH   1   2
BRANCH   1  13
ATOM     13  C   UNL     1      54.465 -35.229  24.262  1.00  0.00     0.000 C 
BRANCH  13  14
ATOM     14  C   UNL     1      52.973 -35.603  24.302  1.00  0.00     0.000 C 
BRANCH  14  15
ATOM     15  C   UNL     1      52.148 -34.895  23.213  1.00  0.00     0.000 C 
BRANCH  15  16
ATOM     16  C   UNL     1      51.066 -33.926  23.733  1.00  0.00     0.000 C 
BRANCH  16  17
ATOM     17  C   UNL     1      51.137 -32.495  23.164  1.00  0.00     0.000 C 
BRANCH  17  18
ATOM     18  C   UNL     1      52.315 -31.648  23.681  1.00  0.00     0.000 C 
BRANCH  18  19
ATOM     19  C   UNL     1      52.427 -31.656  25.212  1.00  0.00     0.000 C 
BRANCH  19  20
ATOM     20  C   UNL     1      53.891 -31.799  25.653  1.00  0.00     0.006 C 
BRANCH  20  21
ATOM     21  C   UNL     1      54.873 -31.332  24.571  1.00  0.00     0.053 C 
BRANCH  21  22
ATOM     22  C   UNL     1      55.458 -29.992  24.894  1.00  0.00     0.041 C 
ATOM     23  O   UNL     1      56.521 -29.908  25.565  1.00  0.00    -0.550 OA
ATOM     24  O   UNL     1      54.812 -28.834  24.481  1.00  0.00    -0.550 OA
ENDBRANCH  21  22
ENDBRANCH  20  21
ENDBRANCH  19  20
ENDBRANCH  18  19
ENDBRANCH  17  18
ENDBRANCH  16  17
ENDBRANCH  15  16
ENDBRANCH  14  15
ENDBRANCH  13  14
ENDBRANCH   1  13
TORSDOF 20
ENDMDL
MODEL 6
REMARK VINA RESULT:    -2.342      1.373      2.565
REMARK INTER + INTRA:          -8.851
REMARK INTER:                  -5.432
REMARK INTRA:                  -3.419
REMARK UNBOUND:                -3.771
REMARK SMILES CCCCCCCCCCCCCCCCCCCCCC(=O)[O-]
REMARK SMILES IDX 12 1 11 2 10 3 9 4 8 5 7 6 6 7 5 8 4 9 3 10 2 11 1 12 13 13
REMARK SMILES IDX 14 14 15 15 16 16 17 17 18 18 19 19 20 20 21 21 22 22 23 23
REMARK SMILES IDX 24 24
REMARK H PARENT
REMARK Flexibility Score: inf
ROOT
ATOM      1  C   UNL     1      55.518 -35.783  21.925  1.00  0.00     0.000 C 
ENDROOT
BRANCH   1   2
ATOM      2  C   UNL     1      54.326 -35.283  22.761  1.00  0.00     0.000 C 
BRANCH   2   3
ATOM      3  C   UNL     1      54.629 -33.974  23.511  1.00  0.00     0.000 C 
BRANCH   3   4
ATOM      4  C   UNL     1      54.153 -34.011  24.972  1.00  0.00    -0.000 C 
BRANCH   4   5
ATOM      5  C   UNL     1      53.826 -35.438  25.447  1.00  0.00    -0.000 C 
BRANCH   5   6
ATOM      6  C   UNL     1      52.353 -35.597  25.855  1.00  0.00    -0.000 C 
BRANCH   6   7
ATOM      7  C   UNL     1      51.555 -36.452  24.857  1.00  0.00    -0.000 C 
BRANCH   7   8
ATOM      8  C   UNL     1      50.784 -35.604  23.830  1.00  0.00    -0.000 C 
BRANCH   8   9
ATOM      9  C   UNL     1      50.466 -34.177  24.323  1.00  0.00    -0.000 C 
BRANCH   9  10
ATOM     10  C   UNL     1      50.671 -33.123  23.220  1.00  0.00    -0.000 C 
BRANCH  10  11
ATOM     11  C   UNL     1      51.542 -31.946  23.684  1.00  0.00    -0.003 C 
ATOM     12  C   UNL     1      51.171 -30.631  22.998  1.00  0.00     0.004 C 
ENDBRANCH  10  11
ENDBRANCH   9  10
ENDBRANCH   8   9
ENDBRANCH   7   8
ENDBRANCH   6   7
ENDBRANCH   5   6
ENDBRANCH   4   5
ENDBRANCH   3   4
ENDBRANCH   2   3
ENDBRANCH   1   2
BRANCH   1  13
ATOM     13  C   UNL     1      56.564 -36.601  22.704  1.00  0.00     0.000 C 
BRANCH  13  14
ATOM     14  C   UNL     1      57.799 -35.773  23.098  1.00  0.00     0.000 C 
BRANCH  14  15
ATOM     15  C   UNL     1      57.899 -35.529  24.614  1.00  0.00     0.000 C 
BRANCH  15  16
ATOM     16  C   UNL     1      57.880 -34.048  25.045  1.00  0.00     0.000 C 
BRANCH  16  17
ATOM     17  C   UNL     1      58.735 -33.101  24.179  1.00  0.00     0.000 C 
BRANCH  17  18
ATOM     18  C   UNL     1      58.419 -31.604  24.349  1.00  0.00     0.000 C 
BRANCH  18  19
ATOM     19  C   UNL     1      57.078 -31.203  23.717  1.00  0.00     0.000 C 
BRANCH  19  20
ATOM     20  C   UNL     1      56.072 -30.771  24.795  1.00  0.00     0.006 C 
BRANCH  20  21
ATOM     21  C   UNL     1      55.645 -29.307  24.639  1.00  0.00     0.053 C 
BRANCH  21  22
ATOM     22  C   UNL     1      54.169 -29.137  24.829  1.00  0.00     0.041 C 
ATOM     23  O   UNL     1      53.556 -29.825  25.688  1.00  0.00    -0.550 OA
ATOM     24  O   UNL     1      53.465 -28.240  24.036  1.00  0.00    -0.550 OA
ENDBRANCH  21  22
ENDBRANCH  20  21
ENDBRANCH  19  20
ENDBRANCH  18  19
ENDBRANCH  17  18
ENDBRANCH  16  17
ENDBRANCH  15  16
ENDBRANCH  14  15
ENDBRANCH  13  14
ENDBRANCH   1  13
TORSDOF 20
ENDMDL
MODEL 7
REMARK VINA RESULT:    -2.336      2.467      5.766
REMARK INTER + INTRA:          -8.839
REMARK INTER:                  -5.439
REMARK INTRA:                  -3.400
REMARK UNBOUND:                -3.771
REMARK SMILES CCCCCCCCCCCCCCCCCCCCCC(=O)[O-]
REMARK SMILES IDX 12 1 11 2 10 3 9 4 8 5 7 6 6 7 5 8 4 9 3 10 2 11 1 12 13 13
REMARK SMILES IDX 14 14 15 15 16 16 17 17 18 18 19 19 20 20 21 21 22 22 23 23
REMARK SMILES IDX 24 24
REMARK H PARENT
REMARK Flexibility Score: inf
ROOT
ATOM      1  C   UNL     1      50.590 -32.307  24.337  1.00  0.00     0.000 C 
ENDROOT
BRANCH   1   2
ATOM      2  C   UNL     1      51.627 -31.805  23.316  1.00  0.00     0.000 C 
BRANCH   2   3
ATOM      3  C   UNL     1      53.003 -31.532  23.945  1.00  0.00     0.000 C 
BRANCH   3   4
ATOM      4  C   UNL     1      52.972 -31.603  25.480  1.00  0.00    -0.000 C 
BRANCH   4   5
ATOM      5  C   UNL     1      54.353 -31.922  26.081  1.00  0.00    -0.000 C 
BRANCH   5   6
ATOM      6  C   UNL     1      55.486 -31.790  25.052  1.00  0.00    -0.000 C 
BRANCH   6   7
ATOM      7  C   UNL     1      56.664 -30.953  25.577  1.00  0.00    -0.000 C 
BRANCH   7   8
ATOM      8  C   UNL     1      56.312 -29.464  25.740  1.00  0.00    -0.000 C 
BRANCH   8   9
ATOM      9  C   UNL     1      55.511 -28.888  24.555  1.00  0.00    -0.000 C 
BRANCH   9  10
ATOM     10  C   UNL     1      54.282 -28.086  25.020  1.00  0.00    -0.000 C 
BRANCH  10  11
ATOM     11  C   UNL     1      53.265 -27.859  23.891  1.00  0.00    -0.003 C 
ATOM     12  C   UNL     1      53.089 -26.380  23.544  1.00  0.00     0.004 C 
ENDBRANCH  10  11
ENDBRANCH   9  10
ENDBRANCH   8   9
ENDBRANCH   7   8
ENDBRANCH   6   7
ENDBRANCH   5   6
ENDBRANCH   4   5
ENDBRANCH   3   4
ENDBRANCH   2   3
ENDBRANCH   1   2
BRANCH   1  13
ATOM     13  C   UNL     1      50.162 -33.776  24.164  1.00  0.00     0.000 C 
BRANCH  13  14
ATOM     14  C   UNL     1      51.019 -34.531  23.134  1.00  0.00     0.000 C 
BRANCH  14  15
ATOM     15  C   UNL     1      51.872 -35.645  23.765  1.00  0.00     0.000 C 
BRANCH  15  16
ATOM     16  C   UNL     1      52.939 -35.167  24.771  1.00  0.00     0.000 C 
BRANCH  16  17
ATOM     17  C   UNL     1      54.401 -35.333  24.308  1.00  0.00     0.000 C 
BRANCH  17  18
ATOM     18  C   UNL     1      54.700 -34.793  22.897  1.00  0.00     0.000 C 
BRANCH  18  19
ATOM     19  C   UNL     1      55.403 -35.823  22.002  1.00  0.00     0.000 C 
BRANCH  19  20
ATOM     20  C   UNL     1      56.513 -36.552  22.774  1.00  0.00     0.006 C 
BRANCH  20  21
ATOM     21  C   UNL     1      57.914 -36.108  22.339  1.00  0.00     0.053 C 
BRANCH  21  22
ATOM     22  C   UNL     1      58.624 -35.365  23.428  1.00  0.00     0.041 C 
ATOM     23  O   UNL     1      59.860 -35.526  23.605  1.00  0.00    -0.550 OA
ATOM     24  O   UNL     1      57.914 -34.518  24.269  1.00  0.00    -0.550 OA
ENDBRANCH  21  22
ENDBRANCH  20  21
ENDBRANCH  19  20
ENDBRANCH  18  19
ENDBRANCH  17  18
ENDBRANCH  16  17
ENDBRANCH  15  16
ENDBRANCH  14  15
ENDBRANCH  13  14
ENDBRANCH   1  13
TORSDOF 20
ENDMDL
MODEL 8
REMARK VINA RESULT:    -2.336      1.398      2.742
REMARK INTER + INTRA:          -8.838
REMARK INTER:                  -5.415
REMARK INTRA:                  -3.423
REMARK UNBOUND:                -3.771
REMARK SMILES CCCCCCCCCCCCCCCCCCCCCC(=O)[O-]
REMARK SMILES IDX 12 1 11 2 10 3 9 4 8 5 7 6 6 7 5 8 4 9 3 10 2 11 1 12 13 13
REMARK SMILES IDX 14 14 15 15 16 16 17 17 18 18 19 19 20 20 21 21 22 22 23 23
REMARK SMILES IDX 24 24
REMARK H PARENT
REMARK Flexibility Score: inf
ROOT
ATOM      1  C   UNL     1      54.253 -35.354  24.223  1.00  0.00     0.000 C 
ENDROOT
BRANCH   1   2
ATOM      2  C   UNL     1      52.728 -35.287  24.423  1.00  0.00     0.000 C 
BRANCH   2   3
ATOM      3  C   UNL     1      51.955 -35.180  23.099  1.00  0.00     0.000 C 
BRANCH   3   4
ATOM      4  C   UNL     1      50.454 -34.925  23.313  1.00  0.00    -0.000 C 
BRANCH   4   5
ATOM      5  C   UNL     1      50.176 -33.548  23.941  1.00  0.00    -0.000 C 
BRANCH   5   6
ATOM      6  C   UNL     1      50.195 -32.415  22.904  1.00  0.00    -0.000 C 
BRANCH   6   7
ATOM      7  C   UNL     1      51.098 -31.244  23.327  1.00  0.00    -0.000 C 
BRANCH   7   8
ATOM      8  C   UNL     1      52.579 -31.646  23.445  1.00  0.00    -0.000 C 
BRANCH   8   9
ATOM      9  C   UNL     1      53.121 -31.582  24.888  1.00  0.00    -0.000 C 
BRANCH   9  10
ATOM     10  C   UNL     1      54.655 -31.463  24.926  1.00  0.00    -0.000 C 
BRANCH  10  11
ATOM     11  C   UNL     1      55.130 -30.193  25.649  1.00  0.00    -0.003 C 
ATOM     12  C   UNL     1      55.252 -28.991  24.711  1.00  0.00     0.004 C 
ENDBRANCH  10  11
ENDBRANCH   9  10
ENDBRANCH   8   9
ENDBRANCH   7   8
ENDBRANCH   6   7
ENDBRANCH   5   6
ENDBRANCH   4   5
ENDBRANCH   3   4
ENDBRANCH   2   3
ENDBRANCH   1   2
BRANCH   1  13
ATOM     13  C   UNL     1      54.776 -34.657  22.953  1.00  0.00     0.000 C 
BRANCH  13  14
ATOM     14  C   UNL     1      55.428 -35.633  21.960  1.00  0.00     0.000 C 
BRANCH  14  15
ATOM     15  C   UNL     1      56.459 -36.563  22.623  1.00  0.00     0.000 C 
BRANCH  15  16
ATOM     16  C   UNL     1      57.936 -36.179  22.393  1.00  0.00     0.000 C 
BRANCH  16  17
ATOM     17  C   UNL     1      58.714 -35.774  23.661  1.00  0.00     0.000 C 
BRANCH  17  18
ATOM     18  C   UNL     1      57.872 -35.714  24.949  1.00  0.00     0.000 C 
BRANCH  18  19
ATOM     19  C   UNL     1      57.868 -34.321  25.593  1.00  0.00     0.000 C 
BRANCH  19  20
ATOM     20  C   UNL     1      57.828 -33.222  24.521  1.00  0.00     0.006 C 
BRANCH  20  21
ATOM     21  C   UNL     1      58.910 -32.157  24.738  1.00  0.00     0.053 C 
BRANCH  21  22
ATOM     22  C   UNL     1      58.503 -30.830  24.175  1.00  0.00     0.041 C 
ATOM     23  O   UNL     1      57.865 -30.769  23.091  1.00  0.00    -0.550 OA
ATOM     24  O   UNL     1      58.856 -29.659  24.833  1.00  0.00    -0.550 OA
ENDBRANCH  21  22
ENDBRANCH  20  21
ENDBRANCH  19  20
ENDBRANCH  18  19
ENDBRANCH  17  18
ENDBRANCH  16  17
ENDBRANCH  15  16
ENDBRANCH  14  15
ENDBRANCH  13  14
ENDBRANCH   1  13
TORSDOF 20
ENDMDL
MODEL 9
REMARK VINA RESULT:    -2.327      1.782      4.831
REMARK INTER + INTRA:          -8.819
REMARK INTER:                  -5.339
REMARK INTRA:                  -3.480
REMARK UNBOUND:                -3.771
REMARK SMILES CCCCCCCCCCCCCCCCCCCCCC(=O)[O-]
REMARK SMILES IDX 12 1 11 2 10 3 9 4 8 5 7 6 6 7 5 8 4 9 3 10 2 11 1 12 13 13
REMARK SMILES IDX 14 14 15 15 16 16 17 17 18 18 19 19 20 20 21 21 22 22 23 23
REMARK SMILES IDX 24 24
REMARK H PARENT
REMARK Flexibility Score: inf
ROOT
ATOM      1  C   UNL     1      58.137 -34.277  25.266  1.00  0.00     0.000 C 
ENDROOT
BRANCH   1   2
ATOM      2  C   UNL     1      58.397 -35.681  24.692  1.00  0.00     0.000 C 
BRANCH   2   3
ATOM      3  C   UNL     1      58.864 -35.652  23.227  1.00  0.00     0.000 C 
BRANCH   3   4
ATOM      4  C   UNL     1      58.122 -36.676  22.353  1.00  0.00    -0.000 C 
BRANCH   4   5
ATOM      5  C   UNL     1      56.633 -36.793  22.722  1.00  0.00    -0.000 C 
BRANCH   5   6
ATOM      6  C   UNL     1      55.750 -35.824  21.921  1.00  0.00    -0.000 C 
BRANCH   6   7
ATOM      7  C   UNL     1      54.586 -35.262  22.754  1.00  0.00    -0.000 C 
BRANCH   7   8
ATOM      8  C   UNL     1      54.684 -35.635  24.243  1.00  0.00    -0.000 C 
BRANCH   8   9
ATOM      9  C   UNL     1      53.334 -35.561  24.987  1.00  0.00    -0.000 C 
BRANCH   9  10
ATOM     10  C   UNL     1      53.509 -35.619  26.514  1.00  0.00    -0.000 C 
BRANCH  10  11
ATOM     11  C   UNL     1      54.883 -35.105  26.971  1.00  0.00    -0.003 C 
ATOM     12  C   UNL     1      55.768 -36.213  27.541  1.00  0.00     0.004 C 
ENDBRANCH  10  11
ENDBRANCH   9  10
ENDBRANCH   8   9
ENDBRANCH   7   8
ENDBRANCH   6   7
ENDBRANCH   5   6
ENDBRANCH   4   5
ENDBRANCH   3   4
ENDBRANCH   2   3
ENDBRANCH   1   2
BRANCH   1  13
ATOM     13  C   UNL     1      57.519 -33.272  24.277  1.00  0.00     0.000 C 
BRANCH  13  14
ATOM     14  C   UNL     1      57.104 -31.951  24.947  1.00  0.00     0.000 C 
BRANCH  14  15
ATOM     15  C   UNL     1      55.629 -31.939  25.386  1.00  0.00     0.000 C 
BRANCH  15  16
ATOM     16  C   UNL     1      54.600 -31.889  24.238  1.00  0.00     0.000 C 
BRANCH  16  17
ATOM     17  C   UNL     1      53.123 -31.855  24.680  1.00  0.00     0.000 C 
BRANCH  17  18
ATOM     18  C   UNL     1      52.104 -32.109  23.554  1.00  0.00     0.000 C 
BRANCH  18  19
ATOM     19  C   UNL     1      51.402 -30.826  23.086  1.00  0.00     0.000 C 
BRANCH  19  20
ATOM     20  C   UNL     1      51.584 -29.697  24.111  1.00  0.00     0.006 C 
BRANCH  20  21
ATOM     21  C   UNL     1      51.692 -28.319  23.447  1.00  0.00     0.053 C 
BRANCH  21  22
ATOM     22  C   UNL     1      53.027 -27.688  23.693  1.00  0.00     0.041 C 
ATOM     23  O   UNL     1      53.248 -26.505  23.322  1.00  0.00    -0.550 OA
ATOM     24  O   UNL     1      54.038 -28.417  24.306  1.00  0.00    -0.550 OA
ENDBRANCH  21  22
ENDBRANCH  20  21
ENDBRANCH  19  20
ENDBRANCH  18  19
ENDBRANCH  17  18
ENDBRANCH  16  17
ENDBRANCH  15  16
ENDBRANCH  14  15
ENDBRANCH  13  14
ENDBRANCH   1  13
TORSDOF 20
ENDMDL
