MODEL 1
REMARK VINA RESULT:    -6.172      0.000      0.000
REMARK INTER + INTRA:         -15.890
REMARK INTER:                 -14.110
REMARK INTRA:                  -1.779
REMARK UNBOUND:                -1.779
REMARK SMILES CCCCCCCCCCCCCCCCCCCCCCCC(=O)[O-]
REMARK SMILES IDX 13 1 14 2 15 3 16 4 17 5 18 6 19 7 20 8 21 9 22 10 23 11
REMARK SMILES IDX 24 12 25 13 26 14 12 15 11 16 10 17 9 18 8 19 7 20 6 21 5 22
REMARK SMILES IDX 4 23 3 24 2 25 1 26
REMARK H PARENT
REMARK Flexibility Score: inf
ROOT
ATOM      1  C   UNL     1      88.872 325.226 197.508  1.00  0.00     0.000 C 
ENDROOT
BRANCH   1   2
ATOM      2  C   UNL     1      88.347 325.156 196.068  1.00  0.00     0.000 C 
BRANCH   2   3
ATOM      3  C   UNL     1      88.507 326.508 195.358  1.00  0.00     0.000 C 
BRANCH   3   4
ATOM      4  C   UNL     1      87.736 326.579 194.028  1.00  0.00     0.000 C 
BRANCH   4   5
ATOM      5  C   UNL     1      86.530 325.622 193.924  1.00  0.00     0.000 C 
BRANCH   5   6
ATOM      6  C   UNL     1      86.653 324.525 192.848  1.00  0.00     0.000 C 
BRANCH   6   7
ATOM      7  C   UNL     1      88.088 324.049 192.562  1.00  0.00     0.000 C 
BRANCH   7   8
ATOM      8  C   UNL     1      88.449 324.100 191.070  1.00  0.00     0.000 C 
BRANCH   8   9
ATOM      9  C   UNL     1      87.574 323.129 190.262  1.00  0.00     0.000 C 
BRANCH   9  10
ATOM     10  C   UNL     1      88.197 322.755 188.908  1.00  0.00     0.006 C 
BRANCH  10  11
ATOM     11  C   UNL     1      89.627 323.287 188.745  1.00  0.00     0.053 C 
BRANCH  11  12
ATOM     12  C   UNL     1      90.589 322.155 188.564  1.00  0.00     0.041 C 
ATOM     13  O   UNL     1      91.262 321.733 189.542  1.00  0.00    -0.550 OA
ATOM     14  O   UNL     1      90.761 321.582 187.309  1.00  0.00    -0.550 OA
ENDBRANCH  11  12
ENDBRANCH  10  11
ENDBRANCH   9  10
ENDBRANCH   8   9
ENDBRANCH   7   8
ENDBRANCH   6   7
ENDBRANCH   5   6
ENDBRANCH   4   5
ENDBRANCH   3   4
ENDBRANCH   2   3
ENDBRANCH   1   2
BRANCH   1  15
ATOM     15  C   UNL     1      88.814 326.647 198.096  1.00  0.00     0.000 C 
BRANCH  15  16
ATOM     16  C   UNL     1      89.251 326.755 199.571  1.00  0.00     0.000 C 
BRANCH  16  17
ATOM     17  C   UNL     1      89.762 325.445 200.203  1.00  0.00     0.000 C 
BRANCH  17  18
ATOM     18  C   UNL     1      89.262 325.171 201.633  1.00  0.00    -0.000 C 
BRANCH  18  19
ATOM     19  C   UNL     1      88.789 326.446 202.352  1.00  0.00    -0.000 C 
BRANCH  19  20
ATOM     20  C   UNL     1      89.845 327.000 203.324  1.00  0.00    -0.000 C 
BRANCH  20  21
ATOM     21  C   UNL     1      89.224 327.552 204.619  1.00  0.00    -0.000 C 
BRANCH  21  22
ATOM     22  C   UNL     1      89.954 327.066 205.886  1.00  0.00    -0.000 C 
BRANCH  22  23
ATOM     23  C   UNL     1      89.147 326.110 206.784  1.00  0.00    -0.000 C 
BRANCH  23  24
ATOM     24  C   UNL     1      87.781 325.731 206.188  1.00  0.00    -0.000 C 
BRANCH  24  25
ATOM     25  C   UNL     1      87.679 324.233 205.864  1.00  0.00    -0.003 C 
ATOM     26  C   UNL     1      86.537 323.910 204.898  1.00  0.00     0.004 C 
ENDBRANCH  24  25
ENDBRANCH  23  24
ENDBRANCH  22  23
ENDBRANCH  21  22
ENDBRANCH  20  21
ENDBRANCH  19  20
ENDBRANCH  18  19
ENDBRANCH  17  18
ENDBRANCH  16  17
ENDBRANCH  15  16
ENDBRANCH   1  15
TORSDOF 22
ENDMDL
MODEL 2
REMARK VINA RESULT:    -6.020      1.346      3.013
REMARK INTER + INTRA:         -15.541
REMARK INTER:                 -14.011
REMARK INTRA:                  -1.530
REMARK UNBOUND:                -1.779
REMARK SMILES CCCCCCCCCCCCCCCCCCCCCCCC(=O)[O-]
REMARK SMILES IDX 13 1 14 2 15 3 16 4 17 5 18 6 19 7 20 8 21 9 22 10 23 11
REMARK SMILES IDX 24 12 25 13 26 14 12 15 11 16 10 17 9 18 8 19 7 20 6 21 5 22
REMARK SMILES IDX 4 23 3 24 2 25 1 26
REMARK H PARENT
REMARK Flexibility Score: inf
ROOT
ATOM      1  C   UNL     1      89.310 326.199 199.761  1.00  0.00     0.000 C 
ENDROOT
BRANCH   1   2
ATOM      2  C   UNL     1      89.355 324.783 199.171  1.00  0.00     0.000 C 
BRANCH   2   3
ATOM      3  C   UNL     1      89.055 324.805 197.665  1.00  0.00     0.000 C 
BRANCH   3   4
ATOM      4  C   UNL     1      88.557 326.177 197.176  1.00  0.00     0.000 C 
BRANCH   4   5
ATOM      5  C   UNL     1      88.137 326.224 195.692  1.00  0.00     0.000 C 
BRANCH   5   6
ATOM      6  C   UNL     1      86.805 325.523 195.363  1.00  0.00     0.000 C 
BRANCH   6   7
ATOM      7  C   UNL     1      86.463 325.440 193.864  1.00  0.00     0.000 C 
BRANCH   7   8
ATOM      8  C   UNL     1      87.707 325.470 192.965  1.00  0.00     0.000 C 
BRANCH   8   9
ATOM      9  C   UNL     1      88.047 324.061 192.455  1.00  0.00     0.000 C 
BRANCH   9  10
ATOM     10  C   UNL     1      88.490 324.053 190.984  1.00  0.00     0.006 C 
BRANCH  10  11
ATOM     11  C   UNL     1      87.695 323.055 190.131  1.00  0.00     0.053 C 
BRANCH  11  12
ATOM     12  C   UNL     1      88.591 322.390 189.132  1.00  0.00     0.041 C 
ATOM     13  O   UNL     1      89.488 323.053 188.546  1.00  0.00    -0.550 OA
ATOM     14  O   UNL     1      88.420 321.044 188.832  1.00  0.00    -0.550 OA
ENDBRANCH  11  12
ENDBRANCH  10  11
ENDBRANCH   9  10
ENDBRANCH   8   9
ENDBRANCH   7   8
ENDBRANCH   6   7
ENDBRANCH   5   6
ENDBRANCH   4   5
ENDBRANCH   3   4
ENDBRANCH   2   3
ENDBRANCH   1   2
BRANCH   1  15
ATOM     15  C   UNL     1      89.565 326.221 201.279  1.00  0.00     0.000 C 
BRANCH  15  16
ATOM     16  C   UNL     1      90.896 326.872 201.703  1.00  0.00     0.000 C 
BRANCH  16  17
ATOM     17  C   UNL     1      91.004 327.236 203.197  1.00  0.00     0.000 C 
BRANCH  17  18
ATOM     18  C   UNL     1      89.671 327.238 203.967  1.00  0.00    -0.000 C 
BRANCH  18  19
ATOM     19  C   UNL     1      89.865 327.345 205.490  1.00  0.00    -0.000 C 
BRANCH  19  20
ATOM     20  C   UNL     1      88.824 326.528 206.274  1.00  0.00    -0.000 C 
BRANCH  20  21
ATOM     21  C   UNL     1      88.211 325.392 205.437  1.00  0.00    -0.000 C 
BRANCH  21  22
ATOM     22  C   UNL     1      86.904 324.843 206.040  1.00  0.00    -0.000 C 
BRANCH  22  23
ATOM     23  C   UNL     1      86.036 324.010 205.078  1.00  0.00    -0.000 C 
BRANCH  23  24
ATOM     24  C   UNL     1      86.855 323.303 203.985  1.00  0.00    -0.000 C 
BRANCH  24  25
ATOM     25  C   UNL     1      86.523 323.821 202.577  1.00  0.00    -0.003 C 
ATOM     26  C   UNL     1      87.222 323.026 201.472  1.00  0.00     0.004 C 
ENDBRANCH  24  25
ENDBRANCH  23  24
ENDBRANCH  22  23
ENDBRANCH  21  22
ENDBRANCH  20  21
ENDBRANCH  19  20
ENDBRANCH  18  19
ENDBRANCH  17  18
ENDBRANCH  16  17
ENDBRANCH  15  16
ENDBRANCH   1  15
TORSDOF 22
ENDMDL
MODEL 3
REMARK VINA RESULT:    -6.014      4.436     12.000
REMARK INTER + INTRA:         -15.528
REMARK INTER:                 -13.565
REMARK INTRA:                  -1.963
REMARK UNBOUND:                -1.779
REMARK SMILES CCCCCCCCCCCCCCCCCCCCCCCC(=O)[O-]
REMARK SMILES IDX 13 1 14 2 15 3 16 4 17 5 18 6 19 7 20 8 21 9 22 10 23 11
REMARK SMILES IDX 24 12 25 13 26 14 12 15 11 16 10 17 9 18 8 19 7 20 6 21 5 22
REMARK SMILES IDX 4 23 3 24 2 25 1 26
REMARK H PARENT
REMARK Flexibility Score: inf
ROOT
ATOM      1  C   UNL     1      89.470 323.791 200.021  1.00  0.00     0.000 C 
ENDROOT
BRANCH   1   2
ATOM      2  C   UNL     1      90.076 325.201 200.019  1.00  0.00     0.000 C 
BRANCH   2   3
ATOM      3  C   UNL     1      89.070 326.232 200.552  1.00  0.00     0.000 C 
BRANCH   3   4
ATOM      4  C   UNL     1      88.806 326.084 202.061  1.00  0.00     0.000 C 
BRANCH   4   5
ATOM      5  C   UNL     1      89.790 326.848 202.971  1.00  0.00     0.000 C 
BRANCH   5   6
ATOM      6  C   UNL     1      89.155 327.524 204.202  1.00  0.00     0.000 C 
BRANCH   6   7
ATOM      7  C   UNL     1      89.757 327.111 205.557  1.00  0.00     0.000 C 
BRANCH   7   8
ATOM      8  C   UNL     1      88.730 326.456 206.492  1.00  0.00     0.000 C 
BRANCH   8   9
ATOM      9  C   UNL     1      88.398 325.029 206.027  1.00  0.00     0.000 C 
BRANCH   9  10
ATOM     10  C   UNL     1      86.907 324.840 205.707  1.00  0.00     0.006 C 
BRANCH  10  11
ATOM     11  C   UNL     1      86.585 323.429 205.197  1.00  0.00     0.053 C 
BRANCH  11  12
ATOM     12  C   UNL     1      86.911 323.312 203.740  1.00  0.00     0.041 C 
ATOM     13  O   UNL     1      87.950 322.702 203.371  1.00  0.00    -0.550 OA
ATOM     14  O   UNL     1      86.080 323.897 202.792  1.00  0.00    -0.550 OA
ENDBRANCH  11  12
ENDBRANCH  10  11
ENDBRANCH   9  10
ENDBRANCH   8   9
ENDBRANCH   7   8
ENDBRANCH   6   7
ENDBRANCH   5   6
ENDBRANCH   4   5
ENDBRANCH   3   4
ENDBRANCH   2   3
ENDBRANCH   1   2
BRANCH   1  15
ATOM     15  C   UNL     1      88.750 323.450 198.704  1.00  0.00     0.000 C 
BRANCH  15  16
ATOM     16  C   UNL     1      89.377 324.075 197.442  1.00  0.00     0.000 C 
BRANCH  16  17
ATOM     17  C   UNL     1      88.377 324.712 196.456  1.00  0.00     0.000 C 
BRANCH  17  18
ATOM     18  C   UNL     1      88.601 326.208 196.173  1.00  0.00    -0.000 C 
BRANCH  18  19
ATOM     19  C   UNL     1      88.144 326.621 194.763  1.00  0.00    -0.000 C 
BRANCH  19  20
ATOM     20  C   UNL     1      86.693 326.204 194.469  1.00  0.00    -0.000 C 
BRANCH  20  21
ATOM     21  C   UNL     1      86.591 325.191 193.315  1.00  0.00    -0.000 C 
BRANCH  21  22
ATOM     22  C   UNL     1      87.915 325.024 192.547  1.00  0.00    -0.000 C 
BRANCH  22  23
ATOM     23  C   UNL     1      88.212 323.596 192.051  1.00  0.00    -0.000 C 
BRANCH  23  24
ATOM     24  C   UNL     1      87.664 323.320 190.641  1.00  0.00    -0.000 C 
BRANCH  24  25
ATOM     25  C   UNL     1      86.300 322.614 190.670  1.00  0.00    -0.003 C 
ATOM     26  C   UNL     1      86.106 321.748 191.917  1.00  0.00     0.004 C 
ENDBRANCH  24  25
ENDBRANCH  23  24
ENDBRANCH  22  23
ENDBRANCH  21  22
ENDBRANCH  20  21
ENDBRANCH  19  20
ENDBRANCH  18  19
ENDBRANCH  17  18
ENDBRANCH  16  17
ENDBRANCH  15  16
ENDBRANCH   1  15
TORSDOF 22
ENDMDL
MODEL 4
REMARK VINA RESULT:    -5.989      2.308      4.613
REMARK INTER + INTRA:         -15.470
REMARK INTER:                 -13.118
REMARK INTRA:                  -2.353
REMARK UNBOUND:                -1.779
REMARK SMILES CCCCCCCCCCCCCCCCCCCCCCCC(=O)[O-]
REMARK SMILES IDX 13 1 14 2 15 3 16 4 17 5 18 6 19 7 20 8 21 9 22 10 23 11
REMARK SMILES IDX 24 12 25 13 26 14 12 15 11 16 10 17 9 18 8 19 7 20 6 21 5 22
REMARK SMILES IDX 4 23 3 24 2 25 1 26
REMARK H PARENT
REMARK Flexibility Score: inf
ROOT
ATOM      1  C   UNL     1      87.483 322.174 200.943  1.00  0.00     0.000 C 
ENDROOT
BRANCH   1   2
ATOM      2  C   UNL     1      87.409 322.033 199.416  1.00  0.00     0.000 C 
BRANCH   2   3
ATOM      3  C   UNL     1      88.530 322.831 198.736  1.00  0.00     0.000 C 
BRANCH   3   4
ATOM      4  C   UNL     1      88.191 323.219 197.285  1.00  0.00     0.000 C 
BRANCH   4   5
ATOM      5  C   UNL     1      89.092 324.315 196.678  1.00  0.00     0.000 C 
BRANCH   5   6
ATOM      6  C   UNL     1      88.560 325.754 196.819  1.00  0.00     0.000 C 
BRANCH   6   7
ATOM      7  C   UNL     1      88.077 326.403 195.509  1.00  0.00     0.000 C 
BRANCH   7   8
ATOM      8  C   UNL     1      86.612 326.075 195.185  1.00  0.00     0.000 C 
BRANCH   8   9
ATOM      9  C   UNL     1      86.465 325.613 193.726  1.00  0.00     0.000 C 
BRANCH   9  10
ATOM     10  C   UNL     1      87.815 325.495 193.001  1.00  0.00     0.006 C 
BRANCH  10  11
ATOM     11  C   UNL     1      87.876 324.291 192.052  1.00  0.00     0.053 C 
BRANCH  11  12
ATOM     12  C   UNL     1      87.831 323.011 192.827  1.00  0.00     0.041 C 
ATOM     13  O   UNL     1      88.837 322.636 193.489  1.00  0.00    -0.550 OA
ATOM     14  O   UNL     1      86.689 322.220 192.800  1.00  0.00    -0.550 OA
ENDBRANCH  11  12
ENDBRANCH  10  11
ENDBRANCH   9  10
ENDBRANCH   8   9
ENDBRANCH   7   8
ENDBRANCH   6   7
ENDBRANCH   5   6
ENDBRANCH   4   5
ENDBRANCH   3   4
ENDBRANCH   2   3
ENDBRANCH   1   2
BRANCH   1  15
ATOM     15  C   UNL     1      86.187 322.736 201.554  1.00  0.00     0.000 C 
BRANCH  15  16
ATOM     16  C   UNL     1      86.397 323.787 202.663  1.00  0.00     0.000 C 
BRANCH  16  17
ATOM     17  C   UNL     1      87.001 323.247 203.975  1.00  0.00     0.000 C 
BRANCH  17  18
ATOM     18  C   UNL     1      86.570 323.996 205.249  1.00  0.00    -0.000 C 
BRANCH  18  19
ATOM     19  C   UNL     1      87.767 324.495 206.077  1.00  0.00    -0.000 C 
BRANCH  19  20
ATOM     20  C   UNL     1      87.828 326.030 206.157  1.00  0.00    -0.000 C 
BRANCH  20  21
ATOM     21  C   UNL     1      89.247 326.552 206.446  1.00  0.00    -0.000 C 
BRANCH  21  22
ATOM     22  C   UNL     1      90.019 326.925 205.166  1.00  0.00    -0.000 C 
BRANCH  22  23
ATOM     23  C   UNL     1      89.166 327.015 203.886  1.00  0.00    -0.000 C 
BRANCH  23  24
ATOM     24  C   UNL     1      89.640 326.061 202.778  1.00  0.00    -0.000 C 
BRANCH  24  25
ATOM     25  C   UNL     1      88.770 326.153 201.514  1.00  0.00    -0.003 C 
ATOM     26  C   UNL     1      89.580 326.487 200.259  1.00  0.00     0.004 C 
ENDBRANCH  24  25
ENDBRANCH  23  24
ENDBRANCH  22  23
ENDBRANCH  21  22
ENDBRANCH  20  21
ENDBRANCH  19  20
ENDBRANCH  18  19
ENDBRANCH  17  18
ENDBRANCH  16  17
ENDBRANCH  15  16
ENDBRANCH   1  15
TORSDOF 22
ENDMDL
MODEL 5
REMARK VINA RESULT:    -5.973      3.681     11.661
REMARK INTER + INTRA:         -15.435
REMARK INTER:                 -13.438
REMARK INTRA:                  -1.997
REMARK UNBOUND:                -1.779
REMARK SMILES CCCCCCCCCCCCCCCCCCCCCCCC(=O)[O-]
REMARK SMILES IDX 13 1 14 2 15 3 16 4 17 5 18 6 19 7 20 8 21 9 22 10 23 11
REMARK SMILES IDX 24 12 25 13 26 14 12 15 11 16 10 17 9 18 8 19 7 20 6 21 5 22
REMARK SMILES IDX 4 23 3 24 2 25 1 26
REMARK H PARENT
REMARK Flexibility Score: inf
ROOT
ATOM      1  C   UNL     1      90.345 325.314 201.660  1.00  0.00     0.000 C 
ENDROOT
BRANCH   1   2
ATOM      2  C   UNL     1      91.108 326.628 201.873  1.00  0.00     0.000 C 
BRANCH   2   3
ATOM      3  C   UNL     1      90.761 327.251 203.233  1.00  0.00     0.000 C 
BRANCH   3   4
ATOM      4  C   UNL     1      89.523 326.611 203.884  1.00  0.00     0.000 C 
BRANCH   4   5
ATOM      5  C   UNL     1      89.034 327.305 205.173  1.00  0.00     0.000 C 
BRANCH   5   6
ATOM      6  C   UNL     1      88.992 326.408 206.426  1.00  0.00     0.000 C 
BRANCH   6   7
ATOM      7  C   UNL     1      88.425 324.995 206.199  1.00  0.00     0.000 C 
BRANCH   7   8
ATOM      8  C   UNL     1      86.917 324.997 205.907  1.00  0.00     0.000 C 
BRANCH   8   9
ATOM      9  C   UNL     1      86.496 323.702 205.194  1.00  0.00     0.000 C 
BRANCH   9  10
ATOM     10  C   UNL     1      87.467 323.300 204.072  1.00  0.00     0.006 C 
BRANCH  10  11
ATOM     11  C   UNL     1      87.014 323.792 202.691  1.00  0.00     0.053 C 
BRANCH  11  12
ATOM     12  C   UNL     1      86.850 322.637 201.752  1.00  0.00     0.041 C 
ATOM     13  O   UNL     1      86.259 321.591 202.132  1.00  0.00    -0.550 OA
ATOM     14  O   UNL     1      87.373 322.707 200.466  1.00  0.00    -0.550 OA
ENDBRANCH  11  12
ENDBRANCH  10  11
ENDBRANCH   9  10
ENDBRANCH   8   9
ENDBRANCH   7   8
ENDBRANCH   6   7
ENDBRANCH   5   6
ENDBRANCH   4   5
ENDBRANCH   3   4
ENDBRANCH   2   3
ENDBRANCH   1   2
BRANCH   1  15
ATOM     15  C   UNL     1      89.754 325.191 200.244  1.00  0.00     0.000 C 
BRANCH  15  16
ATOM     16  C   UNL     1      89.244 326.513 199.638  1.00  0.00     0.000 C 
BRANCH  16  17
ATOM     17  C   UNL     1      88.864 326.449 198.145  1.00  0.00     0.000 C 
BRANCH  17  18
ATOM     18  C   UNL     1      88.876 325.039 197.528  1.00  0.00    -0.000 C 
BRANCH  18  19
ATOM     19  C   UNL     1      88.501 325.040 196.035  1.00  0.00    -0.000 C 
BRANCH  19  20
ATOM     20  C   UNL     1      88.172 326.449 195.512  1.00  0.00    -0.000 C 
BRANCH  20  21
ATOM     21  C   UNL     1      88.072 326.502 193.978  1.00  0.00    -0.000 C 
BRANCH  21  22
ATOM     22  C   UNL     1      87.475 325.217 193.372  1.00  0.00    -0.000 C 
BRANCH  22  23
ATOM     23  C   UNL     1      88.099 324.768 192.038  1.00  0.00    -0.000 C 
BRANCH  23  24
ATOM     24  C   UNL     1      87.601 323.390 191.572  1.00  0.00    -0.000 C 
BRANCH  24  25
ATOM     25  C   UNL     1      87.782 323.181 190.061  1.00  0.00    -0.003 C 
ATOM     26  C   UNL     1      89.175 323.582 189.569  1.00  0.00     0.004 C 
ENDBRANCH  24  25
ENDBRANCH  23  24
ENDBRANCH  22  23
ENDBRANCH  21  22
ENDBRANCH  20  21
ENDBRANCH  19  20
ENDBRANCH  18  19
ENDBRANCH  17  18
ENDBRANCH  16  17
ENDBRANCH  15  16
ENDBRANCH   1  15
TORSDOF 22
ENDMDL
MODEL 6
REMARK VINA RESULT:    -5.952      1.023      2.491
REMARK INTER + INTRA:         -15.387
REMARK INTER:                 -13.614
REMARK INTRA:                  -1.773
REMARK UNBOUND:                -1.779
REMARK SMILES CCCCCCCCCCCCCCCCCCCCCCCC(=O)[O-]
REMARK SMILES IDX 13 1 14 2 15 3 16 4 17 5 18 6 19 7 20 8 21 9 22 10 23 11
REMARK SMILES IDX 24 12 25 13 26 14 12 15 11 16 10 17 9 18 8 19 7 20 6 21 5 22
REMARK SMILES IDX 4 23 3 24 2 25 1 26
REMARK H PARENT
REMARK Flexibility Score: inf
ROOT
ATOM      1  C   UNL     1      88.917 325.731 198.915  1.00  0.00     0.000 C 
ENDROOT
BRANCH   1   2
ATOM      2  C   UNL     1      88.660 326.743 197.789  1.00  0.00     0.000 C 
BRANCH   2   3
ATOM      3  C   UNL     1      88.843 326.090 196.412  1.00  0.00     0.000 C 
BRANCH   3   4
ATOM      4  C   UNL     1      87.585 326.192 195.532  1.00  0.00     0.000 C 
BRANCH   4   5
ATOM      5  C   UNL     1      87.860 326.405 194.028  1.00  0.00     0.000 C 
BRANCH   5   6
ATOM      6  C   UNL     1      87.519 325.206 193.122  1.00  0.00     0.000 C 
BRANCH   6   7
ATOM      7  C   UNL     1      88.447 323.987 193.275  1.00  0.00     0.000 C 
BRANCH   7   8
ATOM      8  C   UNL     1      88.380 323.031 192.075  1.00  0.00     0.000 C 
BRANCH   8   9
ATOM      9  C   UNL     1      87.731 323.720 190.863  1.00  0.00     0.000 C 
BRANCH   9  10
ATOM     10  C   UNL     1      88.171 323.105 189.525  1.00  0.00     0.006 C 
BRANCH  10  11
ATOM     11  C   UNL     1      89.590 323.525 189.118  1.00  0.00     0.053 C 
BRANCH  11  12
ATOM     12  C   UNL     1      90.419 322.322 188.794  1.00  0.00     0.041 C 
ATOM     13  O   UNL     1      90.461 321.880 187.614  1.00  0.00    -0.550 OA
ATOM     14  O   UNL     1      91.127 321.673 189.799  1.00  0.00    -0.550 OA
ENDBRANCH  11  12
ENDBRANCH  10  11
ENDBRANCH   9  10
ENDBRANCH   8   9
ENDBRANCH   7   8
ENDBRANCH   6   7
ENDBRANCH   5   6
ENDBRANCH   4   5
ENDBRANCH   3   4
ENDBRANCH   2   3
ENDBRANCH   1   2
BRANCH   1  15
ATOM     15  C   UNL     1      89.546 326.375 200.164  1.00  0.00     0.000 C 
BRANCH  15  16
ATOM     16  C   UNL     1      88.669 326.319 201.431  1.00  0.00     0.000 C 
BRANCH  16  17
ATOM     17  C   UNL     1      88.598 324.941 202.121  1.00  0.00     0.000 C 
BRANCH  17  18
ATOM     18  C   UNL     1      87.204 324.289 202.136  1.00  0.00    -0.000 C 
BRANCH  18  19
ATOM     19  C   UNL     1      87.151 323.018 203.001  1.00  0.00    -0.000 C 
BRANCH  19  20
ATOM     20  C   UNL     1      87.583 323.278 204.455  1.00  0.00    -0.000 C 
BRANCH  20  21
ATOM     21  C   UNL     1      86.526 324.059 205.255  1.00  0.00    -0.000 C 
BRANCH  21  22
ATOM     22  C   UNL     1      87.119 325.260 206.016  1.00  0.00    -0.000 C 
BRANCH  22  23
ATOM     23  C   UNL     1      88.609 325.134 206.384  1.00  0.00    -0.000 C 
BRANCH  23  24
ATOM     24  C   UNL     1      89.348 326.483 206.381  1.00  0.00    -0.000 C 
BRANCH  24  25
ATOM     25  C   UNL     1      89.186 327.236 205.051  1.00  0.00    -0.003 C 
ATOM     26  C   UNL     1      90.517 327.456 204.329  1.00  0.00     0.004 C 
ENDBRANCH  24  25
ENDBRANCH  23  24
ENDBRANCH  22  23
ENDBRANCH  21  22
ENDBRANCH  20  21
ENDBRANCH  19  20
ENDBRANCH  18  19
ENDBRANCH  17  18
ENDBRANCH  16  17
ENDBRANCH  15  16
ENDBRANCH   1  15
TORSDOF 22
ENDMDL
MODEL 7
REMARK VINA RESULT:    -5.850      2.885      4.628
REMARK INTER + INTRA:         -15.153
REMARK INTER:                 -12.612
REMARK INTRA:                  -2.540
REMARK UNBOUND:                -1.779
REMARK SMILES CCCCCCCCCCCCCCCCCCCCCCCC(=O)[O-]
REMARK SMILES IDX 13 1 14 2 15 3 16 4 17 5 18 6 19 7 20 8 21 9 22 10 23 11
REMARK SMILES IDX 24 12 25 13 26 14 12 15 11 16 10 17 9 18 8 19 7 20 6 21 5 22
REMARK SMILES IDX 4 23 3 24 2 25 1 26
REMARK H PARENT
REMARK Flexibility Score: inf
ROOT
ATOM      1  C   UNL     1      89.426 326.431 200.454  1.00  0.00     0.000 C 
ENDROOT
BRANCH   1   2
ATOM      2  C   UNL     1      89.640 325.001 199.941  1.00  0.00     0.000 C 
BRANCH   2   3
ATOM      3  C   UNL     1      89.251 324.885 198.461  1.00  0.00     0.000 C 
BRANCH   3   4
ATOM      4  C   UNL     1      88.840 326.233 197.843  1.00  0.00     0.000 C 
BRANCH   4   5
ATOM      5  C   UNL     1      88.488 326.180 196.342  1.00  0.00     0.000 C 
BRANCH   5   6
ATOM      6  C   UNL     1      87.008 326.449 196.004  1.00  0.00     0.000 C 
BRANCH   6   7
ATOM      7  C   UNL     1      86.666 326.420 194.503  1.00  0.00     0.000 C 
BRANCH   7   8
ATOM      8  C   UNL     1      87.907 326.287 193.610  1.00  0.00     0.000 C 
BRANCH   8   9
ATOM      9  C   UNL     1      87.818 325.028 192.733  1.00  0.00     0.000 C 
BRANCH   9  10
ATOM     10  C   UNL     1      88.456 323.796 193.394  1.00  0.00     0.006 C 
BRANCH  10  11
ATOM     11  C   UNL     1      87.443 322.951 194.178  1.00  0.00     0.053 C 
BRANCH  11  12
ATOM     12  C   UNL     1      88.070 322.403 195.422  1.00  0.00     0.041 C 
ATOM     13  O   UNL     1      89.247 322.729 195.734  1.00  0.00    -0.550 OA
ATOM     14  O   UNL     1      87.365 321.514 196.224  1.00  0.00    -0.550 OA
ENDBRANCH  11  12
ENDBRANCH  10  11
ENDBRANCH   9  10
ENDBRANCH   8   9
ENDBRANCH   7   8
ENDBRANCH   6   7
ENDBRANCH   5   6
ENDBRANCH   4   5
ENDBRANCH   3   4
ENDBRANCH   2   3
ENDBRANCH   1   2
BRANCH   1  15
ATOM     15  C   UNL     1      88.813 326.474 201.865  1.00  0.00     0.000 C 
BRANCH  15  16
ATOM     16  C   UNL     1      89.815 326.777 202.998  1.00  0.00     0.000 C 
BRANCH  16  17
ATOM     17  C   UNL     1      89.193 327.334 204.294  1.00  0.00     0.000 C 
BRANCH  17  18
ATOM     18  C   UNL     1      90.078 327.215 205.547  1.00  0.00    -0.000 C 
BRANCH  18  19
ATOM     19  C   UNL     1      89.379 326.475 206.701  1.00  0.00    -0.000 C 
BRANCH  19  20
ATOM     20  C   UNL     1      87.957 326.019 206.332  1.00  0.00    -0.000 C 
BRANCH  20  21
ATOM     21  C   UNL     1      87.899 324.537 205.920  1.00  0.00    -0.000 C 
BRANCH  21  22
ATOM     22  C   UNL     1      86.566 324.155 205.247  1.00  0.00    -0.000 C 
BRANCH  22  23
ATOM     23  C   UNL     1      86.661 323.816 203.748  1.00  0.00    -0.000 C 
BRANCH  23  24
ATOM     24  C   UNL     1      87.303 322.445 203.479  1.00  0.00    -0.000 C 
BRANCH  24  25
ATOM     25  C   UNL     1      88.483 322.533 202.499  1.00  0.00    -0.003 C 
ATOM     26  C   UNL     1      89.769 323.032 203.161  1.00  0.00     0.004 C 
ENDBRANCH  24  25
ENDBRANCH  23  24
ENDBRANCH  22  23
ENDBRANCH  21  22
ENDBRANCH  20  21
ENDBRANCH  19  20
ENDBRANCH  18  19
ENDBRANCH  17  18
ENDBRANCH  16  17
ENDBRANCH  15  16
ENDBRANCH   1  15
TORSDOF 22
ENDMDL
MODEL 8
REMARK VINA RESULT:    -5.826      2.537      3.328
REMARK INTER + INTRA:         -15.097
REMARK INTER:                 -12.478
REMARK INTRA:                  -2.620
REMARK UNBOUND:                -1.779
REMARK SMILES CCCCCCCCCCCCCCCCCCCCCCCC(=O)[O-]
REMARK SMILES IDX 13 1 14 2 15 3 16 4 17 5 18 6 19 7 20 8 21 9 22 10 23 11
REMARK SMILES IDX 24 12 25 13 26 14 12 15 11 16 10 17 9 18 8 19 7 20 6 21 5 22
REMARK SMILES IDX 4 23 3 24 2 25 1 26
REMARK H PARENT
REMARK Flexibility Score: inf
ROOT
ATOM      1  C   UNL     1      90.012 323.992 198.510  1.00  0.00     0.000 C 
ENDROOT
BRANCH   1   2
ATOM      2  C   UNL     1      88.673 323.607 197.868  1.00  0.00     0.000 C 
BRANCH   2   3
ATOM      3  C   UNL     1      88.527 324.241 196.478  1.00  0.00     0.000 C 
BRANCH   3   4
ATOM      4  C   UNL     1      88.540 325.780 196.519  1.00  0.00     0.000 C 
BRANCH   4   5
ATOM      5  C   UNL     1      87.786 326.467 195.361  1.00  0.00     0.000 C 
BRANCH   5   6
ATOM      6  C   UNL     1      86.474 325.780 194.932  1.00  0.00     0.000 C 
BRANCH   6   7
ATOM      7  C   UNL     1      86.417 325.346 193.456  1.00  0.00     0.000 C 
BRANCH   7   8
ATOM      8  C   UNL     1      87.799 325.325 192.786  1.00  0.00     0.000 C 
BRANCH   8   9
ATOM      9  C   UNL     1      87.903 324.162 191.786  1.00  0.00     0.000 C 
BRANCH   9  10
ATOM     10  C   UNL     1      88.498 322.892 192.413  1.00  0.00     0.006 C 
BRANCH  10  11
ATOM     11  C   UNL     1      87.443 321.806 192.668  1.00  0.00     0.053 C 
BRANCH  11  12
ATOM     12  C   UNL     1      87.246 321.604 194.138  1.00  0.00     0.041 C 
ATOM     13  O   UNL     1      86.192 322.009 194.697  1.00  0.00    -0.550 OA
ATOM     14  O   UNL     1      88.237 320.990 194.895  1.00  0.00    -0.550 OA
ENDBRANCH  11  12
ENDBRANCH  10  11
ENDBRANCH   9  10
ENDBRANCH   8   9
ENDBRANCH   7   8
ENDBRANCH   6   7
ENDBRANCH   5   6
ENDBRANCH   4   5
ENDBRANCH   3   4
ENDBRANCH   2   3
ENDBRANCH   1   2
BRANCH   1  15
ATOM     15  C   UNL     1      89.861 324.467 199.967  1.00  0.00     0.000 C 
BRANCH  15  16
ATOM     16  C   UNL     1      89.163 325.832 200.133  1.00  0.00     0.000 C 
BRANCH  16  17
ATOM     17  C   UNL     1      89.274 326.460 201.537  1.00  0.00     0.000 C 
BRANCH  17  18
ATOM     18  C   UNL     1      90.709 326.735 202.019  1.00  0.00    -0.000 C 
BRANCH  18  19
ATOM     19  C   UNL     1      90.767 327.175 203.492  1.00  0.00    -0.000 C 
BRANCH  19  20
ATOM     20  C   UNL     1      89.378 327.214 204.150  1.00  0.00    -0.000 C 
BRANCH  20  21
ATOM     21  C   UNL     1      89.450 327.192 205.687  1.00  0.00    -0.000 C 
BRANCH  21  22
ATOM     22  C   UNL     1      88.878 325.897 206.295  1.00  0.00    -0.000 C 
BRANCH  22  23
ATOM     23  C   UNL     1      87.395 325.622 205.979  1.00  0.00    -0.000 C 
BRANCH  23  24
ATOM     24  C   UNL     1      87.145 324.199 205.452  1.00  0.00    -0.000 C 
BRANCH  24  25
ATOM     25  C   UNL     1      87.270 324.110 203.923  1.00  0.00    -0.003 C 
ATOM     26  C   UNL     1      88.577 323.456 203.471  1.00  0.00     0.004 C 
ENDBRANCH  24  25
ENDBRANCH  23  24
ENDBRANCH  22  23
ENDBRANCH  21  22
ENDBRANCH  20  21
ENDBRANCH  19  20
ENDBRANCH  18  19
ENDBRANCH  17  18
ENDBRANCH  16  17
ENDBRANCH  15  16
ENDBRANCH   1  15
TORSDOF 22
ENDMDL
MODEL 9
REMARK VINA RESULT:    -5.818      4.652     11.805
REMARK INTER + INTRA:         -15.079
REMARK INTER:                 -12.555
REMARK INTRA:                  -2.524
REMARK UNBOUND:                -1.779
REMARK SMILES CCCCCCCCCCCCCCCCCCCCCCCC(=O)[O-]
REMARK SMILES IDX 13 1 14 2 15 3 16 4 17 5 18 6 19 7 20 8 21 9 22 10 23 11
REMARK SMILES IDX 24 12 25 13 26 14 12 15 11 16 10 17 9 18 8 19 7 20 6 21 5 22
REMARK SMILES IDX 4 23 3 24 2 25 1 26
REMARK H PARENT
REMARK Flexibility Score: inf
ROOT
ATOM      1  C   UNL     1      89.017 325.591 198.354  1.00  0.00     0.000 C 
ENDROOT
BRANCH   1   2
ATOM      2  C   UNL     1      89.189 326.115 199.787  1.00  0.00     0.000 C 
BRANCH   2   3
ATOM      3  C   UNL     1      89.215 324.958 200.795  1.00  0.00     0.000 C 
BRANCH   3   4
ATOM      4  C   UNL     1      88.137 325.092 201.885  1.00  0.00     0.000 C 
BRANCH   4   5
ATOM      5  C   UNL     1      88.299 324.130 203.081  1.00  0.00     0.000 C 
BRANCH   5   6
ATOM      6  C   UNL     1      86.981 323.618 203.695  1.00  0.00     0.000 C 
BRANCH   6   7
ATOM      7  C   UNL     1      86.644 324.189 205.085  1.00  0.00     0.000 C 
BRANCH   7   8
ATOM      8  C   UNL     1      87.893 324.492 205.925  1.00  0.00     0.000 C 
BRANCH   8   9
ATOM      9  C   UNL     1      87.908 325.961 206.374  1.00  0.00     0.000 C 
BRANCH   9  10
ATOM     10  C   UNL     1      89.241 326.662 206.071  1.00  0.00     0.006 C 
BRANCH  10  11
ATOM     11  C   UNL     1      89.296 327.247 204.653  1.00  0.00     0.053 C 
BRANCH  11  12
ATOM     12  C   UNL     1      90.697 327.216 204.129  1.00  0.00     0.041 C 
ATOM     13  O   UNL     1      90.909 327.216 202.886  1.00  0.00    -0.550 OA
ATOM     14  O   UNL     1      91.770 327.164 205.011  1.00  0.00    -0.550 OA
ENDBRANCH  11  12
ENDBRANCH  10  11
ENDBRANCH   9  10
ENDBRANCH   8   9
ENDBRANCH   7   8
ENDBRANCH   6   7
ENDBRANCH   5   6
ENDBRANCH   4   5
ENDBRANCH   3   4
ENDBRANCH   2   3
ENDBRANCH   1   2
BRANCH   1  15
ATOM     15  C   UNL     1      88.510 326.671 197.381  1.00  0.00     0.000 C 
BRANCH  15  16
ATOM     16  C   UNL     1      88.253 326.177 195.943  1.00  0.00     0.000 C 
BRANCH  16  17
ATOM     17  C   UNL     1      86.769 326.060 195.543  1.00  0.00     0.000 C 
BRANCH  17  18
ATOM     18  C   UNL     1      86.512 325.831 194.043  1.00  0.00    -0.000 C 
BRANCH  18  19
ATOM     19  C   UNL     1      87.812 325.696 193.232  1.00  0.00    -0.000 C 
BRANCH  19  20
ATOM     20  C   UNL     1      87.711 324.625 192.132  1.00  0.00    -0.000 C 
BRANCH  20  21
ATOM     21  C   UNL     1      86.391 323.836 192.195  1.00  0.00    -0.000 C 
BRANCH  21  22
ATOM     22  C   UNL     1      86.604 322.335 192.468  1.00  0.00    -0.000 C 
BRANCH  22  23
ATOM     23  C   UNL     1      86.351 321.888 193.920  1.00  0.00    -0.000 C 
BRANCH  23  24
ATOM     24  C   UNL     1      87.644 321.556 194.683  1.00  0.00    -0.000 C 
BRANCH  24  25
ATOM     25  C   UNL     1      87.994 322.620 195.735  1.00  0.00    -0.003 C 
ATOM     26  C   UNL     1      89.438 322.515 196.228  1.00  0.00     0.004 C 
ENDBRANCH  24  25
ENDBRANCH  23  24
ENDBRANCH  22  23
ENDBRANCH  21  22
ENDBRANCH  20  21
ENDBRANCH  19  20
ENDBRANCH  18  19
ENDBRANCH  17  18
ENDBRANCH  16  17
ENDBRANCH  15  16
ENDBRANCH   1  15
TORSDOF 22
ENDMDL
