MODEL 1
REMARK VINA RESULT:    18.348      0.000      0.000
REMARK INTER + INTRA:          28.482
REMARK INTER:                  25.320
REMARK INTRA:                   3.162
REMARK UNBOUND:                 3.162
REMARK SMILES C=C(CC[C@@H](C(=O)[O-])[C@H]1CC[C@]2(C)C3=C(CC[C@]12C)[C@]1(C)CC[C@H](O)C(C)(C)[C@@H]1CC3)C(C)C
REMARK SMILES IDX 4 1 5 2 6 3 7 4 8 5 9 6 10 7 18 8 11 9 12 10 17 11 19 12
REMARK SMILES IDX 13 13 14 14 16 15 15 16 31 17 20 18 30 19 29 20 22 21 21 22
REMARK SMILES IDX 26 23 23 24 24 25 27 26 28 27 25 28 3 30 2 31 1 32 32 33
REMARK SMILES IDX 33 34 34 35
REMARK H PARENT 25 29
REMARK Flexibility Score: inf
ROOT
ATOM      1  C   UNL     1      80.837  15.996  11.489  1.00  0.00     0.014 C 
ENDROOT
BRANCH   1   2
ATOM      2  C   UNL     1      81.545  16.607  10.254  1.00  0.00     0.039 C 
BRANCH   2   3
ATOM      3  C   UNL     1      83.025  16.838  10.474  1.00  0.00     0.045 C 
ATOM      4  O   UNL     1      83.442  17.580  11.403  1.00  0.00    -0.550 OA
ATOM      5  O   UNL     1      83.947  16.252   9.613  1.00  0.00    -0.550 OA
ENDBRANCH   2   3
BRANCH   2   6
ATOM      6  C   UNL     1      81.175  15.878   8.915  1.00  0.00     0.004 C 
ATOM      7  C   UNL     1      81.336  14.369   9.002  1.00  0.00     0.006 C 
ATOM      8  C   UNL     1      79.797  16.085   8.196  1.00  0.00    -0.020 C 
ATOM      9  C   UNL     1      80.855  13.876   7.659  1.00  0.00     0.012 C 
ATOM     10  C   UNL     1      79.680  14.804   7.226  1.00  0.00    -0.006 C 
ATOM     11  C   UNL     1      79.801  17.420   7.395  1.00  0.00     0.012 C 
ATOM     12  C   UNL     1      78.638  16.156   9.236  1.00  0.00     0.012 C 
ATOM     13  C   UNL     1      78.353  14.010   7.382  1.00  0.00     0.017 C 
ATOM     14  C   UNL     1      79.793  15.144   5.714  1.00  0.00    -0.064 C 
ATOM     15  C   UNL     1      78.836  17.346   6.224  1.00  0.00     0.032 C 
ATOM     16  C   UNL     1      79.352  16.335   5.220  1.00  0.00    -0.064 C 
ATOM     17  C   UNL     1      80.267  14.071   4.764  1.00  0.00     0.032 C 
ATOM     18  C   UNL     1      79.306  16.678   3.697  1.00  0.00    -0.008 C 
ATOM     19  C   UNL     1      79.524  14.131   3.444  1.00  0.00     0.009 C 
ATOM     20  C   UNL     1      79.804  15.488   2.755  1.00  0.00     0.007 C 
ATOM     21  C   UNL     1      77.824  17.042   3.385  1.00  0.00     0.014 C 
ATOM     22  C   UNL     1      80.231  17.910   3.506  1.00  0.00     0.016 C 
ATOM     23  C   UNL     1      79.311  15.530   1.228  1.00  0.00    -0.006 C 
ATOM     24  C   UNL     1      77.509  17.217   1.904  1.00  0.00     0.033 C 
ATOM     25  C   UNL     1      77.814  15.941   1.116  1.00  0.00     0.120 C 
ATOM     26  C   UNL     1      79.487  14.152   0.522  1.00  0.00     0.014 C 
ATOM     27  C   UNL     1      80.184  16.509   0.381  1.00  0.00     0.014 C 
BRANCH  25  28
ATOM     28  O   UNL     1      76.979  14.908   1.589  1.00  0.00    -0.393 OA
ATOM     29  H   UNL     1      77.520  14.077   1.636  1.00  0.00     0.210 HD
ENDBRANCH  25  28
ENDBRANCH   2   6
ENDBRANCH   1   2
BRANCH   1  30
ATOM     30  C   UNL     1      81.189  14.517  11.760  1.00  0.00     0.031 C 
BRANCH  30  31
ATOM     31  C   UNL     1      82.461  14.339  12.573  1.00  0.00    -0.075 C 
ATOM     32  C   UNL     1      82.487  14.759  13.849  1.00  0.00     0.008 C 
BRANCH  31  33
ATOM     33  C   UNL     1      83.759  13.879  11.919  1.00  0.00     0.008 C 
ATOM     34  C   UNL     1      83.757  14.105  10.403  1.00  0.00     0.012 C 
ATOM     35  C   UNL     1      84.963  14.565  12.573  1.00  0.00     0.012 C 
ENDBRANCH  31  33
ENDBRANCH  30  31
ENDBRANCH   1  30
TORSDOF 7
ENDMDL
MODEL 2
REMARK VINA RESULT:    20.585      1.989      9.261
REMARK INTER + INTRA:          31.569
REMARK INTER:                  30.677
REMARK INTRA:                   0.892
REMARK UNBOUND:                 3.162
REMARK SMILES C=C(CC[C@@H](C(=O)[O-])[C@H]1CC[C@]2(C)C3=C(CC[C@]12C)[C@]1(C)CC[C@H](O)C(C)(C)[C@@H]1CC3)C(C)C
REMARK SMILES IDX 4 1 5 2 6 3 7 4 8 5 9 6 10 7 18 8 11 9 12 10 17 11 19 12
REMARK SMILES IDX 13 13 14 14 16 15 15 16 31 17 20 18 30 19 29 20 22 21 21 22
REMARK SMILES IDX 26 23 23 24 24 25 27 26 28 27 25 28 3 30 2 31 1 32 32 33
REMARK SMILES IDX 33 34 34 35
REMARK H PARENT 25 29
REMARK Flexibility Score: inf
ROOT
ATOM      1  C   UNL     1      77.280  18.111   2.334  1.00  0.00     0.014 C 
ENDROOT
BRANCH   1   2
ATOM      2  C   UNL     1      77.309  16.570   2.173  1.00  0.00     0.039 C 
BRANCH   2   3
ATOM      3  C   UNL     1      77.759  16.127   0.797  1.00  0.00     0.045 C 
ATOM      4  O   UNL     1      78.557  16.823   0.113  1.00  0.00    -0.550 OA
ATOM      5  O   UNL     1      77.254  14.951   0.255  1.00  0.00    -0.550 OA
ENDBRANCH   2   3
BRANCH   2   6
ATOM      6  C   UNL     1      78.015  15.845   3.371  1.00  0.00     0.004 C 
ATOM      7  C   UNL     1      78.208  14.357   3.128  1.00  0.00     0.006 C 
ATOM      8  C   UNL     1      79.386  16.327   3.959  1.00  0.00    -0.020 C 
ATOM      9  C   UNL     1      78.965  13.886   4.346  1.00  0.00     0.012 C 
ATOM     10  C   UNL     1      79.931  15.038   4.756  1.00  0.00    -0.006 C 
ATOM     11  C   UNL     1      79.170  17.544   4.905  1.00  0.00     0.012 C 
ATOM     12  C   UNL     1      80.348  16.776   2.818  1.00  0.00     0.012 C 
ATOM     13  C   UNL     1      81.377  14.617   4.370  1.00  0.00     0.017 C 
ATOM     14  C   UNL     1      79.940  15.207   6.301  1.00  0.00    -0.064 C 
ATOM     15  C   UNL     1      80.270  17.614   5.951  1.00  0.00     0.032 C 
ATOM     16  C   UNL     1      80.145  16.422   6.881  1.00  0.00    -0.064 C 
ATOM     17  C   UNL     1      79.864  13.971   7.165  1.00  0.00     0.032 C 
ATOM     18  C   UNL     1      80.308  16.633   8.420  1.00  0.00    -0.008 C 
ATOM     19  C   UNL     1      80.738  14.102   8.397  1.00  0.00     0.009 C 
ATOM     20  C   UNL     1      80.236  15.280   9.264  1.00  0.00     0.007 C 
ATOM     21  C   UNL     1      81.688  17.328   8.612  1.00  0.00     0.014 C 
ATOM     22  C   UNL     1      79.149  17.573   8.849  1.00  0.00     0.016 C 
ATOM     23  C   UNL     1      80.900  15.312  10.725  1.00  0.00    -0.006 C 
ATOM     24  C   UNL     1      82.145  17.448  10.062  1.00  0.00     0.033 C 
ATOM     25  C   UNL     1      82.258  16.074  10.725  1.00  0.00     0.120 C 
ATOM     26  C   UNL     1      81.152  13.878  11.281  1.00  0.00     0.014 C 
ATOM     27  C   UNL     1      79.939  15.964  11.768  1.00  0.00     0.014 C 
BRANCH  25  28
ATOM     28  O   UNL     1      83.246  15.328  10.049  1.00  0.00    -0.393 OA
ATOM     29  H   UNL     1      84.095  15.839  10.091  1.00  0.00     0.210 HD
ENDBRANCH  25  28
ENDBRANCH   2   6
ENDBRANCH   1   2
BRANCH   1  30
ATOM     30  C   UNL     1      77.655  18.894   1.058  1.00  0.00     0.031 C 
BRANCH  30  31
ATOM     31  C   UNL     1      76.536  19.787   0.547  1.00  0.00    -0.075 C 
ATOM     32  C   UNL     1      75.507  19.232  -0.116  1.00  0.00     0.008 C 
BRANCH  31  33
ATOM     33  C   UNL     1      76.652  21.306   0.596  1.00  0.00     0.008 C 
ATOM     34  C   UNL     1      75.302  21.984   0.852  1.00  0.00     0.012 C 
ATOM     35  C   UNL     1      77.686  21.732   1.645  1.00  0.00     0.012 C 
ENDBRANCH  31  33
ENDBRANCH  30  31
ENDBRANCH   1  30
TORSDOF 7
ENDMDL
