MODEL 1
REMARK VINA RESULT:    -5.825      0.000      0.000
REMARK INTER + INTRA:          -9.481
REMARK INTER:                  -8.379
REMARK INTRA:                  -1.102
REMARK UNBOUND:                -1.102
REMARK SMILES CC(C)=CCCC(C)=CCCC(C)=CCO
REMARK SMILES IDX 10 1 9 2 7 3 8 4 6 5 5 6 4 7 1 8 2 9 3 10 11 11 12 12 14 13
REMARK SMILES IDX 13 14 15 15 16 16
REMARK H PARENT 16 17
REMARK Flexibility Score: inf
ROOT
ATOM      1  C   UNL     1     -23.766  -1.453  49.317  1.00  0.00     0.032 C 
ENDROOT
BRANCH   1   2
ATOM      2  C   UNL     1     -22.619  -0.642  48.766  1.00  0.00    -0.028 C 
ATOM      3  C   UNL     1     -22.017  -0.878  47.579  1.00  0.00    -0.077 C 
ATOM      4  C   UNL     1     -22.414  -2.041  46.700  1.00  0.00     0.039 C 
BRANCH   3   5
ATOM      5  C   UNL     1     -20.901   0.038  47.127  1.00  0.00     0.034 C 
BRANCH   5   6
ATOM      6  C   UNL     1     -19.546  -0.460  47.641  1.00  0.00     0.032 C 
BRANCH   6   7
ATOM      7  C   UNL     1     -19.028   0.437  48.738  1.00  0.00    -0.028 C 
ATOM      8  C   UNL     1     -19.499  -1.234  50.544  1.00  0.00     0.039 C 
ATOM      9  C   UNL     1     -18.972   0.089  50.044  1.00  0.00    -0.080 C 
ATOM     10  C   UNL     1     -18.409   1.055  51.054  1.00  0.00     0.039 C 
ENDBRANCH   6   7
ENDBRANCH   5   6
ENDBRANCH   3   5
ENDBRANCH   1   2
BRANCH   1  11
ATOM     11  C   UNL     1     -23.348  -2.186  50.596  1.00  0.00     0.034 C 
BRANCH  11  12
ATOM     12  C   UNL     1     -24.246  -1.798  51.754  1.00  0.00    -0.075 C 
ATOM     13  C   UNL     1     -25.213  -2.611  52.233  1.00  0.00    -0.000 C 
ATOM     14  C   UNL     1     -24.094  -0.425  52.357  1.00  0.00     0.039 C 
BRANCH  13  15
ATOM     15  C   UNL     1     -25.479  -3.999  51.709  1.00  0.00     0.183 C 
BRANCH  15  16
ATOM     16  O   UNL     1     -24.688  -4.934  52.391  1.00  0.00    -0.392 OA
ATOM     17  H   UNL     1     -24.977  -4.912  53.341  1.00  0.00     0.210 HD
ENDBRANCH  15  16
ENDBRANCH  13  15
ENDBRANCH  11  12
ENDBRANCH   1  11
TORSDOF 8
ENDMDL
MODEL 2
REMARK VINA RESULT:    -5.812      1.510      2.458
REMARK INTER + INTRA:          -9.462
REMARK INTER:                  -8.600
REMARK INTRA:                  -0.862
REMARK UNBOUND:                -1.102
REMARK SMILES CC(C)=CCCC(C)=CCCC(C)=CCO
REMARK SMILES IDX 10 1 9 2 7 3 8 4 6 5 5 6 4 7 1 8 2 9 3 10 11 11 12 12 14 13
REMARK SMILES IDX 13 14 15 15 16 16
REMARK H PARENT 16 17
REMARK Flexibility Score: inf
ROOT
ATOM      1  C   UNL     1     -22.697  -2.190  49.631  1.00  0.00     0.032 C 
ENDROOT
BRANCH   1   2
ATOM      2  C   UNL     1     -22.022  -1.021  48.958  1.00  0.00    -0.028 C 
ATOM      3  C   UNL     1     -21.897  -0.878  47.619  1.00  0.00    -0.077 C 
ATOM      4  C   UNL     1     -22.386  -1.932  46.654  1.00  0.00     0.039 C 
BRANCH   3   5
ATOM      5  C   UNL     1     -21.229   0.366  47.073  1.00  0.00     0.034 C 
BRANCH   5   6
ATOM      6  C   UNL     1     -19.773   0.453  47.542  1.00  0.00     0.032 C 
BRANCH   6   7
ATOM      7  C   UNL     1     -18.851   0.720  46.378  1.00  0.00    -0.028 C 
ATOM      8  C   UNL     1     -18.267  -1.697  46.078  1.00  0.00     0.039 C 
ATOM      9  C   UNL     1     -18.192  -0.241  45.691  1.00  0.00    -0.080 C 
ATOM     10  C   UNL     1     -17.317   0.139  44.524  1.00  0.00     0.039 C 
ENDBRANCH   6   7
ENDBRANCH   5   6
ENDBRANCH   3   5
ENDBRANCH   1   2
BRANCH   1  11
ATOM     11  C   UNL     1     -24.146  -1.845  49.994  1.00  0.00     0.034 C 
BRANCH  11  12
ATOM     12  C   UNL     1     -24.291  -1.649  51.489  1.00  0.00    -0.075 C 
ATOM     13  C   UNL     1     -24.905  -2.548  52.289  1.00  0.00    -0.000 C 
ATOM     14  C   UNL     1     -23.782  -0.370  52.103  1.00  0.00     0.039 C 
BRANCH  13  15
ATOM     15  C   UNL     1     -25.471  -3.858  51.800  1.00  0.00     0.183 C 
BRANCH  15  16
ATOM     16  O   UNL     1     -24.721  -4.928  52.304  1.00  0.00    -0.392 OA
ATOM     17  H   UNL     1     -24.702  -5.622  51.593  1.00  0.00     0.210 HD
ENDBRANCH  15  16
ENDBRANCH  13  15
ENDBRANCH  11  12
ENDBRANCH   1  11
TORSDOF 8
ENDMDL
MODEL 3
REMARK VINA RESULT:    -5.803      5.115      8.265
REMARK INTER + INTRA:          -9.450
REMARK INTER:                  -8.619
REMARK INTRA:                  -0.831
REMARK UNBOUND:                -1.102
REMARK SMILES CC(C)=CCCC(C)=CCCC(C)=CCO
REMARK SMILES IDX 10 1 9 2 7 3 8 4 6 5 5 6 4 7 1 8 2 9 3 10 11 11 12 12 14 13
REMARK SMILES IDX 13 14 15 15 16 16
REMARK H PARENT 16 17
REMARK Flexibility Score: inf
ROOT
ATOM      1  C   UNL     1     -16.111  -2.906  48.043  1.00  0.00     0.032 C 
ENDROOT
BRANCH   1   2
ATOM      2  C   UNL     1     -16.463  -1.606  48.722  1.00  0.00    -0.028 C 
ATOM      3  C   UNL     1     -16.648  -1.465  50.054  1.00  0.00    -0.077 C 
ATOM      4  C   UNL     1     -16.571  -2.640  51.000  1.00  0.00     0.039 C 
BRANCH   3   5
ATOM      5  C   UNL     1     -16.960  -0.092  50.611  1.00  0.00     0.034 C 
BRANCH   5   6
ATOM      6  C   UNL     1     -18.334   0.390  50.133  1.00  0.00     0.032 C 
BRANCH   6   7
ATOM      7  C   UNL     1     -19.174   0.851  51.298  1.00  0.00    -0.028 C 
ATOM      8  C   UNL     1     -20.602  -1.207  51.289  1.00  0.00     0.039 C 
ATOM      9  C   UNL     1     -20.177   0.128  51.848  1.00  0.00    -0.080 C 
ATOM     10  C   UNL     1     -20.934   0.675  53.030  1.00  0.00     0.039 C 
ENDBRANCH   6   7
ENDBRANCH   5   6
ENDBRANCH   3   5
ENDBRANCH   1   2
BRANCH   1  11
ATOM     11  C   UNL     1     -14.623  -2.944  47.680  1.00  0.00     0.034 C 
BRANCH  11  12
ATOM     12  C   UNL     1     -14.435  -2.828  46.181  1.00  0.00    -0.075 C 
ATOM     13  C   UNL     1     -14.112  -3.883  45.401  1.00  0.00    -0.000 C 
ATOM     14  C   UNL     1     -14.555  -1.469  45.540  1.00  0.00     0.039 C 
BRANCH  13  15
ATOM     15  C   UNL     1     -13.948  -5.290  45.917  1.00  0.00     0.183 C 
BRANCH  15  16
ATOM     16  O   UNL     1     -14.763  -6.171  45.194  1.00  0.00    -0.392 OA
ATOM     17  H   UNL     1     -15.626  -5.701  45.044  1.00  0.00     0.210 HD
ENDBRANCH  15  16
ENDBRANCH  13  15
ENDBRANCH  11  12
ENDBRANCH   1  11
TORSDOF 8
ENDMDL
MODEL 4
REMARK VINA RESULT:    -5.788     15.266     17.170
REMARK INTER + INTRA:          -9.428
REMARK INTER:                  -8.293
REMARK INTRA:                  -1.135
REMARK UNBOUND:                -1.102
REMARK SMILES CC(C)=CCCC(C)=CCCC(C)=CCO
REMARK SMILES IDX 10 1 9 2 7 3 8 4 6 5 5 6 4 7 1 8 2 9 3 10 11 11 12 12 14 13
REMARK SMILES IDX 13 14 15 15 16 16
REMARK H PARENT 16 17
REMARK Flexibility Score: inf
ROOT
ATOM      1  C   UNL     1     -16.819 -16.866  49.305  1.00  0.00     0.032 C 
ENDROOT
BRANCH   1   2
ATOM      2  C   UNL     1     -17.827 -17.823  48.719  1.00  0.00    -0.028 C 
ATOM      3  C   UNL     1     -18.393 -17.686  47.499  1.00  0.00    -0.077 C 
ATOM      4  C   UNL     1     -18.100 -16.498  46.612  1.00  0.00     0.039 C 
BRANCH   3   5
ATOM      5  C   UNL     1     -19.363 -18.742  47.015  1.00  0.00     0.034 C 
BRANCH   5   6
ATOM      6  C   UNL     1     -20.811 -18.275  47.195  1.00  0.00     0.032 C 
BRANCH   6   7
ATOM      7  C   UNL     1     -21.423 -18.890  48.429  1.00  0.00    -0.028 C 
ATOM      8  C   UNL     1     -21.193 -16.794  49.781  1.00  0.00     0.039 C 
ATOM      9  C   UNL     1     -21.629 -18.225  49.589  1.00  0.00    -0.080 C 
ATOM     10  C   UNL     1     -22.275 -18.932  50.753  1.00  0.00     0.039 C 
ENDBRANCH   6   7
ENDBRANCH   5   6
ENDBRANCH   3   5
ENDBRANCH   1   2
BRANCH   1  11
ATOM     11  C   UNL     1     -17.286 -16.354  50.672  1.00  0.00     0.034 C 
BRANCH  11  12
ATOM     12  C   UNL     1     -16.277 -16.703  51.747  1.00  0.00    -0.075 C 
ATOM     13  C   UNL     1     -15.337 -15.833  52.178  1.00  0.00    -0.000 C 
ATOM     14  C   UNL     1     -16.282 -18.098  52.318  1.00  0.00     0.039 C 
BRANCH  13  15
ATOM     15  C   UNL     1     -15.214 -14.416  51.678  1.00  0.00     0.183 C 
BRANCH  15  16
ATOM     16  O   UNL     1     -15.949 -13.547  52.496  1.00  0.00    -0.392 OA
ATOM     17  H   UNL     1     -15.340 -12.799  52.735  1.00  0.00     0.210 HD
ENDBRANCH  15  16
ENDBRANCH  13  15
ENDBRANCH  11  12
ENDBRANCH   1  11
TORSDOF 8
ENDMDL
MODEL 5
REMARK VINA RESULT:    -5.758      5.015      8.339
REMARK INTER + INTRA:          -9.385
REMARK INTER:                  -8.240
REMARK INTRA:                  -1.145
REMARK UNBOUND:                -1.102
REMARK SMILES CC(C)=CCCC(C)=CCCC(C)=CCO
REMARK SMILES IDX 10 1 9 2 7 3 8 4 6 5 5 6 4 7 1 8 2 9 3 10 11 11 12 12 14 13
REMARK SMILES IDX 13 14 15 15 16 16
REMARK H PARENT 16 17
REMARK Flexibility Score: inf
ROOT
ATOM      1  C   UNL     1     -15.251  -2.656  48.310  1.00  0.00     0.032 C 
ENDROOT
BRANCH   1   2
ATOM      2  C   UNL     1     -15.940  -1.445  48.889  1.00  0.00    -0.028 C 
ATOM      3  C   UNL     1     -16.486  -1.395  50.125  1.00  0.00    -0.077 C 
ATOM      4  C   UNL     1     -16.503  -2.597  51.040  1.00  0.00     0.039 C 
BRANCH   3   5
ATOM      5  C   UNL     1     -17.114  -0.101  50.598  1.00  0.00     0.034 C 
BRANCH   5   6
ATOM      6  C   UNL     1     -18.643  -0.199  50.576  1.00  0.00     0.032 C 
BRANCH   6   7
ATOM      7  C   UNL     1     -19.198   0.391  49.303  1.00  0.00    -0.028 C 
ATOM      8  C   UNL     1     -19.629  -1.847  48.264  1.00  0.00     0.039 C 
ATOM      9  C   UNL     1     -19.674  -0.339  48.269  1.00  0.00    -0.080 C 
ATOM     10  C   UNL     1     -20.232   0.357  47.054  1.00  0.00     0.039 C 
ENDBRANCH   6   7
ENDBRANCH   5   6
ENDBRANCH   3   5
ENDBRANCH   1   2
BRANCH   1  11
ATOM     11  C   UNL     1     -15.766  -2.950  46.897  1.00  0.00     0.034 C 
BRANCH  11  12
ATOM     12  C   UNL     1     -14.672  -2.728  45.872  1.00  0.00    -0.075 C 
ATOM     13  C   UNL     1     -13.870  -3.723  45.431  1.00  0.00    -0.000 C 
ATOM     14  C   UNL     1     -14.428  -1.329  45.367  1.00  0.00     0.039 C 
BRANCH  13  15
ATOM     15  C   UNL     1     -13.998  -5.160  45.868  1.00  0.00     0.183 C 
BRANCH  15  16
ATOM     16  O   UNL     1     -14.919  -5.834  45.054  1.00  0.00    -0.392 OA
ATOM     17  H   UNL     1     -15.823  -5.584  45.381  1.00  0.00     0.210 HD
ENDBRANCH  15  16
ENDBRANCH  13  15
ENDBRANCH  11  12
ENDBRANCH   1  11
TORSDOF 8
ENDMDL
MODEL 6
REMARK VINA RESULT:    -5.687     13.741     15.826
REMARK INTER + INTRA:          -9.283
REMARK INTER:                  -8.276
REMARK INTRA:                  -1.007
REMARK UNBOUND:                -1.102
REMARK SMILES CC(C)=CCCC(C)=CCCC(C)=CCO
REMARK SMILES IDX 10 1 9 2 7 3 8 4 6 5 5 6 4 7 1 8 2 9 3 10 11 11 12 12 14 13
REMARK SMILES IDX 13 14 15 15 16 16
REMARK H PARENT 16 17
REMARK Flexibility Score: inf
ROOT
ATOM      1  C   UNL     1     -25.217 -16.386  48.252  1.00  0.00     0.032 C 
ENDROOT
BRANCH   1   2
ATOM      2  C   UNL     1     -23.874 -17.004  48.551  1.00  0.00    -0.028 C 
ATOM      3  C   UNL     1     -23.230 -16.898  49.735  1.00  0.00    -0.077 C 
ATOM      4  C   UNL     1     -23.788 -16.081  50.877  1.00  0.00     0.039 C 
BRANCH   3   5
ATOM      5  C   UNL     1     -21.902 -17.602  49.914  1.00  0.00     0.034 C 
BRANCH   5   6
ATOM      6  C   UNL     1     -21.502 -18.344  48.634  1.00  0.00     0.032 C 
BRANCH   6   7
ATOM      7  C   UNL     1     -20.128 -17.921  48.178  1.00  0.00    -0.028 C 
ATOM      8  C   UNL     1     -21.007 -16.560  46.268  1.00  0.00     0.039 C 
ATOM      9  C   UNL     1     -19.893 -17.093  47.134  1.00  0.00    -0.080 C 
ATOM     10  C   UNL     1     -18.478 -16.713  46.783  1.00  0.00     0.039 C 
ENDBRANCH   6   7
ENDBRANCH   5   6
ENDBRANCH   3   5
ENDBRANCH   1   2
BRANCH   1  11
ATOM     11  C   UNL     1     -25.080 -15.259  47.223  1.00  0.00     0.034 C 
BRANCH  11  12
ATOM     12  C   UNL     1     -25.934 -15.541  46.003  1.00  0.00    -0.075 C 
ATOM     13  C   UNL     1     -26.680 -14.592  45.397  1.00  0.00    -0.000 C 
ATOM     14  C   UNL     1     -26.000 -16.953  45.478  1.00  0.00     0.039 C 
BRANCH  13  15
ATOM     15  C   UNL     1     -26.715 -13.148  45.831  1.00  0.00     0.183 C 
BRANCH  15  16
ATOM     16  O   UNL     1     -25.717 -12.419  45.172  1.00  0.00    -0.392 OA
ATOM     17  H   UNL     1     -25.079 -13.084  44.798  1.00  0.00     0.210 HD
ENDBRANCH  15  16
ENDBRANCH  13  15
ENDBRANCH  11  12
ENDBRANCH   1  11
TORSDOF 8
ENDMDL
MODEL 7
REMARK VINA RESULT:    -5.684     15.448     17.368
REMARK INTER + INTRA:          -9.278
REMARK INTER:                  -8.619
REMARK INTRA:                  -0.658
REMARK UNBOUND:                -1.102
REMARK SMILES CC(C)=CCCC(C)=CCCC(C)=CCO
REMARK SMILES IDX 10 1 9 2 7 3 8 4 6 5 5 6 4 7 1 8 2 9 3 10 11 11 12 12 14 13
REMARK SMILES IDX 13 14 15 15 16 16
REMARK H PARENT 16 17
REMARK Flexibility Score: inf
ROOT
ATOM      1  C   UNL     1     -17.789 -16.262  49.634  1.00  0.00     0.032 C 
ENDROOT
BRANCH   1   2
ATOM      2  C   UNL     1     -18.484 -17.405  48.938  1.00  0.00    -0.028 C 
ATOM      3  C   UNL     1     -18.603 -17.525  47.597  1.00  0.00    -0.077 C 
ATOM      4  C   UNL     1     -18.085 -16.466  46.651  1.00  0.00     0.039 C 
BRANCH   3   5
ATOM      5  C   UNL     1     -19.293 -18.745  47.027  1.00  0.00     0.034 C 
BRANCH   5   6
ATOM      6  C   UNL     1     -20.800 -18.699  47.306  1.00  0.00     0.032 C 
BRANCH   6   7
ATOM      7  C   UNL     1     -21.585 -18.986  46.051  1.00  0.00    -0.028 C 
ATOM      8  C   UNL     1     -23.369 -17.313  46.593  1.00  0.00     0.039 C 
ATOM      9  C   UNL     1     -22.726 -18.347  45.703  1.00  0.00    -0.080 C 
ATOM     10  C   UNL     1     -23.415 -18.695  44.408  1.00  0.00     0.039 C 
ENDBRANCH   6   7
ENDBRANCH   5   6
ENDBRANCH   3   5
ENDBRANCH   1   2
BRANCH   1  11
ATOM     11  C   UNL     1     -16.343 -16.634  49.980  1.00  0.00     0.034 C 
BRANCH  11  12
ATOM     12  C   UNL     1     -16.177 -16.801  51.477  1.00  0.00    -0.075 C 
ATOM     13  C   UNL     1     -15.609 -15.857  52.259  1.00  0.00    -0.000 C 
ATOM     14  C   UNL     1     -16.610 -18.098  52.111  1.00  0.00     0.039 C 
BRANCH  13  15
ATOM     15  C   UNL     1     -15.121 -14.526  51.748  1.00  0.00     0.183 C 
BRANCH  15  16
ATOM     16  O   UNL     1     -15.743 -13.481  52.445  1.00  0.00    -0.392 OA
ATOM     17  H   UNL     1     -15.766 -12.702  51.829  1.00  0.00     0.210 HD
ENDBRANCH  15  16
ENDBRANCH  13  15
ENDBRANCH  11  12
ENDBRANCH   1  11
TORSDOF 8
ENDMDL
MODEL 8
REMARK VINA RESULT:    -5.623      4.983      8.268
REMARK INTER + INTRA:          -9.191
REMARK INTER:                  -8.002
REMARK INTRA:                  -1.189
REMARK UNBOUND:                -1.102
REMARK SMILES CC(C)=CCCC(C)=CCCC(C)=CCO
REMARK SMILES IDX 10 1 9 2 7 3 8 4 6 5 5 6 4 7 1 8 2 9 3 10 11 11 12 12 14 13
REMARK SMILES IDX 13 14 15 15 16 16
REMARK H PARENT 16 17
REMARK Flexibility Score: inf
ROOT
ATOM      1  C   UNL     1     -16.679  -3.012  46.848  1.00  0.00     0.032 C 
ENDROOT
BRANCH   1   2
ATOM      2  C   UNL     1     -17.455  -1.888  47.488  1.00  0.00    -0.028 C 
ATOM      3  C   UNL     1     -17.934  -0.814  46.821  1.00  0.00    -0.077 C 
ATOM      4  C   UNL     1     -17.681  -0.611  45.346  1.00  0.00     0.039 C 
BRANCH   3   5
ATOM      5  C   UNL     1     -18.732   0.225  47.580  1.00  0.00     0.034 C 
BRANCH   5   6
ATOM      6  C   UNL     1     -19.992  -0.397  48.193  1.00  0.00     0.032 C 
BRANCH   6   7
ATOM      7  C   UNL     1     -20.953  -0.831  47.114  1.00  0.00    -0.028 C 
ATOM      8  C   UNL     1     -21.406  -3.048  48.189  1.00  0.00     0.039 C 
ATOM      9  C   UNL     1     -21.620  -2.008  47.117  1.00  0.00    -0.080 C 
ATOM     10  C   UNL     1     -22.579  -2.329  46.000  1.00  0.00     0.039 C 
ENDBRANCH   6   7
ENDBRANCH   5   6
ENDBRANCH   3   5
ENDBRANCH   1   2
BRANCH   1  11
ATOM     11  C   UNL     1     -15.186  -2.897  47.175  1.00  0.00     0.034 C 
BRANCH  11  12
ATOM     12  C   UNL     1     -14.363  -2.832  45.904  1.00  0.00    -0.075 C 
ATOM     13  C   UNL     1     -13.764  -3.916  45.364  1.00  0.00    -0.000 C 
ATOM     14  C   UNL     1     -14.154  -1.491  45.248  1.00  0.00     0.039 C 
BRANCH  13  15
ATOM     15  C   UNL     1     -13.881  -5.308  45.929  1.00  0.00     0.183 C 
BRANCH  15  16
ATOM     16  O   UNL     1     -14.842  -6.041  45.220  1.00  0.00    -0.392 OA
ATOM     17  H   UNL     1     -15.287  -5.402  44.602  1.00  0.00     0.210 HD
ENDBRANCH  15  16
ENDBRANCH  13  15
ENDBRANCH  11  12
ENDBRANCH   1  11
TORSDOF 8
ENDMDL
MODEL 9
REMARK VINA RESULT:    -5.616      4.941      7.440
REMARK INTER + INTRA:          -9.180
REMARK INTER:                  -7.478
REMARK INTRA:                  -1.702
REMARK UNBOUND:                -1.102
REMARK SMILES CC(C)=CCCC(C)=CCCC(C)=CCO
REMARK SMILES IDX 10 1 9 2 7 3 8 4 6 5 5 6 4 7 1 8 2 9 3 10 11 11 12 12 14 13
REMARK SMILES IDX 13 14 15 15 16 16
REMARK H PARENT 16 17
REMARK Flexibility Score: inf
ROOT
ATOM      1  C   UNL     1     -16.054  -1.137  45.918  1.00  0.00     0.032 C 
ENDROOT
BRANCH   1   2
ATOM      2  C   UNL     1     -17.180  -0.255  46.396  1.00  0.00    -0.028 C 
ATOM      3  C   UNL     1     -18.474  -0.640  46.469  1.00  0.00    -0.077 C 
ATOM      4  C   UNL     1     -18.928  -2.008  46.013  1.00  0.00     0.039 C 
BRANCH   3   5
ATOM      5  C   UNL     1     -19.501   0.334  47.005  1.00  0.00     0.034 C 
BRANCH   5   6
ATOM      6  C   UNL     1     -19.160   0.750  48.440  1.00  0.00     0.032 C 
BRANCH   6   7
ATOM      7  C   UNL     1     -19.467  -0.366  49.407  1.00  0.00    -0.028 C 
ATOM      8  C   UNL     1     -17.179  -0.327  50.426  1.00  0.00     0.039 C 
ATOM      9  C   UNL     1     -18.595  -0.838  50.327  1.00  0.00    -0.080 C 
ATOM     10  C   UNL     1     -19.017  -1.940  51.264  1.00  0.00     0.039 C 
ENDBRANCH   6   7
ENDBRANCH   5   6
ENDBRANCH   3   5
ENDBRANCH   1   2
BRANCH   1  11
ATOM     11  C   UNL     1     -15.226  -1.651  47.101  1.00  0.00     0.034 C 
BRANCH  11  12
ATOM     12  C   UNL     1     -15.554  -3.100  47.395  1.00  0.00    -0.075 C 
ATOM     13  C   UNL     1     -15.000  -4.128  46.715  1.00  0.00    -0.000 C 
ATOM     14  C   UNL     1     -16.586  -3.408  48.450  1.00  0.00     0.039 C 
BRANCH  13  15
ATOM     15  C   UNL     1     -13.969  -3.957  45.629  1.00  0.00     0.183 C 
BRANCH  15  16
ATOM     16  O   UNL     1     -14.446  -4.481  44.420  1.00  0.00    -0.392 OA
ATOM     17  H   UNL     1     -14.741  -3.707  43.872  1.00  0.00     0.210 HD
ENDBRANCH  15  16
ENDBRANCH  13  15
ENDBRANCH  11  12
ENDBRANCH   1  11
TORSDOF 8
ENDMDL
