MODEL 1
REMARK VINA RESULT:    -4.638      0.000      0.000
REMARK INTER + INTRA:         -10.414
REMARK INTER:                  -8.705
REMARK INTRA:                  -1.709
REMARK UNBOUND:                -1.709
REMARK SMILES CCCCCCCCC=CCCCCCCCC(=O)[O-]
REMARK SMILES IDX 10 1 9 2 11 3 12 4 13 5 14 6 15 7 16 8 17 9 18 10 19 11
REMARK SMILES IDX 20 12 8 13 7 14 6 15 5 16 4 17 3 18 2 19 1 20
REMARK H PARENT
REMARK Flexibility Score: inf
ROOT
ATOM      1  C   UNL     1      58.313  32.678  76.682  1.00  0.00    -0.031 C 
ATOM      2  C   UNL     1      57.975  33.642  77.560  1.00  0.00    -0.031 C 
ENDROOT
BRANCH   1   3
ATOM      3  C   UNL     1      58.531  31.228  77.043  1.00  0.00     0.027 C 
BRANCH   3   4
ATOM      4  C   UNL     1      57.650  30.291  76.204  1.00  0.00     0.004 C 
BRANCH   4   5
ATOM      5  C   UNL     1      57.700  30.637  74.705  1.00  0.00     0.000 C 
BRANCH   5   6
ATOM      6  C   UNL     1      56.306  30.674  74.060  1.00  0.00     0.000 C 
BRANCH   6   7
ATOM      7  C   UNL     1      56.219  31.676  72.895  1.00  0.00     0.000 C 
BRANCH   7   8
ATOM      8  C   UNL     1      57.404  32.664  72.876  1.00  0.00     0.006 C 
BRANCH   8   9
ATOM      9  C   UNL     1      57.032  34.061  72.354  1.00  0.00     0.053 C 
BRANCH   9  10
ATOM     10  C   UNL     1      56.165  34.816  73.311  1.00  0.00     0.041 C 
ATOM     11  O   UNL     1      56.378  34.744  74.551  1.00  0.00    -0.550 OA
ATOM     12  O   UNL     1      55.112  35.592  72.837  1.00  0.00    -0.550 OA
ENDBRANCH   9  10
ENDBRANCH   8   9
ENDBRANCH   7   8
ENDBRANCH   6   7
ENDBRANCH   5   6
ENDBRANCH   4   5
ENDBRANCH   3   4
ENDBRANCH   1   3
BRANCH   2  13
ATOM     13  C   UNL     1      57.850  33.438  79.048  1.00  0.00     0.027 C 
BRANCH  13  14
ATOM     14  C   UNL     1      59.145  33.853  79.762  1.00  0.00     0.004 C 
BRANCH  14  15
ATOM     15  C   UNL     1      58.901  34.908  80.854  1.00  0.00     0.000 C 
BRANCH  15  16
ATOM     16  C   UNL     1      58.856  36.336  80.284  1.00  0.00     0.000 C 
BRANCH  16  17
ATOM     17  C   UNL     1      57.646  37.143  80.791  1.00  0.00    -0.000 C 
BRANCH  17  18
ATOM     18  C   UNL     1      56.551  37.414  79.738  1.00  0.00    -0.000 C 
BRANCH  18  19
ATOM     19  C   UNL     1      56.974  37.159  78.280  1.00  0.00    -0.003 C 
ATOM     20  C   UNL     1      57.383  38.436  77.547  1.00  0.00     0.004 C 
ENDBRANCH  18  19
ENDBRANCH  17  18
ENDBRANCH  16  17
ENDBRANCH  15  16
ENDBRANCH  14  15
ENDBRANCH  13  14
ENDBRANCH   2  13
TORSDOF 15
ENDMDL
MODEL 2
REMARK VINA RESULT:    -4.624      2.243      5.110
REMARK INTER + INTRA:         -10.388
REMARK INTER:                  -8.030
REMARK INTRA:                  -2.358
REMARK UNBOUND:                -1.709
REMARK SMILES CCCCCCCCC=CCCCCCCCC(=O)[O-]
REMARK SMILES IDX 10 1 9 2 11 3 12 4 13 5 14 6 15 7 16 8 17 9 18 10 19 11
REMARK SMILES IDX 20 12 8 13 7 14 6 15 5 16 4 17 3 18 2 19 1 20
REMARK H PARENT
REMARK Flexibility Score: inf
ROOT
ATOM      1  C   UNL     1      58.298  36.729  80.693  1.00  0.00    -0.031 C 
ATOM      2  C   UNL     1      58.509  37.567  79.660  1.00  0.00    -0.031 C 
ENDROOT
BRANCH   1   3
ATOM      3  C   UNL     1      59.009  35.411  80.887  1.00  0.00     0.027 C 
BRANCH   3   4
ATOM      4  C   UNL     1      58.172  34.228  80.378  1.00  0.00     0.004 C 
BRANCH   4   5
ATOM      5  C   UNL     1      58.854  33.498  79.207  1.00  0.00     0.000 C 
BRANCH   5   6
ATOM      6  C   UNL     1      57.849  32.783  78.290  1.00  0.00     0.000 C 
BRANCH   6   7
ATOM      7  C   UNL     1      58.293  32.779  76.817  1.00  0.00     0.000 C 
BRANCH   7   8
ATOM      8  C   UNL     1      58.289  31.365  76.202  1.00  0.00     0.006 C 
BRANCH   8   9
ATOM      9  C   UNL     1      57.410  31.242  74.946  1.00  0.00     0.053 C 
BRANCH   9  10
ATOM     10  C   UNL     1      56.652  29.953  74.904  1.00  0.00     0.041 C 
ATOM     11  O   UNL     1      55.731  29.787  74.061  1.00  0.00    -0.550 OA
ATOM     12  O   UNL     1      56.954  28.937  75.804  1.00  0.00    -0.550 OA
ENDBRANCH   9  10
ENDBRANCH   8   9
ENDBRANCH   7   8
ENDBRANCH   6   7
ENDBRANCH   5   6
ENDBRANCH   4   5
ENDBRANCH   3   4
ENDBRANCH   1   3
BRANCH   2  13
ATOM     13  C   UNL     1      59.421  37.276  78.495  1.00  0.00     0.027 C 
BRANCH  13  14
ATOM     14  C   UNL     1      58.651  36.573  77.368  1.00  0.00     0.004 C 
BRANCH  14  15
ATOM     15  C   UNL     1      57.196  37.055  77.261  1.00  0.00     0.000 C 
BRANCH  15  16
ATOM     16  C   UNL     1      56.277  35.998  76.623  1.00  0.00     0.000 C 
BRANCH  16  17
ATOM     17  C   UNL     1      56.074  36.217  75.113  1.00  0.00    -0.000 C 
BRANCH  17  18
ATOM     18  C   UNL     1      56.463  35.021  74.219  1.00  0.00    -0.000 C 
BRANCH  18  19
ATOM     19  C   UNL     1      57.956  34.938  73.856  1.00  0.00    -0.003 C 
ATOM     20  C   UNL     1      58.529  36.274  73.383  1.00  0.00     0.004 C 
ENDBRANCH  18  19
ENDBRANCH  17  18
ENDBRANCH  16  17
ENDBRANCH  15  16
ENDBRANCH  14  15
ENDBRANCH  13  14
ENDBRANCH   2  13
TORSDOF 15
ENDMDL
MODEL 3
REMARK VINA RESULT:    -4.581      2.330      6.839
REMARK INTER + INTRA:         -10.306
REMARK INTER:                  -8.228
REMARK INTRA:                  -2.078
REMARK UNBOUND:                -1.709
REMARK SMILES CCCCCCCCC=CCCCCCCCC(=O)[O-]
REMARK SMILES IDX 10 1 9 2 11 3 12 4 13 5 14 6 15 7 16 8 17 9 18 10 19 11
REMARK SMILES IDX 20 12 8 13 7 14 6 15 5 16 4 17 3 18 2 19 1 20
REMARK H PARENT
REMARK Flexibility Score: inf
ROOT
ATOM      1  C   UNL     1      57.620  34.269  77.469  1.00  0.00    -0.031 C 
ATOM      2  C   UNL     1      57.485  34.082  76.143  1.00  0.00    -0.031 C 
ENDROOT
BRANCH   1   3
ATOM      3  C   UNL     1      58.014  33.191  78.451  1.00  0.00     0.027 C 
BRANCH   3   4
ATOM      4  C   UNL     1      59.107  33.670  79.418  1.00  0.00     0.004 C 
BRANCH   4   5
ATOM      5  C   UNL     1      58.518  34.224  80.728  1.00  0.00     0.000 C 
BRANCH   5   6
ATOM      6  C   UNL     1      58.848  35.710  80.942  1.00  0.00     0.000 C 
BRANCH   6   7
ATOM      7  C   UNL     1      58.007  36.638  80.049  1.00  0.00     0.000 C 
BRANCH   7   8
ATOM      8  C   UNL     1      58.841  37.774  79.426  1.00  0.00     0.006 C 
BRANCH   8   9
ATOM      9  C   UNL     1      59.805  37.299  78.326  1.00  0.00     0.053 C 
BRANCH   9  10
ATOM     10  C   UNL     1      59.209  37.408  76.958  1.00  0.00     0.041 C 
ATOM     11  O   UNL     1      58.176  38.105  76.771  1.00  0.00    -0.550 OA
ATOM     12  O   UNL     1      59.785  36.729  75.890  1.00  0.00    -0.550 OA
ENDBRANCH   9  10
ENDBRANCH   8   9
ENDBRANCH   7   8
ENDBRANCH   6   7
ENDBRANCH   5   6
ENDBRANCH   4   5
ENDBRANCH   3   4
ENDBRANCH   1   3
BRANCH   2  13
ATOM     13  C   UNL     1      57.619  32.751  75.448  1.00  0.00     0.027 C 
BRANCH  13  14
ATOM     14  C   UNL     1      58.943  32.675  74.673  1.00  0.00     0.004 C 
BRANCH  14  15
ATOM     15  C   UNL     1      59.912  31.641  75.268  1.00  0.00     0.000 C 
BRANCH  15  16
ATOM     16  C   UNL     1      59.191  30.602  76.144  1.00  0.00     0.000 C 
BRANCH  16  17
ATOM     17  C   UNL     1      59.219  29.187  75.537  1.00  0.00    -0.000 C 
BRANCH  17  18
ATOM     18  C   UNL     1      57.869  28.442  75.548  1.00  0.00    -0.000 C 
BRANCH  18  19
ATOM     19  C   UNL     1      56.631  29.342  75.700  1.00  0.00    -0.003 C 
ATOM     20  C   UNL     1      55.912  29.596  74.375  1.00  0.00     0.004 C 
ENDBRANCH  18  19
ENDBRANCH  17  18
ENDBRANCH  16  17
ENDBRANCH  15  16
ENDBRANCH  14  15
ENDBRANCH  13  14
ENDBRANCH   2  13
TORSDOF 15
ENDMDL
MODEL 4
REMARK VINA RESULT:    -4.536      2.208      4.170
REMARK INTER + INTRA:         -10.222
REMARK INTER:                  -8.152
REMARK INTRA:                  -2.070
REMARK UNBOUND:                -1.709
REMARK SMILES CCCCCCCCC=CCCCCCCCC(=O)[O-]
REMARK SMILES IDX 10 1 9 2 11 3 12 4 13 5 14 6 15 7 16 8 17 9 18 10 19 11
REMARK SMILES IDX 20 12 8 13 7 14 6 15 5 16 4 17 3 18 2 19 1 20
REMARK H PARENT
REMARK Flexibility Score: inf
ROOT
ATOM      1  C   UNL     1      58.870  34.231  80.800  1.00  0.00    -0.031 C 
ATOM      2  C   UNL     1      59.046  35.539  81.069  1.00  0.00    -0.031 C 
ENDROOT
BRANCH   1   3
ATOM      3  C   UNL     1      57.837  33.683  79.844  1.00  0.00     0.027 C 
BRANCH   3   4
ATOM      4  C   UNL     1      58.400  33.523  78.424  1.00  0.00     0.004 C 
BRANCH   4   5
ATOM      5  C   UNL     1      58.083  32.139  77.829  1.00  0.00     0.000 C 
BRANCH   5   6
ATOM      6  C   UNL     1      59.143  31.674  76.818  1.00  0.00     0.000 C 
BRANCH   6   7
ATOM      7  C   UNL     1      59.060  32.433  75.483  1.00  0.00     0.000 C 
BRANCH   7   8
ATOM      8  C   UNL     1      58.551  31.545  74.329  1.00  0.00     0.006 C 
BRANCH   8   9
ATOM      9  C   UNL     1      57.025  31.358  74.323  1.00  0.00     0.053 C 
BRANCH   9  10
ATOM     10  C   UNL     1      56.623  29.944  74.600  1.00  0.00     0.041 C 
ATOM     11  O   UNL     1      57.469  29.117  75.033  1.00  0.00    -0.550 OA
ATOM     12  O   UNL     1      55.314  29.532  74.368  1.00  0.00    -0.550 OA
ENDBRANCH   9  10
ENDBRANCH   8   9
ENDBRANCH   7   8
ENDBRANCH   6   7
ENDBRANCH   5   6
ENDBRANCH   4   5
ENDBRANCH   3   4
ENDBRANCH   1   3
BRANCH   2  13
ATOM     13  C   UNL     1      58.182  36.648  80.525  1.00  0.00     0.027 C 
BRANCH  13  14
ATOM     14  C   UNL     1      58.804  37.247  79.255  1.00  0.00     0.004 C 
BRANCH  14  15
ATOM     15  C   UNL     1      57.761  37.930  78.357  1.00  0.00     0.000 C 
BRANCH  15  16
ATOM     16  C   UNL     1      56.492  37.076  78.183  1.00  0.00     0.000 C 
BRANCH  16  17
ATOM     17  C   UNL     1      56.611  36.057  77.035  1.00  0.00    -0.000 C 
BRANCH  17  18
ATOM     18  C   UNL     1      57.730  36.348  76.014  1.00  0.00    -0.000 C 
BRANCH  18  19
ATOM     19  C   UNL     1      57.376  36.021  74.552  1.00  0.00    -0.003 C 
ATOM     20  C   UNL     1      56.306  34.937  74.426  1.00  0.00     0.004 C 
ENDBRANCH  18  19
ENDBRANCH  17  18
ENDBRANCH  16  17
ENDBRANCH  15  16
ENDBRANCH  14  15
ENDBRANCH  13  14
ENDBRANCH   2  13
TORSDOF 15
ENDMDL
MODEL 5
REMARK VINA RESULT:    -4.511      2.525      7.179
REMARK INTER + INTRA:         -10.175
REMARK INTER:                  -7.925
REMARK INTRA:                  -2.250
REMARK UNBOUND:                -1.709
REMARK SMILES CCCCCCCCC=CCCCCCCCC(=O)[O-]
REMARK SMILES IDX 10 1 9 2 11 3 12 4 13 5 14 6 15 7 16 8 17 9 18 10 19 11
REMARK SMILES IDX 20 12 8 13 7 14 6 15 5 16 4 17 3 18 2 19 1 20
REMARK H PARENT
REMARK Flexibility Score: inf
ROOT
ATOM      1  C   UNL     1      56.550  38.158  75.206  1.00  0.00    -0.031 C 
ATOM      2  C   UNL     1      55.997  37.909  74.004  1.00  0.00    -0.031 C 
ENDROOT
BRANCH   1   3
ATOM      3  C   UNL     1      56.692  37.139  76.312  1.00  0.00     0.027 C 
BRANCH   3   4
ATOM      4  C   UNL     1      58.159  36.749  76.545  1.00  0.00     0.004 C 
BRANCH   4   5
ATOM      5  C   UNL     1      58.457  35.312  76.079  1.00  0.00     0.000 C 
BRANCH   5   6
ATOM      6  C   UNL     1      57.422  34.298  76.591  1.00  0.00     0.000 C 
BRANCH   6   7
ATOM      7  C   UNL     1      58.073  33.083  77.274  1.00  0.00     0.000 C 
BRANCH   7   8
ATOM      8  C   UNL     1      57.869  33.083  78.802  1.00  0.00     0.006 C 
BRANCH   8   9
ATOM      9  C   UNL     1      58.964  33.843  79.569  1.00  0.00     0.053 C 
BRANCH   9  10
ATOM     10  C   UNL     1      58.432  35.043  80.285  1.00  0.00     0.041 C 
ATOM     11  O   UNL     1      57.444  35.672  79.820  1.00  0.00    -0.550 OA
ATOM     12  O   UNL     1      59.034  35.478  81.461  1.00  0.00    -0.550 OA
ENDBRANCH   9  10
ENDBRANCH   8   9
ENDBRANCH   7   8
ENDBRANCH   6   7
ENDBRANCH   5   6
ENDBRANCH   4   5
ENDBRANCH   3   4
ENDBRANCH   1   3
BRANCH   2  13
ATOM     13  C   UNL     1      55.357  36.602  73.610  1.00  0.00     0.027 C 
BRANCH  13  14
ATOM     14  C   UNL     1      56.395  35.656  72.989  1.00  0.00     0.004 C 
BRANCH  14  15
ATOM     15  C   UNL     1      56.055  34.176  73.225  1.00  0.00     0.000 C 
BRANCH  15  16
ATOM     16  C   UNL     1      57.237  33.246  72.896  1.00  0.00     0.000 C 
BRANCH  16  17
ATOM     17  C   UNL     1      57.213  31.940  73.710  1.00  0.00    -0.000 C 
BRANCH  17  18
ATOM     18  C   UNL     1      55.972  31.052  73.489  1.00  0.00    -0.000 C 
BRANCH  18  19
ATOM     19  C   UNL     1      55.967  29.733  74.281  1.00  0.00    -0.003 C 
ATOM     20  C   UNL     1      56.911  29.755  75.482  1.00  0.00     0.004 C 
ENDBRANCH  18  19
ENDBRANCH  17  18
ENDBRANCH  16  17
ENDBRANCH  15  16
ENDBRANCH  14  15
ENDBRANCH  13  14
ENDBRANCH   2  13
TORSDOF 15
ENDMDL
MODEL 6
REMARK VINA RESULT:    -4.487      1.257      5.630
REMARK INTER + INTRA:         -10.131
REMARK INTER:                  -8.297
REMARK INTRA:                  -1.834
REMARK UNBOUND:                -1.709
REMARK SMILES CCCCCCCCC=CCCCCCCCC(=O)[O-]
REMARK SMILES IDX 10 1 9 2 11 3 12 4 13 5 14 6 15 7 16 8 17 9 18 10 19 11
REMARK SMILES IDX 20 12 8 13 7 14 6 15 5 16 4 17 3 18 2 19 1 20
REMARK H PARENT
REMARK Flexibility Score: inf
ROOT
ATOM      1  C   UNL     1      58.778  35.884  81.009  1.00  0.00    -0.031 C 
ATOM      2  C   UNL     1      58.894  34.551  80.859  1.00  0.00    -0.031 C 
ENDROOT
BRANCH   1   3
ATOM      3  C   UNL     1      58.744  36.876  79.871  1.00  0.00     0.027 C 
BRANCH   3   4
ATOM      4  C   UNL     1      57.309  37.292  79.516  1.00  0.00     0.004 C 
BRANCH   4   5
ATOM      5  C   UNL     1      57.114  37.465  78.000  1.00  0.00     0.000 C 
BRANCH   5   6
ATOM      6  C   UNL     1      56.072  36.496  77.422  1.00  0.00     0.000 C 
BRANCH   6   7
ATOM      7  C   UNL     1      56.168  36.367  75.892  1.00  0.00     0.000 C 
BRANCH   7   8
ATOM      8  C   UNL     1      57.604  36.073  75.413  1.00  0.00     0.006 C 
BRANCH   8   9
ATOM      9  C   UNL     1      57.677  35.021  74.293  1.00  0.00     0.053 C 
BRANCH   9  10
ATOM     10  C   UNL     1      56.625  35.225  73.250  1.00  0.00     0.041 C 
ATOM     11  O   UNL     1      55.658  34.424  73.160  1.00  0.00    -0.550 OA
ATOM     12  O   UNL     1      56.719  36.294  72.364  1.00  0.00    -0.550 OA
ENDBRANCH   9  10
ENDBRANCH   8   9
ENDBRANCH   7   8
ENDBRANCH   6   7
ENDBRANCH   5   6
ENDBRANCH   4   5
ENDBRANCH   3   4
ENDBRANCH   1   3
BRANCH   2  13
ATOM     13  C   UNL     1      59.097  33.854  79.538  1.00  0.00     0.027 C 
BRANCH  13  14
ATOM     14  C   UNL     1      57.751  33.412  78.945  1.00  0.00     0.004 C 
BRANCH  14  15
ATOM     15  C   UNL     1      57.856  33.052  77.455  1.00  0.00     0.000 C 
BRANCH  15  16
ATOM     16  C   UNL     1      58.451  31.650  77.234  1.00  0.00     0.000 C 
BRANCH  16  17
ATOM     17  C   UNL     1      58.142  31.084  75.836  1.00  0.00    -0.000 C 
BRANCH  17  18
ATOM     18  C   UNL     1      57.279  29.805  75.822  1.00  0.00    -0.000 C 
BRANCH  18  19
ATOM     19  C   UNL     1      56.244  29.732  74.686  1.00  0.00    -0.003 C 
ATOM     20  C   UNL     1      56.340  30.908  73.715  1.00  0.00     0.004 C 
ENDBRANCH  18  19
ENDBRANCH  17  18
ENDBRANCH  16  17
ENDBRANCH  15  16
ENDBRANCH  14  15
ENDBRANCH  13  14
ENDBRANCH   2  13
TORSDOF 15
ENDMDL
MODEL 7
REMARK VINA RESULT:    -4.486      1.639      6.416
REMARK INTER + INTRA:         -10.129
REMARK INTER:                  -7.766
REMARK INTRA:                  -2.364
REMARK UNBOUND:                -1.709
REMARK SMILES CCCCCCCCC=CCCCCCCCC(=O)[O-]
REMARK SMILES IDX 10 1 9 2 11 3 12 4 13 5 14 6 15 7 16 8 17 9 18 10 19 11
REMARK SMILES IDX 20 12 8 13 7 14 6 15 5 16 4 17 3 18 2 19 1 20
REMARK H PARENT
REMARK Flexibility Score: inf
ROOT
ATOM      1  C   UNL     1      57.697  33.857  80.164  1.00  0.00    -0.031 C 
ATOM      2  C   UNL     1      57.705  33.141  79.024  1.00  0.00    -0.031 C 
ENDROOT
BRANCH   1   3
ATOM      3  C   UNL     1      58.900  34.568  80.738  1.00  0.00     0.027 C 
BRANCH   3   4
ATOM      4  C   UNL     1      58.890  36.068  80.405  1.00  0.00     0.004 C 
BRANCH   4   5
ATOM      5  C   UNL     1      57.472  36.585  80.106  1.00  0.00     0.000 C 
BRANCH   5   6
ATOM      6  C   UNL     1      57.358  37.227  78.714  1.00  0.00     0.000 C 
BRANCH   6   7
ATOM      7  C   UNL     1      58.601  36.975  77.843  1.00  0.00     0.000 C 
BRANCH   7   8
ATOM      8  C   UNL     1      58.286  36.128  76.594  1.00  0.00     0.006 C 
BRANCH   8   9
ATOM      9  C   UNL     1      56.841  35.604  76.554  1.00  0.00     0.053 C 
BRANCH   9  10
ATOM     10  C   UNL     1      56.172  35.875  75.243  1.00  0.00     0.041 C 
ATOM     11  O   UNL     1      55.703  37.017  74.995  1.00  0.00    -0.550 OA
ATOM     12  O   UNL     1      56.055  34.861  74.298  1.00  0.00    -0.550 OA
ENDBRANCH   9  10
ENDBRANCH   8   9
ENDBRANCH   7   8
ENDBRANCH   6   7
ENDBRANCH   5   6
ENDBRANCH   4   5
ENDBRANCH   3   4
ENDBRANCH   1   3
BRANCH   2  13
ATOM     13  C   UNL     1      58.933  32.866  78.195  1.00  0.00     0.027 C 
BRANCH  13  14
ATOM     14  C   UNL     1      58.676  31.716  77.210  1.00  0.00     0.004 C 
BRANCH  14  15
ATOM     15  C   UNL     1      58.088  32.205  75.877  1.00  0.00     0.000 C 
BRANCH  15  16
ATOM     16  C   UNL     1      57.393  31.075  75.097  1.00  0.00     0.000 C 
BRANCH  16  17
ATOM     17  C   UNL     1      57.314  29.760  75.894  1.00  0.00    -0.000 C 
BRANCH  17  18
ATOM     18  C   UNL     1      58.047  28.562  75.256  1.00  0.00    -0.000 C 
BRANCH  18  19
ATOM     19  C   UNL     1      59.568  28.737  75.103  1.00  0.00    -0.003 C 
ATOM     20  C   UNL     1      60.334  28.440  76.391  1.00  0.00     0.004 C 
ENDBRANCH  18  19
ENDBRANCH  17  18
ENDBRANCH  16  17
ENDBRANCH  15  16
ENDBRANCH  14  15
ENDBRANCH  13  14
ENDBRANCH   2  13
TORSDOF 15
ENDMDL
MODEL 8
REMARK VINA RESULT:    -4.472      2.510      6.144
REMARK INTER + INTRA:         -10.102
REMARK INTER:                  -7.660
REMARK INTRA:                  -2.442
REMARK UNBOUND:                -1.709
REMARK SMILES CCCCCCCCC=CCCCCCCCC(=O)[O-]
REMARK SMILES IDX 10 1 9 2 11 3 12 4 13 5 14 6 15 7 16 8 17 9 18 10 19 11
REMARK SMILES IDX 20 12 8 13 7 14 6 15 5 16 4 17 3 18 2 19 1 20
REMARK H PARENT
REMARK Flexibility Score: inf
ROOT
ATOM      1  C   UNL     1      58.243  36.861  80.495  1.00  0.00    -0.031 C 
ATOM      2  C   UNL     1      58.771  35.625  80.578  1.00  0.00    -0.031 C 
ENDROOT
BRANCH   1   3
ATOM      3  C   UNL     1      56.806  37.158  80.136  1.00  0.00     0.027 C 
BRANCH   3   4
ATOM      4  C   UNL     1      56.668  37.647  78.687  1.00  0.00     0.004 C 
BRANCH   4   5
ATOM      5  C   UNL     1      56.393  36.491  77.710  1.00  0.00     0.000 C 
BRANCH   5   6
ATOM      6  C   UNL     1      57.264  36.564  76.446  1.00  0.00     0.000 C 
BRANCH   6   7
ATOM      7  C   UNL     1      58.723  36.151  76.708  1.00  0.00     0.000 C 
BRANCH   7   8
ATOM      8  C   UNL     1      59.732  37.226  76.257  1.00  0.00     0.006 C 
BRANCH   8   9
ATOM      9  C   UNL     1      59.886  38.384  77.257  1.00  0.00     0.053 C 
BRANCH   9  10
ATOM     10  C   UNL     1      59.226  39.639  76.783  1.00  0.00     0.041 C 
ATOM     11  O   UNL     1      59.203  39.918  75.554  1.00  0.00    -0.550 OA
ATOM     12  O   UNL     1      58.645  40.511  77.698  1.00  0.00    -0.550 OA
ENDBRANCH   9  10
ENDBRANCH   8   9
ENDBRANCH   7   8
ENDBRANCH   6   7
ENDBRANCH   5   6
ENDBRANCH   4   5
ENDBRANCH   3   4
ENDBRANCH   1   3
BRANCH   2  13
ATOM     13  C   UNL     1      58.032  34.355  80.240  1.00  0.00     0.027 C 
BRANCH  13  14
ATOM     14  C   UNL     1      58.833  33.514  79.235  1.00  0.00     0.004 C 
BRANCH  14  15
ATOM     15  C   UNL     1      57.949  32.935  78.119  1.00  0.00     0.000 C 
BRANCH  15  16
ATOM     16  C   UNL     1      58.696  31.897  77.263  1.00  0.00     0.000 C 
BRANCH  16  17
ATOM     17  C   UNL     1      58.853  32.335  75.795  1.00  0.00    -0.000 C 
BRANCH  17  18
ATOM     18  C   UNL     1      57.576  32.897  75.139  1.00  0.00    -0.000 C 
BRANCH  18  19
ATOM     19  C   UNL     1      57.466  32.659  73.623  1.00  0.00    -0.003 C 
ATOM     20  C   UNL     1      56.387  31.640  73.256  1.00  0.00     0.004 C 
ENDBRANCH  18  19
ENDBRANCH  17  18
ENDBRANCH  16  17
ENDBRANCH  15  16
ENDBRANCH  14  15
ENDBRANCH  13  14
ENDBRANCH   2  13
TORSDOF 15
ENDMDL
MODEL 9
REMARK VINA RESULT:    -4.433      2.651      3.857
REMARK INTER + INTRA:         -10.030
REMARK INTER:                  -8.011
REMARK INTRA:                  -2.019
REMARK UNBOUND:                -1.709
REMARK SMILES CCCCCCCCC=CCCCCCCCC(=O)[O-]
REMARK SMILES IDX 10 1 9 2 11 3 12 4 13 5 14 6 15 7 16 8 17 9 18 10 19 11
REMARK SMILES IDX 20 12 8 13 7 14 6 15 5 16 4 17 3 18 2 19 1 20
REMARK H PARENT
REMARK Flexibility Score: inf
ROOT
ATOM      1  C   UNL     1      57.639  33.279  77.330  1.00  0.00    -0.031 C 
ATOM      2  C   UNL     1      58.007  33.101  78.613  1.00  0.00    -0.031 C 
ENDROOT
BRANCH   1   3
ATOM      3  C   UNL     1      58.353  34.178  76.350  1.00  0.00     0.027 C 
BRANCH   3   4
ATOM      4  C   UNL     1      57.923  33.902  74.901  1.00  0.00     0.004 C 
BRANCH   4   5
ATOM      5  C   UNL     1      58.164  32.437  74.496  1.00  0.00     0.000 C 
BRANCH   5   6
ATOM      6  C   UNL     1      57.022  31.865  73.641  1.00  0.00     0.000 C 
BRANCH   6   7
ATOM      7  C   UNL     1      56.464  30.547  74.205  1.00  0.00     0.000 C 
BRANCH   7   8
ATOM      8  C   UNL     1      57.181  30.107  75.498  1.00  0.00     0.006 C 
BRANCH   8   9
ATOM      9  C   UNL     1      57.706  28.662  75.449  1.00  0.00     0.053 C 
BRANCH   9  10
ATOM     10  C   UNL     1      59.190  28.588  75.623  1.00  0.00     0.041 C 
ATOM     11  O   UNL     1      59.706  27.634  76.262  1.00  0.00    -0.550 OA
ATOM     12  O   UNL     1      60.005  29.582  75.090  1.00  0.00    -0.550 OA
ENDBRANCH   9  10
ENDBRANCH   8   9
ENDBRANCH   7   8
ENDBRANCH   6   7
ENDBRANCH   5   6
ENDBRANCH   4   5
ENDBRANCH   3   4
ENDBRANCH   1   3
BRANCH   2  13
ATOM     13  C   UNL     1      59.135  33.839  79.290  1.00  0.00     0.027 C 
BRANCH  13  14
ATOM     14  C   UNL     1      58.685  34.381  80.654  1.00  0.00     0.004 C 
BRANCH  14  15
ATOM     15  C   UNL     1      58.733  35.916  80.720  1.00  0.00     0.000 C 
BRANCH  15  16
ATOM     16  C   UNL     1      57.421  36.561  80.240  1.00  0.00     0.000 C 
BRANCH  16  17
ATOM     17  C   UNL     1      57.577  37.308  78.904  1.00  0.00    -0.000 C 
BRANCH  17  18
ATOM     18  C   UNL     1      56.545  36.935  77.819  1.00  0.00    -0.000 C 
BRANCH  18  19
ATOM     19  C   UNL     1      56.883  37.431  76.402  1.00  0.00    -0.003 C 
ATOM     20  C   UNL     1      55.857  36.993  75.358  1.00  0.00     0.004 C 
ENDBRANCH  18  19
ENDBRANCH  17  18
ENDBRANCH  16  17
ENDBRANCH  15  16
ENDBRANCH  14  15
ENDBRANCH  13  14
ENDBRANCH   2  13
TORSDOF 15
ENDMDL
