MODEL 1
REMARK VINA RESULT:    -3.214      0.000      0.000
REMARK INTER + INTRA:          -4.185
REMARK INTER:                  -3.966
REMARK INTRA:                  -0.220
REMARK UNBOUND:                -0.220
REMARK SMILES C=CC[C@@H](C)C(=O)CC
REMARK SMILES IDX 4 1 5 2 6 3 7 4 8 5 9 6 3 7 2 8 1 9
REMARK H PARENT
REMARK Flexibility Score: inf
ROOT
ATOM      1  C   UNL     1     207.145 159.584 177.570  1.00  0.00     0.057 C 
ATOM      2  C   UNL     1     208.636 159.772 177.870  1.00  0.00     0.016 C 
ENDROOT
BRANCH   1   3
ATOM      3  C   UNL     1     206.470 160.934 177.437  1.00  0.00     0.135 C 
ATOM      4  O   UNL     1     206.927 161.902 178.028  1.00  0.00    -0.299 OA
BRANCH   3   5
ATOM      5  C   UNL     1     205.227 161.105 176.601  1.00  0.00     0.072 C 
ATOM      6  C   UNL     1     205.470 162.088 175.459  1.00  0.00     0.012 C 
ENDBRANCH   3   5
ENDBRANCH   1   3
BRANCH   1   7
ATOM      7  C   UNL     1     206.954 158.735 176.295  1.00  0.00     0.038 C 
BRANCH   7   8
ATOM      8  C   UNL     1     208.046 157.711 176.126  1.00  0.00    -0.034 C 
ATOM      9  C   UNL     1     207.884 156.440 176.501  1.00  0.00     0.004 C 
ENDBRANCH   7   8
ENDBRANCH   1   7
TORSDOF 4
ENDMDL
MODEL 2
REMARK VINA RESULT:    -3.021     18.592     19.654
REMARK INTER + INTRA:          -3.947
REMARK INTER:                  -3.747
REMARK INTRA:                  -0.199
REMARK UNBOUND:                -0.220
REMARK SMILES C=CC[C@@H](C)C(=O)CC
REMARK SMILES IDX 4 1 5 2 6 3 7 4 8 5 9 6 3 7 2 8 1 9
REMARK H PARENT
REMARK Flexibility Score: inf
ROOT
ATOM      1  C   UNL     1     198.528 149.903 162.257  1.00  0.00     0.057 C 
ATOM      2  C   UNL     1     199.133 151.298 162.070  1.00  0.00     0.016 C 
ENDROOT
BRANCH   1   3
ATOM      3  C   UNL     1     198.391 149.592 163.734  1.00  0.00     0.135 C 
ATOM      4  O   UNL     1     197.692 148.655 164.095  1.00  0.00    -0.299 OA
BRANCH   3   5
ATOM      5  C   UNL     1     199.089 150.430 164.774  1.00  0.00     0.072 C 
ATOM      6  C   UNL     1     200.247 149.663 165.405  1.00  0.00     0.012 C 
ENDBRANCH   3   5
ENDBRANCH   1   3
BRANCH   1   7
ATOM      7  C   UNL     1     197.166 149.806 161.537  1.00  0.00     0.038 C 
BRANCH   7   8
ATOM      8  C   UNL     1     197.073 150.751 160.368  1.00  0.00    -0.034 C 
ATOM      9  C   UNL     1     195.921 151.330 160.019  1.00  0.00     0.004 C 
ENDBRANCH   7   8
ENDBRANCH   1   7
TORSDOF 4
ENDMDL
MODEL 3
REMARK VINA RESULT:    -2.991     17.344     18.119
REMARK INTER + INTRA:          -3.910
REMARK INTER:                  -3.394
REMARK INTRA:                  -0.516
REMARK UNBOUND:                -0.220
REMARK SMILES C=CC[C@@H](C)C(=O)CC
REMARK SMILES IDX 4 1 5 2 6 3 7 4 8 5 9 6 3 7 2 8 1 9
REMARK H PARENT
REMARK Flexibility Score: inf
ROOT
ATOM      1  C   UNL     1     212.576 161.393 159.117  1.00  0.00     0.057 C 
ATOM      2  C   UNL     1     212.705 159.885 158.875  1.00  0.00     0.016 C 
ENDROOT
BRANCH   1   3
ATOM      3  C   UNL     1     212.063 161.650 160.520  1.00  0.00     0.135 C 
ATOM      4  O   UNL     1     211.657 162.763 160.823  1.00  0.00    -0.299 OA
BRANCH   3   5
ATOM      5  C   UNL     1     212.061 160.559 161.560  1.00  0.00     0.072 C 
ATOM      6  C   UNL     1     213.159 160.791 162.594  1.00  0.00     0.012 C 
ENDBRANCH   3   5
ENDBRANCH   1   3
BRANCH   1   7
ATOM      7  C   UNL     1     213.930 162.095 158.879  1.00  0.00     0.038 C 
BRANCH   7   8
ATOM      8  C   UNL     1     215.094 161.247 159.322  1.00  0.00    -0.034 C 
ATOM      9  C   UNL     1     216.004 161.699 160.189  1.00  0.00     0.004 C 
ENDBRANCH   7   8
ENDBRANCH   1   7
TORSDOF 4
ENDMDL
MODEL 4
REMARK VINA RESULT:    -2.946     14.443     16.373
REMARK INTER + INTRA:          -3.855
REMARK INTER:                  -3.664
REMARK INTRA:                  -0.191
REMARK UNBOUND:                -0.220
REMARK SMILES C=CC[C@@H](C)C(=O)CC
REMARK SMILES IDX 4 1 5 2 6 3 7 4 8 5 9 6 3 7 2 8 1 9
REMARK H PARENT
REMARK Flexibility Score: inf
ROOT
ATOM      1  C   UNL     1     201.758 145.600 169.266  1.00  0.00     0.057 C 
ATOM      2  C   UNL     1     200.393 145.696 169.955  1.00  0.00     0.016 C 
ENDROOT
BRANCH   1   3
ATOM      3  C   UNL     1     202.148 146.950 168.698  1.00  0.00     0.135 C 
ATOM      4  O   UNL     1     203.072 147.030 167.901  1.00  0.00    -0.299 OA
BRANCH   3   5
ATOM      5  C   UNL     1     201.426 148.207 169.112  1.00  0.00     0.072 C 
ATOM      6  C   UNL     1     202.416 149.314 169.460  1.00  0.00     0.012 C 
ENDBRANCH   3   5
ENDBRANCH   1   3
BRANCH   1   7
ATOM      7  C   UNL     1     202.825 145.081 170.254  1.00  0.00     0.038 C 
BRANCH   7   8
ATOM      8  C   UNL     1     202.215 144.295 171.385  1.00  0.00    -0.034 C 
ATOM      9  C   UNL     1     202.246 142.960 171.413  1.00  0.00     0.004 C 
ENDBRANCH   7   8
ENDBRANCH   1   7
TORSDOF 4
ENDMDL
MODEL 5
REMARK VINA RESULT:    -2.936     14.623     16.762
REMARK INTER + INTRA:          -3.842
REMARK INTER:                  -3.535
REMARK INTRA:                  -0.307
REMARK UNBOUND:                -0.220
REMARK SMILES C=CC[C@@H](C)C(=O)CC
REMARK SMILES IDX 4 1 5 2 6 3 7 4 8 5 9 6 3 7 2 8 1 9
REMARK H PARENT
REMARK Flexibility Score: inf
ROOT
ATOM      1  C   UNL     1     214.702 145.325 171.811  1.00  0.00     0.057 C 
ATOM      2  C   UNL     1     216.124 145.294 172.383  1.00  0.00     0.016 C 
ENDROOT
BRANCH   1   3
ATOM      3  C   UNL     1     213.925 146.476 172.418  1.00  0.00     0.135 C 
ATOM      4  O   UNL     1     213.900 146.617 173.633  1.00  0.00    -0.299 OA
BRANCH   3   5
ATOM      5  C   UNL     1     213.164 147.445 171.551  1.00  0.00     0.072 C 
ATOM      6  C   UNL     1     211.659 147.262 171.721  1.00  0.00     0.012 C 
ENDBRANCH   3   5
ENDBRANCH   1   3
BRANCH   1   7
ATOM      7  C   UNL     1     214.743 145.428 170.272  1.00  0.00     0.038 C 
BRANCH   7   8
ATOM      8  C   UNL     1     214.019 144.286 169.607  1.00  0.00    -0.034 C 
ATOM      9  C   UNL     1     214.422 143.020 169.746  1.00  0.00     0.004 C 
ENDBRANCH   7   8
ENDBRANCH   1   7
TORSDOF 4
ENDMDL
MODEL 6
REMARK VINA RESULT:    -2.933     14.671     16.884
REMARK INTER + INTRA:          -3.838
REMARK INTER:                  -3.639
REMARK INTRA:                  -0.199
REMARK UNBOUND:                -0.220
REMARK SMILES C=CC[C@@H](C)C(=O)CC
REMARK SMILES IDX 4 1 5 2 6 3 7 4 8 5 9 6 3 7 2 8 1 9
REMARK H PARENT
REMARK Flexibility Score: inf
ROOT
ATOM      1  C   UNL     1     201.794 145.947 169.134  1.00  0.00     0.057 C 
ATOM      2  C   UNL     1     203.311 146.064 169.318  1.00  0.00     0.016 C 
ENDROOT
BRANCH   1   3
ATOM      3  C   UNL     1     201.235 144.913 170.091  1.00  0.00     0.135 C 
ATOM      4  O   UNL     1     200.096 144.496 169.936  1.00  0.00    -0.299 OA
BRANCH   3   5
ATOM      5  C   UNL     1     202.053 144.400 171.248  1.00  0.00     0.072 C 
ATOM      6  C   UNL     1     202.066 142.875 171.273  1.00  0.00     0.012 C 
ENDBRANCH   3   5
ENDBRANCH   1   3
BRANCH   1   7
ATOM      7  C   UNL     1     201.119 147.321 169.338  1.00  0.00     0.038 C 
BRANCH   7   8
ATOM      8  C   UNL     1     201.938 148.447 168.764  1.00  0.00    -0.034 C 
ATOM      9  C   UNL     1     202.046 149.626 169.382  1.00  0.00     0.004 C 
ENDBRANCH   7   8
ENDBRANCH   1   7
TORSDOF 4
ENDMDL
MODEL 7
REMARK VINA RESULT:    -2.886     18.309     19.266
REMARK INTER + INTRA:          -3.781
REMARK INTER:                  -3.596
REMARK INTRA:                  -0.185
REMARK UNBOUND:                -0.220
REMARK SMILES C=CC[C@@H](C)C(=O)CC
REMARK SMILES IDX 4 1 5 2 6 3 7 4 8 5 9 6 3 7 2 8 1 9
REMARK H PARENT
REMARK Flexibility Score: inf
ROOT
ATOM      1  C   UNL     1     198.752 149.678 162.974  1.00  0.00     0.057 C 
ATOM      2  C   UNL     1     198.197 148.873 164.155  1.00  0.00     0.016 C 
ENDROOT
BRANCH   1   3
ATOM      3  C   UNL     1     197.678 149.852 161.918  1.00  0.00     0.135 C 
ATOM      4  O   UNL     1     196.620 149.248 162.023  1.00  0.00    -0.299 OA
BRANCH   3   5
ATOM      5  C   UNL     1     197.899 150.745 160.724  1.00  0.00     0.072 C 
ATOM      6  C   UNL     1     196.572 151.112 160.066  1.00  0.00     0.012 C 
ENDBRANCH   3   5
ENDBRANCH   1   3
BRANCH   1   7
ATOM      7  C   UNL     1     199.288 151.042 163.456  1.00  0.00     0.038 C 
BRANCH   7   8
ATOM      8  C   UNL     1     199.337 151.133 164.959  1.00  0.00    -0.034 C 
ATOM      9  C   UNL     1     199.714 152.251 165.585  1.00  0.00     0.004 C 
ENDBRANCH   7   8
ENDBRANCH   1   7
TORSDOF 4
ENDMDL
MODEL 8
REMARK VINA RESULT:    -2.866     16.837     17.594
REMARK INTER + INTRA:          -3.756
REMARK INTER:                  -3.421
REMARK INTRA:                  -0.334
REMARK UNBOUND:                -0.220
REMARK SMILES C=CC[C@@H](C)C(=O)CC
REMARK SMILES IDX 4 1 5 2 6 3 7 4 8 5 9 6 3 7 2 8 1 9
REMARK H PARENT
REMARK Flexibility Score: inf
ROOT
ATOM      1  C   UNL     1     212.172 161.375 160.861  1.00  0.00     0.057 C 
ATOM      2  C   UNL     1     211.622 162.801 160.748  1.00  0.00     0.016 C 
ENDROOT
BRANCH   1   3
ATOM      3  C   UNL     1     212.954 161.022 159.611  1.00  0.00     0.135 C 
ATOM      4  O   UNL     1     212.949 159.872 159.197  1.00  0.00    -0.299 OA
BRANCH   3   5
ATOM      5  C   UNL     1     213.758 162.063 158.875  1.00  0.00     0.072 C 
ATOM      6  C   UNL     1     215.251 161.769 158.974  1.00  0.00     0.012 C 
ENDBRANCH   3   5
ENDBRANCH   1   3
BRANCH   1   7
ATOM      7  C   UNL     1     213.046 161.233 162.125  1.00  0.00     0.038 C 
BRANCH   7   8
ATOM      8  C   UNL     1     212.601 160.087 162.996  1.00  0.00    -0.034 C 
ATOM      9  C   UNL     1     211.589 159.288 162.647  1.00  0.00     0.004 C 
ENDBRANCH   7   8
ENDBRANCH   1   7
TORSDOF 4
ENDMDL
MODEL 9
REMARK VINA RESULT:    -2.833     17.672     18.371
REMARK INTER + INTRA:          -3.716
REMARK INTER:                  -3.245
REMARK INTRA:                  -0.470
REMARK UNBOUND:                -0.220
REMARK SMILES C=CC[C@@H](C)C(=O)CC
REMARK SMILES IDX 4 1 5 2 6 3 7 4 8 5 9 6 3 7 2 8 1 9
REMARK H PARENT
REMARK Flexibility Score: inf
ROOT
ATOM      1  C   UNL     1     214.436 160.869 159.675  1.00  0.00     0.057 C 
ATOM      2  C   UNL     1     215.329 161.855 158.913  1.00  0.00     0.016 C 
ENDROOT
BRANCH   1   3
ATOM      3  C   UNL     1     213.052 161.460 159.859  1.00  0.00     0.135 C 
ATOM      4  O   UNL     1     212.432 161.865 158.887  1.00  0.00    -0.299 OA
BRANCH   3   5
ATOM      5  C   UNL     1     212.430 161.575 161.227  1.00  0.00     0.072 C 
ATOM      6  C   UNL     1     213.341 160.974 162.293  1.00  0.00     0.012 C 
ENDBRANCH   3   5
ENDBRANCH   1   3
BRANCH   1   7
ATOM      7  C   UNL     1     214.373 159.516 158.935  1.00  0.00     0.038 C 
BRANCH   7   8
ATOM      8  C   UNL     1     214.731 158.361 159.833  1.00  0.00    -0.034 C 
ATOM      9  C   UNL     1     215.669 158.467 160.778  1.00  0.00     0.004 C 
ENDBRANCH   7   8
ENDBRANCH   1   7
TORSDOF 4
ENDMDL
