MODEL 1
REMARK VINA RESULT:    -4.026      0.000      0.000
REMARK INTER + INTRA:          -9.972
REMARK INTER:                  -7.556
REMARK INTRA:                  -2.416
REMARK UNBOUND:                -2.416
REMARK SMILES CCCCCCCCC=CCCCCCCCC(=O)[O-]
REMARK SMILES IDX 10 1 9 2 11 3 12 4 13 5 14 6 15 7 16 8 17 9 18 10 19 11
REMARK SMILES IDX 20 12 8 13 7 14 6 15 5 16 4 17 3 18 2 19 1 20
REMARK H PARENT
REMARK Flexibility Score: inf
ROOT
ATOM      1  C   UNL     1      44.423  38.592  47.766  1.00  0.00    -0.031 C 
ATOM      2  C   UNL     1      43.562  39.621  47.740  1.00  0.00    -0.031 C 
ENDROOT
BRANCH   1   3
ATOM      3  C   UNL     1      43.974  37.199  48.114  1.00  0.00     0.027 C 
BRANCH   3   4
ATOM      4  C   UNL     1      44.906  36.559  49.152  1.00  0.00     0.004 C 
BRANCH   4   5
ATOM      5  C   UNL     1      46.269  36.171  48.558  1.00  0.00     0.000 C 
BRANCH   5   6
ATOM      6  C   UNL     1      46.344  34.684  48.169  1.00  0.00     0.000 C 
BRANCH   6   7
ATOM      7  C   UNL     1      46.868  34.464  46.739  1.00  0.00     0.000 C 
BRANCH   7   8
ATOM      8  C   UNL     1      46.274  35.409  45.678  1.00  0.00     0.006 C 
BRANCH   8   9
ATOM      9  C   UNL     1      47.187  35.585  44.457  1.00  0.00     0.053 C 
BRANCH   9  10
ATOM     10  C   UNL     1      47.775  36.960  44.437  1.00  0.00     0.041 C 
ATOM     11  O   UNL     1      48.306  37.440  45.474  1.00  0.00    -0.550 OA
ATOM     12  O   UNL     1      47.776  37.697  43.259  1.00  0.00    -0.550 OA
ENDBRANCH   9  10
ENDBRANCH   8   9
ENDBRANCH   7   8
ENDBRANCH   6   7
ENDBRANCH   5   6
ENDBRANCH   4   5
ENDBRANCH   3   4
ENDBRANCH   1   3
BRANCH   2  13
ATOM     13  C   UNL     1      44.001  41.004  47.346  1.00  0.00     0.027 C 
BRANCH  13  14
ATOM     14  C   UNL     1      43.953  41.963  48.545  1.00  0.00     0.004 C 
BRANCH  14  15
ATOM     15  C   UNL     1      45.350  42.444  48.970  1.00  0.00     0.000 C 
BRANCH  15  16
ATOM     16  C   UNL     1      45.749  41.931  50.365  1.00  0.00     0.000 C 
BRANCH  16  17
ATOM     17  C   UNL     1      46.221  40.467  50.344  1.00  0.00    -0.000 C 
BRANCH  17  18
ATOM     18  C   UNL     1      45.379  39.567  51.265  1.00  0.00    -0.000 C 
BRANCH  18  19
ATOM     19  C   UNL     1      43.969  40.126  51.508  1.00  0.00    -0.003 C 
ATOM     20  C   UNL     1      42.875  39.073  51.338  1.00  0.00     0.004 C 
ENDBRANCH  18  19
ENDBRANCH  17  18
ENDBRANCH  16  17
ENDBRANCH  15  16
ENDBRANCH  14  15
ENDBRANCH  13  14
ENDBRANCH   2  13
TORSDOF 15
ENDMDL
MODEL 2
REMARK VINA RESULT:    -3.942      2.822      7.016
REMARK INTER + INTRA:          -9.814
REMARK INTER:                  -7.685
REMARK INTRA:                  -2.129
REMARK UNBOUND:                -2.416
REMARK SMILES CCCCCCCCC=CCCCCCCCC(=O)[O-]
REMARK SMILES IDX 10 1 9 2 11 3 12 4 13 5 14 6 15 7 16 8 17 9 18 10 19 11
REMARK SMILES IDX 20 12 8 13 7 14 6 15 5 16 4 17 3 18 2 19 1 20
REMARK H PARENT
REMARK Flexibility Score: inf
ROOT
ATOM      1  C   UNL     1      46.345  36.929  46.607  1.00  0.00    -0.031 C 
ATOM      2  C   UNL     1      46.311  35.592  46.715  1.00  0.00    -0.031 C 
ENDROOT
BRANCH   1   3
ATOM      3  C   UNL     1      45.642  37.817  47.597  1.00  0.00     0.027 C 
BRANCH   3   4
ATOM      4  C   UNL     1      44.384  37.137  48.155  1.00  0.00     0.004 C 
BRANCH   4   5
ATOM      5  C   UNL     1      43.138  38.031  48.053  1.00  0.00     0.000 C 
BRANCH   5   6
ATOM      6  C   UNL     1      43.484  39.493  47.723  1.00  0.00     0.000 C 
BRANCH   6   7
ATOM      7  C   UNL     1      42.972  40.484  48.784  1.00  0.00     0.000 C 
BRANCH   7   8
ATOM      8  C   UNL     1      44.031  40.950  49.801  1.00  0.00     0.006 C 
BRANCH   8   9
ATOM      9  C   UNL     1      45.387  41.257  49.152  1.00  0.00     0.053 C 
BRANCH   9  10
ATOM     10  C   UNL     1      45.530  42.726  48.909  1.00  0.00     0.041 C 
ATOM     11  O   UNL     1      44.681  43.533  49.373  1.00  0.00    -0.550 OA
ATOM     12  O   UNL     1      46.624  43.209  48.203  1.00  0.00    -0.550 OA
ENDBRANCH   9  10
ENDBRANCH   8   9
ENDBRANCH   7   8
ENDBRANCH   6   7
ENDBRANCH   5   6
ENDBRANCH   4   5
ENDBRANCH   3   4
ENDBRANCH   1   3
BRANCH   2  13
ATOM     13  C   UNL     1      47.054  34.706  45.754  1.00  0.00     0.027 C 
BRANCH  13  14
ATOM     14  C   UNL     1      47.194  35.374  44.378  1.00  0.00     0.004 C 
BRANCH  14  15
ATOM     15  C   UNL     1      48.654  35.442  43.903  1.00  0.00     0.000 C 
BRANCH  15  16
ATOM     16  C   UNL     1      48.959  36.729  43.117  1.00  0.00     0.000 C 
BRANCH  16  17
ATOM     17  C   UNL     1      48.743  37.999  43.957  1.00  0.00    -0.000 C 
BRANCH  17  18
ATOM     18  C   UNL     1      49.970  38.350  44.816  1.00  0.00    -0.000 C 
BRANCH  18  19
ATOM     19  C   UNL     1      49.699  38.200  46.320  1.00  0.00    -0.003 C 
ATOM     20  C   UNL     1      50.074  36.819  46.857  1.00  0.00     0.004 C 
ENDBRANCH  18  19
ENDBRANCH  17  18
ENDBRANCH  16  17
ENDBRANCH  15  16
ENDBRANCH  14  15
ENDBRANCH  13  14
ENDBRANCH   2  13
TORSDOF 15
ENDMDL
MODEL 3
REMARK VINA RESULT:    -3.929      1.846      2.134
REMARK INTER + INTRA:          -9.790
REMARK INTER:                  -7.405
REMARK INTRA:                  -2.384
REMARK UNBOUND:                -2.416
REMARK SMILES CCCCCCCCC=CCCCCCCCC(=O)[O-]
REMARK SMILES IDX 10 1 9 2 11 3 12 4 13 5 14 6 15 7 16 8 17 9 18 10 19 11
REMARK SMILES IDX 20 12 8 13 7 14 6 15 5 16 4 17 3 18 2 19 1 20
REMARK H PARENT
REMARK Flexibility Score: inf
ROOT
ATOM      1  C   UNL     1      44.408  38.647  47.709  1.00  0.00    -0.031 C 
ATOM      2  C   UNL     1      43.456  39.592  47.704  1.00  0.00    -0.031 C 
ENDROOT
BRANCH   1   3
ATOM      3  C   UNL     1      44.099  37.221  48.074  1.00  0.00     0.027 C 
BRANCH   3   4
ATOM      4  C   UNL     1      45.299  36.552  48.761  1.00  0.00     0.004 C 
BRANCH   4   5
ATOM      5  C   UNL     1      46.092  35.646  47.806  1.00  0.00     0.000 C 
BRANCH   5   6
ATOM      6  C   UNL     1      47.277  36.374  47.147  1.00  0.00     0.000 C 
BRANCH   6   7
ATOM      7  C   UNL     1      47.102  36.552  45.628  1.00  0.00     0.000 C 
BRANCH   7   8
ATOM      8  C   UNL     1      46.650  35.286  44.875  1.00  0.00     0.006 C 
BRANCH   8   9
ATOM      9  C   UNL     1      47.826  34.416  44.413  1.00  0.00     0.053 C 
BRANCH   9  10
ATOM     10  C   UNL     1      47.904  33.165  45.228  1.00  0.00     0.041 C 
ATOM     11  O   UNL     1      46.905  32.772  45.888  1.00  0.00    -0.550 OA
ATOM     12  O   UNL     1      49.068  32.407  45.227  1.00  0.00    -0.550 OA
ENDBRANCH   9  10
ENDBRANCH   8   9
ENDBRANCH   7   8
ENDBRANCH   6   7
ENDBRANCH   5   6
ENDBRANCH   4   5
ENDBRANCH   3   4
ENDBRANCH   1   3
BRANCH   2  13
ATOM     13  C   UNL     1      43.754  41.008  47.293  1.00  0.00     0.027 C 
BRANCH  13  14
ATOM     14  C   UNL     1      44.073  41.884  48.513  1.00  0.00     0.004 C 
BRANCH  14  15
ATOM     15  C   UNL     1      45.560  42.266  48.590  1.00  0.00     0.000 C 
BRANCH  15  16
ATOM     16  C   UNL     1      46.181  41.941  49.960  1.00  0.00     0.000 C 
BRANCH  16  17
ATOM     17  C   UNL     1      46.952  40.610  49.959  1.00  0.00    -0.000 C 
BRANCH  17  18
ATOM     18  C   UNL     1      46.221  39.508  50.747  1.00  0.00    -0.000 C 
BRANCH  18  19
ATOM     19  C   UNL     1      45.061  40.058  51.590  1.00  0.00    -0.003 C 
ATOM     20  C   UNL     1      43.759  39.283  51.388  1.00  0.00     0.004 C 
ENDBRANCH  18  19
ENDBRANCH  17  18
ENDBRANCH  16  17
ENDBRANCH  15  16
ENDBRANCH  14  15
ENDBRANCH  13  14
ENDBRANCH   2  13
TORSDOF 15
ENDMDL
MODEL 4
REMARK VINA RESULT:    -3.915      2.999      6.839
REMARK INTER + INTRA:          -9.764
REMARK INTER:                  -7.642
REMARK INTRA:                  -2.123
REMARK UNBOUND:                -2.416
REMARK SMILES CCCCCCCCC=CCCCCCCCC(=O)[O-]
REMARK SMILES IDX 10 1 9 2 11 3 12 4 13 5 14 6 15 7 16 8 17 9 18 10 19 11
REMARK SMILES IDX 20 12 8 13 7 14 6 15 5 16 4 17 3 18 2 19 1 20
REMARK H PARENT
REMARK Flexibility Score: inf
ROOT
ATOM      1  C   UNL     1      48.287  37.452  47.768  1.00  0.00    -0.031 C 
ATOM      2  C   UNL     1      49.318  38.307  47.696  1.00  0.00    -0.031 C 
ENDROOT
BRANCH   1   3
ATOM      3  C   UNL     1      47.020  37.805  48.497  1.00  0.00     0.027 C 
BRANCH   3   4
ATOM      4  C   UNL     1      45.823  37.856  47.537  1.00  0.00     0.004 C 
BRANCH   4   5
ATOM      5  C   UNL     1      44.510  37.427  48.211  1.00  0.00     0.000 C 
BRANCH   5   6
ATOM      6  C   UNL     1      43.402  38.486  48.076  1.00  0.00     0.000 C 
BRANCH   6   7
ATOM      7  C   UNL     1      43.880  39.767  47.369  1.00  0.00     0.000 C 
BRANCH   7   8
ATOM      8  C   UNL     1      43.732  41.058  48.197  1.00  0.00     0.006 C 
BRANCH   8   9
ATOM      9  C   UNL     1      44.961  41.354  49.065  1.00  0.00     0.053 C 
BRANCH   9  10
ATOM     10  C   UNL     1      45.340  42.797  48.962  1.00  0.00     0.041 C 
ATOM     11  O   UNL     1      44.566  43.690  49.398  1.00  0.00    -0.550 OA
ATOM     12  O   UNL     1      46.568  43.156  48.420  1.00  0.00    -0.550 OA
ENDBRANCH   9  10
ENDBRANCH   8   9
ENDBRANCH   7   8
ENDBRANCH   6   7
ENDBRANCH   5   6
ENDBRANCH   4   5
ENDBRANCH   3   4
ENDBRANCH   1   3
BRANCH   2  13
ATOM     13  C   UNL     1      50.566  37.974  46.927  1.00  0.00     0.027 C 
BRANCH  13  14
ATOM     14  C   UNL     1      50.508  38.543  45.501  1.00  0.00     0.004 C 
BRANCH  14  15
ATOM     15  C   UNL     1      50.028  37.506  44.473  1.00  0.00     0.000 C 
BRANCH  15  16
ATOM     16  C   UNL     1      48.864  38.027  43.612  1.00  0.00     0.000 C 
BRANCH  16  17
ATOM     17  C   UNL     1      47.571  37.220  43.817  1.00  0.00    -0.000 C 
BRANCH  17  18
ATOM     18  C   UNL     1      47.838  35.825  44.410  1.00  0.00    -0.000 C 
BRANCH  18  19
ATOM     19  C   UNL     1      46.599  35.231  45.097  1.00  0.00    -0.003 C 
ATOM     20  C   UNL     1      46.954  34.277  46.238  1.00  0.00     0.004 C 
ENDBRANCH  18  19
ENDBRANCH  17  18
ENDBRANCH  16  17
ENDBRANCH  15  16
ENDBRANCH  14  15
ENDBRANCH  13  14
ENDBRANCH   2  13
TORSDOF 15
ENDMDL
MODEL 5
REMARK VINA RESULT:    -3.855      3.002      7.075
REMARK INTER + INTRA:          -9.651
REMARK INTER:                  -7.780
REMARK INTRA:                  -1.871
REMARK UNBOUND:                -2.416
REMARK SMILES CCCCCCCCC=CCCCCCCCC(=O)[O-]
REMARK SMILES IDX 10 1 9 2 11 3 12 4 13 5 14 6 15 7 16 8 17 9 18 10 19 11
REMARK SMILES IDX 20 12 8 13 7 14 6 15 5 16 4 17 3 18 2 19 1 20
REMARK H PARENT
REMARK Flexibility Score: inf
ROOT
ATOM      1  C   UNL     1      45.184  37.807  47.755  1.00  0.00    -0.031 C 
ATOM      2  C   UNL     1      45.824  36.905  46.995  1.00  0.00    -0.031 C 
ENDROOT
BRANCH   1   3
ATOM      3  C   UNL     1      43.743  37.628  48.145  1.00  0.00     0.027 C 
BRANCH   3   4
ATOM      4  C   UNL     1      42.980  38.959  48.078  1.00  0.00     0.004 C 
BRANCH   4   5
ATOM      5  C   UNL     1      43.800  40.073  47.407  1.00  0.00     0.000 C 
BRANCH   5   6
ATOM      6  C   UNL     1      43.843  41.363  48.245  1.00  0.00     0.000 C 
BRANCH   6   7
ATOM      7  C   UNL     1      44.426  41.144  49.652  1.00  0.00     0.000 C 
BRANCH   7   8
ATOM      8  C   UNL     1      45.962  41.032  49.708  1.00  0.00     0.006 C 
BRANCH   8   9
ATOM      9  C   UNL     1      46.671  42.180  48.979  1.00  0.00     0.053 C 
BRANCH   9  10
ATOM     10  C   UNL     1      47.159  43.200  49.958  1.00  0.00     0.041 C 
ATOM     11  O   UNL     1      46.650  43.272  51.108  1.00  0.00    -0.550 OA
ATOM     12  O   UNL     1      48.207  44.045  49.615  1.00  0.00    -0.550 OA
ENDBRANCH   9  10
ENDBRANCH   8   9
ENDBRANCH   7   8
ENDBRANCH   6   7
ENDBRANCH   5   6
ENDBRANCH   4   5
ENDBRANCH   3   4
ENDBRANCH   1   3
BRANCH   2  13
ATOM     13  C   UNL     1      47.277  37.059  46.645  1.00  0.00     0.027 C 
BRANCH  13  14
ATOM     14  C   UNL     1      47.508  36.867  45.138  1.00  0.00     0.004 C 
BRANCH  14  15
ATOM     15  C   UNL     1      46.902  35.555  44.613  1.00  0.00     0.000 C 
BRANCH  15  16
ATOM     16  C   UNL     1      47.977  34.535  44.199  1.00  0.00     0.000 C 
BRANCH  16  17
ATOM     17  C   UNL     1      48.094  33.365  45.190  1.00  0.00    -0.000 C 
BRANCH  17  18
ATOM     18  C   UNL     1      46.875  33.263  46.123  1.00  0.00    -0.000 C 
BRANCH  18  19
ATOM     19  C   UNL     1      47.250  33.430  47.603  1.00  0.00    -0.003 C 
ATOM     20  C   UNL     1      46.030  33.509  48.520  1.00  0.00     0.004 C 
ENDBRANCH  18  19
ENDBRANCH  17  18
ENDBRANCH  16  17
ENDBRANCH  15  16
ENDBRANCH  14  15
ENDBRANCH  13  14
ENDBRANCH   2  13
TORSDOF 15
ENDMDL
MODEL 6
REMARK VINA RESULT:    -3.849      2.906      7.435
REMARK INTER + INTRA:          -9.639
REMARK INTER:                  -7.663
REMARK INTRA:                  -1.976
REMARK UNBOUND:                -2.416
REMARK SMILES CCCCCCCCC=CCCCCCCCC(=O)[O-]
REMARK SMILES IDX 10 1 9 2 11 3 12 4 13 5 14 6 15 7 16 8 17 9 18 10 19 11
REMARK SMILES IDX 20 12 8 13 7 14 6 15 5 16 4 17 3 18 2 19 1 20
REMARK H PARENT
REMARK Flexibility Score: inf
ROOT
ATOM      1  C   UNL     1      45.086  38.415  47.920  1.00  0.00    -0.031 C 
ATOM      2  C   UNL     1      45.721  37.425  47.274  1.00  0.00    -0.031 C 
ENDROOT
BRANCH   1   3
ATOM      3  C   UNL     1      43.584  38.478  47.981  1.00  0.00     0.027 C 
BRANCH   3   4
ATOM      4  C   UNL     1      43.094  39.930  48.077  1.00  0.00     0.004 C 
BRANCH   4   5
ATOM      5  C   UNL     1      44.010  40.910  47.327  1.00  0.00     0.000 C 
BRANCH   5   6
ATOM      6  C   UNL     1      44.550  42.029  48.235  1.00  0.00     0.000 C 
BRANCH   6   7
ATOM      7  C   UNL     1      46.019  41.815  48.640  1.00  0.00     0.000 C 
BRANCH   7   8
ATOM      8  C   UNL     1      46.242  41.497  50.131  1.00  0.00     0.006 C 
BRANCH   8   9
ATOM      9  C   UNL     1      44.943  41.521  50.946  1.00  0.00     0.053 C 
BRANCH   9  10
ATOM     10  C   UNL     1      44.656  40.167  51.514  1.00  0.00     0.041 C 
ATOM     11  O   UNL     1      45.576  39.495  52.052  1.00  0.00    -0.550 OA
ATOM     12  O   UNL     1      43.362  39.662  51.486  1.00  0.00    -0.550 OA
ENDBRANCH   9  10
ENDBRANCH   8   9
ENDBRANCH   7   8
ENDBRANCH   6   7
ENDBRANCH   5   6
ENDBRANCH   4   5
ENDBRANCH   3   4
ENDBRANCH   1   3
BRANCH   2  13
ATOM     13  C   UNL     1      47.222  37.335  47.253  1.00  0.00     0.027 C 
BRANCH  13  14
ATOM     14  C   UNL     1      47.687  35.944  46.797  1.00  0.00     0.004 C 
BRANCH  14  15
ATOM     15  C   UNL     1      46.620  35.208  45.971  1.00  0.00     0.000 C 
BRANCH  15  16
ATOM     16  C   UNL     1      46.898  35.273  44.459  1.00  0.00     0.000 C 
BRANCH  16  17
ATOM     17  C   UNL     1      48.302  34.762  44.094  1.00  0.00    -0.000 C 
BRANCH  17  18
ATOM     18  C   UNL     1      49.151  35.834  43.387  1.00  0.00    -0.000 C 
BRANCH  18  19
ATOM     19  C   UNL     1      48.471  37.212  43.378  1.00  0.00    -0.003 C 
ATOM     20  C   UNL     1      49.342  38.308  43.993  1.00  0.00     0.004 C 
ENDBRANCH  18  19
ENDBRANCH  17  18
ENDBRANCH  16  17
ENDBRANCH  15  16
ENDBRANCH  14  15
ENDBRANCH  13  14
ENDBRANCH   2  13
TORSDOF 15
ENDMDL
MODEL 7
REMARK VINA RESULT:    -3.847      1.325      2.333
REMARK INTER + INTRA:          -9.637
REMARK INTER:                  -7.866
REMARK INTRA:                  -1.770
REMARK UNBOUND:                -2.416
REMARK SMILES CCCCCCCCC=CCCCCCCCC(=O)[O-]
REMARK SMILES IDX 10 1 9 2 11 3 12 4 13 5 14 6 15 7 16 8 17 9 18 10 19 11
REMARK SMILES IDX 20 12 8 13 7 14 6 15 5 16 4 17 3 18 2 19 1 20
REMARK H PARENT
REMARK Flexibility Score: inf
ROOT
ATOM      1  C   UNL     1      45.229  38.372  47.718  1.00  0.00    -0.031 C 
ATOM      2  C   UNL     1      43.955  38.303  48.131  1.00  0.00    -0.031 C 
ENDROOT
BRANCH   1   3
ATOM      3  C   UNL     1      46.181  37.224  47.909  1.00  0.00     0.027 C 
BRANCH   3   4
ATOM      4  C   UNL     1      46.783  36.774  46.570  1.00  0.00     0.004 C 
BRANCH   4   5
ATOM      5  C   UNL     1      46.526  35.287  46.280  1.00  0.00     0.000 C 
BRANCH   5   6
ATOM      6  C   UNL     1      46.725  34.929  44.797  1.00  0.00     0.000 C 
BRANCH   6   7
ATOM      7  C   UNL     1      48.170  34.515  44.469  1.00  0.00     0.000 C 
BRANCH   7   8
ATOM      8  C   UNL     1      48.821  35.292  43.309  1.00  0.00     0.006 C 
BRANCH   8   9
ATOM      9  C   UNL     1      49.768  36.399  43.789  1.00  0.00     0.053 C 
BRANCH   9  10
ATOM     10  C   UNL     1      49.127  37.741  43.632  1.00  0.00     0.041 C 
ATOM     11  O   UNL     1      47.935  37.834  43.237  1.00  0.00    -0.550 OA
ATOM     12  O   UNL     1      49.834  38.891  43.963  1.00  0.00    -0.550 OA
ENDBRANCH   9  10
ENDBRANCH   8   9
ENDBRANCH   7   8
ENDBRANCH   6   7
ENDBRANCH   5   6
ENDBRANCH   4   5
ENDBRANCH   3   4
ENDBRANCH   1   3
BRANCH   2  13
ATOM     13  C   UNL     1      42.989  39.432  47.898  1.00  0.00     0.027 C 
BRANCH  13  14
ATOM     14  C   UNL     1      43.708  40.670  47.343  1.00  0.00     0.004 C 
BRANCH  14  15
ATOM     15  C   UNL     1      43.880  41.774  48.399  1.00  0.00     0.000 C 
BRANCH  15  16
ATOM     16  C   UNL     1      45.324  42.300  48.471  1.00  0.00     0.000 C 
BRANCH  16  17
ATOM     17  C   UNL     1      46.021  41.935  49.793  1.00  0.00    -0.000 C 
BRANCH  17  18
ATOM     18  C   UNL     1      45.080  41.207  50.769  1.00  0.00    -0.000 C 
BRANCH  18  19
ATOM     19  C   UNL     1      45.590  39.807  51.145  1.00  0.00    -0.003 C 
ATOM     20  C   UNL     1      45.685  39.595  52.655  1.00  0.00     0.004 C 
ENDBRANCH  18  19
ENDBRANCH  17  18
ENDBRANCH  16  17
ENDBRANCH  15  16
ENDBRANCH  14  15
ENDBRANCH  13  14
ENDBRANCH   2  13
TORSDOF 15
ENDMDL
MODEL 8
REMARK VINA RESULT:    -3.820      2.371      3.350
REMARK INTER + INTRA:          -9.587
REMARK INTER:                  -7.214
REMARK INTRA:                  -2.372
REMARK UNBOUND:                -2.416
REMARK SMILES CCCCCCCCC=CCCCCCCCC(=O)[O-]
REMARK SMILES IDX 10 1 9 2 11 3 12 4 13 5 14 6 15 7 16 8 17 9 18 10 19 11
REMARK SMILES IDX 20 12 8 13 7 14 6 15 5 16 4 17 3 18 2 19 1 20
REMARK H PARENT
REMARK Flexibility Score: inf
ROOT
ATOM      1  C   UNL     1      45.113  38.002  47.472  1.00  0.00    -0.031 C 
ATOM      2  C   UNL     1      43.892  38.012  48.028  1.00  0.00    -0.031 C 
ENDROOT
BRANCH   1   3
ATOM      3  C   UNL     1      45.907  36.731  47.340  1.00  0.00     0.027 C 
BRANCH   3   4
ATOM      4  C   UNL     1      47.274  36.996  46.694  1.00  0.00     0.004 C 
BRANCH   4   5
ATOM      5  C   UNL     1      47.289  36.662  45.194  1.00  0.00     0.000 C 
BRANCH   5   6
ATOM      6  C   UNL     1      46.562  35.344  44.872  1.00  0.00     0.000 C 
BRANCH   6   7
ATOM      7  C   UNL     1      47.479  34.113  44.980  1.00  0.00     0.000 C 
BRANCH   7   8
ATOM      8  C   UNL     1      47.070  33.091  46.057  1.00  0.00     0.006 C 
BRANCH   8   9
ATOM      9  C   UNL     1      47.979  33.128  47.291  1.00  0.00     0.053 C 
BRANCH   9  10
ATOM     10  C   UNL     1      47.205  33.550  48.500  1.00  0.00     0.041 C 
ATOM     11  O   UNL     1      47.776  34.170  49.436  1.00  0.00    -0.550 OA
ATOM     12  O   UNL     1      45.842  33.294  48.575  1.00  0.00    -0.550 OA
ENDBRANCH   9  10
ENDBRANCH   8   9
ENDBRANCH   7   8
ENDBRANCH   6   7
ENDBRANCH   5   6
ENDBRANCH   4   5
ENDBRANCH   3   4
ENDBRANCH   1   3
BRANCH   2  13
ATOM     13  C   UNL     1      43.078  39.274  48.116  1.00  0.00     0.027 C 
BRANCH  13  14
ATOM     14  C   UNL     1      43.798  40.447  47.435  1.00  0.00     0.004 C 
BRANCH  14  15
ATOM     15  C   UNL     1      43.824  41.710  48.311  1.00  0.00     0.000 C 
BRANCH  15  16
ATOM     16  C   UNL     1      45.250  42.241  48.536  1.00  0.00     0.000 C 
BRANCH  16  17
ATOM     17  C   UNL     1      45.978  41.512  49.679  1.00  0.00    -0.000 C 
BRANCH  17  18
ATOM     18  C   UNL     1      47.125  40.622  49.170  1.00  0.00    -0.000 C 
BRANCH  18  19
ATOM     19  C   UNL     1      47.284  39.336  49.996  1.00  0.00    -0.003 C 
ATOM     20  C   UNL     1      46.061  39.030  50.860  1.00  0.00     0.004 C 
ENDBRANCH  18  19
ENDBRANCH  17  18
ENDBRANCH  16  17
ENDBRANCH  15  16
ENDBRANCH  14  15
ENDBRANCH  13  14
ENDBRANCH   2  13
TORSDOF 15
ENDMDL
