MODEL 1
REMARK VINA RESULT:     0.311      0.000      0.000
REMARK INTER + INTRA:           0.029
REMARK INTER:                   0.448
REMARK INTRA:                  -0.419
REMARK UNBOUND:                -0.419
REMARK SMILES O=C(CO)[C@H](O)[C@H](O)[C@H](O)CO
REMARK SMILES IDX 7 1 9 2 11 3 12 4 10 6 5 8 2 9 1 10 3 11 4 12 6 14 8 16
REMARK H PARENT 12 5 10 7 4 13 6 15 8 17
REMARK Flexibility Score: inf
ROOT
ATOM      1  C   UNL     1      -7.081  -4.983  19.608  1.00  0.00     0.181 C 
ENDROOT
BRANCH   1   2
ATOM      2  C   UNL     1      -6.894  -3.438  19.665  1.00  0.00     0.171 C 
BRANCH   2   3
ATOM      3  C   UNL     1      -6.496  -2.950  21.073  1.00  0.00     0.190 C 
BRANCH   3   4
ATOM      4  O   UNL     1      -6.139  -1.594  21.060  1.00  0.00    -0.394 OA
ATOM      5  H   UNL     1      -5.290  -1.519  21.569  1.00  0.00     0.210 HD
ENDBRANCH   3   4
ENDBRANCH   2   3
BRANCH   2   6
ATOM      6  O   UNL     1      -5.930  -3.015  18.732  1.00  0.00    -0.388 OA
ATOM      7  H   UNL     1      -6.157  -3.432  17.859  1.00  0.00     0.211 HD
ENDBRANCH   2   6
ENDBRANCH   1   2
BRANCH   1   8
ATOM      8  C   UNL     1      -8.537  -5.445  19.906  1.00  0.00     0.214 C 
BRANCH   8   9
ATOM      9  C   UNL     1      -8.638  -6.370  21.108  1.00  0.00     0.189 C 
ATOM     10  O   UNL     1      -8.352  -5.936  22.213  1.00  0.00    -0.294 OA
BRANCH   9  11
ATOM     11  C   UNL     1      -9.125  -7.790  20.970  1.00  0.00     0.234 C 
BRANCH  11  12
ATOM     12  O   UNL     1      -8.733  -8.554  22.077  1.00  0.00    -0.388 OA
ATOM     13  H   UNL     1      -8.347  -9.392  21.711  1.00  0.00     0.211 HD
ENDBRANCH  11  12
ENDBRANCH   9  11
ENDBRANCH   8   9
BRANCH   8  14
ATOM     14  O   UNL     1      -9.121  -6.026  18.764  1.00  0.00    -0.382 OA
ATOM     15  H   UNL     1      -9.021  -7.011  18.831  1.00  0.00     0.211 HD
ENDBRANCH   8  14
ENDBRANCH   1   8
BRANCH   1  16
ATOM     16  O   UNL     1      -6.165  -5.639  20.453  1.00  0.00    -0.387 OA
ATOM     17  H   UNL     1      -6.174  -5.173  21.329  1.00  0.00     0.211 HD
ENDBRANCH   1  16
TORSDOF 10
ENDMDL
MODEL 2
REMARK VINA RESULT:     0.535      1.407      2.081
REMARK INTER + INTRA:           0.352
REMARK INTER:                   0.451
REMARK INTRA:                  -0.099
REMARK UNBOUND:                -0.419
REMARK SMILES O=C(CO)[C@H](O)[C@H](O)[C@H](O)CO
REMARK SMILES IDX 7 1 9 2 11 3 12 4 10 6 5 8 2 9 1 10 3 11 4 12 6 14 8 16
REMARK H PARENT 12 5 10 7 4 13 6 15 8 17
REMARK Flexibility Score: inf
ROOT
ATOM      1  C   UNL     1      -7.696  -5.722  20.743  1.00  0.00     0.181 C 
ENDROOT
BRANCH   1   2
ATOM      2  C   UNL     1      -7.675  -4.811  19.480  1.00  0.00     0.171 C 
BRANCH   2   3
ATOM      3  C   UNL     1      -6.462  -3.858  19.469  1.00  0.00     0.190 C 
BRANCH   3   4
ATOM      4  O   UNL     1      -6.544  -2.919  20.507  1.00  0.00    -0.394 OA
ATOM      5  H   UNL     1      -7.216  -2.243  20.228  1.00  0.00     0.210 HD
ENDBRANCH   3   4
ENDBRANCH   2   3
BRANCH   2   6
ATOM      6  O   UNL     1      -7.677  -5.584  18.305  1.00  0.00    -0.388 OA
ATOM      7  H   UNL     1      -6.757  -5.561  17.931  1.00  0.00     0.211 HD
ENDBRANCH   2   6
ENDBRANCH   1   2
BRANCH   1   8
ATOM      8  C   UNL     1      -8.937  -6.658  20.816  1.00  0.00     0.214 C 
BRANCH   8   9
ATOM      9  C   UNL     1      -8.888  -7.628  21.985  1.00  0.00     0.189 C 
ATOM     10  O   UNL     1      -8.626  -8.801  21.769  1.00  0.00    -0.294 OA
BRANCH   9  11
ATOM     11  C   UNL     1      -9.108  -7.164  23.402  1.00  0.00     0.234 C 
BRANCH  11  12
ATOM     12  O   UNL     1      -9.125  -8.256  24.280  1.00  0.00    -0.388 OA
ATOM     13  H   UNL     1      -9.633  -8.973  23.818  1.00  0.00     0.211 HD
ENDBRANCH  11  12
ENDBRANCH   9  11
ENDBRANCH   8   9
BRANCH   8  14
ATOM     14  O   UNL     1      -9.125  -7.336  19.596  1.00  0.00    -0.382 OA
ATOM     15  H   UNL     1      -9.507  -6.697  18.941  1.00  0.00     0.211 HD
ENDBRANCH   8  14
ENDBRANCH   1   8
BRANCH   1  16
ATOM     16  O   UNL     1      -7.572  -4.962  21.922  1.00  0.00    -0.387 OA
ATOM     17  H   UNL     1      -8.071  -5.433  22.639  1.00  0.00     0.211 HD
ENDBRANCH   1  16
TORSDOF 10
ENDMDL
MODEL 3
REMARK VINA RESULT:     0.743      1.133      4.647
REMARK INTER + INTRA:           0.650
REMARK INTER:                   1.214
REMARK INTRA:                  -0.564
REMARK UNBOUND:                -0.419
REMARK SMILES O=C(CO)[C@H](O)[C@H](O)[C@H](O)CO
REMARK SMILES IDX 7 1 9 2 11 3 12 4 10 6 5 8 2 9 1 10 3 11 4 12 6 14 8 16
REMARK H PARENT 12 5 10 7 4 13 6 15 8 17
REMARK Flexibility Score: inf
ROOT
ATOM      1  C   UNL     1      -7.841  -4.894  20.556  1.00  0.00     0.181 C 
ENDROOT
BRANCH   1   2
ATOM      2  C   UNL     1      -8.152  -6.080  19.596  1.00  0.00     0.171 C 
BRANCH   2   3
ATOM      3  C   UNL     1      -9.125  -7.099  20.224  1.00  0.00     0.190 C 
BRANCH   3   4
ATOM      4  O   UNL     1      -8.555  -7.721  21.344  1.00  0.00    -0.394 OA
ATOM      5  H   UNL     1      -8.655  -7.088  22.103  1.00  0.00     0.210 HD
ENDBRANCH   3   4
ENDBRANCH   2   3
BRANCH   2   6
ATOM      6  O   UNL     1      -8.681  -5.614  18.379  1.00  0.00    -0.388 OA
ATOM      7  H   UNL     1      -8.025  -5.830  17.665  1.00  0.00     0.211 HD
ENDBRANCH   2   6
ENDBRANCH   1   2
BRANCH   1   8
ATOM      8  C   UNL     1      -6.657  -4.002  20.082  1.00  0.00     0.214 C 
BRANCH   8   9
ATOM      9  C   UNL     1      -6.341  -2.867  21.042  1.00  0.00     0.189 C 
ATOM     10  O   UNL     1      -5.891  -3.134  22.146  1.00  0.00    -0.294 OA
BRANCH   9  11
ATOM     11  C   UNL     1      -6.525  -1.425  20.643  1.00  0.00     0.234 C 
BRANCH  11  12
ATOM     12  O   UNL     1      -6.837  -0.641  21.763  1.00  0.00    -0.388 OA
ATOM     13  H   UNL     1      -7.826  -0.659  21.844  1.00  0.00     0.211 HD
ENDBRANCH  11  12
ENDBRANCH   9  11
ENDBRANCH   8   9
BRANCH   8  14
ATOM     14  O   UNL     1      -6.884  -3.521  18.778  1.00  0.00    -0.382 OA
ATOM     15  H   UNL     1      -7.150  -2.567  18.841  1.00  0.00     0.211 HD
ENDBRANCH   8  14
ENDBRANCH   1   8
BRANCH   1  16
ATOM     16  O   UNL     1      -7.631  -5.346  21.873  1.00  0.00    -0.387 OA
ATOM     17  H   UNL     1      -8.515  -5.579  22.258  1.00  0.00     0.211 HD
ENDBRANCH   1  16
TORSDOF 10
ENDMDL
MODEL 4
REMARK VINA RESULT:     0.766      2.352      5.209
REMARK INTER + INTRA:           0.683
REMARK INTER:                   0.971
REMARK INTRA:                  -0.288
REMARK UNBOUND:                -0.419
REMARK SMILES O=C(CO)[C@H](O)[C@H](O)[C@H](O)CO
REMARK SMILES IDX 7 1 9 2 11 3 12 4 10 6 5 8 2 9 1 10 3 11 4 12 6 14 8 16
REMARK H PARENT 12 5 10 7 4 13 6 15 8 17
REMARK Flexibility Score: inf
ROOT
ATOM      1  C   UNL     1      -8.396  -7.742  22.495  1.00  0.00     0.181 C 
ENDROOT
BRANCH   1   2
ATOM      2  C   UNL     1      -8.869  -7.687  23.978  1.00  0.00     0.171 C 
BRANCH   2   3
ATOM      3  C   UNL     1      -8.845  -9.075  24.649  1.00  0.00     0.190 C 
BRANCH   3   4
ATOM      4  O   UNL     1      -7.620  -9.722  24.433  1.00  0.00    -0.394 OA
ATOM      5  H   UNL     1      -7.034  -9.486  25.200  1.00  0.00     0.210 HD
ENDBRANCH   3   4
ENDBRANCH   2   3
BRANCH   2   6
ATOM      6  O   UNL     1      -8.080  -6.791  24.722  1.00  0.00    -0.388 OA
ATOM      7  H   UNL     1      -8.659  -6.398  25.427  1.00  0.00     0.211 HD
ENDBRANCH   2   6
ENDBRANCH   1   2
BRANCH   1   8
ATOM      8  C   UNL     1      -8.800  -6.489  21.665  1.00  0.00     0.214 C 
BRANCH   8   9
ATOM      9  C   UNL     1      -8.939  -6.774  20.179  1.00  0.00     0.189 C 
ATOM     10  O   UNL     1      -9.125  -7.925  19.813  1.00  0.00    -0.294 OA
BRANCH   9  11
ATOM     11  C   UNL     1      -8.898  -5.667  19.157  1.00  0.00     0.234 C 
BRANCH  11  12
ATOM     12  O   UNL     1      -7.631  -5.069  19.129  1.00  0.00    -0.388 OA
ATOM     13  H   UNL     1      -7.365  -5.032  18.174  1.00  0.00     0.211 HD
ENDBRANCH  11  12
ENDBRANCH   9  11
ENDBRANCH   8   9
BRANCH   8  14
ATOM     14  O   UNL     1      -7.910  -5.424  21.900  1.00  0.00    -0.382 OA
ATOM     15  H   UNL     1      -7.015  -5.805  22.096  1.00  0.00     0.211 HD
ENDBRANCH   8  14
ENDBRANCH   1   8
BRANCH   1  16
ATOM     16  O   UNL     1      -8.833  -8.922  21.864  1.00  0.00    -0.387 OA
ATOM     17  H   UNL     1      -8.086  -9.261  21.306  1.00  0.00     0.211 HD
ENDBRANCH   1  16
TORSDOF 10
ENDMDL
MODEL 5
REMARK VINA RESULT:     1.108      1.175      4.765
REMARK INTER + INTRA:           1.175
REMARK INTER:                   0.674
REMARK INTRA:                   0.501
REMARK UNBOUND:                -0.419
REMARK SMILES O=C(CO)[C@H](O)[C@H](O)[C@H](O)CO
REMARK SMILES IDX 7 1 9 2 11 3 12 4 10 6 5 8 2 9 1 10 3 11 4 12 6 14 8 16
REMARK H PARENT 12 5 10 7 4 13 6 15 8 17
REMARK Flexibility Score: inf
ROOT
ATOM      1  C   UNL     1      -8.308  -5.973  21.110  1.00  0.00     0.181 C 
ENDROOT
BRANCH   1   2
ATOM      2  C   UNL     1      -8.430  -7.506  21.355  1.00  0.00     0.171 C 
BRANCH   2   3
ATOM      3  C   UNL     1      -9.125  -7.829  22.694  1.00  0.00     0.190 C 
BRANCH   3   4
ATOM      4  O   UNL     1      -8.516  -8.918  23.333  1.00  0.00    -0.394 OA
ATOM      5  H   UNL     1      -7.603  -8.623  23.591  1.00  0.00     0.210 HD
ENDBRANCH   3   4
ENDBRANCH   2   3
BRANCH   2   6
ATOM      6  O   UNL     1      -9.125  -8.128  20.303  1.00  0.00    -0.388 OA
ATOM      7  H   UNL     1      -8.695  -9.009  20.140  1.00  0.00     0.211 HD
ENDBRANCH   2   6
ENDBRANCH   1   2
BRANCH   1   8
ATOM      8  C   UNL     1      -7.748  -5.610  19.704  1.00  0.00     0.214 C 
BRANCH   8   9
ATOM      9  C   UNL     1      -7.269  -4.171  19.604  1.00  0.00     0.189 C 
ATOM     10  O   UNL     1      -7.668  -3.477  18.680  1.00  0.00    -0.294 OA
BRANCH   9  11
ATOM     11  C   UNL     1      -6.354  -3.572  20.641  1.00  0.00     0.234 C 
BRANCH  11  12
ATOM     12  O   UNL     1      -6.042  -2.245  20.316  1.00  0.00    -0.388 OA
ATOM     13  H   UNL     1      -6.870  -1.721  20.478  1.00  0.00     0.211 HD
ENDBRANCH  11  12
ENDBRANCH   9  11
ENDBRANCH   8   9
BRANCH   8  14
ATOM     14  O   UNL     1      -8.688  -5.906  18.698  1.00  0.00    -0.382 OA
ATOM     15  H   UNL     1      -8.943  -6.862  18.784  1.00  0.00     0.211 HD
ENDBRANCH   8  14
ENDBRANCH   1   8
BRANCH   1  16
ATOM     16  O   UNL     1      -7.554  -5.352  22.124  1.00  0.00    -0.387 OA
ATOM     17  H   UNL     1      -7.416  -6.017  22.848  1.00  0.00     0.211 HD
ENDBRANCH   1  16
TORSDOF 10
ENDMDL
MODEL 6
REMARK VINA RESULT:     1.134      1.122      2.099
REMARK INTER + INTRA:           1.213
REMARK INTER:                   1.526
REMARK INTRA:                  -0.313
REMARK UNBOUND:                -0.419
REMARK SMILES O=C(CO)[C@H](O)[C@H](O)[C@H](O)CO
REMARK SMILES IDX 7 1 9 2 11 3 12 4 10 6 5 8 2 9 1 10 3 11 4 12 6 14 8 16
REMARK H PARENT 12 5 10 7 4 13 6 15 8 17
REMARK Flexibility Score: inf
ROOT
ATOM      1  C   UNL     1      -7.205  -3.811  19.918  1.00  0.00     0.181 C 
ENDROOT
BRANCH   1   2
ATOM      2  C   UNL     1      -6.178  -2.958  20.719  1.00  0.00     0.171 C 
BRANCH   2   3
ATOM      3  C   UNL     1      -6.864  -1.888  21.592  1.00  0.00     0.190 C 
BRANCH   3   4
ATOM      4  O   UNL     1      -6.842  -0.632  20.968  1.00  0.00    -0.394 OA
ATOM      5  H   UNL     1      -6.404  -0.761  20.086  1.00  0.00     0.210 HD
ENDBRANCH   3   4
ENDBRANCH   2   3
BRANCH   2   6
ATOM      6  O   UNL     1      -5.369  -3.777  21.528  1.00  0.00    -0.388 OA
ATOM      7  H   UNL     1      -4.442  -3.424  21.478  1.00  0.00     0.211 HD
ENDBRANCH   2   6
ENDBRANCH   1   2
BRANCH   1   8
ATOM      8  C   UNL     1      -7.427  -5.235  20.507  1.00  0.00     0.214 C 
BRANCH   8   9
ATOM      9  C   UNL     1      -8.557  -5.992  19.832  1.00  0.00     0.189 C 
ATOM     10  O   UNL     1      -8.986  -5.585  18.763  1.00  0.00    -0.294 OA
BRANCH   9  11
ATOM     11  C   UNL     1      -9.125  -7.256  20.428  1.00  0.00     0.234 C 
BRANCH  11  12
ATOM     12  O   UNL     1      -8.686  -7.417  21.748  1.00  0.00    -0.388 OA
ATOM     13  H   UNL     1      -7.733  -7.137  21.758  1.00  0.00     0.211 HD
ENDBRANCH  11  12
ENDBRANCH   9  11
ENDBRANCH   8   9
BRANCH   8  14
ATOM     14  O   UNL     1      -7.612  -5.176  21.902  1.00  0.00    -0.382 OA
ATOM     15  H   UNL     1      -7.485  -4.235  22.192  1.00  0.00     0.211 HD
ENDBRANCH   8  14
ENDBRANCH   1   8
BRANCH   1  16
ATOM     16  O   UNL     1      -6.856  -3.883  18.556  1.00  0.00    -0.387 OA
ATOM     17  H   UNL     1      -7.479  -3.297  18.052  1.00  0.00     0.211 HD
ENDBRANCH   1  16
TORSDOF 10
ENDMDL
MODEL 7
REMARK VINA RESULT:     1.847      1.332      4.920
REMARK INTER + INTRA:           2.239
REMARK INTER:                   1.798
REMARK INTRA:                   0.441
REMARK UNBOUND:                -0.419
REMARK SMILES O=C(CO)[C@H](O)[C@H](O)[C@H](O)CO
REMARK SMILES IDX 7 1 9 2 11 3 12 4 10 6 5 8 2 9 1 10 3 11 4 12 6 14 8 16
REMARK H PARENT 12 5 10 7 4 13 6 15 8 17
REMARK Flexibility Score: inf
ROOT
ATOM      1  C   UNL     1      -7.130  -4.864  20.302  1.00  0.00     0.181 C 
ENDROOT
BRANCH   1   2
ATOM      2  C   UNL     1      -8.386  -5.629  20.814  1.00  0.00     0.171 C 
BRANCH   2   3
ATOM      3  C   UNL     1      -9.125  -6.363  19.677  1.00  0.00     0.190 C 
BRANCH   3   4
ATOM      4  O   UNL     1      -9.125  -5.604  18.498  1.00  0.00    -0.394 OA
ATOM      5  H   UNL     1      -8.411  -5.979  17.918  1.00  0.00     0.210 HD
ENDBRANCH   3   4
ENDBRANCH   2   3
BRANCH   2   6
ATOM      6  O   UNL     1      -8.037  -6.550  21.819  1.00  0.00    -0.388 OA
ATOM      7  H   UNL     1      -8.171  -6.101  22.695  1.00  0.00     0.211 HD
ENDBRANCH   2   6
ENDBRANCH   1   2
BRANCH   1   8
ATOM      8  C   UNL     1      -6.778  -3.606  21.148  1.00  0.00     0.214 C 
BRANCH   8   9
ATOM      9  C   UNL     1      -6.413  -2.398  20.301  1.00  0.00     0.189 C 
ATOM     10  O   UNL     1      -5.750  -2.565  19.289  1.00  0.00    -0.294 OA
BRANCH   9  11
ATOM     11  C   UNL     1      -6.889  -1.013  20.658  1.00  0.00     0.234 C 
BRANCH  11  12
ATOM     12  O   UNL     1      -6.734  -0.778  22.031  1.00  0.00    -0.388 OA
ATOM     13  H   UNL     1      -7.468  -0.161  22.289  1.00  0.00     0.211 HD
ENDBRANCH  11  12
ENDBRANCH   9  11
ENDBRANCH   8   9
BRANCH   8  14
ATOM     14  O   UNL     1      -5.768  -3.898  22.085  1.00  0.00    -0.382 OA
ATOM     15  H   UNL     1      -4.988  -4.266  21.594  1.00  0.00     0.211 HD
ENDBRANCH   8  14
ENDBRANCH   1   8
BRANCH   1  16
ATOM     16  O   UNL     1      -7.255  -4.532  18.940  1.00  0.00    -0.387 OA
ATOM     17  H   UNL     1      -7.069  -5.350  18.410  1.00  0.00     0.211 HD
ENDBRANCH   1  16
TORSDOF 10
ENDMDL
