MODEL 1
REMARK VINA RESULT:    -3.369      0.000      0.000
REMARK INTER + INTRA:          -4.778
REMARK INTER:                  -4.551
REMARK INTRA:                  -0.227
REMARK UNBOUND:                -0.227
REMARK SMILES CCCCCCCC(=O)[O-]
REMARK SMILES IDX 5 1 6 2 7 3 8 4 9 5 10 6 4 7 3 8 2 9 1 10
REMARK H PARENT
REMARK Flexibility Score: inf
ROOT
ATOM      1  C   UNL     1      59.416  37.888  55.964  1.00  0.00     0.000 C 
ENDROOT
BRANCH   1   2
ATOM      2  C   UNL     1      58.765  38.613  57.155  1.00  0.00     0.006 C 
BRANCH   2   3
ATOM      3  C   UNL     1      58.977  37.862  58.476  1.00  0.00     0.053 C 
BRANCH   3   4
ATOM      4  C   UNL     1      60.430  37.621  58.748  1.00  0.00     0.041 C 
ATOM      5  O   UNL     1      61.209  38.591  58.942  1.00  0.00    -0.550 OA
ATOM      6  O   UNL     1      60.930  36.325  58.754  1.00  0.00    -0.550 OA
ENDBRANCH   3   4
ENDBRANCH   2   3
ENDBRANCH   1   2
BRANCH   1   7
ATOM      7  C   UNL     1      58.401  37.503  54.876  1.00  0.00     0.000 C 
BRANCH   7   8
ATOM      8  C   UNL     1      58.740  36.162  54.202  1.00  0.00    -0.000 C 
BRANCH   8   9
ATOM      9  C   UNL     1      57.815  35.851  53.014  1.00  0.00    -0.003 C 
ATOM     10  C   UNL     1      56.970  37.052  52.589  1.00  0.00     0.004 C 
ENDBRANCH   8   9
ENDBRANCH   7   8
ENDBRANCH   1   7
TORSDOF 6
ENDMDL
MODEL 2
REMARK VINA RESULT:    -3.245      3.210      5.237
REMARK INTER + INTRA:          -4.611
REMARK INTER:                  -4.210
REMARK INTRA:                  -0.400
REMARK UNBOUND:                -0.227
REMARK SMILES CCCCCCCC(=O)[O-]
REMARK SMILES IDX 5 1 6 2 7 3 8 4 9 5 10 6 4 7 3 8 2 9 1 10
REMARK H PARENT
REMARK Flexibility Score: inf
ROOT
ATOM      1  C   UNL     1      60.505  37.576  55.974  1.00  0.00     0.000 C 
ENDROOT
BRANCH   1   2
ATOM      2  C   UNL     1      59.581  36.713  55.096  1.00  0.00     0.006 C 
BRANCH   2   3
ATOM      3  C   UNL     1      58.303  37.460  54.691  1.00  0.00     0.053 C 
BRANCH   3   4
ATOM      4  C   UNL     1      57.506  36.688  53.685  1.00  0.00     0.041 C 
ATOM      5  O   UNL     1      57.426  35.434  53.764  1.00  0.00    -0.550 OA
ATOM      6  O   UNL     1      56.879  37.353  52.639  1.00  0.00    -0.550 OA
ENDBRANCH   3   4
ENDBRANCH   2   3
ENDBRANCH   1   2
BRANCH   1   7
ATOM      7  C   UNL     1      60.594  37.066  57.422  1.00  0.00     0.000 C 
BRANCH   7   8
ATOM      8  C   UNL     1      59.381  37.486  58.270  1.00  0.00    -0.000 C 
BRANCH   8   9
ATOM      9  C   UNL     1      59.338  39.001  58.526  1.00  0.00    -0.003 C 
ATOM     10  C   UNL     1      58.176  39.691  57.813  1.00  0.00     0.004 C 
ENDBRANCH   8   9
ENDBRANCH   7   8
ENDBRANCH   1   7
TORSDOF 6
ENDMDL
MODEL 3
REMARK VINA RESULT:    -3.215     10.286     11.796
REMARK INTER + INTRA:          -4.570
REMARK INTER:                  -4.273
REMARK INTRA:                  -0.297
REMARK UNBOUND:                -0.227
REMARK SMILES CCCCCCCC(=O)[O-]
REMARK SMILES IDX 5 1 6 2 7 3 8 4 9 5 10 6 4 7 3 8 2 9 1 10
REMARK H PARENT
REMARK Flexibility Score: inf
ROOT
ATOM      1  C   UNL     1      64.779  45.395  57.978  1.00  0.00     0.000 C 
ENDROOT
BRANCH   1   2
ATOM      2  C   UNL     1      65.472  46.655  58.526  1.00  0.00     0.006 C 
BRANCH   2   3
ATOM      3  C   UNL     1      66.419  47.289  57.499  1.00  0.00     0.053 C 
BRANCH   3   4
ATOM      4  C   UNL     1      66.807  48.682  57.889  1.00  0.00     0.041 C 
ATOM      5  O   UNL     1      65.982  49.431  58.474  1.00  0.00    -0.550 OA
ATOM      6  O   UNL     1      68.071  49.164  57.573  1.00  0.00    -0.550 OA
ENDBRANCH   3   4
ENDBRANCH   2   3
ENDBRANCH   1   2
BRANCH   1   7
ATOM      7  C   UNL     1      65.641  44.642  56.952  1.00  0.00     0.000 C 
BRANCH   7   8
ATOM      8  C   UNL     1      65.408  43.122  56.988  1.00  0.00    -0.000 C 
BRANCH   8   9
ATOM      9  C   UNL     1      66.689  42.338  57.315  1.00  0.00    -0.003 C 
ATOM     10  C   UNL     1      67.318  42.755  58.644  1.00  0.00     0.004 C 
ENDBRANCH   8   9
ENDBRANCH   7   8
ENDBRANCH   1   7
TORSDOF 6
ENDMDL
MODEL 4
REMARK VINA RESULT:    -3.196      7.918      9.412
REMARK INTER + INTRA:          -4.544
REMARK INTER:                  -4.125
REMARK INTRA:                  -0.419
REMARK UNBOUND:                -0.227
REMARK SMILES CCCCCCCC(=O)[O-]
REMARK SMILES IDX 5 1 6 2 7 3 8 4 9 5 10 6 4 7 3 8 2 9 1 10
REMARK H PARENT
REMARK Flexibility Score: inf
ROOT
ATOM      1  C   UNL     1      66.713  42.486  57.295  1.00  0.00     0.000 C 
ENDROOT
BRANCH   1   2
ATOM      2  C   UNL     1      65.503  43.344  56.883  1.00  0.00     0.006 C 
BRANCH   2   3
ATOM      3  C   UNL     1      65.044  44.276  58.012  1.00  0.00     0.053 C 
BRANCH   3   4
ATOM      4  C   UNL     1      65.329  45.712  57.694  1.00  0.00     0.041 C 
ATOM      5  O   UNL     1      64.901  46.626  58.446  1.00  0.00    -0.550 OA
ATOM      6  O   UNL     1      66.041  46.041  56.547  1.00  0.00    -0.550 OA
ENDBRANCH   3   4
ENDBRANCH   2   3
ENDBRANCH   1   2
BRANCH   1   7
ATOM      7  C   UNL     1      66.401  41.540  58.465  1.00  0.00     0.000 C 
BRANCH   7   8
ATOM      8  C   UNL     1      66.340  40.066  58.031  1.00  0.00    -0.000 C 
BRANCH   8   9
ATOM      9  C   UNL     1      64.931  39.468  58.173  1.00  0.00    -0.003 C 
ATOM     10  C   UNL     1      63.923  40.457  58.759  1.00  0.00     0.004 C 
ENDBRANCH   8   9
ENDBRANCH   7   8
ENDBRANCH   1   7
TORSDOF 6
ENDMDL
MODEL 5
REMARK VINA RESULT:    -3.181      5.910      7.819
REMARK INTER + INTRA:          -4.524
REMARK INTER:                  -4.277
REMARK INTRA:                  -0.247
REMARK UNBOUND:                -0.227
REMARK SMILES CCCCCCCC(=O)[O-]
REMARK SMILES IDX 5 1 6 2 7 3 8 4 9 5 10 6 4 7 3 8 2 9 1 10
REMARK H PARENT
REMARK Flexibility Score: inf
ROOT
ATOM      1  C   UNL     1      58.706  35.554  49.960  1.00  0.00     0.000 C 
ENDROOT
BRANCH   1   2
ATOM      2  C   UNL     1      59.635  35.395  48.744  1.00  0.00     0.006 C 
BRANCH   2   3
ATOM      3  C   UNL     1      60.941  36.184  48.906  1.00  0.00     0.053 C 
BRANCH   3   4
ATOM      4  C   UNL     1      60.897  37.486  48.168  1.00  0.00     0.041 C 
ATOM      5  O   UNL     1      59.895  37.785  47.466  1.00  0.00    -0.550 OA
ATOM      6  O   UNL     1      61.979  38.355  48.227  1.00  0.00    -0.550 OA
ENDBRANCH   3   4
ENDBRANCH   2   3
ENDBRANCH   1   2
BRANCH   1   7
ATOM      7  C   UNL     1      59.358  35.085  51.271  1.00  0.00     0.000 C 
BRANCH   7   8
ATOM      8  C   UNL     1      58.389  35.140  52.464  1.00  0.00    -0.000 C 
BRANCH   8   9
ATOM      9  C   UNL     1      57.605  36.461  52.525  1.00  0.00    -0.003 C 
ATOM     10  C   UNL     1      57.796  37.205  53.846  1.00  0.00     0.004 C 
ENDBRANCH   8   9
ENDBRANCH   7   8
ENDBRANCH   1   7
TORSDOF 6
ENDMDL
MODEL 6
REMARK VINA RESULT:    -3.148      8.313     10.135
REMARK INTER + INTRA:          -4.479
REMARK INTER:                  -4.146
REMARK INTRA:                  -0.333
REMARK UNBOUND:                -0.227
REMARK SMILES CCCCCCCC(=O)[O-]
REMARK SMILES IDX 5 1 6 2 7 3 8 4 9 5 10 6 4 7 3 8 2 9 1 10
REMARK H PARENT
REMARK Flexibility Score: inf
ROOT
ATOM      1  C   UNL     1      65.787  44.210  56.998  1.00  0.00     0.000 C 
ENDROOT
BRANCH   1   2
ATOM      2  C   UNL     1      66.439  42.822  57.130  1.00  0.00     0.006 C 
BRANCH   2   3
ATOM      3  C   UNL     1      66.113  42.154  58.472  1.00  0.00     0.053 C 
BRANCH   3   4
ATOM      4  C   UNL     1      65.454  40.823  58.283  1.00  0.00     0.041 C 
ATOM      5  O   UNL     1      66.137  39.766  58.306  1.00  0.00    -0.550 OA
ATOM      6  O   UNL     1      64.086  40.753  58.046  1.00  0.00    -0.550 OA
ENDBRANCH   3   4
ENDBRANCH   2   3
ENDBRANCH   1   2
BRANCH   1   7
ATOM      7  C   UNL     1      64.873  44.551  58.186  1.00  0.00     0.000 C 
BRANCH   7   8
ATOM      8  C   UNL     1      65.059  45.998  58.676  1.00  0.00    -0.000 C 
BRANCH   8   9
ATOM      9  C   UNL     1      65.971  46.819  57.750  1.00  0.00    -0.003 C 
ATOM     10  C   UNL     1      66.029  48.298  58.134  1.00  0.00     0.004 C 
ENDBRANCH   8   9
ENDBRANCH   7   8
ENDBRANCH   1   7
TORSDOF 6
ENDMDL
MODEL 7
REMARK VINA RESULT:    -3.142      7.186      9.069
REMARK INTER + INTRA:          -4.471
REMARK INTER:                  -4.143
REMARK INTRA:                  -0.327
REMARK UNBOUND:                -0.227
REMARK SMILES CCCCCCCC(=O)[O-]
REMARK SMILES IDX 5 1 6 2 7 3 8 4 9 5 10 6 4 7 3 8 2 9 1 10
REMARK H PARENT
REMARK Flexibility Score: inf
ROOT
ATOM      1  C   UNL     1      66.612  42.394  57.290  1.00  0.00     0.000 C 
ENDROOT
BRANCH   1   2
ATOM      2  C   UNL     1      66.189  41.296  58.283  1.00  0.00     0.006 C 
BRANCH   2   3
ATOM      3  C   UNL     1      64.695  41.369  58.624  1.00  0.00     0.053 C 
BRANCH   3   4
ATOM      4  C   UNL     1      64.022  40.042  58.448  1.00  0.00     0.041 C 
ATOM      5  O   UNL     1      62.885  39.836  58.948  1.00  0.00    -0.550 OA
ATOM      6  O   UNL     1      64.667  39.022  57.761  1.00  0.00    -0.550 OA
ENDBRANCH   3   4
ENDBRANCH   2   3
ENDBRANCH   1   2
BRANCH   1   7
ATOM      7  C   UNL     1      65.438  43.288  56.857  1.00  0.00     0.000 C 
BRANCH   7   8
ATOM      8  C   UNL     1      65.786  44.785  56.909  1.00  0.00    -0.000 C 
BRANCH   8   9
ATOM      9  C   UNL     1      65.800  45.336  58.344  1.00  0.00    -0.003 C 
ATOM     10  C   UNL     1      65.131  46.705  58.460  1.00  0.00     0.004 C 
ENDBRANCH   8   9
ENDBRANCH   7   8
ENDBRANCH   1   7
TORSDOF 6
ENDMDL
MODEL 8
REMARK VINA RESULT:    -3.032     19.112     20.137
REMARK INTER + INTRA:          -4.323
REMARK INTER:                  -3.718
REMARK INTRA:                  -0.605
REMARK UNBOUND:                -0.227
REMARK SMILES CCCCCCCC(=O)[O-]
REMARK SMILES IDX 5 1 6 2 7 3 8 4 9 5 10 6 4 7 3 8 2 9 1 10
REMARK H PARENT
REMARK Flexibility Score: inf
ROOT
ATOM      1  C   UNL     1      69.136  51.767  49.791  1.00  0.00     0.000 C 
ENDROOT
BRANCH   1   2
ATOM      2  C   UNL     1      68.091  52.875  49.565  1.00  0.00     0.006 C 
BRANCH   2   3
ATOM      3  C   UNL     1      68.619  54.258  49.969  1.00  0.00     0.053 C 
BRANCH   3   4
ATOM      4  C   UNL     1      69.859  54.621  49.211  1.00  0.00     0.041 C 
ATOM      5  O   UNL     1      69.826  54.741  47.959  1.00  0.00    -0.550 OA
ATOM      6  O   UNL     1      71.060  54.794  49.888  1.00  0.00    -0.550 OA
ENDBRANCH   3   4
ENDBRANCH   2   3
ENDBRANCH   1   2
BRANCH   1   7
ATOM      7  C   UNL     1      68.703  50.754  50.863  1.00  0.00     0.000 C 
BRANCH   7   8
ATOM      8  C   UNL     1      69.483  50.919  52.179  1.00  0.00    -0.000 C 
BRANCH   8   9
ATOM      9  C   UNL     1      70.678  51.875  52.038  1.00  0.00    -0.003 C 
ATOM     10  C   UNL     1      70.566  53.103  52.940  1.00  0.00     0.004 C 
ENDBRANCH   8   9
ENDBRANCH   7   8
ENDBRANCH   1   7
TORSDOF 6
ENDMDL
MODEL 9
REMARK VINA RESULT:    -3.032     18.680     19.567
REMARK INTER + INTRA:          -4.322
REMARK INTER:                  -3.820
REMARK INTRA:                  -0.502
REMARK UNBOUND:                -0.227
REMARK SMILES CCCCCCCC(=O)[O-]
REMARK SMILES IDX 5 1 6 2 7 3 8 4 9 5 10 6 4 7 3 8 2 9 1 10
REMARK H PARENT
REMARK Flexibility Score: inf
ROOT
ATOM      1  C   UNL     1      71.008  53.148  52.181  1.00  0.00     0.000 C 
ENDROOT
BRANCH   1   2
ATOM      2  C   UNL     1      70.833  51.724  51.625  1.00  0.00     0.006 C 
BRANCH   2   3
ATOM      3  C   UNL     1      69.494  51.100  52.040  1.00  0.00     0.053 C 
BRANCH   3   4
ATOM      4  C   UNL     1      68.694  50.663  50.852  1.00  0.00     0.041 C 
ATOM      5  O   UNL     1      68.653  51.377  49.816  1.00  0.00    -0.550 OA
ATOM      6  O   UNL     1      67.965  49.482  50.902  1.00  0.00    -0.550 OA
ENDBRANCH   3   4
ENDBRANCH   2   3
ENDBRANCH   1   2
BRANCH   1   7
ATOM      7  C   UNL     1      71.461  54.153  51.109  1.00  0.00     0.000 C 
BRANCH   7   8
ATOM      8  C   UNL     1      70.383  54.401  50.040  1.00  0.00    -0.000 C 
BRANCH   8   9
ATOM      9  C   UNL     1      69.042  54.843  50.649  1.00  0.00    -0.003 C 
ATOM     10  C   UNL     1      67.901  54.847  49.632  1.00  0.00     0.004 C 
ENDBRANCH   8   9
ENDBRANCH   7   8
ENDBRANCH   1   7
TORSDOF 6
ENDMDL
