MODEL 1
REMARK VINA RESULT:    -3.791      0.000      0.000
REMARK INTER + INTRA:          -6.460
REMARK INTER:                  -5.786
REMARK INTRA:                  -0.674
REMARK UNBOUND:                -0.674
REMARK SMILES O=C([O-])CCCCCCCCC(=O)[O-]
REMARK SMILES IDX 7 1 6 2 5 3 4 4 2 5 1 6 3 7 8 8 9 9 10 10 11 11 12 12 13 13
REMARK SMILES IDX 14 14
REMARK H PARENT
REMARK Flexibility Score: inf
ROOT
ATOM      1  C   UNL     1      -8.576  16.553 -11.916  1.00  0.00     0.000 C 
ENDROOT
BRANCH   1   2
ATOM      2  C   UNL     1      -7.868  15.203 -12.112  1.00  0.00     0.000 C 
BRANCH   2   3
ATOM      3  C   UNL     1      -7.943  14.700 -13.561  1.00  0.00     0.006 C 
BRANCH   3   4
ATOM      4  C   UNL     1      -7.459  13.250 -13.663  1.00  0.00     0.053 C 
BRANCH   4   5
ATOM      5  C   UNL     1      -5.982  13.205 -13.898  1.00  0.00     0.041 C 
ATOM      6  O   UNL     1      -5.510  13.515 -15.023  1.00  0.00    -0.550 OA
ATOM      7  O   UNL     1      -5.123  12.868 -12.859  1.00  0.00    -0.550 OA
ENDBRANCH   4   5
ENDBRANCH   3   4
ENDBRANCH   2   3
ENDBRANCH   1   2
BRANCH   1   8
ATOM      8  C   UNL     1      -8.697  17.355 -13.224  1.00  0.00     0.000 C 
BRANCH   8   9
ATOM      9  C   UNL     1      -8.315  18.838 -13.033  1.00  0.00     0.000 C 
BRANCH   9  10
ATOM     10  C   UNL     1      -7.548  19.435 -14.225  1.00  0.00     0.006 C 
BRANCH  10  11
ATOM     11  C   UNL     1      -6.622  18.421 -14.908  1.00  0.00     0.053 C 
BRANCH  11  12
ATOM     12  C   UNL     1      -5.479  18.070 -14.009  1.00  0.00     0.041 C 
ATOM     13  O   UNL     1      -4.875  18.971 -13.371  1.00  0.00    -0.550 OA
ATOM     14  O   UNL     1      -5.111  16.740 -13.838  1.00  0.00    -0.550 OA
ENDBRANCH  11  12
ENDBRANCH  10  11
ENDBRANCH   9  10
ENDBRANCH   8   9
ENDBRANCH   1   8
TORSDOF 9
ENDMDL
MODEL 2
REMARK VINA RESULT:    -3.610      2.680      5.434
REMARK INTER + INTRA:          -6.183
REMARK INTER:                  -5.638
REMARK INTRA:                  -0.546
REMARK UNBOUND:                -0.674
REMARK SMILES O=C([O-])CCCCCCCCC(=O)[O-]
REMARK SMILES IDX 7 1 6 2 5 3 4 4 2 5 1 6 3 7 8 8 9 9 10 10 11 11 12 12 13 13
REMARK SMILES IDX 14 14
REMARK H PARENT
REMARK Flexibility Score: inf
ROOT
ATOM      1  C   UNL     1      -6.115  15.595 -15.125  1.00  0.00     0.000 C 
ENDROOT
BRANCH   1   2
ATOM      2  C   UNL     1      -5.273  16.788 -14.642  1.00  0.00     0.000 C 
BRANCH   2   3
ATOM      3  C   UNL     1      -5.961  18.138 -14.891  1.00  0.00     0.006 C 
BRANCH   3   4
ATOM      4  C   UNL     1      -5.426  19.209 -13.936  1.00  0.00     0.053 C 
BRANCH   4   5
ATOM      5  C   UNL     1      -6.522  20.141 -13.527  1.00  0.00     0.041 C 
ATOM      6  O   UNL     1      -6.640  20.491 -12.323  1.00  0.00    -0.550 OA
ATOM      7  O   UNL     1      -7.384  20.662 -14.483  1.00  0.00    -0.550 OA
ENDBRANCH   4   5
ENDBRANCH   3   4
ENDBRANCH   2   3
ENDBRANCH   1   2
BRANCH   1   8
ATOM      8  C   UNL     1      -5.651  14.258 -14.521  1.00  0.00     0.000 C 
BRANCH   8   9
ATOM      9  C   UNL     1      -6.761  13.579 -13.691  1.00  0.00     0.000 C 
BRANCH   9  10
ATOM     10  C   UNL     1      -7.969  14.492 -13.416  1.00  0.00     0.006 C 
BRANCH  10  11
ATOM     11  C   UNL     1      -7.774  15.384 -12.184  1.00  0.00     0.053 C 
BRANCH  11  12
ATOM     12  C   UNL     1      -8.656  16.590 -12.267  1.00  0.00     0.041 C 
ATOM     13  O   UNL     1      -8.335  17.652 -11.674  1.00  0.00    -0.550 OA
ATOM     14  O   UNL     1      -9.809  16.555 -13.043  1.00  0.00    -0.550 OA
ENDBRANCH  11  12
ENDBRANCH  10  11
ENDBRANCH   9  10
ENDBRANCH   8   9
ENDBRANCH   1   8
TORSDOF 9
ENDMDL
MODEL 3
REMARK VINA RESULT:    -3.538      0.964      4.697
REMARK INTER + INTRA:          -6.073
REMARK INTER:                  -5.244
REMARK INTRA:                  -0.830
REMARK UNBOUND:                -0.674
REMARK SMILES O=C([O-])CCCCCCCCC(=O)[O-]
REMARK SMILES IDX 7 1 6 2 5 3 4 4 2 5 1 6 3 7 8 8 9 9 10 10 11 11 12 12 13 13
REMARK SMILES IDX 14 14
REMARK H PARENT
REMARK Flexibility Score: inf
ROOT
ATOM      1  C   UNL     1      -8.878  16.664 -12.772  1.00  0.00     0.000 C 
ENDROOT
BRANCH   1   2
ATOM      2  C   UNL     1      -8.276  17.993 -13.256  1.00  0.00     0.000 C 
BRANCH   2   3
ATOM      3  C   UNL     1      -7.641  17.884 -14.649  1.00  0.00     0.006 C 
BRANCH   3   4
ATOM      4  C   UNL     1      -6.497  18.889 -14.811  1.00  0.00     0.053 C 
BRANCH   4   5
ATOM      5  C   UNL     1      -5.490  18.719 -13.717  1.00  0.00     0.041 C 
ATOM      6  O   UNL     1      -4.969  17.592 -13.505  1.00  0.00    -0.550 OA
ATOM      7  O   UNL     1      -5.092  19.815 -12.963  1.00  0.00    -0.550 OA
ENDBRANCH   4   5
ENDBRANCH   3   4
ENDBRANCH   2   3
ENDBRANCH   1   2
BRANCH   1   8
ATOM      8  C   UNL     1      -7.840  15.530 -12.713  1.00  0.00     0.000 C 
BRANCH   8   9
ATOM      9  C   UNL     1      -8.226  14.341 -13.620  1.00  0.00     0.000 C 
BRANCH   9  10
ATOM     10  C   UNL     1      -7.355  14.221 -14.881  1.00  0.00     0.006 C 
BRANCH  10  11
ATOM     11  C   UNL     1      -5.857  14.372 -14.589  1.00  0.00     0.053 C 
BRANCH  11  12
ATOM     12  C   UNL     1      -5.288  13.078 -14.098  1.00  0.00     0.041 C 
ATOM     13  O   UNL     1      -5.115  12.889 -12.866  1.00  0.00    -0.550 OA
ATOM     14  O   UNL     1      -4.995  12.061 -14.999  1.00  0.00    -0.550 OA
ENDBRANCH  11  12
ENDBRANCH  10  11
ENDBRANCH   9  10
ENDBRANCH   8   9
ENDBRANCH   1   8
TORSDOF 9
ENDMDL
MODEL 4
REMARK VINA RESULT:    -3.501      1.509      1.992
REMARK INTER + INTRA:          -6.017
REMARK INTER:                  -5.468
REMARK INTRA:                  -0.549
REMARK UNBOUND:                -0.674
REMARK SMILES O=C([O-])CCCCCCCCC(=O)[O-]
REMARK SMILES IDX 7 1 6 2 5 3 4 4 2 5 1 6 3 7 8 8 9 9 10 10 11 11 12 12 13 13
REMARK SMILES IDX 14 14
REMARK H PARENT
REMARK Flexibility Score: inf
ROOT
ATOM      1  C   UNL     1      -7.362  16.811 -13.978  1.00  0.00     0.000 C 
ENDROOT
BRANCH   1   2
ATOM      2  C   UNL     1      -8.210  15.853 -14.831  1.00  0.00     0.000 C 
BRANCH   2   3
ATOM      3  C   UNL     1      -7.519  14.503 -15.068  1.00  0.00     0.006 C 
BRANCH   3   4
ATOM      4  C   UNL     1      -7.846  13.516 -13.942  1.00  0.00     0.053 C 
BRANCH   4   5
ATOM      5  C   UNL     1      -6.793  13.563 -12.881  1.00  0.00     0.041 C 
ATOM      6  O   UNL     1      -5.612  13.216 -13.144  1.00  0.00    -0.550 OA
ATOM      7  O   UNL     1      -7.106  14.035 -11.612  1.00  0.00    -0.550 OA
ENDBRANCH   4   5
ENDBRANCH   3   4
ENDBRANCH   2   3
ENDBRANCH   1   2
BRANCH   1   8
ATOM      8  C   UNL     1      -8.176  17.489 -12.862  1.00  0.00     0.000 C 
BRANCH   8   9
ATOM      9  C   UNL     1      -8.323  19.009 -13.092  1.00  0.00     0.000 C 
BRANCH   9  10
ATOM     10  C   UNL     1      -7.761  19.485 -14.442  1.00  0.00     0.006 C 
BRANCH  10  11
ATOM     11  C   UNL     1      -6.766  20.642 -14.300  1.00  0.00     0.053 C 
BRANCH  11  12
ATOM     12  C   UNL     1      -5.838  20.395 -13.153  1.00  0.00     0.041 C 
ATOM     13  O   UNL     1      -5.951  21.062 -12.091  1.00  0.00    -0.550 OA
ATOM     14  O   UNL     1      -4.878  19.393 -13.238  1.00  0.00    -0.550 OA
ENDBRANCH  11  12
ENDBRANCH  10  11
ENDBRANCH   9  10
ENDBRANCH   8   9
ENDBRANCH   1   8
TORSDOF 9
ENDMDL
MODEL 5
REMARK VINA RESULT:    -3.498      1.587      1.982
REMARK INTER + INTRA:          -6.012
REMARK INTER:                  -5.579
REMARK INTRA:                  -0.433
REMARK UNBOUND:                -0.674
REMARK SMILES O=C([O-])CCCCCCCCC(=O)[O-]
REMARK SMILES IDX 7 1 6 2 5 3 4 4 2 5 1 6 3 7 8 8 9 9 10 10 11 11 12 12 13 13
REMARK SMILES IDX 14 14
REMARK H PARENT
REMARK Flexibility Score: inf
ROOT
ATOM      1  C   UNL     1      -7.863  15.211 -12.512  1.00  0.00     0.000 C 
ENDROOT
BRANCH   1   2
ATOM      2  C   UNL     1      -8.282  14.825 -13.939  1.00  0.00     0.000 C 
BRANCH   2   3
ATOM      3  C   UNL     1      -7.770  13.438 -14.352  1.00  0.00     0.006 C 
BRANCH   3   4
ATOM      4  C   UNL     1      -6.353  13.526 -14.928  1.00  0.00     0.053 C 
BRANCH   4   5
ATOM      5  C   UNL     1      -5.426  12.620 -14.181  1.00  0.00     0.041 C 
ATOM      6  O   UNL     1      -4.875  11.652 -14.769  1.00  0.00    -0.550 OA
ATOM      7  O   UNL     1      -5.132  12.874 -12.847  1.00  0.00    -0.550 OA
ENDBRANCH   4   5
ENDBRANCH   3   4
ENDBRANCH   2   3
ENDBRANCH   1   2
BRANCH   1   8
ATOM      8  C   UNL     1      -8.440  16.567 -12.070  1.00  0.00     0.000 C 
BRANCH   8   9
ATOM      9  C   UNL     1      -8.594  17.546 -13.254  1.00  0.00     0.000 C 
BRANCH   9  10
ATOM     10  C   UNL     1      -8.250  19.002 -12.898  1.00  0.00     0.006 C 
BRANCH  10  11
ATOM     11  C   UNL     1      -7.397  19.693 -13.969  1.00  0.00     0.053 C 
BRANCH  11  12
ATOM     12  C   UNL     1      -6.256  20.425 -13.335  1.00  0.00     0.041 C 
ATOM     13  O   UNL     1      -6.272  20.679 -12.103  1.00  0.00    -0.550 OA
ATOM     14  O   UNL     1      -5.151  20.785 -14.099  1.00  0.00    -0.550 OA
ENDBRANCH  11  12
ENDBRANCH  10  11
ENDBRANCH   9  10
ENDBRANCH   8   9
ENDBRANCH   1   8
TORSDOF 9
ENDMDL
MODEL 6
REMARK VINA RESULT:    -3.486      1.469      2.042
REMARK INTER + INTRA:          -5.994
REMARK INTER:                  -5.287
REMARK INTRA:                  -0.707
REMARK UNBOUND:                -0.674
REMARK SMILES O=C([O-])CCCCCCCCC(=O)[O-]
REMARK SMILES IDX 7 1 6 2 5 3 4 4 2 5 1 6 3 7 8 8 9 9 10 10 11 11 12 12 13 13
REMARK SMILES IDX 14 14
REMARK H PARENT
REMARK Flexibility Score: inf
ROOT
ATOM      1  C   UNL     1      -7.853  16.552 -12.770  1.00  0.00     0.000 C 
ENDROOT
BRANCH   1   2
ATOM      2  C   UNL     1      -7.736  15.037 -12.535  1.00  0.00     0.000 C 
BRANCH   2   3
ATOM      3  C   UNL     1      -8.086  14.215 -13.784  1.00  0.00     0.006 C 
BRANCH   3   4
ATOM      4  C   UNL     1      -7.276  12.916 -13.829  1.00  0.00     0.053 C 
BRANCH   4   5
ATOM      5  C   UNL     1      -5.811  13.213 -13.885  1.00  0.00     0.041 C 
ATOM      6  O   UNL     1      -5.330  13.850 -14.859  1.00  0.00    -0.550 OA
ATOM      7  O   UNL     1      -4.984  12.827 -12.838  1.00  0.00    -0.550 OA
ENDBRANCH   4   5
ENDBRANCH   3   4
ENDBRANCH   2   3
ENDBRANCH   1   2
BRANCH   1   8
ATOM      8  C   UNL     1      -7.366  16.974 -14.168  1.00  0.00     0.000 C 
BRANCH   8   9
ATOM      9  C   UNL     1      -5.864  17.330 -14.177  1.00  0.00     0.000 C 
BRANCH   9  10
ATOM     10  C   UNL     1      -5.540  18.616 -14.956  1.00  0.00     0.006 C 
BRANCH  10  11
ATOM     11  C   UNL     1      -5.037  19.750 -14.055  1.00  0.00     0.053 C 
BRANCH  11  12
ATOM     12  C   UNL     1      -6.184  20.413 -13.360  1.00  0.00     0.041 C 
ATOM     13  O   UNL     1      -6.105  20.698 -12.137  1.00  0.00    -0.550 OA
ATOM     14  O   UNL     1      -7.323  20.762 -14.076  1.00  0.00    -0.550 OA
ENDBRANCH  11  12
ENDBRANCH  10  11
ENDBRANCH   9  10
ENDBRANCH   8   9
ENDBRANCH   1   8
TORSDOF 9
ENDMDL
MODEL 7
REMARK VINA RESULT:    -3.484      1.586      5.382
REMARK INTER + INTRA:          -5.991
REMARK INTER:                  -5.749
REMARK INTRA:                  -0.242
REMARK UNBOUND:                -0.674
REMARK SMILES O=C([O-])CCCCCCCCC(=O)[O-]
REMARK SMILES IDX 7 1 6 2 5 3 4 4 2 5 1 6 3 7 8 8 9 9 10 10 11 11 12 12 13 13
REMARK SMILES IDX 14 14
REMARK H PARENT
REMARK Flexibility Score: inf
ROOT
ATOM      1  C   UNL     1      -8.500  17.183 -13.224  1.00  0.00     0.000 C 
ENDROOT
BRANCH   1   2
ATOM      2  C   UNL     1      -8.262  18.688 -13.022  1.00  0.00     0.000 C 
BRANCH   2   3
ATOM      3  C   UNL     1      -7.921  19.415 -14.330  1.00  0.00     0.006 C 
BRANCH   3   4
ATOM      4  C   UNL     1      -7.191  20.732 -14.051  1.00  0.00     0.053 C 
BRANCH   4   5
ATOM      5  C   UNL     1      -5.940  20.483 -13.269  1.00  0.00     0.041 C 
ATOM      6  O   UNL     1      -4.975  19.870 -13.795  1.00  0.00    -0.550 OA
ATOM      7  O   UNL     1      -5.823  20.972 -11.974  1.00  0.00    -0.550 OA
ENDBRANCH   4   5
ENDBRANCH   3   4
ENDBRANCH   2   3
ENDBRANCH   1   2
BRANCH   1   8
ATOM      8  C   UNL     1      -8.193  16.722 -14.660  1.00  0.00     0.000 C 
BRANCH   8   9
ATOM      9  C   UNL     1      -7.306  15.459 -14.687  1.00  0.00     0.000 C 
BRANCH   9  10
ATOM     10  C   UNL     1      -8.085  14.166 -14.983  1.00  0.00     0.006 C 
BRANCH  10  11
ATOM     11  C   UNL     1      -7.803  13.054 -13.964  1.00  0.00     0.053 C 
BRANCH  11  12
ATOM     12  C   UNL     1      -6.695  13.457 -13.044  1.00  0.00     0.041 C 
ATOM     13  O   UNL     1      -5.496  13.248 -13.366  1.00  0.00    -0.550 OA
ATOM     14  O   UNL     1      -6.984  14.109 -11.851  1.00  0.00    -0.550 OA
ENDBRANCH  11  12
ENDBRANCH  10  11
ENDBRANCH   9  10
ENDBRANCH   8   9
ENDBRANCH   1   8
TORSDOF 9
ENDMDL
MODEL 8
REMARK VINA RESULT:    -3.431      2.134      3.323
REMARK INTER + INTRA:          -5.911
REMARK INTER:                  -5.327
REMARK INTRA:                  -0.584
REMARK UNBOUND:                -0.674
REMARK SMILES O=C([O-])CCCCCCCCC(=O)[O-]
REMARK SMILES IDX 7 1 6 2 5 3 4 4 2 5 1 6 3 7 8 8 9 9 10 10 11 11 12 12 13 13
REMARK SMILES IDX 14 14
REMARK H PARENT
REMARK Flexibility Score: inf
ROOT
ATOM      1  C   UNL     1      -6.089  16.795 -14.814  1.00  0.00     0.000 C 
ENDROOT
BRANCH   1   2
ATOM      2  C   UNL     1      -5.989  15.274 -14.613  1.00  0.00     0.000 C 
BRANCH   2   3
ATOM      3  C   UNL     1      -7.362  14.605 -14.463  1.00  0.00     0.006 C 
BRANCH   3   4
ATOM      4  C   UNL     1      -8.192  15.295 -13.376  1.00  0.00     0.053 C 
BRANCH   4   5
ATOM      5  C   UNL     1      -7.501  15.206 -12.052  1.00  0.00     0.041 C 
ATOM      6  O   UNL     1      -7.367  16.234 -11.337  1.00  0.00    -0.550 OA
ATOM      7  O   UNL     1      -7.047  13.979 -11.586  1.00  0.00    -0.550 OA
ENDBRANCH   4   5
ENDBRANCH   3   4
ENDBRANCH   2   3
ENDBRANCH   1   2
BRANCH   1   8
ATOM      8  C   UNL     1      -4.875  17.550 -14.245  1.00  0.00     0.000 C 
BRANCH   8   9
ATOM      9  C   UNL     1      -4.890  19.045 -14.625  1.00  0.00     0.000 C 
BRANCH   9  10
ATOM     10  C   UNL     1      -4.966  19.988 -13.412  1.00  0.00     0.006 C 
BRANCH  10  11
ATOM     11  C   UNL     1      -6.162  20.945 -13.473  1.00  0.00     0.053 C 
BRANCH  11  12
ATOM     12  C   UNL     1      -7.432  20.182 -13.681  1.00  0.00     0.041 C 
ATOM     13  O   UNL     1      -8.144  20.401 -14.695  1.00  0.00    -0.550 OA
ATOM     14  O   UNL     1      -7.804  19.192 -12.779  1.00  0.00    -0.550 OA
ENDBRANCH  11  12
ENDBRANCH  10  11
ENDBRANCH   9  10
ENDBRANCH   8   9
ENDBRANCH   1   8
TORSDOF 9
ENDMDL
