MODEL 1
REMARK VINA RESULT:    -3.397      0.000      0.000
REMARK INTER + INTRA:          -4.074
REMARK INTER:                  -3.993
REMARK INTRA:                  -0.082
REMARK UNBOUND:                -0.082
REMARK SMILES O=C([O-])CCC(=O)[O-]
REMARK SMILES IDX 4 1 2 2 1 3 3 4 5 5 6 6 7 7 8 8
REMARK H PARENT
REMARK Flexibility Score: inf
ROOT
ATOM      1  C   UNL     1      23.769   5.969  10.985  1.00  0.00     0.059 C 
ENDROOT
BRANCH   1   2
ATOM      2  C   UNL     1      25.026   6.533  10.395  1.00  0.00     0.042 C 
ATOM      3  O   UNL     1      26.072   6.614  11.092  1.00  0.00    -0.550 OA
ATOM      4  O   UNL     1      25.029   7.006   9.089  1.00  0.00    -0.550 OA
ENDBRANCH   1   2
BRANCH   1   5
ATOM      5  C   UNL     1      23.165   6.912  12.030  1.00  0.00     0.059 C 
BRANCH   5   6
ATOM      6  C   UNL     1      22.000   7.675  11.475  1.00  0.00     0.042 C 
ATOM      7  O   UNL     1      21.017   7.955  12.211  1.00  0.00    -0.550 OA
ATOM      8  O   UNL     1      21.983   8.041  10.135  1.00  0.00    -0.550 OA
ENDBRANCH   5   6
ENDBRANCH   1   5
TORSDOF 3
ENDMDL
MODEL 2
REMARK VINA RESULT:    -3.314      1.600      3.857
REMARK INTER + INTRA:          -3.976
REMARK INTER:                  -3.883
REMARK INTRA:                  -0.093
REMARK UNBOUND:                -0.082
REMARK SMILES O=C([O-])CCC(=O)[O-]
REMARK SMILES IDX 4 1 2 2 1 3 3 4 5 5 6 6 7 7 8 8
REMARK H PARENT
REMARK Flexibility Score: inf
ROOT
ATOM      1  C   UNL     1      23.347   6.634  12.516  1.00  0.00     0.059 C 
ENDROOT
BRANCH   1   2
ATOM      2  C   UNL     1      22.817   7.429  11.363  1.00  0.00     0.042 C 
ATOM      3  O   UNL     1      21.819   8.181  11.517  1.00  0.00    -0.550 OA
ATOM      4  O   UNL     1      23.400   7.308  10.108  1.00  0.00    -0.550 OA
ENDBRANCH   1   2
BRANCH   1   5
ATOM      5  C   UNL     1      24.624   5.875  12.137  1.00  0.00     0.059 C 
BRANCH   5   6
ATOM      6  C   UNL     1      25.853   6.649  12.505  1.00  0.00     0.042 C 
ATOM      7  O   UNL     1      26.838   6.686  11.721  1.00  0.00    -0.550 OA
ATOM      8  O   UNL     1      25.926   7.297  13.732  1.00  0.00    -0.550 OA
ENDBRANCH   5   6
ENDBRANCH   1   5
TORSDOF 3
ENDMDL
MODEL 3
REMARK VINA RESULT:    -3.307      2.392      3.318
REMARK INTER + INTRA:          -3.968
REMARK INTER:                  -3.848
REMARK INTRA:                  -0.120
REMARK UNBOUND:                -0.082
REMARK SMILES O=C([O-])CCC(=O)[O-]
REMARK SMILES IDX 4 1 2 2 1 3 3 4 5 5 6 6 7 7 8 8
REMARK H PARENT
REMARK Flexibility Score: inf
ROOT
ATOM      1  C   UNL     1      22.660   6.093  12.585  1.00  0.00     0.059 C 
ENDROOT
BRANCH   1   2
ATOM      2  C   UNL     1      22.971   7.198  11.623  1.00  0.00     0.042 C 
ATOM      3  O   UNL     1      22.164   8.153  11.472  1.00  0.00    -0.550 OA
ATOM      4  O   UNL     1      24.133   7.152  10.862  1.00  0.00    -0.550 OA
ENDBRANCH   1   2
BRANCH   1   5
ATOM      5  C   UNL     1      23.034   6.474  14.021  1.00  0.00     0.059 C 
BRANCH   5   6
ATOM      6  C   UNL     1      21.821   6.605  14.889  1.00  0.00     0.042 C 
ATOM      7  O   UNL     1      21.798   6.076  16.032  1.00  0.00    -0.550 OA
ATOM      8  O   UNL     1      20.699   7.277  14.421  1.00  0.00    -0.550 OA
ENDBRANCH   5   6
ENDBRANCH   1   5
TORSDOF 3
ENDMDL
MODEL 4
REMARK VINA RESULT:    -3.289      1.795      2.116
REMARK INTER + INTRA:          -3.948
REMARK INTER:                  -3.842
REMARK INTRA:                  -0.106
REMARK UNBOUND:                -0.082
REMARK SMILES O=C([O-])CCC(=O)[O-]
REMARK SMILES IDX 4 1 2 2 1 3 3 4 5 5 6 6 7 7 8 8
REMARK H PARENT
REMARK Flexibility Score: inf
ROOT
ATOM      1  C   UNL     1      24.485   5.771  12.711  1.00  0.00     0.059 C 
ENDROOT
BRANCH   1   2
ATOM      2  C   UNL     1      25.720   6.609  12.842  1.00  0.00     0.042 C 
ATOM      3  O   UNL     1      25.900   7.316  13.869  1.00  0.00    -0.550 OA
ATOM      4  O   UNL     1      26.651   6.641  11.812  1.00  0.00    -0.550 OA
ENDBRANCH   1   2
BRANCH   1   5
ATOM      5  C   UNL     1      23.215   6.624  12.786  1.00  0.00     0.059 C 
BRANCH   5   6
ATOM      6  C   UNL     1      22.898   7.256  11.465  1.00  0.00     0.042 C 
ATOM      7  O   UNL     1      22.084   8.215  11.399  1.00  0.00    -0.550 OA
ATOM      8  O   UNL     1      23.471   6.760  10.300  1.00  0.00    -0.550 OA
ENDBRANCH   5   6
ENDBRANCH   1   5
TORSDOF 3
ENDMDL
MODEL 5
REMARK VINA RESULT:    -3.283      4.233      5.891
REMARK INTER + INTRA:          -3.941
REMARK INTER:                  -3.748
REMARK INTRA:                  -0.193
REMARK UNBOUND:                -0.082
REMARK SMILES O=C([O-])CCC(=O)[O-]
REMARK SMILES IDX 4 1 2 2 1 3 3 4 5 5 6 6 7 7 8 8
REMARK H PARENT
REMARK Flexibility Score: inf
ROOT
ATOM      1  C   UNL     1      26.283   5.670  15.265  1.00  0.00     0.059 C 
ENDROOT
BRANCH   1   2
ATOM      2  C   UNL     1      25.274   6.728  14.939  1.00  0.00     0.042 C 
ATOM      3  O   UNL     1      24.498   6.583  13.957  1.00  0.00    -0.550 OA
ATOM      4  O   UNL     1      25.219   7.893  15.694  1.00  0.00    -0.550 OA
ENDBRANCH   1   2
BRANCH   1   5
ATOM      5  C   UNL     1      27.300   5.492  14.132  1.00  0.00     0.059 C 
BRANCH   5   6
ATOM      6  C   UNL     1      28.068   6.753  13.879  1.00  0.00     0.042 C 
ATOM      7  O   UNL     1      28.812   7.234  14.774  1.00  0.00    -0.550 OA
ATOM      8  O   UNL     1      27.930   7.421  12.668  1.00  0.00    -0.550 OA
ENDBRANCH   5   6
ENDBRANCH   1   5
TORSDOF 3
ENDMDL
MODEL 6
REMARK VINA RESULT:    -3.250      4.973      6.417
REMARK INTER + INTRA:          -3.901
REMARK INTER:                  -3.782
REMARK INTRA:                  -0.120
REMARK UNBOUND:                -0.082
REMARK SMILES O=C([O-])CCC(=O)[O-]
REMARK SMILES IDX 4 1 2 2 1 3 3 4 5 5 6 6 7 7 8 8
REMARK H PARENT
REMARK Flexibility Score: inf
ROOT
ATOM      1  C   UNL     1      18.371   6.363   9.434  1.00  0.00     0.059 C 
ENDROOT
BRANCH   1   2
ATOM      2  C   UNL     1      19.079   7.618   9.842  1.00  0.00     0.042 C 
ATOM      3  O   UNL     1      18.441   8.698   9.953  1.00  0.00    -0.550 OA
ATOM      4  O   UNL     1      20.451   7.604  10.058  1.00  0.00    -0.550 OA
ENDBRANCH   1   2
BRANCH   1   5
ATOM      5  C   UNL     1      18.356   6.194   7.911  1.00  0.00     0.059 C 
BRANCH   5   6
ATOM      6  C   UNL     1      17.128   6.800   7.303  1.00  0.00     0.042 C 
ATOM      7  O   UNL     1      17.159   7.973   6.844  1.00  0.00    -0.550 OA
ATOM      8  O   UNL     1      15.937   6.084   7.278  1.00  0.00    -0.550 OA
ENDBRANCH   5   6
ENDBRANCH   1   5
TORSDOF 3
ENDMDL
MODEL 7
REMARK VINA RESULT:    -3.230      7.090      8.679
REMARK INTER + INTRA:          -3.878
REMARK INTER:                  -3.791
REMARK INTRA:                  -0.087
REMARK UNBOUND:                -0.082
REMARK SMILES O=C([O-])CCC(=O)[O-]
REMARK SMILES IDX 4 1 2 2 1 3 3 4 5 5 6 6 7 7 8 8
REMARK H PARENT
REMARK Flexibility Score: inf
ROOT
ATOM      1  C   UNL     1      29.390   5.568  15.375  1.00  0.00     0.059 C 
ENDROOT
BRANCH   1   2
ATOM      2  C   UNL     1      28.589   6.721  14.853  1.00  0.00     0.042 C 
ATOM      3  O   UNL     1      27.454   6.974  15.337  1.00  0.00    -0.550 OA
ATOM      4  O   UNL     1      29.078   7.490  13.805  1.00  0.00    -0.550 OA
ENDBRANCH   1   2
BRANCH   1   5
ATOM      5  C   UNL     1      29.237   5.415  16.892  1.00  0.00     0.059 C 
BRANCH   5   6
ATOM      6  C   UNL     1      30.398   6.012  17.626  1.00  0.00     0.042 C 
ATOM      7  O   UNL     1      31.475   6.256  17.019  1.00  0.00    -0.550 OA
ATOM      8  O   UNL     1      30.307   6.261  18.990  1.00  0.00    -0.550 OA
ENDBRANCH   5   6
ENDBRANCH   1   5
TORSDOF 3
ENDMDL
MODEL 8
REMARK VINA RESULT:    -3.212      4.243      4.905
REMARK INTER + INTRA:          -3.856
REMARK INTER:                  -3.726
REMARK INTRA:                  -0.131
REMARK UNBOUND:                -0.082
REMARK SMILES O=C([O-])CCC(=O)[O-]
REMARK SMILES IDX 4 1 2 2 1 3 3 4 5 5 6 6 7 7 8 8
REMARK H PARENT
REMARK Flexibility Score: inf
ROOT
ATOM      1  C   UNL     1      26.971   5.725  13.895  1.00  0.00     0.059 C 
ENDROOT
BRANCH   1   2
ATOM      2  C   UNL     1      27.913   6.868  13.668  1.00  0.00     0.042 C 
ATOM      3  O   UNL     1      27.930   7.464  12.559  1.00  0.00    -0.550 OA
ATOM      4  O   UNL     1      28.800   7.246  14.667  1.00  0.00    -0.550 OA
ENDBRANCH   1   2
BRANCH   1   5
ATOM      5  C   UNL     1      26.257   5.843  15.245  1.00  0.00     0.059 C 
BRANCH   5   6
ATOM      6  C   UNL     1      25.158   6.861  15.199  1.00  0.00     0.042 C 
ATOM      7  O   UNL     1      25.339   8.012  15.678  1.00  0.00    -0.550 OA
ATOM      8  O   UNL     1      23.921   6.526  14.664  1.00  0.00    -0.550 OA
ENDBRANCH   5   6
ENDBRANCH   1   5
TORSDOF 3
ENDMDL
MODEL 9
REMARK VINA RESULT:    -3.169     11.482     13.110
REMARK INTER + INTRA:          -3.806
REMARK INTER:                  -3.718
REMARK INTRA:                  -0.088
REMARK UNBOUND:                -0.082
REMARK SMILES O=C([O-])CCC(=O)[O-]
REMARK SMILES IDX 4 1 2 2 1 3 3 4 5 5 6 6 7 7 8 8
REMARK H PARENT
REMARK Flexibility Score: inf
ROOT
ATOM      1  C   UNL     1      29.135  -2.873   9.093  1.00  0.00     0.059 C 
ENDROOT
BRANCH   1   2
ATOM      2  C   UNL     1      27.828  -2.851   8.362  1.00  0.00     0.042 C 
ATOM      3  O   UNL     1      26.747  -2.743   9.000  1.00  0.00    -0.550 OA
ATOM      4  O   UNL     1      27.801  -2.991   6.981  1.00  0.00    -0.550 OA
ENDBRANCH   1   2
BRANCH   1   5
ATOM      5  C   UNL     1      30.280  -3.333   8.185  1.00  0.00     0.059 C 
BRANCH   5   6
ATOM      6  C   UNL     1      30.548  -4.799   8.338  1.00  0.00     0.042 C 
ATOM      7  O   UNL     1      29.723  -5.644   7.899  1.00  0.00    -0.550 OA
ATOM      8  O   UNL     1      31.690  -5.233   9.000  1.00  0.00    -0.550 OA
ENDBRANCH   5   6
ENDBRANCH   1   5
TORSDOF 3
ENDMDL
