MODEL 1
REMARK VINA RESULT:    -3.716      0.000      0.000
REMARK INTER + INTRA:          -4.241
REMARK INTER:                  -4.042
REMARK INTRA:                  -0.198
REMARK UNBOUND:                -0.198
REMARK SMILES CC(C)(C)[C@H]1C=C[C@H](O)CC1
REMARK SMILES IDX 5 1 11 2 10 3 8 4 7 5 6 6 2 7 1 8 3 9 4 10 9 11
REMARK H PARENT 9 12
REMARK Flexibility Score: inf
ROOT
ATOM      1  C   UNL     1       6.207   0.921  -0.094  1.00  0.00     0.017 C 
ATOM      2  C   UNL     1       7.057  -0.341   0.249  1.00  0.00     0.011 C 
ATOM      3  C   UNL     1       6.602  -1.647  -0.459  1.00  0.00     0.037 C 
ATOM      4  C   UNL     1       5.255  -1.524  -1.190  1.00  0.00     0.137 C 
ATOM      5  C   UNL     1       5.263  -0.281  -2.040  1.00  0.00     0.000 C 
ATOM      6  C   UNL     1       5.741   0.865  -1.540  1.00  0.00    -0.025 C 
ENDROOT
BRANCH   1   7
ATOM      7  C   UNL     1       6.887   2.287   0.297  1.00  0.00    -0.032 C 
ATOM      8  C   UNL     1       5.883   3.452   0.132  1.00  0.00     0.011 C 
ATOM      9  C   UNL     1       7.406   2.291   1.755  1.00  0.00     0.011 C 
ATOM     10  C   UNL     1       8.079   2.568  -0.652  1.00  0.00     0.011 C 
ENDBRANCH   1   7
BRANCH   4  11
ATOM     11  O   UNL     1       4.212  -1.465  -0.252  1.00  0.00    -0.389 OA
ATOM     12  H   UNL     1       4.509  -1.989   0.538  1.00  0.00     0.211 HD
ENDBRANCH   4  11
TORSDOF 2
ENDMDL
MODEL 2
REMARK VINA RESULT:    -3.552      9.935     11.402
REMARK INTER + INTRA:          -4.062
REMARK INTER:                  -3.861
REMARK INTRA:                  -0.200
REMARK UNBOUND:                -0.198
REMARK SMILES CC(C)(C)[C@H]1C=C[C@H](O)CC1
REMARK SMILES IDX 5 1 11 2 10 3 8 4 7 5 6 6 2 7 1 8 3 9 4 10 9 11
REMARK H PARENT 9 12
REMARK Flexibility Score: inf
ROOT
ATOM      1  C   UNL     1      -1.604   7.599   0.427  1.00  0.00     0.017 C 
ATOM      2  C   UNL     1      -2.595   8.186   1.481  1.00  0.00     0.011 C 
ATOM      3  C   UNL     1      -1.930   9.030   2.602  1.00  0.00     0.037 C 
ATOM      4  C   UNL     1      -0.395   8.950   2.618  1.00  0.00     0.137 C 
ATOM      5  C   UNL     1       0.128   9.175   1.225  1.00  0.00     0.000 C 
ATOM      6  C   UNL     1      -0.458   8.568   0.186  1.00  0.00    -0.025 C 
ENDROOT
BRANCH   1   7
ATOM      7  C   UNL     1      -2.292   7.092  -0.896  1.00  0.00    -0.032 C 
ATOM      8  C   UNL     1      -1.875   7.983  -2.091  1.00  0.00     0.011 C 
ATOM      9  C   UNL     1      -1.924   5.626  -1.227  1.00  0.00     0.011 C 
ATOM     10  C   UNL     1      -3.831   7.195  -0.759  1.00  0.00     0.011 C 
ENDBRANCH   1   7
BRANCH   4  11
ATOM     11  O   UNL     1       0.008   7.690   3.090  1.00  0.00    -0.389 OA
ATOM     12  H   UNL     1      -0.275   7.027   2.407  1.00  0.00     0.211 HD
ENDBRANCH   4  11
TORSDOF 2
ENDMDL
MODEL 3
REMARK VINA RESULT:    -3.484      2.490      3.747
REMARK INTER + INTRA:          -3.988
REMARK INTER:                  -3.788
REMARK INTRA:                  -0.201
REMARK UNBOUND:                -0.198
REMARK SMILES CC(C)(C)[C@H]1C=C[C@H](O)CC1
REMARK SMILES IDX 5 1 11 2 10 3 8 4 7 5 6 6 2 7 1 8 3 9 4 10 9 11
REMARK H PARENT 9 12
REMARK Flexibility Score: inf
ROOT
ATOM      1  C   UNL     1       7.620   1.799   0.289  1.00  0.00     0.017 C 
ATOM      2  C   UNL     1       7.497   0.246   0.210  1.00  0.00     0.011 C 
ATOM      3  C   UNL     1       8.039  -0.516   1.450  1.00  0.00     0.037 C 
ATOM      4  C   UNL     1       8.815   0.371   2.438  1.00  0.00     0.137 C 
ATOM      5  C   UNL     1       8.014   1.613   2.724  1.00  0.00     0.000 C 
ATOM      6  C   UNL     1       7.421   2.271   1.720  1.00  0.00    -0.025 C 
ENDROOT
BRANCH   1   7
ATOM      7  C   UNL     1       6.735   2.573  -0.759  1.00  0.00    -0.032 C 
ATOM      8  C   UNL     1       5.798   3.570  -0.036  1.00  0.00     0.011 C 
ATOM      9  C   UNL     1       7.587   3.358  -1.785  1.00  0.00     0.011 C 
ATOM     10  C   UNL     1       5.837   1.571  -1.527  1.00  0.00     0.011 C 
ENDBRANCH   1   7
BRANCH   4  11
ATOM     11  O   UNL     1      10.061   0.713   1.889  1.00  0.00    -0.389 OA
ATOM     12  H   UNL     1      10.327  -0.039   1.297  1.00  0.00     0.211 HD
ENDBRANCH   4  11
TORSDOF 2
ENDMDL
MODEL 4
REMARK VINA RESULT:    -3.412      9.504     10.189
REMARK INTER + INTRA:          -3.909
REMARK INTER:                  -3.708
REMARK INTRA:                  -0.201
REMARK UNBOUND:                -0.198
REMARK SMILES CC(C)(C)[C@H]1C=C[C@H](O)CC1
REMARK SMILES IDX 5 1 11 2 10 3 8 4 7 5 6 6 2 7 1 8 3 9 4 10 9 11
REMARK H PARENT 9 12
REMARK Flexibility Score: inf
ROOT
ATOM      1  C   UNL     1      -2.289   5.588  -1.854  1.00  0.00     0.017 C 
ATOM      2  C   UNL     1      -1.494   5.588  -3.196  1.00  0.00     0.011 C 
ATOM      3  C   UNL     1      -1.800   4.390  -4.136  1.00  0.00     0.037 C 
ATOM      4  C   UNL     1      -2.653   3.288  -3.486  1.00  0.00     0.137 C 
ATOM      5  C   UNL     1      -3.843   3.917  -2.810  1.00  0.00     0.000 C 
ATOM      6  C   UNL     1      -3.682   5.019  -2.067  1.00  0.00    -0.025 C 
ENDROOT
BRANCH   1   7
ATOM      7  C   UNL     1      -2.281   6.969  -1.096  1.00  0.00    -0.032 C 
ATOM      8  C   UNL     1      -3.706   7.319  -0.605  1.00  0.00     0.011 C 
ATOM      9  C   UNL     1      -1.330   6.966   0.125  1.00  0.00     0.011 C 
ATOM     10  C   UNL     1      -1.837   8.094  -2.064  1.00  0.00     0.011 C 
ENDBRANCH   1   7
BRANCH   4  11
ATOM     11  O   UNL     1      -1.881   2.581  -2.552  1.00  0.00    -0.389 OA
ATOM     12  H   UNL     1      -0.974   2.485  -2.946  1.00  0.00     0.211 HD
ENDBRANCH   4  11
TORSDOF 2
ENDMDL
MODEL 5
REMARK VINA RESULT:    -3.411      8.919     10.299
REMARK INTER + INTRA:          -3.909
REMARK INTER:                  -3.711
REMARK INTRA:                  -0.198
REMARK UNBOUND:                -0.198
REMARK SMILES CC(C)(C)[C@H]1C=C[C@H](O)CC1
REMARK SMILES IDX 5 1 11 2 10 3 8 4 7 5 6 6 2 7 1 8 3 9 4 10 9 11
REMARK H PARENT 9 12
REMARK Flexibility Score: inf
ROOT
ATOM      1  C   UNL     1      -2.057   6.494  -1.139  1.00  0.00     0.017 C 
ATOM      2  C   UNL     1      -3.522   6.123  -1.528  1.00  0.00     0.011 C 
ATOM      3  C   UNL     1      -3.691   4.718  -2.168  1.00  0.00     0.037 C 
ATOM      4  C   UNL     1      -2.363   4.029  -2.523  1.00  0.00     0.137 C 
ATOM      5  C   UNL     1      -1.431   4.110  -1.344  1.00  0.00     0.000 C 
ATOM      6  C   UNL     1      -1.308   5.259  -0.668  1.00  0.00    -0.025 C 
ENDROOT
BRANCH   1   7
ATOM      7  C   UNL     1      -1.939   7.718  -0.154  1.00  0.00    -0.032 C 
ATOM      8  C   UNL     1      -1.245   8.907  -0.859  1.00  0.00     0.011 C 
ATOM      9  C   UNL     1      -3.318   8.193   0.364  1.00  0.00     0.011 C 
ATOM     10  C   UNL     1      -1.063   7.328   1.062  1.00  0.00     0.011 C 
ENDBRANCH   1   7
BRANCH   4  11
ATOM     11  O   UNL     1      -1.788   4.658  -3.640  1.00  0.00    -0.389 OA
ATOM     12  H   UNL     1      -0.839   4.837  -3.408  1.00  0.00     0.211 HD
ENDBRANCH   4  11
TORSDOF 2
ENDMDL
MODEL 6
REMARK VINA RESULT:    -3.367      2.750      4.355
REMARK INTER + INTRA:          -3.860
REMARK INTER:                  -3.660
REMARK INTRA:                  -0.201
REMARK UNBOUND:                -0.198
REMARK SMILES CC(C)(C)[C@H]1C=C[C@H](O)CC1
REMARK SMILES IDX 5 1 11 2 10 3 8 4 7 5 6 6 2 7 1 8 3 9 4 10 9 11
REMARK H PARENT 9 12
REMARK Flexibility Score: inf
ROOT
ATOM      1  C   UNL     1       7.499   2.517  -1.219  1.00  0.00     0.017 C 
ATOM      2  C   UNL     1       8.928   2.956  -0.771  1.00  0.00     0.011 C 
ATOM      3  C   UNL     1       9.748   3.708  -1.855  1.00  0.00     0.037 C 
ATOM      4  C   UNL     1       9.107   3.686  -3.252  1.00  0.00     0.137 C 
ATOM      5  C   UNL     1       7.656   4.069  -3.139  1.00  0.00     0.000 C 
ATOM      6  C   UNL     1       6.902   3.548  -2.163  1.00  0.00    -0.025 C 
ENDROOT
BRANCH   1   7
ATOM      7  C   UNL     1       6.542   2.119  -0.033  1.00  0.00    -0.032 C 
ATOM      8  C   UNL     1       5.314   3.059   0.003  1.00  0.00     0.011 C 
ATOM      9  C   UNL     1       6.038   0.660  -0.145  1.00  0.00     0.011 C 
ATOM     10  C   UNL     1       7.286   2.281   1.316  1.00  0.00     0.011 C 
ENDBRANCH   1   7
BRANCH   4  11
ATOM     11  O   UNL     1       9.228   2.401  -3.807  1.00  0.00    -0.389 OA
ATOM     12  H   UNL     1       8.319   2.135  -4.108  1.00  0.00     0.211 HD
ENDBRANCH   4  11
TORSDOF 2
ENDMDL
MODEL 7
REMARK VINA RESULT:    -3.365      2.859      4.470
REMARK INTER + INTRA:          -3.859
REMARK INTER:                  -3.663
REMARK INTRA:                  -0.196
REMARK UNBOUND:                -0.198
REMARK SMILES CC(C)(C)[C@H]1C=C[C@H](O)CC1
REMARK SMILES IDX 5 1 11 2 10 3 8 4 7 5 6 6 2 7 1 8 3 9 4 10 9 11
REMARK H PARENT 9 12
REMARK Flexibility Score: inf
ROOT
ATOM      1  C   UNL     1       6.420   3.342  -2.225  1.00  0.00     0.017 C 
ATOM      2  C   UNL     1       5.623   3.627  -0.914  1.00  0.00     0.011 C 
ATOM      3  C   UNL     1       6.326   3.161   0.391  1.00  0.00     0.037 C 
ATOM      4  C   UNL     1       7.572   2.292   0.154  1.00  0.00     0.137 C 
ATOM      5  C   UNL     1       8.454   2.957  -0.870  1.00  0.00     0.000 C 
ATOM      6  C   UNL     1       7.913   3.483  -1.975  1.00  0.00    -0.025 C 
ENDROOT
BRANCH   1   7
ATOM      7  C   UNL     1       5.911   4.146  -3.480  1.00  0.00    -0.032 C 
ATOM      8  C   UNL     1       4.774   3.370  -4.188  1.00  0.00     0.011 C 
ATOM      9  C   UNL     1       5.385   5.552  -3.106  1.00  0.00     0.011 C 
ATOM     10  C   UNL     1       7.064   4.307  -4.501  1.00  0.00     0.011 C 
ENDBRANCH   1   7
BRANCH   4  11
ATOM     11  O   UNL     1       7.183   1.020  -0.295  1.00  0.00    -0.389 OA
ATOM     12  H   UNL     1       6.225   0.913  -0.052  1.00  0.00     0.211 HD
ENDBRANCH   4  11
TORSDOF 2
ENDMDL
MODEL 8
REMARK VINA RESULT:    -3.355      2.979      4.379
REMARK INTER + INTRA:          -3.848
REMARK INTER:                  -3.650
REMARK INTRA:                  -0.197
REMARK UNBOUND:                -0.198
REMARK SMILES CC(C)(C)[C@H]1C=C[C@H](O)CC1
REMARK SMILES IDX 5 1 11 2 10 3 8 4 7 5 6 6 2 7 1 8 3 9 4 10 9 11
REMARK H PARENT 9 12
REMARK Flexibility Score: inf
ROOT
ATOM      1  C   UNL     1       6.322   3.594  -1.940  1.00  0.00     0.017 C 
ATOM      2  C   UNL     1       7.857   3.454  -1.693  1.00  0.00     0.011 C 
ATOM      3  C   UNL     1       8.244   2.547  -0.493  1.00  0.00     0.037 C 
ATOM      4  C   UNL     1       7.054   2.132   0.386  1.00  0.00     0.137 C 
ATOM      5  C   UNL     1       5.940   1.625  -0.492  1.00  0.00     0.000 C 
ATOM      6  C   UNL     1       5.614   2.291  -1.606  1.00  0.00    -0.025 C 
ENDROOT
BRANCH   1   7
ATOM      7  C   UNL     1       5.945   4.173  -3.356  1.00  0.00    -0.032 C 
ATOM      8  C   UNL     1       7.200   4.244  -4.257  1.00  0.00     0.011 C 
ATOM      9  C   UNL     1       4.874   3.318  -4.076  1.00  0.00     0.011 C 
ATOM     10  C   UNL     1       5.404   5.616  -3.203  1.00  0.00     0.011 C 
ENDBRANCH   1   7
BRANCH   4  11
ATOM     11  O   UNL     1       6.615   3.233   1.139  1.00  0.00    -0.389 OA
ATOM     12  H   UNL     1       6.908   3.073   2.075  1.00  0.00     0.211 HD
ENDBRANCH   4  11
TORSDOF 2
ENDMDL
MODEL 9
REMARK VINA RESULT:    -3.329      8.921     10.176
REMARK INTER + INTRA:          -3.819
REMARK INTER:                  -3.619
REMARK INTRA:                  -0.200
REMARK UNBOUND:                -0.198
REMARK SMILES CC(C)(C)[C@H]1C=C[C@H](O)CC1
REMARK SMILES IDX 5 1 11 2 10 3 8 4 7 5 6 6 2 7 1 8 3 9 4 10 9 11
REMARK H PARENT 9 12
REMARK Flexibility Score: inf
ROOT
ATOM      1  C   UNL     1      -2.388   6.237  -1.184  1.00  0.00     0.017 C 
ATOM      2  C   UNL     1      -1.425   5.067  -0.811  1.00  0.00     0.011 C 
ATOM      3  C   UNL     1      -1.380   3.906  -1.842  1.00  0.00     0.037 C 
ATOM      4  C   UNL     1      -2.461   3.995  -2.932  1.00  0.00     0.137 C 
ATOM      5  C   UNL     1      -2.473   5.387  -3.506  1.00  0.00     0.000 C 
ATOM      6  C   UNL     1      -2.405   6.446  -2.689  1.00  0.00    -0.025 C 
ENDROOT
BRANCH   1   7
ATOM      7  C   UNL     1      -2.146   7.561  -0.365  1.00  0.00    -0.032 C 
ATOM      8  C   UNL     1      -1.540   8.652  -1.280  1.00  0.00     0.011 C 
ATOM      9  C   UNL     1      -3.449   8.115   0.260  1.00  0.00     0.011 C 
ATOM     10  C   UNL     1      -1.127   7.294   0.771  1.00  0.00     0.011 C 
ENDBRANCH   1   7
BRANCH   4  11
ATOM     11  O   UNL     1      -3.715   3.686  -2.381  1.00  0.00    -0.389 OA
ATOM     12  H   UNL     1      -4.320   4.440  -2.610  1.00  0.00     0.211 HD
ENDBRANCH   4  11
TORSDOF 2
ENDMDL
