MODEL 1
REMARK VINA RESULT:    -5.494      0.000      0.000
REMARK INTER + INTRA:          -5.976
REMARK INTER:                  -5.976
REMARK INTRA:                   0.000
REMARK UNBOUND:                 0.000
REMARK SMILES Cc1cc(O)c2c(c1)C(=O)c1cc(O)cc(O)c1C2=O
REMARK SMILES IDX 1 1 2 2 8 3 7 4 6 5 4 6 3 7 19 8 20 9 18 10 11 11 9 12 10 13
REMARK SMILES IDX 12 14 13 15 15 16 16 17 5 18 17 20 14 22
REMARK H PARENT 5 19 17 21 14 23
REMARK Flexibility Score: inf
ROOT
ATOM      1  C   UNL     1      23.362  -1.744   9.718  1.00  0.00     0.044 C 
ATOM      2  C   UNL     1      22.286  -1.358   8.745  1.00  0.00    -0.047 A 
ATOM      3  C   UNL     1      21.706  -2.326   7.917  1.00  0.00     0.016 A 
ATOM      4  C   UNL     1      20.669  -1.984   7.033  1.00  0.00     0.038 A 
ATOM      5  C   UNL     1      20.186  -0.657   6.997  1.00  0.00     0.076 A 
ATOM      6  C   UNL     1      20.808   0.329   7.805  1.00  0.00     0.127 A 
ATOM      7  C   UNL     1      21.826  -0.039   8.691  1.00  0.00     0.050 A 
ATOM      8  C   UNL     1      18.992  -0.368   6.159  1.00  0.00     0.201 C 
ATOM      9  O   UNL     1      18.199   0.552   6.495  1.00  0.00    -0.288 OA
ATOM     10  C   UNL     1      18.636  -1.279   5.042  1.00  0.00     0.076 A 
ATOM     11  C   UNL     1      19.122  -2.606   5.083  1.00  0.00     0.041 A 
ATOM     12  C   UNL     1      20.082  -3.009   6.138  1.00  0.00     0.194 C 
ATOM     13  O   UNL     1      20.419  -4.219   6.257  1.00  0.00    -0.289 OA
ATOM     14  C   UNL     1      18.696  -3.536   4.120  1.00  0.00     0.059 A 
ATOM     15  C   UNL     1      17.806  -3.157   3.111  1.00  0.00     0.120 A 
ATOM     16  C   UNL     1      17.357  -1.838   3.044  1.00  0.00     0.093 A 
ATOM     17  C   UNL     1      17.782  -0.888   3.979  1.00  0.00     0.131 A 
ENDROOT
BRANCH   6  18
ATOM     18  O   UNL     1      20.473   1.683   7.737  1.00  0.00    -0.507 OA
ATOM     19  H   UNL     1      19.929   2.088   6.988  1.00  0.00     0.293 HD
ENDBRANCH   6  18
BRANCH  17  20
ATOM     20  O   UNL     1      17.362   0.432   3.794  1.00  0.00    -0.507 OA
ATOM     21  H   UNL     1      17.418   0.917   2.909  1.00  0.00     0.293 HD
ENDBRANCH  17  20
BRANCH  15  22
ATOM     22  O   UNL     1      17.373  -4.079   2.161  1.00  0.00    -0.508 OA
ATOM     23  H   UNL     1      16.448  -4.023   1.752  1.00  0.00     0.293 HD
ENDBRANCH  15  22
TORSDOF 3
ENDMDL
MODEL 2
REMARK VINA RESULT:    -5.397      1.658      3.455
REMARK INTER + INTRA:          -5.870
REMARK INTER:                  -5.870
REMARK INTRA:                   0.000
REMARK UNBOUND:                 0.000
REMARK SMILES Cc1cc(O)c2c(c1)C(=O)c1cc(O)cc(O)c1C2=O
REMARK SMILES IDX 1 1 2 2 8 3 7 4 6 5 4 6 3 7 19 8 20 9 18 10 11 11 9 12 10 13
REMARK SMILES IDX 12 14 13 15 15 16 16 17 5 18 17 20 14 22
REMARK H PARENT 5 19 17 21 14 23
REMARK Flexibility Score: inf
ROOT
ATOM      1  C   UNL     1      19.659   3.121   9.490  1.00  0.00     0.044 C 
ATOM      2  C   UNL     1      19.799   1.809   8.773  1.00  0.00    -0.047 A 
ATOM      3  C   UNL     1      19.316   1.665   7.468  1.00  0.00     0.016 A 
ATOM      4  C   UNL     1      19.481   0.455   6.773  1.00  0.00     0.038 A 
ATOM      5  C   UNL     1      20.165  -0.619   7.384  1.00  0.00     0.076 A 
ATOM      6  C   UNL     1      20.613  -0.482   8.723  1.00  0.00     0.127 A 
ATOM      7  C   UNL     1      20.455   0.738   9.388  1.00  0.00     0.050 A 
ATOM      8  C   UNL     1      20.448  -1.827   6.565  1.00  0.00     0.201 C 
ATOM      9  O   UNL     1      21.474  -2.519   6.804  1.00  0.00    -0.288 OA
ATOM     10  C   UNL     1      19.634  -2.106   5.356  1.00  0.00     0.076 A 
ATOM     11  C   UNL     1      18.950  -1.028   4.748  1.00  0.00     0.041 A 
ATOM     12  C   UNL     1      18.937   0.301   5.403  1.00  0.00     0.194 C 
ATOM     13  O   UNL     1      18.440   1.295   4.805  1.00  0.00    -0.289 OA
ATOM     14  C   UNL     1      18.282  -1.224   3.527  1.00  0.00     0.059 A 
ATOM     15  C   UNL     1      18.275  -2.480   2.915  1.00  0.00     0.120 A 
ATOM     16  C   UNL     1      18.913  -3.556   3.533  1.00  0.00     0.093 A 
ATOM     17  C   UNL     1      19.568  -3.392   4.758  1.00  0.00     0.131 A 
ENDROOT
BRANCH   6  18
ATOM     18  O   UNL     1      21.187  -1.535   9.439  1.00  0.00    -0.507 OA
ATOM     19  H   UNL     1      21.728  -1.409  10.283  1.00  0.00     0.293 HD
ENDBRANCH   6  18
BRANCH  17  20
ATOM     20  O   UNL     1      20.106  -4.533   5.359  1.00  0.00    -0.507 OA
ATOM     21  H   UNL     1      19.787  -4.901   6.244  1.00  0.00     0.293 HD
ENDBRANCH  17  20
BRANCH  15  22
ATOM     22  O   UNL     1      17.623  -2.675   1.699  1.00  0.00    -0.508 OA
ATOM     23  H   UNL     1      16.729  -2.242   1.502  1.00  0.00     0.293 HD
ENDBRANCH  15  22
TORSDOF 3
ENDMDL
MODEL 3
REMARK VINA RESULT:    -5.123      4.212      6.179
REMARK INTER + INTRA:          -5.573
REMARK INTER:                  -5.573
REMARK INTRA:                   0.000
REMARK UNBOUND:                 0.000
REMARK SMILES Cc1cc(O)c2c(c1)C(=O)c1cc(O)cc(O)c1C2=O
REMARK SMILES IDX 1 1 2 2 8 3 7 4 6 5 4 6 3 7 19 8 20 9 18 10 11 11 9 12 10 13
REMARK SMILES IDX 12 14 13 15 15 16 16 17 5 18 17 20 14 22
REMARK H PARENT 5 19 17 21 14 23
REMARK Flexibility Score: inf
ROOT
ATOM      1  C   UNL     1      24.125  -0.989  -1.647  1.00  0.00     0.044 C 
ATOM      2  C   UNL     1      22.814  -0.940  -0.916  1.00  0.00    -0.047 A 
ATOM      3  C   UNL     1      22.724  -1.409   0.399  1.00  0.00     0.016 A 
ATOM      4  C   UNL     1      21.512  -1.328   1.106  1.00  0.00     0.038 A 
ATOM      5  C   UNL     1      20.380  -0.743   0.496  1.00  0.00     0.076 A 
ATOM      6  C   UNL     1      20.466  -0.311  -0.852  1.00  0.00     0.127 A 
ATOM      7  C   UNL     1      21.687  -0.385  -1.530  1.00  0.00     0.050 A 
ATOM      8  C   UNL     1      19.163  -0.541   1.325  1.00  0.00     0.201 C 
ATOM      9  O   UNL     1      18.388   0.421   1.076  1.00  0.00    -0.288 OA
ATOM     10  C   UNL     1      18.963  -1.353   2.553  1.00  0.00     0.076 A 
ATOM     11  C   UNL     1      20.099  -1.936   3.159  1.00  0.00     0.041 A 
ATOM     12  C   UNL     1      21.417  -1.856   2.488  1.00  0.00     0.194 C 
ATOM     13  O   UNL     1      22.454  -2.260   3.082  1.00  0.00    -0.289 OA
ATOM     14  C   UNL     1      19.970  -2.594   4.394  1.00  0.00     0.059 A 
ATOM     15  C   UNL     1      18.726  -2.690   5.022  1.00  0.00     0.120 A 
ATOM     16  C   UNL     1      17.596  -2.151   4.406  1.00  0.00     0.093 A 
ATOM     17  C   UNL     1      17.693  -1.509   3.167  1.00  0.00     0.131 A 
ENDROOT
BRANCH   6  18
ATOM     18  O   UNL     1      19.363   0.163  -1.566  1.00  0.00    -0.507 OA
ATOM     19  H   UNL     1      19.151   1.144  -1.682  1.00  0.00     0.293 HD
ENDBRANCH   6  18
BRANCH  17  20
ATOM     20  O   UNL     1      16.506  -1.076   2.571  1.00  0.00    -0.507 OA
ATOM     21  H   UNL     1      15.840  -0.469   3.028  1.00  0.00     0.293 HD
ENDBRANCH  17  20
BRANCH  15  22
ATOM     22  O   UNL     1      18.597  -3.331   6.252  1.00  0.00    -0.508 OA
ATOM     23  H   UNL     1      18.103  -2.901   7.024  1.00  0.00     0.293 HD
ENDBRANCH  15  22
TORSDOF 3
ENDMDL
MODEL 4
REMARK VINA RESULT:    -5.072      3.640      6.019
REMARK INTER + INTRA:          -5.517
REMARK INTER:                  -5.517
REMARK INTRA:                   0.000
REMARK UNBOUND:                 0.000
REMARK SMILES Cc1cc(O)c2c(c1)C(=O)c1cc(O)cc(O)c1C2=O
REMARK SMILES IDX 1 1 2 2 8 3 7 4 6 5 4 6 3 7 19 8 20 9 18 10 11 11 9 12 10 13
REMARK SMILES IDX 12 14 13 15 15 16 16 17 5 18 17 20 14 22
REMARK H PARENT 5 19 17 21 14 23
REMARK Flexibility Score: inf
ROOT
ATOM      1  C   UNL     1      22.446   3.122   0.095  1.00  0.00     0.044 C 
ATOM      2  C   UNL     1      21.519   1.998   0.456  1.00  0.00    -0.047 A 
ATOM      3  C   UNL     1      21.482   1.509   1.765  1.00  0.00     0.016 A 
ATOM      4  C   UNL     1      20.587   0.487   2.124  1.00  0.00     0.038 A 
ATOM      5  C   UNL     1      19.694  -0.035   1.161  1.00  0.00     0.076 A 
ATOM      6  C   UNL     1      19.767   0.434  -0.176  1.00  0.00     0.127 A 
ATOM      7  C   UNL     1      20.653   1.465  -0.504  1.00  0.00     0.050 A 
ATOM      8  C   UNL     1      18.665  -1.007   1.613  1.00  0.00     0.201 C 
ATOM      9  O   UNL     1      17.554  -1.064   1.021  1.00  0.00    -0.288 OA
ATOM     10  C   UNL     1      18.872  -1.771   2.870  1.00  0.00     0.076 A 
ATOM     11  C   UNL     1      19.767  -1.245   3.830  1.00  0.00     0.041 A 
ATOM     12  C   UNL     1      20.578  -0.048   3.506  1.00  0.00     0.194 C 
ATOM     13  O   UNL     1      21.280   0.501   4.400  1.00  0.00    -0.289 OA
ATOM     14  C   UNL     1      19.885  -1.863   5.087  1.00  0.00     0.059 A 
ATOM     15  C   UNL     1      19.137  -3.004   5.390  1.00  0.00     0.120 A 
ATOM     16  C   UNL     1      18.285  -3.549   4.430  1.00  0.00     0.093 A 
ATOM     17  C   UNL     1      18.164  -2.964   3.165  1.00  0.00     0.131 A 
ENDROOT
BRANCH   6  18
ATOM     18  O   UNL     1      19.008  -0.116  -1.212  1.00  0.00    -0.507 OA
ATOM     19  H   UNL     1      18.105   0.239  -1.493  1.00  0.00     0.293 HD
ENDBRANCH   6  18
BRANCH  17  20
ATOM     20  O   UNL     1      17.361  -3.618   2.227  1.00  0.00    -0.507 OA
ATOM     21  H   UNL     1      16.405  -3.357   2.031  1.00  0.00     0.293 HD
ENDBRANCH  17  20
BRANCH  15  22
ATOM     22  O   UNL     1      19.244  -3.613   6.638  1.00  0.00    -0.508 OA
ATOM     23  H   UNL     1      19.650  -4.535   6.745  1.00  0.00     0.293 HD
ENDBRANCH  15  22
TORSDOF 3
ENDMDL
MODEL 5
REMARK VINA RESULT:    -5.059      2.099      2.927
REMARK INTER + INTRA:          -5.502
REMARK INTER:                  -5.502
REMARK INTRA:                   0.000
REMARK UNBOUND:                 0.000
REMARK SMILES Cc1cc(O)c2c(c1)C(=O)c1cc(O)cc(O)c1C2=O
REMARK SMILES IDX 1 1 2 2 8 3 7 4 6 5 4 6 3 7 19 8 20 9 18 10 11 11 9 12 10 13
REMARK SMILES IDX 12 14 13 15 15 16 16 17 5 18 17 20 14 22
REMARK H PARENT 5 19 17 21 14 23
REMARK Flexibility Score: inf
ROOT
ATOM      1  C   UNL     1      24.071   1.553   7.607  1.00  0.00     0.044 C 
ATOM      2  C   UNL     1      22.964   0.602   7.255  1.00  0.00    -0.047 A 
ATOM      3  C   UNL     1      22.473   0.547   5.947  1.00  0.00     0.016 A 
ATOM      4  C   UNL     1      21.467  -0.370   5.597  1.00  0.00     0.038 A 
ATOM      5  C   UNL     1      20.964  -1.265   6.567  1.00  0.00     0.076 A 
ATOM      6  C   UNL     1      21.434  -1.174   7.903  1.00  0.00     0.127 A 
ATOM      7  C   UNL     1      22.448  -0.266   8.223  1.00  0.00     0.050 A 
ATOM      8  C   UNL     1      20.010  -2.316   6.125  1.00  0.00     0.201 C 
ATOM      9  O   UNL     1      19.975  -3.423   6.726  1.00  0.00    -0.288 OA
ATOM     10  C   UNL     1      19.241  -2.132   4.868  1.00  0.00     0.076 A 
ATOM     11  C   UNL     1      19.748  -1.235   3.900  1.00  0.00     0.041 A 
ATOM     12  C   UNL     1      20.930  -0.400   4.215  1.00  0.00     0.194 C 
ATOM     13  O   UNL     1      21.464   0.306   3.315  1.00  0.00    -0.289 OA
ATOM     14  C   UNL     1      19.125  -1.138   2.644  1.00  0.00     0.059 A 
ATOM     15  C   UNL     1      17.998  -1.909   2.349  1.00  0.00     0.120 A 
ATOM     16  C   UNL     1      17.471  -2.764   3.316  1.00  0.00     0.093 A 
ATOM     17  C   UNL     1      18.060  -2.865   4.580  1.00  0.00     0.131 A 
ENDROOT
BRANCH   6  18
ATOM     18  O   UNL     1      20.900  -1.935   8.945  1.00  0.00    -0.507 OA
ATOM     19  H   UNL     1      21.003  -2.938   9.015  1.00  0.00     0.293 HD
ENDBRANCH   6  18
BRANCH  17  20
ATOM     20  O   UNL     1      17.423  -3.673   5.526  1.00  0.00    -0.507 OA
ATOM     21  H   UNL     1      16.429  -3.644   5.706  1.00  0.00     0.293 HD
ENDBRANCH  17  20
BRANCH  15  22
ATOM     22  O   UNL     1      17.385  -1.822   1.100  1.00  0.00    -0.508 OA
ATOM     23  H   UNL     1      17.172  -0.928   0.676  1.00  0.00     0.293 HD
ENDBRANCH  15  22
TORSDOF 3
ENDMDL
MODEL 6
REMARK VINA RESULT:    -5.022      2.978      5.615
REMARK INTER + INTRA:          -5.463
REMARK INTER:                  -5.463
REMARK INTRA:                   0.000
REMARK UNBOUND:                 0.000
REMARK SMILES Cc1cc(O)c2c(c1)C(=O)c1cc(O)cc(O)c1C2=O
REMARK SMILES IDX 1 1 2 2 8 3 7 4 6 5 4 6 3 7 19 8 20 9 18 10 11 11 9 12 10 13
REMARK SMILES IDX 12 14 13 15 15 16 16 17 5 18 17 20 14 22
REMARK H PARENT 5 19 17 21 14 23
REMARK Flexibility Score: inf
ROOT
ATOM      1  C   UNL     1      15.875  -5.144   3.605  1.00  0.00     0.044 C 
ATOM      2  C   UNL     1      16.900  -4.077   3.861  1.00  0.00    -0.047 A 
ATOM      3  C   UNL     1      17.132  -3.081   2.907  1.00  0.00     0.016 A 
ATOM      4  C   UNL     1      18.058  -2.053   3.155  1.00  0.00     0.038 A 
ATOM      5  C   UNL     1      18.743  -2.008   4.390  1.00  0.00     0.076 A 
ATOM      6  C   UNL     1      18.536  -3.046   5.335  1.00  0.00     0.127 A 
ATOM      7  C   UNL     1      17.596  -4.047   5.073  1.00  0.00     0.050 A 
ATOM      8  C   UNL     1      19.601  -0.828   4.673  1.00  0.00     0.201 C 
ATOM      9  O   UNL     1      19.757  -0.437   5.861  1.00  0.00    -0.288 OA
ATOM     10  C   UNL     1      20.114  -0.002   3.550  1.00  0.00     0.076 A 
ATOM     11  C   UNL     1      19.426  -0.051   2.317  1.00  0.00     0.041 A 
ATOM     12  C   UNL     1      18.321  -1.020   2.126  1.00  0.00     0.194 C 
ATOM     13  O   UNL     1      17.620  -0.981   1.077  1.00  0.00    -0.289 OA
ATOM     14  C   UNL     1      19.796   0.816   1.275  1.00  0.00     0.059 A 
ATOM     15  C   UNL     1      20.851   1.717   1.443  1.00  0.00     0.120 A 
ATOM     16  C   UNL     1      21.559   1.740   2.644  1.00  0.00     0.093 A 
ATOM     17  C   UNL     1      21.223   0.873   3.689  1.00  0.00     0.131 A 
ENDROOT
BRANCH   6  18
ATOM     18  O   UNL     1      19.264  -3.141   6.523  1.00  0.00    -0.507 OA
ATOM     19  H   UNL     1      20.092  -2.596   6.718  1.00  0.00     0.293 HD
ENDBRANCH   6  18
BRANCH  17  20
ATOM     20  O   UNL     1      22.034   0.890   4.827  1.00  0.00    -0.507 OA
ATOM     21  H   UNL     1      22.280   1.734   5.325  1.00  0.00     0.293 HD
ENDBRANCH  17  20
BRANCH  15  22
ATOM     22  O   UNL     1      21.213   2.587   0.416  1.00  0.00    -0.508 OA
ATOM     23  H   UNL     1      20.540   2.903  -0.272  1.00  0.00     0.293 HD
ENDBRANCH  15  22
TORSDOF 3
ENDMDL
MODEL 7
REMARK VINA RESULT:    -4.972      2.583      5.795
REMARK INTER + INTRA:          -5.408
REMARK INTER:                  -5.408
REMARK INTRA:                   0.000
REMARK UNBOUND:                 0.000
REMARK SMILES Cc1cc(O)c2c(c1)C(=O)c1cc(O)cc(O)c1C2=O
REMARK SMILES IDX 1 1 2 2 8 3 7 4 6 5 4 6 3 7 19 8 20 9 18 10 11 11 9 12 10 13
REMARK SMILES IDX 12 14 13 15 15 16 16 17 5 18 17 20 14 22
REMARK H PARENT 5 19 17 21 14 23
REMARK Flexibility Score: inf
ROOT
ATOM      1  C   UNL     1      15.846  -5.144   4.347  1.00  0.00     0.044 C 
ATOM      2  C   UNL     1      16.949  -4.174   4.038  1.00  0.00    -0.047 A 
ATOM      3  C   UNL     1      17.990  -3.979   4.952  1.00  0.00     0.016 A 
ATOM      4  C   UNL     1      19.050  -3.106   4.654  1.00  0.00     0.038 A 
ATOM      5  C   UNL     1      19.082  -2.438   3.410  1.00  0.00     0.076 A 
ATOM      6  C   UNL     1      18.001  -2.605   2.506  1.00  0.00     0.127 A 
ATOM      7  C   UNL     1      16.967  -3.494   2.817  1.00  0.00     0.050 A 
ATOM      8  C   UNL     1      20.290  -1.640   3.072  1.00  0.00     0.201 C 
ATOM      9  O   UNL     1      20.643  -1.517   1.868  1.00  0.00    -0.288 OA
ATOM     10  C   UNL     1      21.181  -1.154   4.157  1.00  0.00     0.076 A 
ATOM     11  C   UNL     1      21.145  -1.826   5.400  1.00  0.00     0.041 A 
ATOM     12  C   UNL     1      20.133  -2.881   5.641  1.00  0.00     0.194 C 
ATOM     13  O   UNL     1      20.178  -3.570   6.697  1.00  0.00    -0.289 OA
ATOM     14  C   UNL     1      22.067  -1.485   6.404  1.00  0.00     0.059 A 
ATOM     15  C   UNL     1      23.010  -0.477   6.190  1.00  0.00     0.120 A 
ATOM     16  C   UNL     1      23.021   0.216   4.979  1.00  0.00     0.093 A 
ATOM     17  C   UNL     1      22.101  -0.090   3.971  1.00  0.00     0.131 A 
ENDROOT
BRANCH   6  18
ATOM     18  O   UNL     1      17.896  -1.888   1.313  1.00  0.00    -0.507 OA
ATOM     19  H   UNL     1      17.643  -0.910   1.267  1.00  0.00     0.293 HD
ENDBRANCH   6  18
BRANCH  17  20
ATOM     20  O   UNL     1      22.114   0.706   2.823  1.00  0.00    -0.507 OA
ATOM     21  H   UNL     1      21.295   0.890   2.261  1.00  0.00     0.293 HD
ENDBRANCH  17  20
BRANCH  15  22
ATOM     22  O   UNL     1      23.933  -0.144   7.179  1.00  0.00    -0.508 OA
ATOM     23  H   UNL     1      23.807   0.669   7.769  1.00  0.00     0.293 HD
ENDBRANCH  15  22
TORSDOF 3
ENDMDL
MODEL 8
REMARK VINA RESULT:    -4.922     16.409     17.543
REMARK INTER + INTRA:          -5.353
REMARK INTER:                  -5.353
REMARK INTRA:                   0.000
REMARK UNBOUND:                 0.000
REMARK SMILES Cc1cc(O)c2c(c1)C(=O)c1cc(O)cc(O)c1C2=O
REMARK SMILES IDX 1 1 2 2 8 3 7 4 6 5 4 6 3 7 19 8 20 9 18 10 11 11 9 12 10 13
REMARK SMILES IDX 12 14 13 15 15 16 16 17 5 18 17 20 14 22
REMARK H PARENT 5 19 17 21 14 23
REMARK Flexibility Score: inf
ROOT
ATOM      1  C   UNL     1      11.096 -16.389   7.364  1.00  0.00     0.044 C 
ATOM      2  C   UNL     1       9.822 -15.661   7.049  1.00  0.00    -0.047 A 
ATOM      3  C   UNL     1       9.724 -14.882   5.892  1.00  0.00     0.016 A 
ATOM      4  C   UNL     1       8.522 -14.232   5.565  1.00  0.00     0.038 A 
ATOM      5  C   UNL     1       7.390 -14.387   6.396  1.00  0.00     0.076 A 
ATOM      6  C   UNL     1       7.509 -15.142   7.592  1.00  0.00     0.127 A 
ATOM      7  C   UNL     1       8.710 -15.795   7.886  1.00  0.00     0.050 A 
ATOM      8  C   UNL     1       6.100 -13.808   5.941  1.00  0.00     0.201 C 
ATOM      9  O   UNL     1       5.015 -14.354   6.276  1.00  0.00    -0.288 OA
ATOM     10  C   UNL     1       6.096 -12.708   4.943  1.00  0.00     0.076 A 
ATOM     11  C   UNL     1       7.231 -12.556   4.113  1.00  0.00     0.041 A 
ATOM     12  C   UNL     1       8.437 -13.382   4.353  1.00  0.00     0.194 C 
ATOM     13  O   UNL     1       9.402 -13.344   3.540  1.00  0.00    -0.289 OA
ATOM     14  C   UNL     1       7.211 -11.618   3.067  1.00  0.00     0.059 A 
ATOM     15  C   UNL     1       6.083 -10.822   2.849  1.00  0.00     0.120 A 
ATOM     16  C   UNL     1       4.978 -10.940   3.691  1.00  0.00     0.093 A 
ATOM     17  C   UNL     1       4.981 -11.852   4.752  1.00  0.00     0.131 A 
ENDROOT
BRANCH   6  18
ATOM     18  O   UNL     1       6.477 -15.242   8.528  1.00  0.00    -0.507 OA
ATOM     19  H   UNL     1       6.086 -14.448   9.017  1.00  0.00     0.293 HD
ENDBRANCH   6  18
BRANCH  17  20
ATOM     20  O   UNL     1       3.875 -11.850   5.607  1.00  0.00    -0.507 OA
ATOM     21  H   UNL     1       3.344 -12.678   5.834  1.00  0.00     0.293 HD
ENDBRANCH  17  20
BRANCH  15  22
ATOM     22  O   UNL     1       6.056  -9.899   1.806  1.00  0.00    -0.508 OA
ATOM     23  H   UNL     1       6.596  -9.043   1.841  1.00  0.00     0.293 HD
ENDBRANCH  15  22
TORSDOF 3
ENDMDL
MODEL 9
REMARK VINA RESULT:    -4.853     16.111     17.955
REMARK INTER + INTRA:          -5.279
REMARK INTER:                  -5.279
REMARK INTRA:                   0.000
REMARK UNBOUND:                 0.000
REMARK SMILES Cc1cc(O)c2c(c1)C(=O)c1cc(O)cc(O)c1C2=O
REMARK SMILES IDX 1 1 2 2 8 3 7 4 6 5 4 6 3 7 19 8 20 9 18 10 11 11 9 12 10 13
REMARK SMILES IDX 12 14 13 15 15 16 16 17 5 18 17 20 14 22
REMARK H PARENT 5 19 17 21 14 23
REMARK Flexibility Score: inf
ROOT
ATOM      1  C   UNL     1       7.252 -16.427   0.493  1.00  0.00     0.044 C 
ATOM      2  C   UNL     1       7.087 -15.057   1.082  1.00  0.00    -0.047 A 
ATOM      3  C   UNL     1       6.279 -14.109   0.444  1.00  0.00     0.016 A 
ATOM      4  C   UNL     1       6.083 -12.838   1.010  1.00  0.00     0.038 A 
ATOM      5  C   UNL     1       6.684 -12.519   2.248  1.00  0.00     0.076 A 
ATOM      6  C   UNL     1       7.538 -13.468   2.867  1.00  0.00     0.127 A 
ATOM      7  C   UNL     1       7.703 -14.733   2.295  1.00  0.00     0.050 A 
ATOM      8  C   UNL     1       6.335 -11.222   2.884  1.00  0.00     0.201 C 
ATOM      9  O   UNL     1       6.340 -11.119   4.140  1.00  0.00    -0.288 OA
ATOM     10  C   UNL     1       5.799 -10.113   2.054  1.00  0.00     0.076 A 
ATOM     11  C   UNL     1       5.199 -10.437   0.815  1.00  0.00     0.041 A 
ATOM     12  C   UNL     1       5.251 -11.829   0.311  1.00  0.00     0.194 C 
ATOM     13  O   UNL     1       4.609 -12.150  -0.727  1.00  0.00    -0.289 OA
ATOM     14  C   UNL     1       4.559  -9.435   0.066  1.00  0.00     0.059 A 
ATOM     15  C   UNL     1       4.524  -8.117   0.528  1.00  0.00     0.120 A 
ATOM     16  C   UNL     1       5.151  -7.786   1.729  1.00  0.00     0.093 A 
ATOM     17  C   UNL     1       5.812  -8.761   2.484  1.00  0.00     0.131 A 
ENDROOT
BRANCH   6  18
ATOM     18  O   UNL     1       8.266 -13.186   4.026  1.00  0.00    -0.507 OA
ATOM     19  H   UNL     1       8.101 -12.376   4.607  1.00  0.00     0.293 HD
ENDBRANCH   6  18
BRANCH  17  20
ATOM     20  O   UNL     1       6.493  -8.338   3.628  1.00  0.00    -0.507 OA
ATOM     21  H   UNL     1       6.806  -7.389   3.773  1.00  0.00     0.293 HD
ENDBRANCH  17  20
BRANCH  15  22
ATOM     22  O   UNL     1       3.881  -7.123  -0.207  1.00  0.00    -0.508 OA
ATOM     23  H   UNL     1       4.089  -6.142  -0.066  1.00  0.00     0.293 HD
ENDBRANCH  15  22
TORSDOF 3
ENDMDL
