MODEL 1
REMARK VINA RESULT:    -3.510      0.000      0.000
REMARK INTER + INTRA:          -9.438
REMARK INTER:                  -6.587
REMARK INTRA:                  -2.851
REMARK UNBOUND:                -2.851
REMARK SMILES CCCCCCCCC=CCCCCCCCC(=O)[O-]
REMARK SMILES IDX 10 1 9 2 11 3 12 4 13 5 14 6 15 7 16 8 17 9 18 10 19 11
REMARK SMILES IDX 20 12 8 13 7 14 6 15 5 16 4 17 3 18 2 19 1 20
REMARK H PARENT
REMARK Flexibility Score: inf
ROOT
ATOM      1  C   UNL     1      38.291 187.283  30.888  1.00  0.00    -0.031 C 
ATOM      2  C   UNL     1      39.025 186.191  30.603  1.00  0.00    -0.031 C 
ENDROOT
BRANCH   1   3
ATOM      3  C   UNL     1      38.449 188.123  32.132  1.00  0.00     0.027 C 
BRANCH   3   4
ATOM      4  C   UNL     1      37.321 187.867  33.143  1.00  0.00     0.004 C 
BRANCH   4   5
ATOM      5  C   UNL     1      37.844 187.254  34.450  1.00  0.00     0.000 C 
BRANCH   5   6
ATOM      6  C   UNL     1      37.785 185.722  34.401  1.00  0.00     0.000 C 
BRANCH   6   7
ATOM      7  C   UNL     1      36.438 185.240  33.841  1.00  0.00     0.000 C 
BRANCH   7   8
ATOM      8  C   UNL     1      36.599 184.201  32.721  1.00  0.00     0.006 C 
BRANCH   8   9
ATOM      9  C   UNL     1      35.752 184.528  31.486  1.00  0.00     0.053 C 
BRANCH   9  10
ATOM     10  C   UNL     1      35.214 183.272  30.874  1.00  0.00     0.041 C 
ATOM     11  O   UNL     1      35.342 182.172  31.472  1.00  0.00    -0.550 OA
ATOM     12  O   UNL     1      34.529 183.326  29.667  1.00  0.00    -0.550 OA
ENDBRANCH   9  10
ENDBRANCH   8   9
ENDBRANCH   7   8
ENDBRANCH   6   7
ENDBRANCH   5   6
ENDBRANCH   4   5
ENDBRANCH   3   4
ENDBRANCH   1   3
BRANCH   2  13
ATOM     13  C   UNL     1      40.056 185.590  31.524  1.00  0.00     0.027 C 
BRANCH  13  14
ATOM     14  C   UNL     1      41.439 186.206  31.267  1.00  0.00     0.004 C 
BRANCH  14  15
ATOM     15  C   UNL     1      41.967 187.012  32.467  1.00  0.00     0.000 C 
BRANCH  15  16
ATOM     16  C   UNL     1      41.418 186.572  33.836  1.00  0.00     0.000 C 
BRANCH  16  17
ATOM     17  C   UNL     1      42.449 185.803  34.675  1.00  0.00    -0.000 C 
BRANCH  17  18
ATOM     18  C   UNL     1      42.105 184.310  34.736  1.00  0.00    -0.000 C 
BRANCH  18  19
ATOM     19  C   UNL     1      43.307 183.452  34.325  1.00  0.00    -0.003 C 
ATOM     20  C   UNL     1      43.763 183.785  32.907  1.00  0.00     0.004 C 
ENDBRANCH  18  19
ENDBRANCH  17  18
ENDBRANCH  16  17
ENDBRANCH  15  16
ENDBRANCH  14  15
ENDBRANCH  13  14
ENDBRANCH   2  13
TORSDOF 15
ENDMDL
MODEL 2
REMARK VINA RESULT:    -3.461      1.329      2.171
REMARK INTER + INTRA:          -9.346
REMARK INTER:                  -6.771
REMARK INTRA:                  -2.576
REMARK UNBOUND:                -2.851
REMARK SMILES CCCCCCCCC=CCCCCCCCC(=O)[O-]
REMARK SMILES IDX 10 1 9 2 11 3 12 4 13 5 14 6 15 7 16 8 17 9 18 10 19 11
REMARK SMILES IDX 20 12 8 13 7 14 6 15 5 16 4 17 3 18 2 19 1 20
REMARK H PARENT
REMARK Flexibility Score: inf
ROOT
ATOM      1  C   UNL     1      40.504 185.828  30.644  1.00  0.00    -0.031 C 
ATOM      2  C   UNL     1      41.572 186.115  31.412  1.00  0.00    -0.031 C 
ENDROOT
BRANCH   1   3
ATOM      3  C   UNL     1      39.165 186.516  30.745  1.00  0.00     0.027 C 
BRANCH   3   4
ATOM      4  C   UNL     1      38.181 185.729  31.624  1.00  0.00     0.004 C 
BRANCH   4   5
ATOM      5  C   UNL     1      37.438 186.635  32.615  1.00  0.00     0.000 C 
BRANCH   5   6
ATOM      6  C   UNL     1      36.703 185.805  33.674  1.00  0.00     0.000 C 
BRANCH   6   7
ATOM      7  C   UNL     1      36.586 184.336  33.240  1.00  0.00     0.000 C 
BRANCH   7   8
ATOM      8  C   UNL     1      35.262 184.035  32.521  1.00  0.00     0.006 C 
BRANCH   8   9
ATOM      9  C   UNL     1      35.342 182.787  31.633  1.00  0.00     0.053 C 
BRANCH   9  10
ATOM     10  C   UNL     1      34.271 182.820  30.588  1.00  0.00     0.041 C 
ATOM     11  O   UNL     1      34.507 183.317  29.455  1.00  0.00    -0.550 OA
ATOM     12  O   UNL     1      33.030 182.255  30.848  1.00  0.00    -0.550 OA
ENDBRANCH   9  10
ENDBRANCH   8   9
ENDBRANCH   7   8
ENDBRANCH   6   7
ENDBRANCH   5   6
ENDBRANCH   4   5
ENDBRANCH   3   4
ENDBRANCH   1   3
BRANCH   2  13
ATOM     13  C   UNL     1      41.565 187.105  32.550  1.00  0.00     0.027 C 
BRANCH  13  14
ATOM     14  C   UNL     1      42.291 186.528  33.774  1.00  0.00     0.004 C 
BRANCH  14  15
ATOM     15  C   UNL     1      41.398 186.470  35.027  1.00  0.00     0.000 C 
BRANCH  15  16
ATOM     16  C   UNL     1      40.162 185.562  34.900  1.00  0.00     0.000 C 
BRANCH  16  17
ATOM     17  C   UNL     1      40.514 184.067  34.917  1.00  0.00    -0.000 C 
BRANCH  17  18
ATOM     18  C   UNL     1      40.297 183.435  33.538  1.00  0.00    -0.000 C 
BRANCH  18  19
ATOM     19  C   UNL     1      41.418 182.445  33.204  1.00  0.00    -0.003 C 
ATOM     20  C   UNL     1      42.792 183.068  33.441  1.00  0.00     0.004 C 
ENDBRANCH  18  19
ENDBRANCH  17  18
ENDBRANCH  16  17
ENDBRANCH  15  16
ENDBRANCH  14  15
ENDBRANCH  13  14
ENDBRANCH   2  13
TORSDOF 15
ENDMDL
MODEL 3
REMARK VINA RESULT:    -3.313     16.859     20.896
REMARK INTER + INTRA:          -9.068
REMARK INTER:                  -7.181
REMARK INTRA:                  -1.887
REMARK UNBOUND:                -2.851
REMARK SMILES CCCCCCCCC=CCCCCCCCC(=O)[O-]
REMARK SMILES IDX 10 1 9 2 11 3 12 4 13 5 14 6 15 7 16 8 17 9 18 10 19 11
REMARK SMILES IDX 20 12 8 13 7 14 6 15 5 16 4 17 3 18 2 19 1 20
REMARK H PARENT
REMARK Flexibility Score: inf
ROOT
ATOM      1  C   UNL     1      31.926 170.812  19.589  1.00  0.00    -0.031 C 
ATOM      2  C   UNL     1      32.920 170.024  19.139  1.00  0.00    -0.031 C 
ENDROOT
BRANCH   1   3
ATOM      3  C   UNL     1      30.508 170.781  19.076  1.00  0.00     0.027 C 
BRANCH   3   4
ATOM      4  C   UNL     1      29.689 171.978  19.584  1.00  0.00     0.004 C 
BRANCH   4   5
ATOM      5  C   UNL     1      30.199 172.495  20.937  1.00  0.00     0.000 C 
BRANCH   5   6
ATOM      6  C   UNL     1      30.365 174.019  20.916  1.00  0.00     0.000 C 
BRANCH   6   7
ATOM      7  C   UNL     1      29.204 174.709  21.648  1.00  0.00     0.000 C 
BRANCH   7   8
ATOM      8  C   UNL     1      28.856 174.030  22.981  1.00  0.00     0.006 C 
BRANCH   8   9
ATOM      9  C   UNL     1      29.405 174.792  24.193  1.00  0.00     0.053 C 
BRANCH   9  10
ATOM     10  C   UNL     1      30.252 173.892  25.037  1.00  0.00     0.041 C 
ATOM     11  O   UNL     1      30.182 173.950  26.292  1.00  0.00    -0.550 OA
ATOM     12  O   UNL     1      31.081 172.954  24.436  1.00  0.00    -0.550 OA
ENDBRANCH   9  10
ENDBRANCH   8   9
ENDBRANCH   7   8
ENDBRANCH   6   7
ENDBRANCH   5   6
ENDBRANCH   4   5
ENDBRANCH   3   4
ENDBRANCH   1   3
BRANCH   2  13
ATOM     13  C   UNL     1      32.790 169.054  17.992  1.00  0.00     0.027 C 
BRANCH  13  14
ATOM     14  C   UNL     1      34.030 169.112  17.088  1.00  0.00     0.004 C 
BRANCH  14  15
ATOM     15  C   UNL     1      34.736 170.478  17.128  1.00  0.00     0.000 C 
BRANCH  15  16
ATOM     16  C   UNL     1      34.874 171.177  15.764  1.00  0.00     0.000 C 
BRANCH  16  17
ATOM     17  C   UNL     1      33.632 171.006  14.876  1.00  0.00    -0.000 C 
BRANCH  17  18
ATOM     18  C   UNL     1      32.462 171.846  15.400  1.00  0.00    -0.000 C 
BRANCH  18  19
ATOM     19  C   UNL     1      31.146 171.063  15.323  1.00  0.00    -0.003 C 
ATOM     20  C   UNL     1      29.948 171.971  15.593  1.00  0.00     0.004 C 
ENDBRANCH  18  19
ENDBRANCH  17  18
ENDBRANCH  16  17
ENDBRANCH  15  16
ENDBRANCH  14  15
ENDBRANCH  13  14
ENDBRANCH   2  13
TORSDOF 15
ENDMDL
MODEL 4
REMARK VINA RESULT:    -3.308      3.060      6.438
REMARK INTER + INTRA:          -9.060
REMARK INTER:                  -6.767
REMARK INTRA:                  -2.293
REMARK UNBOUND:                -2.851
REMARK SMILES CCCCCCCCC=CCCCCCCCC(=O)[O-]
REMARK SMILES IDX 10 1 9 2 11 3 12 4 13 5 14 6 15 7 16 8 17 9 18 10 19 11
REMARK SMILES IDX 20 12 8 13 7 14 6 15 5 16 4 17 3 18 2 19 1 20
REMARK H PARENT
REMARK Flexibility Score: inf
ROOT
ATOM      1  C   UNL     1      38.310 187.952  31.367  1.00  0.00    -0.031 C 
ATOM      2  C   UNL     1      37.743 188.538  32.438  1.00  0.00    -0.031 C 
ENDROOT
BRANCH   1   3
ATOM      3  C   UNL     1      38.157 186.496  31.003  1.00  0.00     0.027 C 
BRANCH   3   4
ATOM      4  C   UNL     1      39.297 185.640  31.577  1.00  0.00     0.004 C 
BRANCH   4   5
ATOM      5  C   UNL     1      40.569 185.722  30.721  1.00  0.00     0.000 C 
BRANCH   5   6
ATOM      6  C   UNL     1      41.694 186.440  31.475  1.00  0.00     0.000 C 
BRANCH   6   7
ATOM      7  C   UNL     1      41.356 186.577  32.968  1.00  0.00     0.000 C 
BRANCH   7   8
ATOM      8  C   UNL     1      42.476 186.051  33.879  1.00  0.00     0.006 C 
BRANCH   8   9
ATOM      9  C   UNL     1      42.512 184.519  33.948  1.00  0.00     0.053 C 
BRANCH   9  10
ATOM     10  C   UNL     1      43.828 184.004  33.457  1.00  0.00     0.041 C 
ATOM     11  O   UNL     1      44.736 183.704  34.276  1.00  0.00    -0.550 OA
ATOM     12  O   UNL     1      44.034 183.807  32.098  1.00  0.00    -0.550 OA
ENDBRANCH   9  10
ENDBRANCH   8   9
ENDBRANCH   7   8
ENDBRANCH   6   7
ENDBRANCH   5   6
ENDBRANCH   4   5
ENDBRANCH   3   4
ENDBRANCH   1   3
BRANCH   2  13
ATOM     13  C   UNL     1      36.941 187.808  33.487  1.00  0.00     0.027 C 
BRANCH  13  14
ATOM     14  C   UNL     1      37.862 187.245  34.579  1.00  0.00     0.004 C 
BRANCH  14  15
ATOM     15  C   UNL     1      37.595 185.760  34.881  1.00  0.00     0.000 C 
BRANCH  15  16
ATOM     16  C   UNL     1      36.236 185.232  34.386  1.00  0.00     0.000 C 
BRANCH  16  17
ATOM     17  C   UNL     1      36.371 184.175  33.279  1.00  0.00    -0.000 C 
BRANCH  17  18
ATOM     18  C   UNL     1      35.178 184.228  32.320  1.00  0.00    -0.000 C 
BRANCH  18  19
ATOM     19  C   UNL     1      35.313 183.173  31.215  1.00  0.00    -0.003 C 
ATOM     20  C   UNL     1      34.620 183.627  29.933  1.00  0.00     0.004 C 
ENDBRANCH  18  19
ENDBRANCH  17  18
ENDBRANCH  16  17
ENDBRANCH  15  16
ENDBRANCH  14  15
ENDBRANCH  13  14
ENDBRANCH   2  13
TORSDOF 15
ENDMDL
MODEL 5
REMARK VINA RESULT:    -3.293      3.308      6.865
REMARK INTER + INTRA:          -9.032
REMARK INTER:                  -7.289
REMARK INTRA:                  -1.743
REMARK UNBOUND:                -2.851
REMARK SMILES CCCCCCCCC=CCCCCCCCC(=O)[O-]
REMARK SMILES IDX 10 1 9 2 11 3 12 4 13 5 14 6 15 7 16 8 17 9 18 10 19 11
REMARK SMILES IDX 20 12 8 13 7 14 6 15 5 16 4 17 3 18 2 19 1 20
REMARK H PARENT
REMARK Flexibility Score: inf
ROOT
ATOM      1  C   UNL     1      39.355 186.527  30.401  1.00  0.00    -0.031 C 
ATOM      2  C   UNL     1      38.138 186.423  30.967  1.00  0.00    -0.031 C 
ENDROOT
BRANCH   1   3
ATOM      3  C   UNL     1      40.472 185.528  30.579  1.00  0.00     0.027 C 
BRANCH   3   4
ATOM      4  C   UNL     1      41.666 186.132  31.335  1.00  0.00     0.004 C 
BRANCH   4   5
ATOM      5  C   UNL     1      41.219 187.038  32.492  1.00  0.00     0.000 C 
BRANCH   5   6
ATOM      6  C   UNL     1      41.782 186.540  33.829  1.00  0.00     0.000 C 
BRANCH   6   7
ATOM      7  C   UNL     1      41.391 185.075  34.079  1.00  0.00     0.000 C 
BRANCH   7   8
ATOM      8  C   UNL     1      42.537 184.251  34.685  1.00  0.00     0.006 C 
BRANCH   8   9
ATOM      9  C   UNL     1      43.037 183.151  33.742  1.00  0.00     0.053 C 
BRANCH   9  10
ATOM     10  C   UNL     1      44.343 183.544  33.126  1.00  0.00     0.041 C 
ATOM     11  O   UNL     1      44.402 183.845  31.905  1.00  0.00    -0.550 OA
ATOM     12  O   UNL     1      45.485 183.626  33.912  1.00  0.00    -0.550 OA
ENDBRANCH   9  10
ENDBRANCH   8   9
ENDBRANCH   7   8
ENDBRANCH   6   7
ENDBRANCH   5   6
ENDBRANCH   4   5
ENDBRANCH   3   4
ENDBRANCH   1   3
BRANCH   2  13
ATOM     13  C   UNL     1      37.735 185.340  31.935  1.00  0.00     0.027 C 
BRANCH  13  14
ATOM     14  C   UNL     1      36.916 185.926  33.094  1.00  0.00     0.004 C 
BRANCH  14  15
ATOM     15  C   UNL     1      35.674 185.085  33.436  1.00  0.00     0.000 C 
BRANCH  15  16
ATOM     16  C   UNL     1      35.948 183.587  33.661  1.00  0.00     0.000 C 
BRANCH  16  17
ATOM     17  C   UNL     1      34.838 182.684  33.101  1.00  0.00    -0.000 C 
BRANCH  17  18
ATOM     18  C   UNL     1      35.179 182.208  31.685  1.00  0.00    -0.000 C 
BRANCH  18  19
ATOM     19  C   UNL     1      34.150 182.718  30.670  1.00  0.00    -0.003 C 
ATOM     20  C   UNL     1      34.691 183.915  29.891  1.00  0.00     0.004 C 
ENDBRANCH  18  19
ENDBRANCH  17  18
ENDBRANCH  16  17
ENDBRANCH  15  16
ENDBRANCH  14  15
ENDBRANCH  13  14
ENDBRANCH   2  13
TORSDOF 15
ENDMDL
MODEL 6
REMARK VINA RESULT:    -3.252      2.828      6.867
REMARK INTER + INTRA:          -8.954
REMARK INTER:                  -6.857
REMARK INTRA:                  -2.097
REMARK UNBOUND:                -2.851
REMARK SMILES CCCCCCCCC=CCCCCCCCC(=O)[O-]
REMARK SMILES IDX 10 1 9 2 11 3 12 4 13 5 14 6 15 7 16 8 17 9 18 10 19 11
REMARK SMILES IDX 20 12 8 13 7 14 6 15 5 16 4 17 3 18 2 19 1 20
REMARK H PARENT
REMARK Flexibility Score: inf
ROOT
ATOM      1  C   UNL     1      38.121 185.068  32.931  1.00  0.00    -0.031 C 
ATOM      2  C   UNL     1      37.055 185.000  33.750  1.00  0.00    -0.031 C 
ENDROOT
BRANCH   1   3
ATOM      3  C   UNL     1      38.125 185.746  31.583  1.00  0.00     0.027 C 
BRANCH   3   4
ATOM      4  C   UNL     1      39.284 186.745  31.448  1.00  0.00     0.004 C 
BRANCH   4   5
ATOM      5  C   UNL     1      39.373 187.693  32.653  1.00  0.00     0.000 C 
BRANCH   5   6
ATOM      6  C   UNL     1      40.821 188.137  32.898  1.00  0.00     0.000 C 
BRANCH   6   7
ATOM      7  C   UNL     1      41.803 186.989  32.621  1.00  0.00     0.000 C 
BRANCH   7   8
ATOM      8  C   UNL     1      42.229 186.252  33.901  1.00  0.00     0.006 C 
BRANCH   8   9
ATOM      9  C   UNL     1      41.884 184.758  33.866  1.00  0.00     0.053 C 
BRANCH   9  10
ATOM     10  C   UNL     1      42.347 184.145  32.582  1.00  0.00     0.041 C 
ATOM     11  O   UNL     1      41.510 183.788  31.712  1.00  0.00    -0.550 OA
ATOM     12  O   UNL     1      43.706 184.014  32.324  1.00  0.00    -0.550 OA
ENDBRANCH   9  10
ENDBRANCH   8   9
ENDBRANCH   7   8
ENDBRANCH   6   7
ENDBRANCH   5   6
ENDBRANCH   4   5
ENDBRANCH   3   4
ENDBRANCH   1   3
BRANCH   2  13
ATOM     13  C   UNL     1      35.679 185.512  33.406  1.00  0.00     0.027 C 
BRANCH  13  14
ATOM     14  C   UNL     1      34.616 184.440  33.685  1.00  0.00     0.004 C 
BRANCH  14  15
ATOM     15  C   UNL     1      35.221 183.100  34.140  1.00  0.00     0.000 C 
BRANCH  15  16
ATOM     16  C   UNL     1      34.668 181.860  33.415  1.00  0.00     0.000 C 
BRANCH  16  17
ATOM     17  C   UNL     1      34.923 181.888  31.900  1.00  0.00    -0.000 C 
BRANCH  17  18
ATOM     18  C   UNL     1      33.604 181.921  31.121  1.00  0.00    -0.000 C 
BRANCH  18  19
ATOM     19  C   UNL     1      33.709 182.843  29.901  1.00  0.00    -0.003 C 
ATOM     20  C   UNL     1      34.804 183.889  30.094  1.00  0.00     0.004 C 
ENDBRANCH  18  19
ENDBRANCH  17  18
ENDBRANCH  16  17
ENDBRANCH  15  16
ENDBRANCH  14  15
ENDBRANCH  13  14
ENDBRANCH   2  13
TORSDOF 15
ENDMDL
MODEL 7
REMARK VINA RESULT:    -3.237      0.978      2.065
REMARK INTER + INTRA:          -8.926
REMARK INTER:                  -5.983
REMARK INTRA:                  -2.943
REMARK UNBOUND:                -2.851
REMARK SMILES CCCCCCCCC=CCCCCCCCC(=O)[O-]
REMARK SMILES IDX 10 1 9 2 11 3 12 4 13 5 14 6 15 7 16 8 17 9 18 10 19 11
REMARK SMILES IDX 20 12 8 13 7 14 6 15 5 16 4 17 3 18 2 19 1 20
REMARK H PARENT
REMARK Flexibility Score: inf
ROOT
ATOM      1  C   UNL     1      39.194 185.750  31.117  1.00  0.00    -0.031 C 
ATOM      2  C   UNL     1      40.374 185.390  31.654  1.00  0.00    -0.031 C 
ENDROOT
BRANCH   1   3
ATOM      3  C   UNL     1      38.986 186.955  30.233  1.00  0.00     0.027 C 
BRANCH   3   4
ATOM      4  C   UNL     1      37.988 187.949  30.847  1.00  0.00     0.004 C 
BRANCH   4   5
ATOM      5  C   UNL     1      38.410 188.400  32.252  1.00  0.00     0.000 C 
BRANCH   5   6
ATOM      6  C   UNL     1      37.290 188.154  33.270  1.00  0.00     0.000 C 
BRANCH   6   7
ATOM      7  C   UNL     1      37.701 187.084  34.293  1.00  0.00     0.000 C 
BRANCH   7   8
ATOM      8  C   UNL     1      37.069 185.714  34.004  1.00  0.00     0.006 C 
BRANCH   8   9
ATOM      9  C   UNL     1      35.829 185.812  33.107  1.00  0.00     0.053 C 
BRANCH   9  10
ATOM     10  C   UNL     1      35.698 184.585  32.260  1.00  0.00     0.041 C 
ATOM     11  O   UNL     1      35.888 184.651  31.017  1.00  0.00    -0.550 OA
ATOM     12  O   UNL     1      35.416 183.360  32.850  1.00  0.00    -0.550 OA
ENDBRANCH   9  10
ENDBRANCH   8   9
ENDBRANCH   7   8
ENDBRANCH   6   7
ENDBRANCH   5   6
ENDBRANCH   4   5
ENDBRANCH   3   4
ENDBRANCH   1   3
BRANCH   2  13
ATOM     13  C   UNL     1      41.649 186.185  31.529  1.00  0.00     0.027 C 
BRANCH  13  14
ATOM     14  C   UNL     1      41.916 186.989  32.810  1.00  0.00     0.004 C 
BRANCH  14  15
ATOM     15  C   UNL     1      41.209 186.400  34.044  1.00  0.00     0.000 C 
BRANCH  15  16
ATOM     16  C   UNL     1      42.120 185.602  34.993  1.00  0.00     0.000 C 
BRANCH  16  17
ATOM     17  C   UNL     1      41.704 184.129  35.124  1.00  0.00    -0.000 C 
BRANCH  17  18
ATOM     18  C   UNL     1      42.366 183.272  34.039  1.00  0.00    -0.000 C 
BRANCH  18  19
ATOM     19  C   UNL     1      43.843 183.646  33.869  1.00  0.00    -0.003 C 
ATOM     20  C   UNL     1      44.211 183.776  32.393  1.00  0.00     0.004 C 
ENDBRANCH  18  19
ENDBRANCH  17  18
ENDBRANCH  16  17
ENDBRANCH  15  16
ENDBRANCH  14  15
ENDBRANCH  13  14
ENDBRANCH   2  13
TORSDOF 15
ENDMDL
MODEL 8
REMARK VINA RESULT:    -3.234     16.811     20.096
REMARK INTER + INTRA:          -8.920
REMARK INTER:                  -7.330
REMARK INTRA:                  -1.590
REMARK UNBOUND:                -2.851
REMARK SMILES CCCCCCCCC=CCCCCCCCC(=O)[O-]
REMARK SMILES IDX 10 1 9 2 11 3 12 4 13 5 14 6 15 7 16 8 17 9 18 10 19 11
REMARK SMILES IDX 20 12 8 13 7 14 6 15 5 16 4 17 3 18 2 19 1 20
REMARK H PARENT
REMARK Flexibility Score: inf
ROOT
ATOM      1  C   UNL     1      30.345 171.654  21.114  1.00  0.00    -0.031 C 
ATOM      2  C   UNL     1      31.254 170.847  20.536  1.00  0.00    -0.031 C 
ENDROOT
BRANCH   1   3
ATOM      3  C   UNL     1      29.802 172.917  20.492  1.00  0.00     0.027 C 
BRANCH   3   4
ATOM      4  C   UNL     1      30.249 174.171  21.260  1.00  0.00     0.004 C 
BRANCH   4   5
ATOM      5  C   UNL     1      29.060 175.049  21.676  1.00  0.00     0.000 C 
BRANCH   5   6
ATOM      6  C   UNL     1      28.717 174.845  23.157  1.00  0.00     0.000 C 
BRANCH   6   7
ATOM      7  C   UNL     1      29.987 174.847  24.021  1.00  0.00     0.000 C 
BRANCH   7   8
ATOM      8  C   UNL     1      29.979 173.742  25.089  1.00  0.00     0.006 C 
BRANCH   8   9
ATOM      9  C   UNL     1      30.805 172.518  24.679  1.00  0.00     0.053 C 
BRANCH   9  10
ATOM     10  C   UNL     1      30.375 171.313  25.455  1.00  0.00     0.041 C 
ATOM     11  O   UNL     1      31.180 170.743  26.238  1.00  0.00    -0.550 OA
ATOM     12  O   UNL     1      29.070 170.849  25.351  1.00  0.00    -0.550 OA
ENDBRANCH   9  10
ENDBRANCH   8   9
ENDBRANCH   7   8
ENDBRANCH   6   7
ENDBRANCH   5   6
ENDBRANCH   4   5
ENDBRANCH   3   4
ENDBRANCH   1   3
BRANCH   2  13
ATOM     13  C   UNL     1      31.935 171.129  19.221  1.00  0.00     0.027 C 
BRANCH  13  14
ATOM     14  C   UNL     1      31.196 170.436  18.067  1.00  0.00     0.004 C 
BRANCH  14  15
ATOM     15  C   UNL     1      31.463 171.095  16.703  1.00  0.00     0.000 C 
BRANCH  15  16
ATOM     16  C   UNL     1      32.829 171.791  16.576  1.00  0.00     0.000 C 
BRANCH  16  17
ATOM     17  C   UNL     1      33.589 171.391  15.302  1.00  0.00    -0.000 C 
BRANCH  17  18
ATOM     18  C   UNL     1      35.001 170.898  15.637  1.00  0.00    -0.000 C 
BRANCH  18  19
ATOM     19  C   UNL     1      35.078 170.391  17.082  1.00  0.00    -0.003 C 
ATOM     20  C   UNL     1      35.252 168.875  17.126  1.00  0.00     0.004 C 
ENDBRANCH  18  19
ENDBRANCH  17  18
ENDBRANCH  16  17
ENDBRANCH  15  16
ENDBRANCH  14  15
ENDBRANCH  13  14
ENDBRANCH   2  13
TORSDOF 15
ENDMDL
MODEL 9
REMARK VINA RESULT:    -3.224      3.383      6.332
REMARK INTER + INTRA:          -8.901
REMARK INTER:                  -6.395
REMARK INTRA:                  -2.507
REMARK UNBOUND:                -2.851
REMARK SMILES CCCCCCCCC=CCCCCCCCC(=O)[O-]
REMARK SMILES IDX 10 1 9 2 11 3 12 4 13 5 14 6 15 7 16 8 17 9 18 10 19 11
REMARK SMILES IDX 20 12 8 13 7 14 6 15 5 16 4 17 3 18 2 19 1 20
REMARK H PARENT
REMARK Flexibility Score: inf
ROOT
ATOM      1  C   UNL     1      39.660 186.079  30.291  1.00  0.00    -0.031 C 
ATOM      2  C   UNL     1      38.571 186.774  30.670  1.00  0.00    -0.031 C 
ENDROOT
BRANCH   1   3
ATOM      3  C   UNL     1      41.009 186.165  30.964  1.00  0.00     0.027 C 
BRANCH   3   4
ATOM      4  C   UNL     1      41.071 185.302  32.234  1.00  0.00     0.004 C 
BRANCH   4   5
ATOM      5  C   UNL     1      41.891 185.969  33.347  1.00  0.00     0.000 C 
BRANCH   5   6
ATOM      6  C   UNL     1      41.739 185.212  34.672  1.00  0.00     0.000 C 
BRANCH   6   7
ATOM      7  C   UNL     1      41.341 183.749  34.427  1.00  0.00     0.000 C 
BRANCH   7   8
ATOM      8  C   UNL     1      42.546 182.853  34.102  1.00  0.00     0.006 C 
BRANCH   8   9
ATOM      9  C   UNL     1      43.834 183.322  34.789  1.00  0.00     0.053 C 
BRANCH   9  10
ATOM     10  C   UNL     1      44.918 183.533  33.780  1.00  0.00     0.041 C 
ATOM     11  O   UNL     1      46.121 183.599  34.148  1.00  0.00    -0.550 OA
ATOM     12  O   UNL     1      44.606 183.605  32.429  1.00  0.00    -0.550 OA
ENDBRANCH   9  10
ENDBRANCH   8   9
ENDBRANCH   7   8
ENDBRANCH   6   7
ENDBRANCH   5   6
ENDBRANCH   4   5
ENDBRANCH   3   4
ENDBRANCH   1   3
BRANCH   2  13
ATOM     13  C   UNL     1      38.555 187.810  31.765  1.00  0.00     0.027 C 
BRANCH  13  14
ATOM     14  C   UNL     1      37.614 187.383  32.901  1.00  0.00     0.004 C 
BRANCH  14  15
ATOM     15  C   UNL     1      38.367 186.905  34.155  1.00  0.00     0.000 C 
BRANCH  15  16
ATOM     16  C   UNL     1      37.945 185.520  34.676  1.00  0.00     0.000 C 
BRANCH  16  17
ATOM     17  C   UNL     1      37.714 184.501  33.550  1.00  0.00    -0.000 C 
BRANCH  17  18
ATOM     18  C   UNL     1      36.244 184.071  33.492  1.00  0.00    -0.000 C 
BRANCH  18  19
ATOM     19  C   UNL     1      35.914 183.420  32.144  1.00  0.00    -0.003 C 
ATOM     20  C   UNL     1      35.478 184.464  31.120  1.00  0.00     0.004 C 
ENDBRANCH  18  19
ENDBRANCH  17  18
ENDBRANCH  16  17
ENDBRANCH  15  16
ENDBRANCH  14  15
ENDBRANCH  13  14
ENDBRANCH   2  13
TORSDOF 15
ENDMDL
