MODEL 1
REMARK VINA RESULT:    -3.471      0.000      0.000
REMARK INTER + INTRA:          -3.471
REMARK INTER:                  -3.471
REMARK INTRA:                   0.000
REMARK UNBOUND:                 0.000
REMARK SMILES CC1=CC(=O)[C@H]2C[C@@H]1C2(C)C
REMARK SMILES IDX 1 1 2 2 3 3 4 4 5 5 6 6 7 7 8 8 9 9 10 10 11 11
REMARK H PARENT
REMARK Flexibility Score: inf
ROOT
ATOM      1  C   UNL     1     201.905 143.772 166.571  1.00  0.00     0.040 C 
ATOM      2  C   UNL     1     201.532 144.473 167.839  1.00  0.00    -0.066 C 
ATOM      3  C   UNL     1     201.379 145.826 167.904  1.00  0.00     0.047 C 
ATOM      4  C   UNL     1     201.007 146.386 169.244  1.00  0.00     0.159 C 
ATOM      5  O   UNL     1     200.877 147.622 169.443  1.00  0.00    -0.295 OA
ATOM      6  C   UNL     1     200.795 145.352 170.350  1.00  0.00     0.067 C 
ATOM      7  C   UNL     1     199.931 144.258 169.684  1.00  0.00     0.021 C 
ATOM      8  C   UNL     1     201.251 143.676 169.129  1.00  0.00     0.022 C 
ATOM      9  C   UNL     1     201.985 144.349 170.324  1.00  0.00    -0.019 C 
ATOM     10  C   UNL     1     203.417 144.908 170.087  1.00  0.00     0.012 C 
ATOM     11  C   UNL     1     202.020 143.443 171.581  1.00  0.00     0.012 C 
ENDROOT
TORSDOF 0
ENDMDL
MODEL 2
REMARK VINA RESULT:    -3.451      7.356      8.946
REMARK INTER + INTRA:          -3.451
REMARK INTER:                  -3.451
REMARK INTRA:                   0.000
REMARK UNBOUND:                 0.000
REMARK SMILES CC1=CC(=O)[C@H]2C[C@@H]1C2(C)C
REMARK SMILES IDX 1 1 2 2 3 3 4 4 5 5 6 6 7 7 8 8 9 9 10 10 11 11
REMARK H PARENT
REMARK Flexibility Score: inf
ROOT
ATOM      1  C   UNL     1     199.295 154.628 165.622  1.00  0.00     0.040 C 
ATOM      2  C   UNL     1     200.051 153.355 165.407  1.00  0.00    -0.066 C 
ATOM      3  C   UNL     1     201.398 153.334 165.204  1.00  0.00     0.047 C 
ATOM      4  C   UNL     1     202.016 151.983 165.001  1.00  0.00     0.159 C 
ATOM      5  O   UNL     1     203.243 151.835 164.764  1.00  0.00    -0.295 OA
ATOM      6  C   UNL     1     201.053 150.801 165.102  1.00  0.00     0.067 C 
ATOM      7  C   UNL     1     200.216 151.103 166.365  1.00  0.00     0.021 C 
ATOM      8  C   UNL     1     199.332 151.991 165.459  1.00  0.00     0.022 C 
ATOM      9  C   UNL     1     199.788 151.119 164.255  1.00  0.00    -0.019 C 
ATOM     10  C   UNL     1     199.978 151.812 162.875  1.00  0.00     0.012 C 
ATOM     11  C   UNL     1     198.885 149.875 164.052  1.00  0.00     0.012 C 
ENDROOT
TORSDOF 0
ENDMDL
MODEL 3
REMARK VINA RESULT:    -3.441     12.844     14.343
REMARK INTER + INTRA:          -3.441
REMARK INTER:                  -3.441
REMARK INTRA:                   0.000
REMARK UNBOUND:                 0.000
REMARK SMILES CC1=CC(=O)[C@H]2C[C@@H]1C2(C)C
REMARK SMILES IDX 1 1 2 2 3 3 4 4 5 5 6 6 7 7 8 8 9 9 10 10 11 11
REMARK H PARENT
REMARK Flexibility Score: inf
ROOT
ATOM      1  C   UNL     1     214.331 154.173 172.738  1.00  0.00     0.040 C 
ATOM      2  C   UNL     1     213.460 153.428 171.776  1.00  0.00    -0.066 C 
ATOM      3  C   UNL     1     213.637 152.103 171.511  1.00  0.00     0.047 C 
ATOM      4  C   UNL     1     212.688 151.493 170.523  1.00  0.00     0.159 C 
ATOM      5  O   UNL     1     212.775 150.290 170.164  1.00  0.00    -0.295 OA
ATOM      6  C   UNL     1     211.611 152.434 169.983  1.00  0.00     0.067 C 
ATOM      7  C   UNL     1     211.082 153.161 171.239  1.00  0.00     0.021 C 
ATOM      8  C   UNL     1     212.277 154.127 171.076  1.00  0.00     0.022 C 
ATOM      9  C   UNL     1     212.287 153.770 169.562  1.00  0.00    -0.019 C 
ATOM     10  C   UNL     1     213.658 153.706 168.830  1.00  0.00     0.012 C 
ATOM     11  C   UNL     1     211.338 154.676 168.735  1.00  0.00     0.012 C 
ENDROOT
TORSDOF 0
ENDMDL
MODEL 4
REMARK VINA RESULT:    -3.408      2.727      4.583
REMARK INTER + INTRA:          -3.408
REMARK INTER:                  -3.408
REMARK INTRA:                   0.000
REMARK UNBOUND:                 0.000
REMARK SMILES CC1=CC(=O)[C@H]2C[C@@H]1C2(C)C
REMARK SMILES IDX 1 1 2 2 3 3 4 4 5 5 6 6 7 7 8 8 9 9 10 10 11 11
REMARK H PARENT
REMARK Flexibility Score: inf
ROOT
ATOM      1  C   UNL     1     204.979 146.754 168.017  1.00  0.00     0.040 C 
ATOM      2  C   UNL     1     203.608 147.240 168.369  1.00  0.00    -0.066 C 
ATOM      3  C   UNL     1     202.706 146.456 169.024  1.00  0.00     0.047 C 
ATOM      4  C   UNL     1     201.371 147.079 169.307  1.00  0.00     0.159 C 
ATOM      5  O   UNL     1     200.440 146.446 169.868  1.00  0.00    -0.295 OA
ATOM      6  C   UNL     1     201.222 148.535 168.866  1.00  0.00     0.067 C 
ATOM      7  C   UNL     1     202.525 149.210 169.347  1.00  0.00     0.021 C 
ATOM      8  C   UNL     1     203.175 148.684 168.047  1.00  0.00     0.022 C 
ATOM      9  C   UNL     1     201.755 148.669 167.410  1.00  0.00    -0.019 C 
ATOM     10  C   UNL     1     201.417 147.541 166.393  1.00  0.00     0.012 C 
ATOM     11  C   UNL     1     201.382 150.029 166.768  1.00  0.00     0.012 C 
ENDROOT
TORSDOF 0
ENDMDL
MODEL 5
REMARK VINA RESULT:    -3.384     20.627     21.926
REMARK INTER + INTRA:          -3.384
REMARK INTER:                  -3.384
REMARK INTRA:                   0.000
REMARK UNBOUND:                 0.000
REMARK SMILES CC1=CC(=O)[C@H]2C[C@@H]1C2(C)C
REMARK SMILES IDX 1 1 2 2 3 3 4 4 5 5 6 6 7 7 8 8 9 9 10 10 11 11
REMARK H PARENT
REMARK Flexibility Score: inf
ROOT
ATOM      1  C   UNL     1     213.031 160.101 163.140  1.00  0.00     0.040 C 
ATOM      2  C   UNL     1     213.658 159.766 161.823  1.00  0.00    -0.066 C 
ATOM      3  C   UNL     1     214.367 158.618 161.627  1.00  0.00     0.047 C 
ATOM      4  C   UNL     1     214.939 158.419 160.255  1.00  0.00     0.159 C 
ATOM      5  O   UNL     1     215.646 157.421 159.961  1.00  0.00    -0.295 OA
ATOM      6  C   UNL     1     214.602 159.512 159.242  1.00  0.00     0.067 C 
ATOM      7  C   UNL     1     213.089 159.756 159.438  1.00  0.00     0.021 C 
ATOM      8  C   UNL     1     213.480 160.692 160.604  1.00  0.00     0.022 C 
ATOM      9  C   UNL     1     214.855 160.897 159.904  1.00  0.00    -0.019 C 
ATOM     10  C   UNL     1     216.116 161.069 160.797  1.00  0.00     0.012 C 
ATOM     11  C   UNL     1     214.826 162.057 158.876  1.00  0.00     0.012 C 
ENDROOT
TORSDOF 0
ENDMDL
MODEL 6
REMARK VINA RESULT:    -3.362     20.427     21.714
REMARK INTER + INTRA:          -3.362
REMARK INTER:                  -3.362
REMARK INTRA:                   0.000
REMARK UNBOUND:                 0.000
REMARK SMILES CC1=CC(=O)[C@H]2C[C@@H]1C2(C)C
REMARK SMILES IDX 1 1 2 2 3 3 4 4 5 5 6 6 7 7 8 8 9 9 10 10 11 11
REMARK H PARENT
REMARK Flexibility Score: inf
ROOT
ATOM      1  C   UNL     1     212.003 158.151 158.875  1.00  0.00     0.040 C 
ATOM      2  C   UNL     1     212.814 159.051 159.753  1.00  0.00    -0.066 C 
ATOM      3  C   UNL     1     212.477 159.297 161.051  1.00  0.00     0.047 C 
ATOM      4  C   UNL     1     213.384 160.221 161.807  1.00  0.00     0.159 C 
ATOM      5  O   UNL     1     213.157 160.559 162.997  1.00  0.00    -0.295 OA
ATOM      6  C   UNL     1     214.601 160.724 161.030  1.00  0.00     0.067 C 
ATOM      7  C   UNL     1     215.159 159.458 160.344  1.00  0.00     0.021 C 
ATOM      8  C   UNL     1     214.112 159.703 159.235  1.00  0.00     0.022 C 
ATOM      9  C   UNL     1     214.129 161.208 159.629  1.00  0.00    -0.019 C 
ATOM     10  C   UNL     1     212.799 162.008 159.533  1.00  0.00     0.012 C 
ATOM     11  C   UNL     1     215.228 162.002 158.878  1.00  0.00     0.012 C 
ENDROOT
TORSDOF 0
ENDMDL
MODEL 7
REMARK VINA RESULT:    -3.338     20.124     21.427
REMARK INTER + INTRA:          -3.338
REMARK INTER:                  -3.338
REMARK INTRA:                   0.000
REMARK UNBOUND:                 0.000
REMARK SMILES CC1=CC(=O)[C@H]2C[C@@H]1C2(C)C
REMARK SMILES IDX 1 1 2 2 3 3 4 4 5 5 6 6 7 7 8 8 9 9 10 10 11 11
REMARK H PARENT
REMARK Flexibility Score: inf
ROOT
ATOM      1  C   UNL     1     215.176 161.746 158.979  1.00  0.00     0.040 C 
ATOM      2  C   UNL     1     214.250 160.955 159.849  1.00  0.00    -0.066 C 
ATOM      3  C   UNL     1     214.534 159.681 160.243  1.00  0.00     0.047 C 
ATOM      4  C   UNL     1     213.510 159.014 161.112  1.00  0.00     0.159 C 
ATOM      5  O   UNL     1     213.637 157.825 161.506  1.00  0.00    -0.295 OA
ATOM      6  C   UNL     1     212.305 159.876 161.483  1.00  0.00     0.067 C 
ATOM      7  C   UNL     1     212.922 161.232 161.892  1.00  0.00     0.021 C 
ATOM      8  C   UNL     1     212.945 161.576 160.385  1.00  0.00     0.022 C 
ATOM      9  C   UNL     1     211.775 160.569 160.195  1.00  0.00    -0.019 C 
ATOM     10  C   UNL     1     211.724 159.741 158.879  1.00  0.00     0.012 C 
ATOM     11  C   UNL     1     210.388 161.228 160.407  1.00  0.00     0.012 C 
ENDROOT
TORSDOF 0
ENDMDL
MODEL 8
REMARK VINA RESULT:    -3.333     20.579     21.786
REMARK INTER + INTRA:          -3.333
REMARK INTER:                  -3.333
REMARK INTRA:                   0.000
REMARK UNBOUND:                 0.000
REMARK SMILES CC1=CC(=O)[C@H]2C[C@@H]1C2(C)C
REMARK SMILES IDX 1 1 2 2 3 3 4 4 5 5 6 6 7 7 8 8 9 9 10 10 11 11
REMARK H PARENT
REMARK Flexibility Score: inf
ROOT
ATOM      1  C   UNL     1     215.962 161.682 159.581  1.00  0.00     0.040 C 
ATOM      2  C   UNL     1     214.545 161.201 159.568  1.00  0.00    -0.066 C 
ATOM      3  C   UNL     1     213.514 161.988 159.150  1.00  0.00     0.047 C 
ATOM      4  C   UNL     1     212.148 161.370 159.195  1.00  0.00     0.159 C 
ATOM      5  O   UNL     1     211.112 162.008 158.875  1.00  0.00    -0.295 OA
ATOM      6  C   UNL     1     212.104 159.914 159.657  1.00  0.00     0.067 C 
ATOM      7  C   UNL     1     213.252 159.236 158.876  1.00  0.00     0.021 C 
ATOM      8  C   UNL     1     214.196 159.757 159.982  1.00  0.00     0.022 C 
ATOM      9  C   UNL     1     212.971 159.775 160.941  1.00  0.00    -0.019 C 
ATOM     10  C   UNL     1     212.891 160.901 162.011  1.00  0.00     0.012 C 
ATOM     11  C   UNL     1     212.758 158.414 161.652  1.00  0.00     0.012 C 
ENDROOT
TORSDOF 0
ENDMDL
MODEL 9
REMARK VINA RESULT:    -3.303     20.324     21.578
REMARK INTER + INTRA:          -3.303
REMARK INTER:                  -3.303
REMARK INTRA:                   0.000
REMARK UNBOUND:                 0.000
REMARK SMILES CC1=CC(=O)[C@H]2C[C@@H]1C2(C)C
REMARK SMILES IDX 1 1 2 2 3 3 4 4 5 5 6 6 7 7 8 8 9 9 10 10 11 11
REMARK H PARENT
REMARK Flexibility Score: inf
ROOT
ATOM      1  C   UNL     1     210.538 162.563 160.041  1.00  0.00     0.040 C 
ATOM      2  C   UNL     1     211.827 161.821 160.208  1.00  0.00    -0.066 C 
ATOM      3  C   UNL     1     212.887 162.009 159.371  1.00  0.00     0.047 C 
ATOM      4  C   UNL     1     214.111 161.193 159.661  1.00  0.00     0.159 C 
ATOM      5  O   UNL     1     215.140 161.245 158.938  1.00  0.00    -0.295 OA
ATOM      6  C   UNL     1     214.022 160.294 160.894  1.00  0.00     0.067 C 
ATOM      7  C   UNL     1     213.405 161.203 161.980  1.00  0.00     0.021 C 
ATOM      8  C   UNL     1     212.029 160.839 161.379  1.00  0.00     0.022 C 
ATOM      9  C   UNL     1     212.670 159.525 160.849  1.00  0.00    -0.019 C 
ATOM     10  C   UNL     1     212.182 158.968 159.481  1.00  0.00     0.012 C 
ATOM     11  C   UNL     1     212.610 158.377 161.889  1.00  0.00     0.012 C 
ENDROOT
TORSDOF 0
ENDMDL
