MODEL 1
REMARK VINA RESULT:    -3.515      0.000      0.000
REMARK INTER + INTRA:          -4.240
REMARK INTER:                  -4.131
REMARK INTRA:                  -0.109
REMARK UNBOUND:                -0.109
REMARK SMILES CCCCC(=O)[O-]
REMARK SMILES IDX 4 1 5 2 6 3 7 4 3 5 2 6 1 7
REMARK H PARENT
REMARK Flexibility Score: inf
ROOT
ATOM      1  C   UNL     1      27.144  40.459  33.967  1.00  0.00     0.053 C 
ENDROOT
BRANCH   1   2
ATOM      2  C   UNL     1      27.650  41.527  33.050  1.00  0.00     0.041 C 
ATOM      3  O   UNL     1      27.856  41.273  31.834  1.00  0.00    -0.550 OA
ATOM      4  O   UNL     1      27.847  42.817  33.527  1.00  0.00    -0.550 OA
ENDBRANCH   1   2
BRANCH   1   5
ATOM      5  C   UNL     1      28.076  39.245  33.943  1.00  0.00     0.006 C 
BRANCH   5   6
ATOM      6  C   UNL     1      27.327  37.985  33.496  1.00  0.00    -0.003 C 
ATOM      7  C   UNL     1      27.557  37.702  32.014  1.00  0.00     0.004 C 
ENDBRANCH   5   6
ENDBRANCH   1   5
TORSDOF 3
ENDMDL
MODEL 2
REMARK VINA RESULT:    -3.475      4.526      5.375
REMARK INTER + INTRA:          -4.194
REMARK INTER:                  -4.100
REMARK INTRA:                  -0.094
REMARK UNBOUND:                -0.109
REMARK SMILES CCCCC(=O)[O-]
REMARK SMILES IDX 4 1 5 2 6 3 7 4 3 5 2 6 1 7
REMARK H PARENT
REMARK Flexibility Score: inf
ROOT
ATOM      1  C   UNL     1      27.491  36.626  32.686  1.00  0.00     0.053 C 
ENDROOT
BRANCH   1   2
ATOM      2  C   UNL     1      27.454  35.616  33.789  1.00  0.00     0.041 C 
ATOM      3  O   UNL     1      27.983  34.485  33.630  1.00  0.00    -0.550 OA
ATOM      4  O   UNL     1      26.879  35.942  35.011  1.00  0.00    -0.550 OA
ENDBRANCH   1   2
BRANCH   1   5
ATOM      5  C   UNL     1      27.618  35.932  31.327  1.00  0.00     0.006 C 
BRANCH   5   6
ATOM      6  C   UNL     1      26.246  35.490  30.805  1.00  0.00    -0.003 C 
ATOM      7  C   UNL     1      26.279  34.044  30.322  1.00  0.00     0.004 C 
ENDBRANCH   5   6
ENDBRANCH   1   5
TORSDOF 3
ENDMDL
MODEL 3
REMARK VINA RESULT:    -3.443      3.006      4.445
REMARK INTER + INTRA:          -4.155
REMARK INTER:                  -4.139
REMARK INTRA:                  -0.016
REMARK UNBOUND:                -0.109
REMARK SMILES CCCCC(=O)[O-]
REMARK SMILES IDX 4 1 5 2 6 3 7 4 3 5 2 6 1 7
REMARK H PARENT
REMARK Flexibility Score: inf
ROOT
ATOM      1  C   UNL     1      26.941  42.335  34.751  1.00  0.00     0.053 C 
ENDROOT
BRANCH   1   2
ATOM      2  C   UNL     1      27.298  41.269  33.765  1.00  0.00     0.041 C 
ATOM      3  O   UNL     1      27.193  40.055  34.078  1.00  0.00    -0.550 OA
ATOM      4  O   UNL     1      27.702  41.617  32.482  1.00  0.00    -0.550 OA
ENDBRANCH   1   2
BRANCH   1   5
ATOM      5  C   UNL     1      25.483  42.188  35.195  1.00  0.00     0.006 C 
BRANCH   5   6
ATOM      6  C   UNL     1      25.026  43.411  35.998  1.00  0.00    -0.003 C 
ATOM      7  C   UNL     1      23.663  43.905  35.525  1.00  0.00     0.004 C 
ENDBRANCH   5   6
ENDBRANCH   1   5
TORSDOF 3
ENDMDL
MODEL 4
REMARK VINA RESULT:    -3.431      4.201      5.710
REMARK INTER + INTRA:          -4.142
REMARK INTER:                  -4.110
REMARK INTRA:                  -0.031
REMARK UNBOUND:                -0.109
REMARK SMILES CCCCC(=O)[O-]
REMARK SMILES IDX 4 1 5 2 6 3 7 4 3 5 2 6 1 7
REMARK H PARENT
REMARK Flexibility Score: inf
ROOT
ATOM      1  C   UNL     1      25.243  42.479  35.508  1.00  0.00     0.053 C 
ENDROOT
BRANCH   1   2
ATOM      2  C   UNL     1      26.655  42.836  35.167  1.00  0.00     0.041 C 
ATOM      3  O   UNL     1      27.135  43.942  35.530  1.00  0.00    -0.550 OA
ATOM      4  O   UNL     1      27.458  41.926  34.490  1.00  0.00    -0.550 OA
ENDBRANCH   1   2
BRANCH   1   5
ATOM      5  C   UNL     1      24.482  43.713  36.000  1.00  0.00     0.006 C 
BRANCH   5   6
ATOM      6  C   UNL     1      23.132  43.847  35.286  1.00  0.00    -0.003 C 
ATOM      7  C   UNL     1      22.335  45.029  35.830  1.00  0.00     0.004 C 
ENDBRANCH   5   6
ENDBRANCH   1   5
TORSDOF 3
ENDMDL
MODEL 5
REMARK VINA RESULT:    -3.347      4.656      5.995
REMARK INTER + INTRA:          -4.043
REMARK INTER:                  -3.943
REMARK INTRA:                  -0.100
REMARK UNBOUND:                -0.109
REMARK SMILES CCCCC(=O)[O-]
REMARK SMILES IDX 4 1 5 2 6 3 7 4 3 5 2 6 1 7
REMARK H PARENT
REMARK Flexibility Score: inf
ROOT
ATOM      1  C   UNL     1      28.782  34.528  32.140  1.00  0.00     0.053 C 
ENDROOT
BRANCH   1   2
ATOM      2  C   UNL     1      27.890  35.493  32.854  1.00  0.00     0.041 C 
ATOM      3  O   UNL     1      27.516  35.258  34.032  1.00  0.00    -0.550 OA
ATOM      4  O   UNL     1      27.510  36.677  32.235  1.00  0.00    -0.550 OA
ENDBRANCH   1   2
BRANCH   1   5
ATOM      5  C   UNL     1      27.969  33.356  31.584  1.00  0.00     0.006 C 
BRANCH   5   6
ATOM      6  C   UNL     1      27.455  33.664  30.173  1.00  0.00    -0.003 C 
ATOM      7  C   UNL     1      25.933  33.580  30.109  1.00  0.00     0.004 C 
ENDBRANCH   5   6
ENDBRANCH   1   5
TORSDOF 3
ENDMDL
MODEL 6
REMARK VINA RESULT:    -3.345      3.610      4.691
REMARK INTER + INTRA:          -4.040
REMARK INTER:                  -3.929
REMARK INTRA:                  -0.111
REMARK UNBOUND:                -0.109
REMARK SMILES CCCCC(=O)[O-]
REMARK SMILES IDX 4 1 5 2 6 3 7 4 3 5 2 6 1 7
REMARK H PARENT
REMARK Flexibility Score: inf
ROOT
ATOM      1  C   UNL     1      25.776  43.499  36.241  1.00  0.00     0.053 C 
ENDROOT
BRANCH   1   2
ATOM      2  C   UNL     1      24.546  42.956  35.587  1.00  0.00     0.041 C 
ATOM      3  O   UNL     1      24.474  41.736  35.286  1.00  0.00    -0.550 OA
ATOM      4  O   UNL     1      23.458  43.788  35.353  1.00  0.00    -0.550 OA
ENDBRANCH   1   2
BRANCH   1   5
ATOM      5  C   UNL     1      26.815  43.892  35.188  1.00  0.00     0.006 C 
BRANCH   5   6
ATOM      6  C   UNL     1      27.859  42.784  35.006  1.00  0.00    -0.003 C 
ATOM      7  C   UNL     1      27.732  42.126  33.636  1.00  0.00     0.004 C 
ENDBRANCH   5   6
ENDBRANCH   1   5
TORSDOF 3
ENDMDL
MODEL 7
REMARK VINA RESULT:    -3.310      3.466      4.970
REMARK INTER + INTRA:          -3.999
REMARK INTER:                  -3.909
REMARK INTRA:                  -0.091
REMARK UNBOUND:                -0.109
REMARK SMILES CCCCC(=O)[O-]
REMARK SMILES IDX 4 1 5 2 6 3 7 4 3 5 2 6 1 7
REMARK H PARENT
REMARK Flexibility Score: inf
ROOT
ATOM      1  C   UNL     1      27.773  36.037  30.976  1.00  0.00     0.053 C 
ENDROOT
BRANCH   1   2
ATOM      2  C   UNL     1      27.551  36.982  32.115  1.00  0.00     0.041 C 
ATOM      3  O   UNL     1      27.340  36.539  33.274  1.00  0.00    -0.550 OA
ATOM      4  O   UNL     1      27.626  38.353  31.905  1.00  0.00    -0.550 OA
ENDBRANCH   1   2
BRANCH   1   5
ATOM      5  C   UNL     1      26.469  35.326  30.607  1.00  0.00     0.006 C 
BRANCH   5   6
ATOM      6  C   UNL     1      26.676  33.810  30.515  1.00  0.00    -0.003 C 
ATOM      7  C   UNL     1      27.809  33.351  31.427  1.00  0.00     0.004 C 
ENDBRANCH   5   6
ENDBRANCH   1   5
TORSDOF 3
ENDMDL
MODEL 8
REMARK VINA RESULT:    -3.243      5.263      6.257
REMARK INTER + INTRA:          -3.921
REMARK INTER:                  -3.841
REMARK INTRA:                  -0.080
REMARK UNBOUND:                -0.109
REMARK SMILES CCCCC(=O)[O-]
REMARK SMILES IDX 4 1 5 2 6 3 7 4 3 5 2 6 1 7
REMARK H PARENT
REMARK Flexibility Score: inf
ROOT
ATOM      1  C   UNL     1      27.977  35.620  31.082  1.00  0.00     0.053 C 
ENDROOT
BRANCH   1   2
ATOM      2  C   UNL     1      28.248  35.123  32.466  1.00  0.00     0.041 C 
ATOM      3  O   UNL     1      27.566  35.544  33.436  1.00  0.00    -0.550 OA
ATOM      4  O   UNL     1      29.223  34.156  32.679  1.00  0.00    -0.550 OA
ENDBRANCH   1   2
BRANCH   1   5
ATOM      5  C   UNL     1      26.549  35.271  30.657  1.00  0.00     0.006 C 
BRANCH   5   6
ATOM      6  C   UNL     1      26.428  33.785  30.302  1.00  0.00    -0.003 C 
ATOM      7  C   UNL     1      25.005  33.430  29.883  1.00  0.00     0.004 C 
ENDBRANCH   5   6
ENDBRANCH   1   5
TORSDOF 3
ENDMDL
MODEL 9
REMARK VINA RESULT:    -3.237      5.185      6.032
REMARK INTER + INTRA:          -3.913
REMARK INTER:                  -3.809
REMARK INTRA:                  -0.104
REMARK UNBOUND:                -0.109
REMARK SMILES CCCCC(=O)[O-]
REMARK SMILES IDX 4 1 5 2 6 3 7 4 3 5 2 6 1 7
REMARK H PARENT
REMARK Flexibility Score: inf
ROOT
ATOM      1  C   UNL     1      27.871  36.018  31.763  1.00  0.00     0.053 C 
ENDROOT
BRANCH   1   2
ATOM      2  C   UNL     1      28.247  35.023  32.815  1.00  0.00     0.041 C 
ATOM      3  O   UNL     1      29.210  34.235  32.627  1.00  0.00    -0.550 OA
ATOM      4  O   UNL     1      27.564  35.000  34.024  1.00  0.00    -0.550 OA
ENDBRANCH   1   2
BRANCH   1   5
ATOM      5  C   UNL     1      27.565  35.311  30.440  1.00  0.00     0.006 C 
BRANCH   5   6
ATOM      6  C   UNL     1      28.502  35.794  29.328  1.00  0.00    -0.003 C 
ATOM      7  C   UNL     1      29.549  34.738  28.989  1.00  0.00     0.004 C 
ENDBRANCH   5   6
ENDBRANCH   1   5
TORSDOF 3
ENDMDL
