MODEL 1
REMARK VINA RESULT:    -3.753      0.000      0.000
REMARK INTER + INTRA:          -4.330
REMARK INTER:                  -4.082
REMARK INTRA:                  -0.248
REMARK UNBOUND:                -0.248
REMARK SMILES O=C([O-])c1ccccc1O
REMARK SMILES IDX 4 1 9 2 5 3 8 4 6 5 7 6 2 7 1 8 3 9 10 10
REMARK H PARENT 10 11
REMARK Flexibility Score: inf
ROOT
ATOM      1  C   UNL     1      55.352  38.537 123.534  1.00  0.00     0.039 A 
ATOM      2  C   UNL     1      56.742  38.482 123.270  1.00  0.00     0.124 A 
ATOM      3  C   UNL     1      54.771  39.779 123.856  1.00  0.00     0.014 A 
ATOM      4  C   UNL     1      57.512  39.654 123.332  1.00  0.00     0.047 A 
ATOM      5  C   UNL     1      55.550  40.937 123.914  1.00  0.00     0.001 A 
ATOM      6  C   UNL     1      56.917  40.875 123.653  1.00  0.00     0.004 A 
ENDROOT
BRANCH   1   7
ATOM      7  C   UNL     1      54.494  37.326 123.480  1.00  0.00     0.075 C 
ATOM      8  O   UNL     1      54.877  36.235 123.978  1.00  0.00    -0.545 OA
ATOM      9  O   UNL     1      53.243  37.381 122.875  1.00  0.00    -0.545 OA
ENDBRANCH   1   7
BRANCH   2  10
ATOM     10  O   UNL     1      57.360  37.274 122.947  1.00  0.00    -0.507 OA
ATOM     11  H   UNL     1      57.047  36.394 123.339  1.00  0.00     0.293 HD
ENDBRANCH   2  10
TORSDOF 2
ENDMDL
MODEL 2
REMARK VINA RESULT:    -3.650      1.777      3.609
REMARK INTER + INTRA:          -4.218
REMARK INTER:                  -3.984
REMARK INTRA:                  -0.234
REMARK UNBOUND:                -0.248
REMARK SMILES O=C([O-])c1ccccc1O
REMARK SMILES IDX 4 1 9 2 5 3 8 4 6 5 7 6 2 7 1 8 3 9 10 10
REMARK H PARENT 10 11
REMARK Flexibility Score: inf
ROOT
ATOM      1  C   UNL     1      57.514  39.765 123.690  1.00  0.00     0.039 A 
ATOM      2  C   UNL     1      56.756  38.655 123.246  1.00  0.00     0.124 A 
ATOM      3  C   UNL     1      56.894  41.029 123.748  1.00  0.00     0.014 A 
ATOM      4  C   UNL     1      55.413  38.827 122.876  1.00  0.00     0.047 A 
ATOM      5  C   UNL     1      55.557  41.186 123.376  1.00  0.00     0.001 A 
ATOM      6  C   UNL     1      54.818  40.087 122.941  1.00  0.00     0.004 A 
ENDROOT
BRANCH   1   7
ATOM      7  C   UNL     1      58.937  39.635 124.094  1.00  0.00     0.075 C 
ATOM      8  O   UNL     1      59.277  38.882 125.044  1.00  0.00    -0.545 OA
ATOM      9  O   UNL     1      59.924  40.349 123.422  1.00  0.00    -0.545 OA
ENDBRANCH   1   7
BRANCH   2  10
ATOM     10  O   UNL     1      57.328  37.384 123.172  1.00  0.00    -0.507 OA
ATOM     11  H   UNL     1      58.310  37.254 122.959  1.00  0.00     0.293 HD
ENDBRANCH   2  10
TORSDOF 2
ENDMDL
MODEL 3
REMARK VINA RESULT:    -3.639      0.977      1.490
REMARK INTER + INTRA:          -4.206
REMARK INTER:                  -3.991
REMARK INTRA:                  -0.215
REMARK UNBOUND:                -0.248
REMARK SMILES O=C([O-])c1ccccc1O
REMARK SMILES IDX 4 1 9 2 5 3 8 4 6 5 7 6 2 7 1 8 3 9 10 10
REMARK H PARENT 10 11
REMARK Flexibility Score: inf
ROOT
ATOM      1  C   UNL     1      55.274  38.031 124.050  1.00  0.00     0.039 A 
ATOM      2  C   UNL     1      56.460  38.387 123.365  1.00  0.00     0.124 A 
ATOM      3  C   UNL     1      54.349  39.043 124.375  1.00  0.00     0.014 A 
ATOM      4  C   UNL     1      56.695  39.728 123.022  1.00  0.00     0.047 A 
ATOM      5  C   UNL     1      54.596  40.373 124.028  1.00  0.00     0.001 A 
ATOM      6  C   UNL     1      55.766  40.715 123.353  1.00  0.00     0.004 A 
ENDROOT
BRANCH   1   7
ATOM      7  C   UNL     1      54.979  36.627 124.434  1.00  0.00     0.075 C 
ATOM      8  O   UNL     1      53.985  36.018 123.958  1.00  0.00    -0.545 OA
ATOM      9  O   UNL     1      55.803  35.959 125.332  1.00  0.00    -0.545 OA
ENDBRANCH   1   7
BRANCH   2  10
ATOM     10  O   UNL     1      57.405  37.419 123.022  1.00  0.00    -0.507 OA
ATOM     11  H   UNL     1      57.191  36.673 122.371  1.00  0.00     0.293 HD
ENDBRANCH   2  10
TORSDOF 2
ENDMDL
MODEL 4
REMARK VINA RESULT:    -3.618     13.789     14.653
REMARK INTER + INTRA:          -4.183
REMARK INTER:                  -3.953
REMARK INTRA:                  -0.231
REMARK UNBOUND:                -0.248
REMARK SMILES O=C([O-])c1ccccc1O
REMARK SMILES IDX 4 1 9 2 5 3 8 4 6 5 7 6 2 7 1 8 3 9 10 10
REMARK H PARENT 10 11
REMARK Flexibility Score: inf
ROOT
ATOM      1  C   UNL     1      48.736  36.803 135.647  1.00  0.00     0.039 A 
ATOM      2  C   UNL     1      48.335  37.924 136.413  1.00  0.00     0.124 A 
ATOM      3  C   UNL     1      49.628  35.875 136.218  1.00  0.00     0.014 A 
ATOM      4  C   UNL     1      48.825  38.091 137.718  1.00  0.00     0.047 A 
ATOM      5  C   UNL     1      50.108  36.054 137.517  1.00  0.00     0.001 A 
ATOM      6  C   UNL     1      49.708  37.160 138.266  1.00  0.00     0.004 A 
ENDROOT
BRANCH   1   7
ATOM      7  C   UNL     1      48.245  36.581 134.263  1.00  0.00     0.075 C 
ATOM      8  O   UNL     1      47.091  36.948 133.916  1.00  0.00    -0.545 OA
ATOM      9  O   UNL     1      49.059  35.960 133.322  1.00  0.00    -0.545 OA
ENDBRANCH   1   7
BRANCH   2  10
ATOM     10  O   UNL     1      47.453  38.870 135.888  1.00  0.00    -0.507 OA
ATOM     11  H   UNL     1      46.531  39.014 136.282  1.00  0.00     0.293 HD
ENDBRANCH   2  10
TORSDOF 2
ENDMDL
MODEL 5
REMARK VINA RESULT:    -3.420     13.957     14.709
REMARK INTER + INTRA:          -3.968
REMARK INTER:                  -3.718
REMARK INTRA:                  -0.250
REMARK UNBOUND:                -0.248
REMARK SMILES O=C([O-])c1ccccc1O
REMARK SMILES IDX 4 1 9 2 5 3 8 4 6 5 7 6 2 7 1 8 3 9 10 10
REMARK H PARENT 10 11
REMARK Flexibility Score: inf
ROOT
ATOM      1  C   UNL     1      48.544  37.517 136.157  1.00  0.00     0.039 A 
ATOM      2  C   UNL     1      49.357  36.456 135.689  1.00  0.00     0.124 A 
ATOM      3  C   UNL     1      48.712  37.966 137.481  1.00  0.00     0.014 A 
ATOM      4  C   UNL     1      50.309  35.875 136.542  1.00  0.00     0.047 A 
ATOM      5  C   UNL     1      49.662  37.378 138.319  1.00  0.00     0.001 A 
ATOM      6  C   UNL     1      50.459  36.335 137.851  1.00  0.00     0.004 A 
ENDROOT
BRANCH   1   7
ATOM      7  C   UNL     1      47.525  38.165 135.294  1.00  0.00     0.075 C 
ATOM      8  O   UNL     1      47.354  39.412 135.314  1.00  0.00    -0.545 OA
ATOM      9  O   UNL     1      46.737  37.398 134.443  1.00  0.00    -0.545 OA
ENDBRANCH   1   7
BRANCH   2  10
ATOM     10  O   UNL     1      49.226  35.978 134.385  1.00  0.00    -0.507 OA
ATOM     11  H   UNL     1      49.549  36.513 133.587  1.00  0.00     0.293 HD
ENDBRANCH   2  10
TORSDOF 2
ENDMDL
MODEL 6
REMARK VINA RESULT:    -3.385      1.954      2.202
REMARK INTER + INTRA:          -3.930
REMARK INTER:                  -3.676
REMARK INTRA:                  -0.254
REMARK UNBOUND:                -0.248
REMARK SMILES O=C([O-])c1ccccc1O
REMARK SMILES IDX 4 1 9 2 5 3 8 4 6 5 7 6 2 7 1 8 3 9 10 10
REMARK H PARENT 10 11
REMARK Flexibility Score: inf
ROOT
ATOM      1  C   UNL     1      56.592  37.879 125.181  1.00  0.00     0.039 A 
ATOM      2  C   UNL     1      57.288  38.211 123.994  1.00  0.00     0.124 A 
ATOM      3  C   UNL     1      56.682  38.750 126.285  1.00  0.00     0.014 A 
ATOM      4  C   UNL     1      58.048  39.390 123.934  1.00  0.00     0.047 A 
ATOM      5  C   UNL     1      57.442  39.919 126.212  1.00  0.00     0.001 A 
ATOM      6  C   UNL     1      58.123  40.239 125.039  1.00  0.00     0.004 A 
ENDROOT
BRANCH   1   7
ATOM      7  C   UNL     1      55.775  36.645 125.295  1.00  0.00     0.075 C 
ATOM      8  O   UNL     1      55.832  35.919 126.322  1.00  0.00    -0.545 OA
ATOM      9  O   UNL     1      54.925  36.270 124.259  1.00  0.00    -0.545 OA
ENDBRANCH   1   7
BRANCH   2  10
ATOM     10  O   UNL     1      57.228  37.379 122.875  1.00  0.00    -0.507 OA
ATOM     11  H   UNL     1      56.734  37.652 122.034  1.00  0.00     0.293 HD
ENDBRANCH   2  10
TORSDOF 2
ENDMDL
MODEL 7
REMARK VINA RESULT:    -3.269     13.791     14.626
REMARK INTER + INTRA:          -3.803
REMARK INTER:                  -3.577
REMARK INTRA:                  -0.226
REMARK UNBOUND:                -0.248
REMARK SMILES O=C([O-])c1ccccc1O
REMARK SMILES IDX 4 1 9 2 5 3 8 4 6 5 7 6 2 7 1 8 3 9 10 10
REMARK H PARENT 10 11
REMARK Flexibility Score: inf
ROOT
ATOM      1  C   UNL     1      48.938  37.387 136.433  1.00  0.00     0.039 A 
ATOM      2  C   UNL     1      49.073  36.868 135.123  1.00  0.00     0.124 A 
ATOM      3  C   UNL     1      47.973  38.385 136.672  1.00  0.00     0.014 A 
ATOM      4  C   UNL     1      48.251  37.350 134.092  1.00  0.00     0.047 A 
ATOM      5  C   UNL     1      47.163  38.855 135.637  1.00  0.00     0.001 A 
ATOM      6  C   UNL     1      47.301  38.339 134.349  1.00  0.00     0.004 A 
ENDROOT
BRANCH   1   7
ATOM      7  C   UNL     1      49.783  36.910 137.558  1.00  0.00     0.075 C 
ATOM      8  O   UNL     1      51.033  37.060 137.542  1.00  0.00    -0.545 OA
ATOM      9  O   UNL     1      49.200  36.285 138.655  1.00  0.00    -0.545 OA
ENDBRANCH   1   7
BRANCH   2  10
ATOM     10  O   UNL     1      50.016  35.879 134.840  1.00  0.00    -0.507 OA
ATOM     11  H   UNL     1      50.839  35.748 135.415  1.00  0.00     0.293 HD
ENDBRANCH   2  10
TORSDOF 2
ENDMDL
MODEL 8
REMARK VINA RESULT:    -3.235      2.562      4.055
REMARK INTER + INTRA:          -3.766
REMARK INTER:                  -3.516
REMARK INTRA:                  -0.250
REMARK UNBOUND:                -0.248
REMARK SMILES O=C([O-])c1ccccc1O
REMARK SMILES IDX 4 1 9 2 5 3 8 4 6 5 7 6 2 7 1 8 3 9 10 10
REMARK H PARENT 10 11
REMARK Flexibility Score: inf
ROOT
ATOM      1  C   UNL     1      57.581  39.025 124.644  1.00  0.00     0.039 A 
ATOM      2  C   UNL     1      57.066  37.770 124.240  1.00  0.00     0.124 A 
ATOM      3  C   UNL     1      57.387  39.440 125.977  1.00  0.00     0.014 A 
ATOM      4  C   UNL     1      56.379  36.965 125.162  1.00  0.00     0.047 A 
ATOM      5  C   UNL     1      56.702  38.629 126.883  1.00  0.00     0.001 A 
ATOM      6  C   UNL     1      56.198  37.395 126.477  1.00  0.00     0.004 A 
ENDROOT
BRANCH   1   7
ATOM      7  C   UNL     1      58.316  39.912 123.707  1.00  0.00     0.075 C 
ATOM      8  O   UNL     1      57.976  41.115 123.549  1.00  0.00    -0.545 OA
ATOM      9  O   UNL     1      59.399  39.424 122.985  1.00  0.00    -0.545 OA
ENDBRANCH   1   7
BRANCH   2  10
ATOM     10  O   UNL     1      57.233  37.318 122.930  1.00  0.00    -0.507 OA
ATOM     11  H   UNL     1      57.724  36.456 122.723  1.00  0.00     0.293 HD
ENDBRANCH   2  10
TORSDOF 2
ENDMDL
