MODEL 1
REMARK VINA RESULT:    -4.878      0.000      0.000
REMARK INTER + INTRA:          -5.476
REMARK INTER:                  -5.306
REMARK INTRA:                  -0.170
REMARK UNBOUND:                -0.170
REMARK SMILES CC1=CC[C@H](C(C)(C)O)CC1
REMARK SMILES IDX 6 1 7 2 8 3 5 4 1 5 2 6 3 7 11 8 4 9 10 10 9 11
REMARK H PARENT 9 12
REMARK Flexibility Score: inf
ROOT
ATOM      1  C   UNL     1     126.174 119.172 115.597  1.00  0.00     0.062 C 
ATOM      2  C   UNL     1     125.796 120.621 115.229  1.00  0.00     0.042 C 
ATOM      3  C   UNL     1     127.032 119.213 116.887  1.00  0.00     0.042 C 
ENDROOT
BRANCH   1   4
ATOM      4  C   UNL     1     124.875 118.296 115.751  1.00  0.00     0.024 C 
ATOM      5  C   UNL     1     120.927 116.579 116.627  1.00  0.00     0.039 C 
ATOM      6  C   UNL     1     122.224 117.296 116.376  1.00  0.00    -0.077 C 
ATOM      7  C   UNL     1     123.141 117.360 117.363  1.00  0.00    -0.028 C 
ATOM      8  C   UNL     1     122.517 117.814 114.984  1.00  0.00     0.031 C 
ATOM      9  C   UNL     1     124.452 118.094 117.225  1.00  0.00     0.034 C 
ATOM     10  C   UNL     1     123.664 118.830 114.957  1.00  0.00     0.011 C 
ENDBRANCH   1   4
BRANCH   1  11
ATOM     11  O   UNL     1     126.947 118.681 114.524  1.00  0.00    -0.390 OA
ATOM     12  H   UNL     1     127.524 117.944 114.855  1.00  0.00     0.211 HD
ENDBRANCH   1  11
TORSDOF 2
ENDMDL
MODEL 2
REMARK VINA RESULT:    -4.861     14.913     15.761
REMARK INTER + INTRA:          -5.457
REMARK INTER:                  -5.295
REMARK INTRA:                  -0.162
REMARK UNBOUND:                -0.170
REMARK SMILES CC1=CC[C@H](C(C)(C)O)CC1
REMARK SMILES IDX 6 1 7 2 8 3 5 4 1 5 2 6 3 7 11 8 4 9 10 10 9 11
REMARK H PARENT 9 12
REMARK Flexibility Score: inf
ROOT
ATOM      1  C   UNL     1     118.279 126.423 126.797  1.00  0.00     0.062 C 
ATOM      2  C   UNL     1     116.872 126.512 127.420  1.00  0.00     0.042 C 
ATOM      3  C   UNL     1     118.172 125.600 125.487  1.00  0.00     0.042 C 
ENDROOT
BRANCH   1   4
ATOM      4  C   UNL     1     118.863 127.867 126.569  1.00  0.00     0.024 C 
ATOM      5  C   UNL     1     120.392 131.695 125.047  1.00  0.00     0.039 C 
ATOM      6  C   UNL     1     119.827 130.355 125.429  1.00  0.00    -0.077 C 
ATOM      7  C   UNL     1     120.623 129.268 125.377  1.00  0.00    -0.028 C 
ATOM      8  C   UNL     1     118.419 130.284 125.982  1.00  0.00     0.031 C 
ATOM      9  C   UNL     1     120.139 127.874 125.696  1.00  0.00     0.034 C 
ATOM     10  C   UNL     1     117.847 128.863 125.968  1.00  0.00     0.011 C 
ENDBRANCH   1   4
BRANCH   1  11
ATOM     11  O   UNL     1     119.081 125.734 127.730  1.00  0.00    -0.390 OA
ATOM     12  H   UNL     1     118.804 125.995 128.647  1.00  0.00     0.211 HD
ENDBRANCH   1  11
TORSDOF 2
ENDMDL
MODEL 3
REMARK VINA RESULT:    -4.796      2.291      4.641
REMARK INTER + INTRA:          -5.386
REMARK INTER:                  -5.236
REMARK INTRA:                  -0.150
REMARK UNBOUND:                -0.170
REMARK SMILES CC1=CC[C@H](C(C)(C)O)CC1
REMARK SMILES IDX 6 1 7 2 8 3 5 4 1 5 2 6 3 7 11 8 4 9 10 10 9 11
REMARK H PARENT 9 12
REMARK Flexibility Score: inf
ROOT
ATOM      1  C   UNL     1     121.512 116.787 117.205  1.00  0.00     0.062 C 
ATOM      2  C   UNL     1     122.220 115.572 117.838  1.00  0.00     0.042 C 
ATOM      3  C   UNL     1     120.544 117.382 118.261  1.00  0.00     0.042 C 
ENDROOT
BRANCH   1   4
ATOM      4  C   UNL     1     122.575 117.827 116.693  1.00  0.00     0.024 C 
ATOM      5  C   UNL     1     126.029 119.990 115.048  1.00  0.00     0.039 C 
ATOM      6  C   UNL     1     124.908 119.127 115.556  1.00  0.00    -0.077 C 
ATOM      7  C   UNL     1     125.004 118.583 116.787  1.00  0.00    -0.028 C 
ATOM      8  C   UNL     1     123.649 118.995 114.726  1.00  0.00     0.031 C 
ATOM      9  C   UNL     1     123.956 117.667 117.369  1.00  0.00     0.034 C 
ATOM     10  C   UNL     1     122.771 117.817 115.161  1.00  0.00     0.011 C 
ENDBRANCH   1   4
BRANCH   1  11
ATOM     11  O   UNL     1     120.776 116.288 116.111  1.00  0.00    -0.390 OA
ATOM     12  H   UNL     1     119.867 116.689 116.126  1.00  0.00     0.211 HD
ENDBRANCH   1  11
TORSDOF 2
ENDMDL
MODEL 4
REMARK VINA RESULT:    -4.757     15.070     15.492
REMARK INTER + INTRA:          -5.343
REMARK INTER:                  -5.211
REMARK INTRA:                  -0.132
REMARK UNBOUND:                -0.170
REMARK SMILES CC1=CC[C@H](C(C)(C)O)CC1
REMARK SMILES IDX 6 1 7 2 8 3 5 4 1 5 2 6 3 7 11 8 4 9 10 10 9 11
REMARK H PARENT 9 12
REMARK Flexibility Score: inf
ROOT
ATOM      1  C   UNL     1     120.013 130.133 125.706  1.00  0.00     0.062 C 
ATOM      2  C   UNL     1     120.228 131.199 126.798  1.00  0.00     0.042 C 
ATOM      3  C   UNL     1     121.402 129.744 125.136  1.00  0.00     0.042 C 
ENDROOT
BRANCH   1   4
ATOM      4  C   UNL     1     119.226 128.904 126.296  1.00  0.00     0.024 C 
ATOM      5  C   UNL     1     116.653 125.437 127.113  1.00  0.00     0.039 C 
ATOM      6  C   UNL     1     117.495 126.609 126.691  1.00  0.00    -0.077 C 
ATOM      7  C   UNL     1     116.943 127.839 126.662  1.00  0.00    -0.028 C 
ATOM      8  C   UNL     1     118.972 126.394 126.433  1.00  0.00     0.031 C 
ATOM      9  C   UNL     1     117.691 129.069 126.210  1.00  0.00     0.034 C 
ATOM     10  C   UNL     1     119.615 127.552 125.661  1.00  0.00     0.011 C 
ENDBRANCH   1   4
BRANCH   1  11
ATOM     11  O   UNL     1     119.239 130.748 124.700  1.00  0.00    -0.390 OA
ATOM     12  H   UNL     1     118.334 130.937 125.062  1.00  0.00     0.211 HD
ENDBRANCH   1  11
TORSDOF 2
ENDMDL
MODEL 5
REMARK VINA RESULT:    -4.755     14.764     16.305
REMARK INTER + INTRA:          -5.342
REMARK INTER:                  -5.187
REMARK INTRA:                  -0.154
REMARK UNBOUND:                -0.170
REMARK SMILES CC1=CC[C@H](C(C)(C)O)CC1
REMARK SMILES IDX 6 1 7 2 8 3 5 4 1 5 2 6 3 7 11 8 4 9 10 10 9 11
REMARK H PARENT 9 12
REMARK Flexibility Score: inf
ROOT
ATOM      1  C   UNL     1     112.670 117.366 128.365  1.00  0.00     0.062 C 
ATOM      2  C   UNL     1     111.597 116.401 128.907  1.00  0.00     0.042 C 
ATOM      3  C   UNL     1     114.036 116.955 128.974  1.00  0.00     0.042 C 
ENDROOT
BRANCH   1   4
ATOM      4  C   UNL     1     112.670 117.347 126.791  1.00  0.00     0.024 C 
ATOM      5  C   UNL     1     111.848 116.909 122.497  1.00  0.00     0.039 C 
ATOM      6  C   UNL     1     111.988 117.020 123.989  1.00  0.00    -0.077 C 
ATOM      7  C   UNL     1     112.355 115.932 124.698  1.00  0.00    -0.028 C 
ATOM      8  C   UNL     1     111.838 118.378 124.640  1.00  0.00     0.031 C 
ATOM      9  C   UNL     1     112.478 115.930 126.202  1.00  0.00     0.034 C 
ATOM     10  C   UNL     1     111.628 118.292 126.156  1.00  0.00     0.011 C 
ENDBRANCH   1   4
BRANCH   1  11
ATOM     11  O   UNL     1     112.312 118.651 128.820  1.00  0.00    -0.390 OA
ATOM     12  H   UNL     1     111.471 118.583 129.344  1.00  0.00     0.211 HD
ENDBRANCH   1  11
TORSDOF 2
ENDMDL
MODEL 6
REMARK VINA RESULT:    -4.594     14.916     16.297
REMARK INTER + INTRA:          -5.166
REMARK INTER:                  -5.020
REMARK INTRA:                  -0.147
REMARK UNBOUND:                -0.170
REMARK SMILES CC1=CC[C@H](C(C)(C)O)CC1
REMARK SMILES IDX 6 1 7 2 8 3 5 4 1 5 2 6 3 7 11 8 4 9 10 10 9 11
REMARK H PARENT 9 12
REMARK Flexibility Score: inf
ROOT
ATOM      1  C   UNL     1     112.563 117.566 128.367  1.00  0.00     0.062 C 
ATOM      2  C   UNL     1     112.000 116.475 129.301  1.00  0.00     0.042 C 
ATOM      3  C   UNL     1     114.103 117.601 128.545  1.00  0.00     0.042 C 
ENDROOT
BRANCH   1   4
ATOM      4  C   UNL     1     112.123 117.288 126.882  1.00  0.00     0.024 C 
ATOM      5  C   UNL     1     111.701 116.878 122.527  1.00  0.00     0.039 C 
ATOM      6  C   UNL     1     111.987 117.055 123.993  1.00  0.00    -0.077 C 
ATOM      7  C   UNL     1     111.810 118.269 124.554  1.00  0.00    -0.028 C 
ATOM      8  C   UNL     1     112.340 115.840 124.823  1.00  0.00     0.031 C 
ATOM      9  C   UNL     1     112.113 118.560 126.004  1.00  0.00     0.034 C 
ATOM     10  C   UNL     1     112.965 116.204 126.174  1.00  0.00     0.011 C 
ENDBRANCH   1   4
BRANCH   1  11
ATOM     11  O   UNL     1     112.005 118.786 128.803  1.00  0.00    -0.390 OA
ATOM     12  H   UNL     1     112.597 119.529 128.518  1.00  0.00     0.211 HD
ENDBRANCH   1  11
TORSDOF 2
ENDMDL
MODEL 7
REMARK VINA RESULT:    -4.508      2.124      4.736
REMARK INTER + INTRA:          -5.073
REMARK INTER:                  -4.902
REMARK INTRA:                  -0.171
REMARK UNBOUND:                -0.170
REMARK SMILES CC1=CC[C@H](C(C)(C)O)CC1
REMARK SMILES IDX 6 1 7 2 8 3 5 4 1 5 2 6 3 7 11 8 4 9 10 10 9 11
REMARK H PARENT 9 12
REMARK Flexibility Score: inf
ROOT
ATOM      1  C   UNL     1     122.493 115.684 116.310  1.00  0.00     0.062 C 
ATOM      2  C   UNL     1     122.779 115.148 117.727  1.00  0.00     0.042 C 
ATOM      3  C   UNL     1     121.032 116.204 116.280  1.00  0.00     0.042 C 
ENDROOT
BRANCH   1   4
ATOM      4  C   UNL     1     123.545 116.789 115.926  1.00  0.00     0.024 C 
ATOM      5  C   UNL     1     125.890 120.443 115.250  1.00  0.00     0.039 C 
ATOM      6  C   UNL     1     124.999 119.275 115.568  1.00  0.00    -0.077 C 
ATOM      7  C   UNL     1     123.931 119.030 114.782  1.00  0.00    -0.028 C 
ATOM      8  C   UNL     1     125.398 118.331 116.682  1.00  0.00     0.031 C 
ATOM      9  C   UNL     1     122.952 117.912 115.044  1.00  0.00     0.034 C 
ATOM     10  C   UNL     1     124.245 117.433 117.143  1.00  0.00     0.011 C 
ENDBRANCH   1   4
BRANCH   1  11
ATOM     11  O   UNL     1     122.625 114.584 115.437  1.00  0.00    -0.390 OA
ATOM     12  H   UNL     1     122.581 114.911 114.500  1.00  0.00     0.211 HD
ENDBRANCH   1  11
TORSDOF 2
ENDMDL
MODEL 8
REMARK VINA RESULT:    -4.479     15.547     17.154
REMARK INTER + INTRA:          -5.041
REMARK INTER:                  -4.878
REMARK INTRA:                  -0.163
REMARK UNBOUND:                -0.170
REMARK SMILES CC1=CC[C@H](C(C)(C)O)CC1
REMARK SMILES IDX 6 1 7 2 8 3 5 4 1 5 2 6 3 7 11 8 4 9 10 10 9 11
REMARK H PARENT 9 12
REMARK Flexibility Score: inf
ROOT
ATOM      1  C   UNL     1     113.304 116.511 130.178  1.00  0.00     0.062 C 
ATOM      2  C   UNL     1     114.613 117.314 130.326  1.00  0.00     0.042 C 
ATOM      3  C   UNL     1     112.248 117.138 131.125  1.00  0.00     0.042 C 
ENDROOT
BRANCH   1   4
ATOM      4  C   UNL     1     112.846 116.496 128.673  1.00  0.00     0.024 C 
ATOM      5  C   UNL     1     112.004 117.251 124.427  1.00  0.00     0.039 C 
ATOM      6  C   UNL     1     112.385 117.108 125.874  1.00  0.00    -0.077 C 
ATOM      7  C   UNL     1     111.679 117.778 126.808  1.00  0.00    -0.028 C 
ATOM      8  C   UNL     1     113.466 116.118 126.253  1.00  0.00     0.031 C 
ATOM      9  C   UNL     1     112.011 117.736 128.280  1.00  0.00     0.034 C 
ATOM     10  C   UNL     1     114.008 116.343 127.668  1.00  0.00     0.011 C 
ENDBRANCH   1   4
BRANCH   1  11
ATOM     11  O   UNL     1     113.598 115.197 130.595  1.00  0.00    -0.390 OA
ATOM     12  H   UNL     1     114.067 115.234 131.469  1.00  0.00     0.211 HD
ENDBRANCH   1  11
TORSDOF 2
ENDMDL
MODEL 9
REMARK VINA RESULT:    -4.466     14.264     16.112
REMARK INTER + INTRA:          -5.027
REMARK INTER:                  -4.872
REMARK INTRA:                  -0.155
REMARK UNBOUND:                -0.170
REMARK SMILES CC1=CC[C@H](C(C)(C)O)CC1
REMARK SMILES IDX 6 1 7 2 8 3 5 4 1 5 2 6 3 7 11 8 4 9 10 10 9 11
REMARK H PARENT 9 12
REMARK Flexibility Score: inf
ROOT
ATOM      1  C   UNL     1     111.782 119.799 124.157  1.00  0.00     0.062 C 
ATOM      2  C   UNL     1     113.271 120.172 124.014  1.00  0.00     0.042 C 
ATOM      3  C   UNL     1     111.280 119.295 122.779  1.00  0.00     0.042 C 
ENDROOT
BRANCH   1   4
ATOM      4  C   UNL     1     111.599 118.736 125.303  1.00  0.00     0.024 C 
ATOM      5  C   UNL     1     111.941 115.995 128.721  1.00  0.00     0.039 C 
ATOM      6  C   UNL     1     111.953 116.992 127.596  1.00  0.00    -0.077 C 
ATOM      7  C   UNL     1     112.553 116.664 126.433  1.00  0.00    -0.028 C 
ATOM      8  C   UNL     1     111.180 118.284 127.754  1.00  0.00     0.031 C 
ATOM      9  C   UNL     1     112.658 117.610 125.262  1.00  0.00     0.034 C 
ATOM     10  C   UNL     1     111.578 119.345 126.722  1.00  0.00     0.011 C 
ENDBRANCH   1   4
BRANCH   1  11
ATOM     11  O   UNL     1     111.109 120.988 124.505  1.00  0.00    -0.390 OA
ATOM     12  H   UNL     1     111.768 121.729 124.548  1.00  0.00     0.211 HD
ENDBRANCH   1  11
TORSDOF 2
ENDMDL
