MODEL 1
REMARK VINA RESULT:    13.255      0.000      0.000
REMARK INTER + INTRA:          22.195
REMARK INTER:                  18.680
REMARK INTRA:                   3.515
REMARK UNBOUND:                 3.515
REMARK SMILES CC1=CCCC(C)=CCC(C)(C)C=CC1
REMARK SMILES IDX 2 1 3 2 1 3 4 4 5 5 6 6 7 7 8 8 15 10 14 11 13 12 10 13
REMARK SMILES IDX 11 14 12 15 9 16
REMARK H PARENT
REMARK Flexibility Score: 60.00
ROOT
ATOM      1  C   UNL     1      -0.444   7.658   8.838  1.00  0.00    -0.074 C 
ATOM      2  C   UNL     1      -1.339   8.099   7.919  1.00  0.00    -0.027 C 
ATOM      3  C   UNL     1       0.742   6.877   8.326  1.00  0.00     0.039 C 
ENDROOT
BRANCH   2   4
ATOM      4  C   UNL     1      -2.574   8.925   8.192  1.00  0.00     0.032 C 
BRANCH   4   5
ATOM      5  C   UNL     1      -2.598  10.264   7.423  1.00  0.00     0.034 C 
BRANCH   5   6
ATOM      6  C   UNL     1      -3.144  11.442   8.216  1.00  0.00    -0.077 C 
ATOM      7  C   UNL     1      -2.934  12.836   7.682  1.00  0.00     0.039 C 
ATOM      8  C   UNL     1      -3.797  11.307   9.391  1.00  0.00    -0.027 CG0
ATOM      9  G   UNL     1      -4.104   9.988  10.066  1.00  0.00     0.000 G0
ENDBRANCH   5   6
ENDBRANCH   4   5
ENDBRANCH   2   4
BRANCH   1  10
ATOM     10  C   UNL     1      -0.529   7.940  10.332  1.00  0.00     0.057 C 
BRANCH  10  11
ATOM     11  C   UNL     1      -0.610   9.424  10.601  1.00  0.00    -0.026 C 
ATOM     12  C   UNL     1      -1.694  10.146  10.964  1.00  0.00    -0.024 C 
BRANCH  12  13
ATOM     13  C   UNL     1      -3.130   9.667  11.229  1.00  0.00    -0.014 C 
ATOM     14  C   UNL     1      -3.638  10.250  12.566  1.00  0.00     0.016 C 
ATOM     15  C   UNL     1      -3.090   8.127  11.391  1.00  0.00     0.016 C 
BRANCH  13  16
ATOM     16  C   UNL     1      -4.125  10.008  10.074  1.00  0.00     0.038 CG0
ATOM     17  G   UNL     1      -3.816  11.329   9.403  1.00  0.00     0.000 G0
ENDBRANCH  13  16
ENDBRANCH  12  13
ENDBRANCH  10  11
ENDBRANCH   1  10
TORSDOF 0
ENDMDL
