MODEL 1
REMARK VINA RESULT:    -4.229      0.000      0.000
REMARK INTER + INTRA:          -7.319
REMARK INTER:                  -6.207
REMARK INTRA:                  -1.111
REMARK UNBOUND:                -1.111
REMARK SMILES CCCOC(=O)c1ccccc1C(=O)OCCC
REMARK SMILES IDX 7 1 8 2 9 3 10 4 11 5 12 6 5 7 6 8 4 9 3 10 2 11 1 12 13 13
REMARK SMILES IDX 14 14 15 15 16 16 17 17 18 18
REMARK H PARENT
REMARK Flexibility Score: inf
ROOT
ATOM      1  C   UNL     1      87.079 115.938 119.002  1.00  0.00     0.074 A 
ATOM      2  C   UNL     1      88.376 115.874 119.544  1.00  0.00     0.016 A 
ATOM      3  C   UNL     1      89.498 115.969 118.720  1.00  0.00     0.001 A 
ATOM      4  C   UNL     1      89.343 116.128 117.344  1.00  0.00     0.001 A 
ATOM      5  C   UNL     1      88.066 116.215 116.790  1.00  0.00     0.016 A 
ATOM      6  C   UNL     1      86.921 116.142 117.605  1.00  0.00     0.074 A 
ENDROOT
BRANCH   1   7
ATOM      7  C   UNL     1      85.930 115.715 119.909  1.00  0.00     0.339 C 
ATOM      8  O   UNL     1      85.279 116.702 120.351  1.00  0.00    -0.246 OA
BRANCH   7   9
ATOM      9  O   UNL     1      85.595 114.414 120.307  1.00  0.00    -0.462 OA
BRANCH   9  10
ATOM     10  C   UNL     1      85.045 113.436 119.426  1.00  0.00     0.233 C 
BRANCH  10  11
ATOM     11  C   UNL     1      85.935 112.191 119.356  1.00  0.00     0.038 C 
ATOM     12  C   UNL     1      85.169 110.925 119.732  1.00  0.00     0.007 C 
ENDBRANCH  10  11
ENDBRANCH   9  10
ENDBRANCH   7   9
ENDBRANCH   1   7
BRANCH   6  13
ATOM     13  C   UNL     1      85.598 116.358 116.976  1.00  0.00     0.339 C 
ATOM     14  O   UNL     1      85.110 117.520 116.926  1.00  0.00    -0.246 OA
BRANCH  13  15
ATOM     15  O   UNL     1      84.875 115.267 116.478  1.00  0.00    -0.462 OA
BRANCH  15  16
ATOM     16  C   UNL     1      85.206 114.586 115.269  1.00  0.00     0.233 C 
BRANCH  16  17
ATOM     17  C   UNL     1      85.102 113.067 115.443  1.00  0.00     0.038 C 
ATOM     18  C   UNL     1      86.438 112.451 115.854  1.00  0.00     0.007 C 
ENDBRANCH  16  17
ENDBRANCH  15  16
ENDBRANCH  13  15
ENDBRANCH   6  13
TORSDOF 8
ENDMDL
MODEL 2
REMARK VINA RESULT:    -4.210      0.932      3.520
REMARK INTER + INTRA:          -7.291
REMARK INTER:                  -5.929
REMARK INTRA:                  -1.362
REMARK UNBOUND:                -1.111
REMARK SMILES CCCOC(=O)c1ccccc1C(=O)OCCC
REMARK SMILES IDX 7 1 8 2 9 3 10 4 11 5 12 6 5 7 6 8 4 9 3 10 2 11 1 12 13 13
REMARK SMILES IDX 14 14 15 15 16 16 17 17 18 18
REMARK H PARENT
REMARK Flexibility Score: inf
ROOT
ATOM      1  C   UNL     1      86.965 116.707 117.173  1.00  0.00     0.074 A 
ATOM      2  C   UNL     1      88.205 116.707 116.508  1.00  0.00     0.016 A 
ATOM      3  C   UNL     1      89.353 116.224 117.140  1.00  0.00     0.001 A 
ATOM      4  C   UNL     1      89.279 115.737 118.443  1.00  0.00     0.001 A 
ATOM      5  C   UNL     1      88.056 115.709 119.112  1.00  0.00     0.016 A 
ATOM      6  C   UNL     1      86.883 116.171 118.487  1.00  0.00     0.074 A 
ENDROOT
BRANCH   1   7
ATOM      7  C   UNL     1      85.809 117.338 116.497  1.00  0.00     0.339 C 
ATOM      8  O   UNL     1      85.530 118.547 116.730  1.00  0.00    -0.246 OA
BRANCH   7   9
ATOM      9  O   UNL     1      85.004 116.582 115.635  1.00  0.00    -0.462 OA
BRANCH   9  10
ATOM     10  C   UNL     1      85.505 115.551 114.786  1.00  0.00     0.233 C 
BRANCH  10  11
ATOM     11  C   UNL     1      85.092 114.166 115.293  1.00  0.00     0.038 C 
ATOM     12  C   UNL     1      86.253 113.440 115.970  1.00  0.00     0.007 C 
ENDBRANCH  10  11
ENDBRANCH   9  10
ENDBRANCH   7   9
ENDBRANCH   1   7
BRANCH   6  13
ATOM     13  C   UNL     1      85.597 116.009 119.202  1.00  0.00     0.339 C 
ATOM     14  O   UNL     1      85.174 116.935 119.948  1.00  0.00    -0.246 OA
BRANCH  13  15
ATOM     15  O   UNL     1      84.876 114.815 119.082  1.00  0.00    -0.462 OA
BRANCH  15  16
ATOM     16  C   UNL     1      84.964 113.742 120.019  1.00  0.00     0.233 C 
BRANCH  16  17
ATOM     17  C   UNL     1      85.238 112.411 119.312  1.00  0.00     0.038 C 
ATOM     18  C   UNL     1      86.732 112.103 119.243  1.00  0.00     0.007 C 
ENDBRANCH  16  17
ENDBRANCH  15  16
ENDBRANCH  13  15
ENDBRANCH   6  13
TORSDOF 8
ENDMDL
MODEL 3
REMARK VINA RESULT:    -4.029      2.463      4.679
REMARK INTER + INTRA:          -7.025
REMARK INTER:                  -5.836
REMARK INTRA:                  -1.189
REMARK UNBOUND:                -1.111
REMARK SMILES CCCOC(=O)c1ccccc1C(=O)OCCC
REMARK SMILES IDX 7 1 8 2 9 3 10 4 11 5 12 6 5 7 6 8 4 9 3 10 2 11 1 12 13 13
REMARK SMILES IDX 14 14 15 15 16 16 17 17 18 18
REMARK H PARENT
REMARK Flexibility Score: inf
ROOT
ATOM      1  C   UNL     1      88.053 116.442 117.246  1.00  0.00     0.074 A 
ATOM      2  C   UNL     1      88.866 115.799 118.197  1.00  0.00     0.016 A 
ATOM      3  C   UNL     1      88.345 115.399 119.428  1.00  0.00     0.001 A 
ATOM      4  C   UNL     1      87.005 115.635 119.728  1.00  0.00     0.001 A 
ATOM      5  C   UNL     1      86.175 116.252 118.791  1.00  0.00     0.016 A 
ATOM      6  C   UNL     1      86.676 116.645 117.536  1.00  0.00     0.074 A 
ENDROOT
BRANCH   1   7
ATOM      7  C   UNL     1      88.688 116.947 116.008  1.00  0.00     0.339 C 
ATOM      8  O   UNL     1      89.132 118.129 115.969  1.00  0.00    -0.246 OA
BRANCH   7   9
ATOM      9  O   UNL     1      88.757 116.131 114.872  1.00  0.00    -0.462 OA
BRANCH   9  10
ATOM     10  C   UNL     1      88.364 116.556 113.569  1.00  0.00     0.233 C 
BRANCH  10  11
ATOM     11  C   UNL     1      89.583 116.848 112.690  1.00  0.00     0.038 C 
ATOM     12  C   UNL     1      89.254 116.727 111.204  1.00  0.00     0.007 C 
ENDBRANCH  10  11
ENDBRANCH   9  10
ENDBRANCH   7   9
ENDBRANCH   1   7
BRANCH   6  13
ATOM     13  C   UNL     1      85.724 117.187 116.541  1.00  0.00     0.339 C 
ATOM     14  O   UNL     1      85.636 118.435 116.373  1.00  0.00    -0.246 OA
BRANCH  13  15
ATOM     15  O   UNL     1      84.894 116.319 115.821  1.00  0.00    -0.462 OA
BRANCH  15  16
ATOM     16  C   UNL     1      85.378 115.217 115.055  1.00  0.00     0.233 C 
BRANCH  16  17
ATOM     17  C   UNL     1      85.172 113.893 115.797  1.00  0.00     0.038 C 
ATOM     18  C   UNL     1      86.501 113.222 116.140  1.00  0.00     0.007 C 
ENDBRANCH  16  17
ENDBRANCH  15  16
ENDBRANCH  13  15
ENDBRANCH   6  13
TORSDOF 8
ENDMDL
MODEL 4
REMARK VINA RESULT:    -4.020      2.488      4.059
REMARK INTER + INTRA:          -7.012
REMARK INTER:                  -5.808
REMARK INTRA:                  -1.203
REMARK UNBOUND:                -1.111
REMARK SMILES CCCOC(=O)c1ccccc1C(=O)OCCC
REMARK SMILES IDX 7 1 8 2 9 3 10 4 11 5 12 6 5 7 6 8 4 9 3 10 2 11 1 12 13 13
REMARK SMILES IDX 14 14 15 15 16 16 17 17 18 18
REMARK H PARENT
REMARK Flexibility Score: inf
ROOT
ATOM      1  C   UNL     1      86.694 116.584 117.448  1.00  0.00     0.074 A 
ATOM      2  C   UNL     1      86.208 116.190 118.709  1.00  0.00     0.016 A 
ATOM      3  C   UNL     1      87.059 115.613 119.652  1.00  0.00     0.001 A 
ATOM      4  C   UNL     1      88.406 115.419 119.352  1.00  0.00     0.001 A 
ATOM      5  C   UNL     1      88.912 115.821 118.115  1.00  0.00     0.016 A 
ATOM      6  C   UNL     1      88.076 116.424 117.157  1.00  0.00     0.074 A 
ENDROOT
BRANCH   1   7
ATOM      7  C   UNL     1      85.722 117.081 116.448  1.00  0.00     0.339 C 
ATOM      8  O   UNL     1      85.604 118.323 116.252  1.00  0.00    -0.246 OA
BRANCH   7   9
ATOM      9  O   UNL     1      84.908 116.177 115.753  1.00  0.00    -0.462 OA
BRANCH   9  10
ATOM     10  C   UNL     1      85.414 115.075 115.002  1.00  0.00     0.233 C 
BRANCH  10  11
ATOM     11  C   UNL     1      85.205 113.753 115.746  1.00  0.00     0.038 C 
ATOM     12  C   UNL     1      86.529 113.139 116.195  1.00  0.00     0.007 C 
ENDBRANCH  10  11
ENDBRANCH   9  10
ENDBRANCH   7   9
ENDBRANCH   1   7
BRANCH   6  13
ATOM     13  C   UNL     1      88.692 116.934 115.912  1.00  0.00     0.339 C 
ATOM     14  O   UNL     1      89.152 118.109 115.877  1.00  0.00    -0.246 OA
BRANCH  13  15
ATOM     15  O   UNL     1      88.723 116.130 114.767  1.00  0.00    -0.462 OA
BRANCH  15  16
ATOM     16  C   UNL     1      88.371 116.595 113.465  1.00  0.00     0.233 C 
BRANCH  16  17
ATOM     17  C   UNL     1      89.617 116.844 112.609  1.00  0.00     0.038 C 
ATOM     18  C   UNL     1      89.318 116.707 111.118  1.00  0.00     0.007 C 
ENDBRANCH  16  17
ENDBRANCH  15  16
ENDBRANCH  13  15
ENDBRANCH   6  13
TORSDOF 8
ENDMDL
MODEL 5
REMARK VINA RESULT:    -3.929      1.721      3.729
REMARK INTER + INTRA:          -6.877
REMARK INTER:                  -5.816
REMARK INTRA:                  -1.062
REMARK UNBOUND:                -1.111
REMARK SMILES CCCOC(=O)c1ccccc1C(=O)OCCC
REMARK SMILES IDX 7 1 8 2 9 3 10 4 11 5 12 6 5 7 6 8 4 9 3 10 2 11 1 12 13 13
REMARK SMILES IDX 14 14 15 15 16 16 17 17 18 18
REMARK H PARENT
REMARK Flexibility Score: inf
ROOT
ATOM      1  C   UNL     1      85.726 115.185 119.260  1.00  0.00     0.074 A 
ATOM      2  C   UNL     1      85.364 115.403 120.602  1.00  0.00     0.016 A 
ATOM      3  C   UNL     1      84.944 116.662 121.032  1.00  0.00     0.001 A 
ATOM      4  C   UNL     1      84.879 117.722 120.130  1.00  0.00     0.001 A 
ATOM      5  C   UNL     1      85.214 117.523 118.791  1.00  0.00     0.016 A 
ATOM      6  C   UNL     1      85.620 116.257 118.331  1.00  0.00     0.074 A 
ENDROOT
BRANCH   1   7
ATOM      7  C   UNL     1      86.275 113.862 118.888  1.00  0.00     0.339 C 
ATOM      8  O   UNL     1      87.375 113.479 119.378  1.00  0.00    -0.246 OA
BRANCH   7   9
ATOM      9  O   UNL     1      85.597 113.057 117.964  1.00  0.00    -0.462 OA
BRANCH   9  10
ATOM     10  C   UNL     1      86.255 112.247 116.991  1.00  0.00     0.233 C 
BRANCH  10  11
ATOM     11  C   UNL     1      85.729 112.538 115.582  1.00  0.00     0.038 C 
ATOM     12  C   UNL     1      85.103 111.300 114.943  1.00  0.00     0.007 C 
ENDBRANCH  10  11
ENDBRANCH   9  10
ENDBRANCH   7   9
ENDBRANCH   1   7
BRANCH   6  13
ATOM     13  C   UNL     1      85.849 116.078 116.880  1.00  0.00     0.339 C 
ATOM     14  O   UNL     1      84.875 115.826 116.118  1.00  0.00    -0.246 OA
BRANCH  13  15
ATOM     15  O   UNL     1      87.149 116.147 116.364  1.00  0.00    -0.462 OA
BRANCH  15  16
ATOM     16  C   UNL     1      88.212 116.863 116.991  1.00  0.00     0.233 C 
BRANCH  16  17
ATOM     17  C   UNL     1      89.192 115.908 117.680  1.00  0.00     0.038 C 
ATOM     18  C   UNL     1      89.369 116.247 119.159  1.00  0.00     0.007 C 
ENDBRANCH  16  17
ENDBRANCH  15  16
ENDBRANCH  13  15
ENDBRANCH   6  13
TORSDOF 8
ENDMDL
MODEL 6
REMARK VINA RESULT:    -3.861      1.805      3.283
REMARK INTER + INTRA:          -6.778
REMARK INTER:                  -6.031
REMARK INTRA:                  -0.747
REMARK UNBOUND:                -1.111
REMARK SMILES CCCOC(=O)c1ccccc1C(=O)OCCC
REMARK SMILES IDX 7 1 8 2 9 3 10 4 11 5 12 6 5 7 6 8 4 9 3 10 2 11 1 12 13 13
REMARK SMILES IDX 14 14 15 15 16 16 17 17 18 18
REMARK H PARENT
REMARK Flexibility Score: inf
ROOT
ATOM      1  C   UNL     1      87.299 114.563 118.122  1.00  0.00     0.074 A 
ATOM      2  C   UNL     1      88.238 115.463 118.658  1.00  0.00     0.016 A 
ATOM      3  C   UNL     1      89.105 116.171 117.824  1.00  0.00     0.001 A 
ATOM      4  C   UNL     1      89.048 115.990 116.444  1.00  0.00     0.001 A 
ATOM      5  C   UNL     1      88.111 115.118 115.890  1.00  0.00     0.016 A 
ATOM      6  C   UNL     1      87.214 114.410 116.711  1.00  0.00     0.074 A 
ENDROOT
BRANCH   1   7
ATOM      7  C   UNL     1      86.489 113.755 119.060  1.00  0.00     0.339 C 
ATOM      8  O   UNL     1      86.893 112.612 119.414  1.00  0.00    -0.246 OA
BRANCH   7   9
ATOM      9  O   UNL     1      85.258 114.240 119.519  1.00  0.00    -0.462 OA
BRANCH   9  10
ATOM     10  C   UNL     1      85.117 115.081 120.663  1.00  0.00     0.233 C 
BRANCH  10  11
ATOM     11  C   UNL     1      85.155 116.561 120.271  1.00  0.00     0.038 C 
ATOM     12  C   UNL     1      84.876 117.471 121.465  1.00  0.00     0.007 C 
ENDBRANCH  10  11
ENDBRANCH   9  10
ENDBRANCH   7   9
ENDBRANCH   1   7
BRANCH   6  13
ATOM     13  C   UNL     1      86.167 113.590 116.061  1.00  0.00     0.339 C 
ATOM     14  O   UNL     1      86.373 112.363 115.849  1.00  0.00    -0.246 OA
BRANCH  13  15
ATOM     15  O   UNL     1      84.970 114.185 115.644  1.00  0.00    -0.462 OA
BRANCH  15  16
ATOM     16  C   UNL     1      84.894 115.167 114.612  1.00  0.00     0.233 C 
BRANCH  16  17
ATOM     17  C   UNL     1      84.957 116.585 115.190  1.00  0.00     0.038 C 
ATOM     18  C   UNL     1      84.875 117.647 114.096  1.00  0.00     0.007 C 
ENDBRANCH  16  17
ENDBRANCH  15  16
ENDBRANCH  13  15
ENDBRANCH   6  13
TORSDOF 8
ENDMDL
MODEL 7
REMARK VINA RESULT:    -3.839      1.585      3.663
REMARK INTER + INTRA:          -6.747
REMARK INTER:                  -5.478
REMARK INTRA:                  -1.269
REMARK UNBOUND:                -1.111
REMARK SMILES CCCOC(=O)c1ccccc1C(=O)OCCC
REMARK SMILES IDX 7 1 8 2 9 3 10 4 11 5 12 6 5 7 6 8 4 9 3 10 2 11 1 12 13 13
REMARK SMILES IDX 14 14 15 15 16 16 17 17 18 18
REMARK H PARENT
REMARK Flexibility Score: inf
ROOT
ATOM      1  C   UNL     1      87.012 115.576 115.995  1.00  0.00     0.074 A 
ATOM      2  C   UNL     1      88.215 114.949 115.622  1.00  0.00     0.016 A 
ATOM      3  C   UNL     1      89.384 115.157 116.355  1.00  0.00     0.001 A 
ATOM      4  C   UNL     1      89.370 115.995 117.469  1.00  0.00     0.001 A 
ATOM      5  C   UNL     1      88.183 116.610 117.867  1.00  0.00     0.016 A 
ATOM      6  C   UNL     1      86.988 116.397 117.155  1.00  0.00     0.074 A 
ENDROOT
BRANCH   1   7
ATOM      7  C   UNL     1      85.834 115.411 115.113  1.00  0.00     0.339 C 
ATOM      8  O   UNL     1      85.550 116.309 114.272  1.00  0.00    -0.246 OA
BRANCH   7   9
ATOM      9  O   UNL     1      85.015 114.283 115.243  1.00  0.00    -0.462 OA
BRANCH   9  10
ATOM     10  C   UNL     1      84.875 113.543 116.455  1.00  0.00     0.233 C 
BRANCH  10  11
ATOM     11  C   UNL     1      85.283 112.080 116.262  1.00  0.00     0.038 C 
ATOM     12  C   UNL     1      85.315 111.690 114.786  1.00  0.00     0.007 C 
ENDBRANCH  10  11
ENDBRANCH   9  10
ENDBRANCH   7   9
ENDBRANCH   1   7
BRANCH   6  13
ATOM     13  C   UNL     1      85.739 116.982 117.692  1.00  0.00     0.339 C 
ATOM     14  O   UNL     1      85.386 118.140 117.336  1.00  0.00    -0.246 OA
BRANCH  13  15
ATOM     15  O   UNL     1      84.977 116.268 118.625  1.00  0.00    -0.462 OA
BRANCH  15  16
ATOM     16  C   UNL     1      85.297 116.189 120.013  1.00  0.00     0.233 C 
BRANCH  16  17
ATOM     17  C   UNL     1      85.384 114.733 120.480  1.00  0.00     0.038 C 
ATOM     18  C   UNL     1      86.478 113.964 119.743  1.00  0.00     0.007 C 
ENDBRANCH  16  17
ENDBRANCH  15  16
ENDBRANCH  13  15
ENDBRANCH   6  13
TORSDOF 8
ENDMDL
MODEL 8
REMARK VINA RESULT:    -3.818      1.598      2.548
REMARK INTER + INTRA:          -6.715
REMARK INTER:                  -5.376
REMARK INTRA:                  -1.339
REMARK UNBOUND:                -1.111
REMARK SMILES CCCOC(=O)c1ccccc1C(=O)OCCC
REMARK SMILES IDX 7 1 8 2 9 3 10 4 11 5 12 6 5 7 6 8 4 9 3 10 2 11 1 12 13 13
REMARK SMILES IDX 14 14 15 15 16 16 17 17 18 18
REMARK H PARENT
REMARK Flexibility Score: inf
ROOT
ATOM      1  C   UNL     1      86.947 116.552 117.094  1.00  0.00     0.074 A 
ATOM      2  C   UNL     1      88.036 116.597 117.984  1.00  0.00     0.016 A 
ATOM      3  C   UNL     1      89.217 115.908 117.703  1.00  0.00     0.001 A 
ATOM      4  C   UNL     1      89.327 115.162 116.531  1.00  0.00     0.001 A 
ATOM      5  C   UNL     1      88.267 115.120 115.625  1.00  0.00     0.016 A 
ATOM      6  C   UNL     1      87.075 115.825 115.879  1.00  0.00     0.074 A 
ENDROOT
BRANCH   1   7
ATOM      7  C   UNL     1      85.683 117.205 117.501  1.00  0.00     0.339 C 
ATOM      8  O   UNL     1      85.331 118.287 116.952  1.00  0.00    -0.246 OA
BRANCH   7   9
ATOM      9  O   UNL     1      84.903 116.647 118.521  1.00  0.00    -0.462 OA
BRANCH   9  10
ATOM     10  C   UNL     1      84.875 117.145 119.857  1.00  0.00     0.233 C 
BRANCH  10  11
ATOM     11  C   UNL     1      85.123 116.025 120.872  1.00  0.00     0.038 C 
ATOM     12  C   UNL     1      85.637 114.754 120.200  1.00  0.00     0.007 C 
ENDBRANCH  10  11
ENDBRANCH   9  10
ENDBRANCH   7   9
ENDBRANCH   1   7
BRANCH   6  13
ATOM     13  C   UNL     1      86.032 115.838 114.830  1.00  0.00     0.339 C 
ATOM     14  O   UNL     1      86.144 116.618 113.844  1.00  0.00    -0.246 OA
BRANCH  13  15
ATOM     15  O   UNL     1      84.904 115.017 114.955  1.00  0.00    -0.462 OA
BRANCH  15  16
ATOM     16  C   UNL     1      84.970 113.623 115.249  1.00  0.00     0.233 C 
BRANCH  16  17
ATOM     17  C   UNL     1      84.881 113.370 116.758  1.00  0.00     0.038 C 
ATOM     18  C   UNL     1      86.037 112.506 117.257  1.00  0.00     0.007 C 
ENDBRANCH  16  17
ENDBRANCH  15  16
ENDBRANCH  13  15
ENDBRANCH   6  13
TORSDOF 8
ENDMDL
