MODEL 1
REMARK VINA RESULT:    -3.921      0.000      0.000
REMARK INTER + INTRA:          -5.261
REMARK INTER:                  -5.067
REMARK INTRA:                  -0.194
REMARK UNBOUND:                -0.194
REMARK SMILES CCCCCCC(=O)[O-]
REMARK SMILES IDX 5 1 6 2 7 3 8 4 9 5 4 6 3 7 2 8 1 9
REMARK H PARENT
REMARK Flexibility Score: inf
ROOT
ATOM      1  C   UNL     1      12.020   6.698  10.352  1.00  0.00     0.006 C 
ENDROOT
BRANCH   1   2
ATOM      2  C   UNL     1      12.438   5.261  10.677  1.00  0.00     0.053 C 
BRANCH   2   3
ATOM      3  C   UNL     1      11.682   4.291   9.825  1.00  0.00     0.041 C 
ATOM      4  O   UNL     1      12.129   3.128   9.640  1.00  0.00    -0.550 OA
ATOM      5  O   UNL     1      10.508   4.686   9.195  1.00  0.00    -0.550 OA
ENDBRANCH   2   3
ENDBRANCH   1   2
BRANCH   1   6
ATOM      6  C   UNL     1      11.336   7.358  11.555  1.00  0.00     0.000 C 
BRANCH   6   7
ATOM      7  C   UNL     1      11.459   8.884  11.491  1.00  0.00    -0.000 C 
BRANCH   7   8
ATOM      8  C   UNL     1      12.133   9.328  10.189  1.00  0.00    -0.003 C 
ATOM      9  C   UNL     1      12.514  10.806  10.240  1.00  0.00     0.004 C 
ENDBRANCH   7   8
ENDBRANCH   6   7
ENDBRANCH   1   6
TORSDOF 5
ENDMDL
MODEL 2
REMARK VINA RESULT:    -3.859      4.479      5.986
REMARK INTER + INTRA:          -5.180
REMARK INTER:                  -4.975
REMARK INTRA:                  -0.206
REMARK UNBOUND:                -0.194
REMARK SMILES CCCCCCC(=O)[O-]
REMARK SMILES IDX 5 1 6 2 7 3 8 4 9 5 4 6 3 7 2 8 1 9
REMARK H PARENT
REMARK Flexibility Score: inf
ROOT
ATOM      1  C   UNL     1      12.121  10.952  11.136  1.00  0.00     0.006 C 
ENDROOT
BRANCH   1   2
ATOM      2  C   UNL     1      12.736  11.018   9.735  1.00  0.00     0.053 C 
BRANCH   2   3
ATOM      3  C   UNL     1      12.536  12.374   9.137  1.00  0.00     0.041 C 
ATOM      4  O   UNL     1      13.031  12.650   8.014  1.00  0.00    -0.550 OA
ATOM      5  O   UNL     1      11.843  13.349   9.844  1.00  0.00    -0.550 OA
ENDBRANCH   2   3
ENDBRANCH   1   2
BRANCH   1   6
ATOM      6  C   UNL     1      11.626   9.537  11.455  1.00  0.00     0.000 C 
BRANCH   6   7
ATOM      7  C   UNL     1      12.026   8.551  10.350  1.00  0.00    -0.000 C 
BRANCH   7   8
ATOM      8  C   UNL     1      11.657   7.114  10.735  1.00  0.00    -0.003 C 
ATOM      9  C   UNL     1      11.194   7.032  12.187  1.00  0.00     0.004 C 
ENDBRANCH   7   8
ENDBRANCH   6   7
ENDBRANCH   1   6
TORSDOF 5
ENDMDL
MODEL 3
REMARK VINA RESULT:    -3.857      0.767      1.674
REMARK INTER + INTRA:          -5.179
REMARK INTER:                  -5.024
REMARK INTRA:                  -0.155
REMARK UNBOUND:                -0.194
REMARK SMILES CCCCCCC(=O)[O-]
REMARK SMILES IDX 5 1 6 2 7 3 8 4 9 5 4 6 3 7 2 8 1 9
REMARK H PARENT
REMARK Flexibility Score: inf
ROOT
ATOM      1  C   UNL     1      11.328   7.215  11.700  1.00  0.00     0.006 C 
ENDROOT
BRANCH   1   2
ATOM      2  C   UNL     1      11.915   6.710  10.379  1.00  0.00     0.053 C 
BRANCH   2   3
ATOM      3  C   UNL     1      11.530   5.283  10.146  1.00  0.00     0.041 C 
ATOM      4  O   UNL     1      10.349   4.990   9.825  1.00  0.00    -0.550 OA
ATOM      5  O   UNL     1      12.465   4.272  10.334  1.00  0.00    -0.550 OA
ENDBRANCH   2   3
ENDBRANCH   1   2
BRANCH   1   6
ATOM      6  C   UNL     1      11.324   8.747  11.750  1.00  0.00     0.000 C 
BRANCH   6   7
ATOM      7  C   UNL     1      11.883   9.343  10.453  1.00  0.00    -0.000 C 
BRANCH   7   8
ATOM      8  C   UNL     1      12.357  10.784  10.668  1.00  0.00    -0.003 C 
ATOM      9  C   UNL     1      12.653  11.473   9.338  1.00  0.00     0.004 C 
ENDBRANCH   7   8
ENDBRANCH   6   7
ENDBRANCH   1   6
TORSDOF 5
ENDMDL
MODEL 4
REMARK VINA RESULT:    -3.803     15.616     16.864
REMARK INTER + INTRA:          -5.109
REMARK INTER:                  -4.889
REMARK INTRA:                  -0.220
REMARK UNBOUND:                -0.194
REMARK SMILES CCCCCCC(=O)[O-]
REMARK SMILES IDX 5 1 6 2 7 3 8 4 9 5 4 6 3 7 2 8 1 9
REMARK H PARENT
REMARK Flexibility Score: inf
ROOT
ATOM      1  C   UNL     1      21.007  14.732  19.795  1.00  0.00     0.006 C 
ENDROOT
BRANCH   1   2
ATOM      2  C   UNL     1      20.565  16.008  19.073  1.00  0.00     0.053 C 
BRANCH   2   3
ATOM      3  C   UNL     1      19.109  16.263  19.301  1.00  0.00     0.041 C 
ATOM      4  O   UNL     1      18.261  15.896  18.446  1.00  0.00    -0.550 OA
ATOM      5  O   UNL     1      18.693  16.950  20.435  1.00  0.00    -0.550 OA
ENDBRANCH   2   3
ENDBRANCH   1   2
BRANCH   1   6
ATOM      6  C   UNL     1      21.708  15.062  21.118  1.00  0.00     0.000 C 
BRANCH   6   7
ATOM      7  C   UNL     1      22.450  16.401  21.029  1.00  0.00    -0.000 C 
BRANCH   7   8
ATOM      8  C   UNL     1      23.964  16.202  21.154  1.00  0.00    -0.003 C 
ATOM      9  C   UNL     1      24.535  17.023  22.308  1.00  0.00     0.004 C 
ENDBRANCH   7   8
ENDBRANCH   6   7
ENDBRANCH   1   6
TORSDOF 5
ENDMDL
MODEL 5
REMARK VINA RESULT:    -3.786      3.806      5.375
REMARK INTER + INTRA:          -5.086
REMARK INTER:                  -4.922
REMARK INTRA:                  -0.164
REMARK UNBOUND:                -0.194
REMARK SMILES CCCCCCC(=O)[O-]
REMARK SMILES IDX 5 1 6 2 7 3 8 4 9 5 4 6 3 7 2 8 1 9
REMARK H PARENT
REMARK Flexibility Score: inf
ROOT
ATOM      1  C   UNL     1      11.371   9.214  11.594  1.00  0.00     0.006 C 
ENDROOT
BRANCH   1   2
ATOM      2  C   UNL     1      12.046   9.575  10.268  1.00  0.00     0.053 C 
BRANCH   2   3
ATOM      3  C   UNL     1      12.478  11.007  10.271  1.00  0.00     0.041 C 
ATOM      4  O   UNL     1      12.597  11.630  11.359  1.00  0.00    -0.550 OA
ATOM      5  O   UNL     1      12.700  11.669   9.070  1.00  0.00    -0.550 OA
ENDBRANCH   2   3
ENDBRANCH   1   2
BRANCH   1   6
ATOM      6  C   UNL     1      11.307   7.694  11.784  1.00  0.00     0.000 C 
BRANCH   6   7
ATOM      7  C   UNL     1      11.942   6.963  10.596  1.00  0.00    -0.000 C 
BRANCH   7   8
ATOM      8  C   UNL     1      11.779   5.445  10.732  1.00  0.00    -0.003 C 
ATOM      9  C   UNL     1      13.120   4.768  11.005  1.00  0.00     0.004 C 
ENDBRANCH   7   8
ENDBRANCH   6   7
ENDBRANCH   1   6
TORSDOF 5
ENDMDL
MODEL 6
REMARK VINA RESULT:    -3.741      1.868      2.669
REMARK INTER + INTRA:          -5.029
REMARK INTER:                  -4.878
REMARK INTRA:                  -0.151
REMARK UNBOUND:                -0.194
REMARK SMILES CCCCCCC(=O)[O-]
REMARK SMILES IDX 5 1 6 2 7 3 8 4 9 5 4 6 3 7 2 8 1 9
REMARK H PARENT
REMARK Flexibility Score: inf
ROOT
ATOM      1  C   UNL     1      11.690   8.909  11.093  1.00  0.00     0.006 C 
ENDROOT
BRANCH   1   2
ATOM      2  C   UNL     1      11.195   7.769  11.987  1.00  0.00     0.053 C 
BRANCH   2   3
ATOM      3  C   UNL     1      11.579   6.444  11.408  1.00  0.00     0.041 C 
ATOM      4  O   UNL     1      11.310   5.381  12.026  1.00  0.00    -0.550 OA
ATOM      5  O   UNL     1      12.278   6.386  10.209  1.00  0.00    -0.550 OA
ENDBRANCH   2   3
ENDBRANCH   1   2
BRANCH   1   6
ATOM      6  C   UNL     1      11.399  10.273  11.729  1.00  0.00     0.000 C 
BRANCH   6   7
ATOM      7  C   UNL     1      12.309  11.360  11.144  1.00  0.00    -0.000 C 
BRANCH   7   8
ATOM      8  C   UNL     1      12.645  11.067   9.678  1.00  0.00    -0.003 C 
ATOM      9  C   UNL     1      12.688  12.352   8.855  1.00  0.00     0.004 C 
ENDBRANCH   7   8
ENDBRANCH   6   7
ENDBRANCH   1   6
TORSDOF 5
ENDMDL
MODEL 7
REMARK VINA RESULT:    -3.621      3.820      5.459
REMARK INTER + INTRA:          -4.874
REMARK INTER:                  -4.718
REMARK INTRA:                  -0.156
REMARK UNBOUND:                -0.194
REMARK SMILES CCCCCCC(=O)[O-]
REMARK SMILES IDX 5 1 6 2 7 3 8 4 9 5 4 6 3 7 2 8 1 9
REMARK H PARENT
REMARK Flexibility Score: inf
ROOT
ATOM      1  C   UNL     1      12.100   8.693  10.245  1.00  0.00     0.006 C 
ENDROOT
BRANCH   1   2
ATOM      2  C   UNL     1      11.890   9.851  11.225  1.00  0.00     0.053 C 
BRANCH   2   3
ATOM      3  C   UNL     1      12.474  11.114  10.678  1.00  0.00     0.041 C 
ATOM      4  O   UNL     1      12.932  11.144   9.506  1.00  0.00    -0.550 OA
ATOM      5  O   UNL     1      12.559  12.246  11.480  1.00  0.00    -0.550 OA
ENDBRANCH   2   3
ENDBRANCH   1   2
BRANCH   1   6
ATOM      6  C   UNL     1      11.704   7.355  10.880  1.00  0.00     0.000 C 
BRANCH   6   7
ATOM      7  C   UNL     1      11.200   7.553  12.314  1.00  0.00    -0.000 C 
BRANCH   7   8
ATOM      8  C   UNL     1      10.434   6.320  12.804  1.00  0.00    -0.003 C 
ATOM      9  C   UNL     1      10.045   6.459  14.273  1.00  0.00     0.004 C 
ENDBRANCH   7   8
ENDBRANCH   6   7
ENDBRANCH   1   6
TORSDOF 5
ENDMDL
MODEL 8
REMARK VINA RESULT:    -3.460      3.340      5.725
REMARK INTER + INTRA:          -4.666
REMARK INTER:                  -4.486
REMARK INTRA:                  -0.180
REMARK UNBOUND:                -0.194
REMARK SMILES CCCCCCC(=O)[O-]
REMARK SMILES IDX 5 1 6 2 7 3 8 4 9 5 4 6 3 7 2 8 1 9
REMARK H PARENT
REMARK Flexibility Score: inf
ROOT
ATOM      1  C   UNL     1      12.281   3.613  11.742  1.00  0.00     0.006 C 
ENDROOT
BRANCH   1   2
ATOM      2  C   UNL     1      12.943   4.806  11.047  1.00  0.00     0.053 C 
BRANCH   2   3
ATOM      3  C   UNL     1      11.916   5.649  10.361  1.00  0.00     0.041 C 
ATOM      4  O   UNL     1      10.890   5.117   9.861  1.00  0.00    -0.550 OA
ATOM      5  O   UNL     1      12.116   7.018  10.229  1.00  0.00    -0.550 OA
ENDBRANCH   2   3
ENDBRANCH   1   2
BRANCH   1   6
ATOM      6  C   UNL     1      13.112   2.338  11.559  1.00  0.00     0.000 C 
BRANCH   6   7
ATOM      7  C   UNL     1      13.114   1.492  12.837  1.00  0.00    -0.000 C 
BRANCH   7   8
ATOM      8  C   UNL     1      13.360   2.363  14.074  1.00  0.00    -0.003 C 
ATOM      9  C   UNL     1      13.562   1.507  15.321  1.00  0.00     0.004 C 
ENDBRANCH   7   8
ENDBRANCH   6   7
ENDBRANCH   1   6
TORSDOF 5
ENDMDL
