MODEL 1
REMARK VINA RESULT:    -5.925      0.000      0.000
REMARK INTER + INTRA:          -9.818
REMARK INTER:                  -8.695
REMARK INTRA:                  -1.123
REMARK UNBOUND:                -1.123
REMARK SMILES CC(C)(O)CC[C@@H](O)[C@](C)(O)[C@H]1CC[C@]2(O)C3=CC(=O)[C@H]4C[C@@H](O)[C@H](O)C[C@@]4(C)[C@H]3CC[C@]12C
REMARK SMILES IDX 6 1 7 2 9 3 10 4 12 5 34 6 33 7 32 8 15 9 31 10 17 11 14 12
REMARK SMILES IDX 13 13 30 14 18 15 28 16 19 17 21 18 27 19 29 20 20 21 22 22
REMARK SMILES IDX 25 23 23 24 16 25 26 27 24 29 11 31 8 33 5 35 2 36 1 37 3 38
REMARK SMILES IDX 4 39
REMARK H PARENT 16 26 26 28 24 30 11 32 8 34 4 40
REMARK Flexibility Score: inf
ROOT
ATOM      1  C   UNL     1      19.468 -41.016 -18.321  1.00  0.00     0.038 C 
ENDROOT
BRANCH   1   2
ATOM      2  C   UNL     1      18.736 -42.326 -18.711  1.00  0.00     0.146 C 
BRANCH   2   3
ATOM      3  C   UNL     1      19.616 -43.345 -19.528  1.00  0.00     0.091 C 
ATOM      4  C   UNL     1      19.590 -42.984 -21.046  1.00  0.00     0.045 C 
BRANCH   3   5
ATOM      5  C   UNL     1      21.086 -43.426 -18.931  1.00  0.00     0.032 C 
ATOM      6  C   UNL     1      21.996 -45.099 -20.722  1.00  0.00     0.015 C 
ATOM      7  C   UNL     1      22.346 -43.948 -19.736  1.00  0.00     0.006 C 
ATOM      8  C   UNL     1      22.949 -42.772 -20.561  1.00  0.00     0.011 C 
ATOM      9  C   UNL     1      23.348 -44.473 -18.602  1.00  0.00     0.092 C 
ATOM     10  C   UNL     1      24.398 -43.018 -20.946  1.00  0.00     0.009 C 
ATOM     11  C   UNL     1      24.763 -43.867 -18.596  1.00  0.00    -0.031 C 
ATOM     12  C   UNL     1      22.640 -44.142 -17.263  1.00  0.00     0.041 C 
ATOM     13  C   UNL     1      21.161 -44.110 -17.571  1.00  0.00     0.010 C 
ATOM     14  C   UNL     1      25.291 -42.951 -19.695  1.00  0.00     0.025 C 
ATOM     15  C   UNL     1      25.579 -44.165 -17.568  1.00  0.00     0.050 C 
ATOM     16  C   UNL     1      26.824 -43.187 -19.997  1.00  0.00    -0.013 C 
ATOM     17  C   UNL     1      26.958 -43.670 -17.486  1.00  0.00     0.159 C 
ATOM     18  C   UNL     1      27.623 -42.985 -18.660  1.00  0.00     0.070 C 
ATOM     19  C   UNL     1      27.059 -44.627 -20.564  1.00  0.00     0.042 C 
ATOM     20  C   UNL     1      27.293 -42.125 -21.033  1.00  0.00     0.013 C 
ATOM     21  O   UNL     1      27.571 -43.776 -16.390  1.00  0.00    -0.295 OA
ATOM     22  C   UNL     1      29.108 -43.412 -18.778  1.00  0.00     0.047 C 
ATOM     23  C   UNL     1      28.533 -45.070 -20.639  1.00  0.00     0.143 C 
ATOM     24  C   UNL     1      29.285 -44.849 -19.304  1.00  0.00     0.143 C 
BRANCH   9  25
ATOM     25  O   UNL     1      23.538 -45.873 -18.693  1.00  0.00    -0.385 OA
ATOM     26  H   UNL     1      23.175 -46.204 -19.556  1.00  0.00     0.211 HD
ENDBRANCH   9  25
BRANCH  23  27
ATOM     27  O   UNL     1      29.171 -44.493 -21.758  1.00  0.00    -0.390 OA
ATOM     28  H   UNL     1      29.984 -45.011 -21.992  1.00  0.00     0.211 HD
ENDBRANCH  23  27
BRANCH  24  29
ATOM     29  O   UNL     1      28.825 -45.778 -18.355  1.00  0.00    -0.390 OA
ATOM     30  H   UNL     1      29.576 -46.395 -18.166  1.00  0.00     0.211 HD
ENDBRANCH  24  29
ENDBRANCH   3   5
BRANCH   3  31
ATOM     31  O   UNL     1      19.067 -44.638 -19.357  1.00  0.00    -0.387 OA
ATOM     32  H   UNL     1      19.001 -44.856 -18.395  1.00  0.00     0.211 HD
ENDBRANCH   3  31
ENDBRANCH   2   3
BRANCH   2  33
ATOM     33  O   UNL     1      17.553 -42.009 -19.407  1.00  0.00    -0.390 OA
ATOM     34  H   UNL     1      17.815 -41.521 -20.233  1.00  0.00     0.211 HD
ENDBRANCH   2  33
ENDBRANCH   1   2
BRANCH   1  35
ATOM     35  C   UNL     1      19.555 -40.827 -16.782  1.00  0.00     0.037 C 
BRANCH  35  36
ATOM     36  C   UNL     1      20.937 -40.330 -16.282  1.00  0.00     0.059 C 
ATOM     37  C   UNL     1      21.969 -40.343 -17.430  1.00  0.00     0.042 C 
ATOM     38  C   UNL     1      21.425 -41.261 -15.152  1.00  0.00     0.042 C 
BRANCH  36  39
ATOM     39  O   UNL     1      20.793 -39.022 -15.776  1.00  0.00    -0.390 OA
ATOM     40  H   UNL     1      20.722 -39.083 -14.788  1.00  0.00     0.211 HD
ENDBRANCH  36  39
ENDBRANCH  35  36
ENDBRANCH   1  35
TORSDOF 11
ENDMDL
MODEL 2
REMARK VINA RESULT:    -5.889     11.480     15.368
REMARK INTER + INTRA:          -9.766
REMARK INTER:                  -9.589
REMARK INTRA:                  -0.176
REMARK UNBOUND:                -1.123
REMARK SMILES CC(C)(O)CC[C@@H](O)[C@](C)(O)[C@H]1CC[C@]2(O)C3=CC(=O)[C@H]4C[C@@H](O)[C@H](O)C[C@@]4(C)[C@H]3CC[C@]12C
REMARK SMILES IDX 6 1 7 2 9 3 10 4 12 5 34 6 33 7 32 8 15 9 31 10 17 11 14 12
REMARK SMILES IDX 13 13 30 14 18 15 28 16 19 17 21 18 27 19 29 20 20 21 22 22
REMARK SMILES IDX 25 23 23 24 16 25 26 27 24 29 11 31 8 33 5 35 2 36 1 37 3 38
REMARK SMILES IDX 4 39
REMARK H PARENT 16 26 26 28 24 30 11 32 8 34 4 40
REMARK Flexibility Score: inf
ROOT
ATOM      1  C   UNL     1      27.353 -34.771 -16.296  1.00  0.00     0.038 C 
ENDROOT
BRANCH   1   2
ATOM      2  C   UNL     1      28.130 -33.459 -16.013  1.00  0.00     0.146 C 
BRANCH   2   3
ATOM      3  C   UNL     1      27.277 -32.335 -15.316  1.00  0.00     0.091 C 
ATOM      4  C   UNL     1      25.825 -32.327 -15.886  1.00  0.00     0.045 C 
BRANCH   3   5
ATOM      5  C   UNL     1      27.327 -32.488 -13.736  1.00  0.00     0.032 C 
ATOM      6  C   UNL     1      27.143 -29.930 -13.225  1.00  0.00     0.015 C 
ATOM      7  C   UNL     1      26.852 -31.371 -12.718  1.00  0.00     0.006 C 
ATOM      8  C   UNL     1      25.316 -31.503 -12.493  1.00  0.00     0.011 C 
ATOM      9  C   UNL     1      27.690 -31.670 -11.386  1.00  0.00     0.092 C 
ATOM     10  C   UNL     1      24.862 -30.847 -11.200  1.00  0.00     0.009 C 
ATOM     11  C   UNL     1      26.881 -31.884 -10.093  1.00  0.00    -0.031 C 
ATOM     12  C   UNL     1      28.498 -32.955 -11.705  1.00  0.00     0.041 C 
ATOM     13  C   UNL     1      28.671 -32.975 -13.206  1.00  0.00     0.010 C 
ATOM     14  C   UNL     1      25.377 -31.653  -9.995  1.00  0.00     0.025 C 
ATOM     15  C   UNL     1      27.537 -32.291  -8.991  1.00  0.00     0.050 C 
ATOM     16  C   UNL     1      24.945 -31.051  -8.599  1.00  0.00    -0.013 C 
ATOM     17  C   UNL     1      26.866 -32.487  -7.701  1.00  0.00     0.159 C 
ATOM     18  C   UNL     1      25.444 -32.024  -7.472  1.00  0.00     0.070 C 
ATOM     19  C   UNL     1      25.557 -29.624  -8.401  1.00  0.00     0.042 C 
ATOM     20  C   UNL     1      23.392 -30.975  -8.552  1.00  0.00     0.013 C 
ATOM     21  O   UNL     1      27.481 -33.104  -6.790  1.00  0.00    -0.295 OA
ATOM     22  C   UNL     1      25.281 -31.428  -6.050  1.00  0.00     0.047 C 
ATOM     23  C   UNL     1      25.436 -29.049  -6.976  1.00  0.00     0.143 C 
ATOM     24  C   UNL     1      25.932 -30.041  -5.896  1.00  0.00     0.143 C 
BRANCH   9  25
ATOM     25  O   UNL     1      28.591 -30.617 -11.098  1.00  0.00    -0.385 OA
ATOM     26  H   UNL     1      28.658 -30.494 -10.115  1.00  0.00     0.211 HD
ENDBRANCH   9  25
BRANCH  23  27
ATOM     27  O   UNL     1      24.135 -28.556  -6.746  1.00  0.00    -0.390 OA
ATOM     28  H   UNL     1      23.464 -29.153  -7.167  1.00  0.00     0.211 HD
ENDBRANCH  23  27
BRANCH  24  29
ATOM     29  O   UNL     1      27.332 -30.146  -5.972  1.00  0.00    -0.390 OA
ATOM     30  H   UNL     1      27.602 -29.774  -6.850  1.00  0.00     0.211 HD
ENDBRANCH  24  29
ENDBRANCH   3   5
BRANCH   3  31
ATOM     31  O   UNL     1      27.882 -31.086 -15.593  1.00  0.00    -0.387 OA
ATOM     32  H   UNL     1      28.861 -31.145 -15.465  1.00  0.00     0.211 HD
ENDBRANCH   3  31
ENDBRANCH   2   3
BRANCH   2  33
ATOM     33  O   UNL     1      28.700 -32.989 -17.213  1.00  0.00    -0.390 OA
ATOM     34  H   UNL     1      28.986 -32.049 -17.060  1.00  0.00     0.211 HD
ENDBRANCH   2  33
ENDBRANCH   1   2
BRANCH   1  35
ATOM     35  C   UNL     1      27.753 -35.912 -15.322  1.00  0.00     0.037 C 
BRANCH  35  36
ATOM     36  C   UNL     1      29.026 -36.691 -15.746  1.00  0.00     0.059 C 
ATOM     37  C   UNL     1      28.651 -37.935 -16.580  1.00  0.00     0.042 C 
ATOM     38  C   UNL     1      29.783 -37.140 -14.480  1.00  0.00     0.042 C 
BRANCH  36  39
ATOM     39  O   UNL     1      29.851 -35.833 -16.502  1.00  0.00    -0.390 OA
ATOM     40  H   UNL     1      30.034 -36.274 -17.372  1.00  0.00     0.211 HD
ENDBRANCH  36  39
ENDBRANCH  35  36
ENDBRANCH   1  35
TORSDOF 11
ENDMDL
MODEL 3
REMARK VINA RESULT:    -5.809      1.679      2.537
REMARK INTER + INTRA:          -9.649
REMARK INTER:                  -9.396
REMARK INTRA:                  -0.253
REMARK UNBOUND:                -1.123
REMARK SMILES CC(C)(O)CC[C@@H](O)[C@](C)(O)[C@H]1CC[C@]2(O)C3=CC(=O)[C@H]4C[C@@H](O)[C@H](O)C[C@@]4(C)[C@H]3CC[C@]12C
REMARK SMILES IDX 6 1 7 2 9 3 10 4 12 5 34 6 33 7 32 8 15 9 31 10 17 11 14 12
REMARK SMILES IDX 13 13 30 14 18 15 28 16 19 17 21 18 27 19 29 20 20 21 22 22
REMARK SMILES IDX 25 23 23 24 16 25 26 27 24 29 11 31 8 33 5 35 2 36 1 37 3 38
REMARK SMILES IDX 4 39
REMARK H PARENT 16 26 26 28 24 30 11 32 8 34 4 40
REMARK Flexibility Score: inf
ROOT
ATOM      1  C   UNL     1      18.532 -39.796 -19.295  1.00  0.00     0.038 C 
ENDROOT
BRANCH   1   2
ATOM      2  C   UNL     1      19.321 -40.662 -18.279  1.00  0.00     0.146 C 
BRANCH   2   3
ATOM      3  C   UNL     1      19.820 -42.042 -18.848  1.00  0.00     0.091 C 
ATOM      4  C   UNL     1      19.717 -42.053 -20.405  1.00  0.00     0.045 C 
BRANCH   3   5
ATOM      5  C   UNL     1      21.279 -42.376 -18.317  1.00  0.00     0.032 C 
ATOM      6  C   UNL     1      21.868 -44.056 -20.232  1.00  0.00     0.015 C 
ATOM      7  C   UNL     1      22.420 -43.032 -19.201  1.00  0.00     0.006 C 
ATOM      8  C   UNL     1      23.167 -41.911 -19.984  1.00  0.00     0.011 C 
ATOM      9  C   UNL     1      23.367 -43.768 -18.139  1.00  0.00     0.092 C 
ATOM     10  C   UNL     1      24.549 -42.347 -20.441  1.00  0.00     0.009 C 
ATOM     11  C   UNL     1      24.857 -43.380 -18.157  1.00  0.00    -0.031 C 
ATOM     12  C   UNL     1      22.761 -43.416 -16.756  1.00  0.00     0.041 C 
ATOM     13  C   UNL     1      21.295 -43.145 -17.001  1.00  0.00     0.010 C 
ATOM     14  C   UNL     1      25.481 -42.489 -19.225  1.00  0.00     0.025 C 
ATOM     15  C   UNL     1      25.651 -43.857 -17.182  1.00  0.00     0.050 C 
ATOM     16  C   UNL     1      26.951 -42.932 -19.602  1.00  0.00    -0.013 C 
ATOM     17  C   UNL     1      27.091 -43.579 -17.129  1.00  0.00     0.159 C 
ATOM     18  C   UNL     1      27.813 -42.932 -18.290  1.00  0.00     0.070 C 
ATOM     19  C   UNL     1      26.947 -44.354 -20.256  1.00  0.00     0.042 C 
ATOM     20  C   UNL     1      27.541 -41.891 -20.597  1.00  0.00     0.013 C 
ATOM     21  O   UNL     1      27.716 -43.841 -16.066  1.00  0.00    -0.295 OA
ATOM     22  C   UNL     1      29.212 -43.568 -18.492  1.00  0.00     0.047 C 
ATOM     23  C   UNL     1      28.334 -45.007 -20.416  1.00  0.00     0.143 C 
ATOM     24  C   UNL     1      29.153 -44.981 -19.102  1.00  0.00     0.143 C 
BRANCH   9  25
ATOM     25  O   UNL     1      23.340 -45.172 -18.313  1.00  0.00    -0.385 OA
ATOM     26  H   UNL     1      23.864 -45.418 -19.119  1.00  0.00     0.211 HD
ENDBRANCH   9  25
BRANCH  23  27
ATOM     27  O   UNL     1      29.015 -44.465 -21.526  1.00  0.00    -0.390 OA
ATOM     28  H   UNL     1      29.486 -45.184 -22.022  1.00  0.00     0.211 HD
ENDBRANCH  23  27
BRANCH  24  29
ATOM     29  O   UNL     1      28.588 -45.886 -18.187  1.00  0.00    -0.390 OA
ATOM     30  H   UNL     1      27.732 -45.492 -17.882  1.00  0.00     0.211 HD
ENDBRANCH  24  29
ENDBRANCH   3   5
BRANCH   3  31
ATOM     31  O   UNL     1      18.986 -43.061 -18.329  1.00  0.00    -0.387 OA
ATOM     32  H   UNL     1      19.267 -43.297 -17.410  1.00  0.00     0.211 HD
ENDBRANCH   3  31
ENDBRANCH   2   3
BRANCH   2  33
ATOM     33  O   UNL     1      18.541 -40.846 -17.120  1.00  0.00    -0.390 OA
ATOM     34  H   UNL     1      17.587 -40.843 -17.399  1.00  0.00     0.211 HD
ENDBRANCH   2  33
ENDBRANCH   1   2
BRANCH   1  35
ATOM     35  C   UNL     1      17.241 -39.194 -18.677  1.00  0.00     0.037 C 
BRANCH  35  36
ATOM     36  C   UNL     1      15.952 -39.996 -18.997  1.00  0.00     0.059 C 
ATOM     37  C   UNL     1      15.278 -39.456 -20.278  1.00  0.00     0.042 C 
ATOM     38  C   UNL     1      14.971 -39.862 -17.814  1.00  0.00     0.042 C 
BRANCH  36  39
ATOM     39  O   UNL     1      16.293 -41.354 -19.167  1.00  0.00    -0.390 OA
ATOM     40  H   UNL     1      15.459 -41.856 -19.362  1.00  0.00     0.211 HD
ENDBRANCH  36  39
ENDBRANCH  35  36
ENDBRANCH   1  35
TORSDOF 11
ENDMDL
MODEL 4
REMARK VINA RESULT:    -5.778     12.034     15.761
REMARK INTER + INTRA:          -9.603
REMARK INTER:                  -8.627
REMARK INTRA:                  -0.976
REMARK UNBOUND:                -1.123
REMARK SMILES CC(C)(O)CC[C@@H](O)[C@](C)(O)[C@H]1CC[C@]2(O)C3=CC(=O)[C@H]4C[C@@H](O)[C@H](O)C[C@@]4(C)[C@H]3CC[C@]12C
REMARK SMILES IDX 6 1 7 2 9 3 10 4 12 5 34 6 33 7 32 8 15 9 31 10 17 11 14 12
REMARK SMILES IDX 13 13 30 14 18 15 28 16 19 17 21 18 27 19 29 20 20 21 22 22
REMARK SMILES IDX 25 23 23 24 16 25 26 27 24 29 11 31 8 33 5 35 2 36 1 37 3 38
REMARK SMILES IDX 4 39
REMARK H PARENT 16 26 26 28 24 30 11 32 8 34 4 40
REMARK Flexibility Score: inf
ROOT
ATOM      1  C   UNL     1      28.509 -32.185 -15.387  1.00  0.00     0.038 C 
ENDROOT
BRANCH   1   2
ATOM      2  C   UNL     1      28.446 -33.726 -15.224  1.00  0.00     0.146 C 
BRANCH   2   3
ATOM      3  C   UNL     1      28.667 -34.235 -13.751  1.00  0.00     0.091 C 
ATOM      4  C   UNL     1      30.125 -33.931 -13.287  1.00  0.00     0.045 C 
BRANCH   3   5
ATOM      5  C   UNL     1      27.564 -33.636 -12.777  1.00  0.00     0.032 C 
ATOM      6  C   UNL     1      28.910 -34.064 -10.576  1.00  0.00     0.015 C 
ATOM      7  C   UNL     1      27.847 -33.178 -11.287  1.00  0.00     0.006 C 
ATOM      8  C   UNL     1      28.368 -31.710 -11.293  1.00  0.00     0.011 C 
ATOM      9  C   UNL     1      26.429 -33.319 -10.555  1.00  0.00     0.092 C 
ATOM     10  C   UNL     1      28.186 -31.026  -9.949  1.00  0.00     0.009 C 
ATOM     11  C   UNL     1      25.884 -32.059  -9.858  1.00  0.00    -0.031 C 
ATOM     12  C   UNL     1      25.447 -33.753 -11.674  1.00  0.00     0.041 C 
ATOM     13  C   UNL     1      26.286 -34.464 -12.711  1.00  0.00     0.010 C 
ATOM     14  C   UNL     1      26.691 -30.777  -9.686  1.00  0.00     0.025 C 
ATOM     15  C   UNL     1      24.630 -32.093  -9.370  1.00  0.00     0.050 C 
ATOM     16  C   UNL     1      26.401 -30.057  -8.309  1.00  0.00    -0.013 C 
ATOM     17  C   UNL     1      24.030 -30.961  -8.656  1.00  0.00     0.159 C 
ATOM     18  C   UNL     1      24.859 -29.772  -8.222  1.00  0.00     0.070 C 
ATOM     19  C   UNL     1      26.861 -30.953  -7.111  1.00  0.00     0.042 C 
ATOM     20  C   UNL     1      27.169 -28.705  -8.287  1.00  0.00     0.013 C 
ATOM     21  O   UNL     1      22.786 -30.968  -8.454  1.00  0.00    -0.295 OA
ATOM     22  C   UNL     1      24.419 -29.275  -6.821  1.00  0.00     0.047 C 
ATOM     23  C   UNL     1      26.386 -30.486  -5.721  1.00  0.00     0.143 C 
ATOM     24  C   UNL     1      24.863 -30.210  -5.680  1.00  0.00     0.143 C 
BRANCH   9  25
ATOM     25  O   UNL     1      26.464 -34.319  -9.555  1.00  0.00    -0.385 OA
ATOM     26  H   UNL     1      27.212 -34.946  -9.736  1.00  0.00     0.211 HD
ENDBRANCH   9  25
BRANCH  23  27
ATOM     27  O   UNL     1      27.175 -29.412  -5.260  1.00  0.00    -0.390 OA
ATOM     28  H   UNL     1      26.796 -29.046  -4.419  1.00  0.00     0.211 HD
ENDBRANCH  23  27
BRANCH  24  29
ATOM     29  O   UNL     1      24.170 -31.431  -5.750  1.00  0.00    -0.390 OA
ATOM     30  H   UNL     1      23.218 -31.214  -5.920  1.00  0.00     0.211 HD
ENDBRANCH  24  29
ENDBRANCH   3   5
BRANCH   3  31
ATOM     31  O   UNL     1      28.466 -35.636 -13.734  1.00  0.00    -0.387 OA
ATOM     32  H   UNL     1      27.789 -35.892 -14.408  1.00  0.00     0.211 HD
ENDBRANCH   3  31
ENDBRANCH   2   3
BRANCH   2  33
ATOM     33  O   UNL     1      29.366 -34.324 -16.108  1.00  0.00    -0.390 OA
ATOM     34  H   UNL     1      30.210 -34.474 -15.605  1.00  0.00     0.211 HD
ENDBRANCH   2  33
ENDBRANCH   1   2
BRANCH   1  35
ATOM     35  C   UNL     1      27.097 -31.541 -15.440  1.00  0.00     0.037 C 
BRANCH  35  36
ATOM     36  C   UNL     1      27.051 -30.073 -14.940  1.00  0.00     0.059 C 
ATOM     37  C   UNL     1      28.463 -29.584 -14.553  1.00  0.00     0.042 C 
ATOM     38  C   UNL     1      26.131 -29.993 -13.704  1.00  0.00     0.042 C 
BRANCH  36  39
ATOM     39  O   UNL     1      26.523 -29.261 -15.966  1.00  0.00    -0.390 OA
ATOM     40  H   UNL     1      25.549 -29.159 -15.803  1.00  0.00     0.211 HD
ENDBRANCH  36  39
ENDBRANCH  35  36
ENDBRANCH   1  35
TORSDOF 11
ENDMDL
MODEL 5
REMARK VINA RESULT:    -5.754      9.965     15.334
REMARK INTER + INTRA:          -9.568
REMARK INTER:                  -9.017
REMARK INTRA:                  -0.551
REMARK UNBOUND:                -1.123
REMARK SMILES CC(C)(O)CC[C@@H](O)[C@](C)(O)[C@H]1CC[C@]2(O)C3=CC(=O)[C@H]4C[C@@H](O)[C@H](O)C[C@@]4(C)[C@H]3CC[C@]12C
REMARK SMILES IDX 6 1 7 2 9 3 10 4 12 5 34 6 33 7 32 8 15 9 31 10 17 11 14 12
REMARK SMILES IDX 13 13 30 14 18 15 28 16 19 17 21 18 27 19 29 20 20 21 22 22
REMARK SMILES IDX 25 23 23 24 16 25 26 27 24 29 11 31 8 33 5 35 2 36 1 37 3 38
REMARK SMILES IDX 4 39
REMARK H PARENT 16 26 26 28 24 30 11 32 8 34 4 40
REMARK Flexibility Score: inf
ROOT
ATOM      1  C   UNL     1      19.203 -45.377 -10.523  1.00  0.00     0.038 C 
ENDROOT
BRANCH   1   2
ATOM      2  C   UNL     1      19.451 -45.730  -9.033  1.00  0.00     0.146 C 
BRANCH   2   3
ATOM      3  C   UNL     1      19.066 -44.589  -8.020  1.00  0.00     0.091 C 
ATOM      4  C   UNL     1      19.837 -43.277  -8.365  1.00  0.00     0.045 C 
BRANCH   3   5
ATOM      5  C   UNL     1      17.491 -44.391  -7.966  1.00  0.00     0.032 C 
ATOM      6  C   UNL     1      17.561 -42.145  -6.630  1.00  0.00     0.015 C 
ATOM      7  C   UNL     1      16.777 -43.012  -7.656  1.00  0.00     0.006 C 
ATOM      8  C   UNL     1      16.644 -42.196  -8.976  1.00  0.00     0.011 C 
ATOM      9  C   UNL     1      15.353 -43.432  -7.053  1.00  0.00     0.092 C 
ATOM     10  C   UNL     1      15.561 -41.133  -8.894  1.00  0.00     0.009 C 
ATOM     11  C   UNL     1      14.109 -42.858  -7.757  1.00  0.00    -0.031 C 
ATOM     12  C   UNL     1      15.326 -44.979  -7.142  1.00  0.00     0.041 C 
ATOM     13  C   UNL     1      16.769 -45.423  -7.107  1.00  0.00     0.010 C 
ATOM     14  C   UNL     1      14.176 -41.800  -8.853  1.00  0.00     0.025 C 
ATOM     15  C   UNL     1      12.899 -43.310  -7.380  1.00  0.00     0.050 C 
ATOM     16  C   UNL     1      12.979 -40.770  -8.776  1.00  0.00    -0.013 C 
ATOM     17  C   UNL     1      11.651 -42.802  -7.960  1.00  0.00     0.159 C 
ATOM     18  C   UNL     1      11.634 -41.577  -8.849  1.00  0.00     0.070 C 
ATOM     19  C   UNL     1      13.050 -39.941  -7.450  1.00  0.00     0.042 C 
ATOM     20  C   UNL     1      13.066 -39.818 -10.003  1.00  0.00     0.013 C 
ATOM     21  O   UNL     1      10.585 -43.440  -7.749  1.00  0.00    -0.295 OA
ATOM     22  C   UNL     1      10.391 -40.699  -8.553  1.00  0.00     0.047 C 
ATOM     23  C   UNL     1      11.796 -39.103  -7.132  1.00  0.00     0.143 C 
ATOM     24  C   UNL     1      10.493 -39.933  -7.221  1.00  0.00     0.143 C 
BRANCH   9  25
ATOM     25  O   UNL     1      15.233 -43.043  -5.698  1.00  0.00    -0.385 OA
ATOM     26  H   UNL     1      14.280 -42.869  -5.483  1.00  0.00     0.211 HD
ENDBRANCH   9  25
BRANCH  23  27
ATOM     27  O   UNL     1      11.776 -37.923  -7.905  1.00  0.00    -0.390 OA
ATOM     28  H   UNL     1      11.875 -37.129  -7.318  1.00  0.00     0.211 HD
ENDBRANCH  23  27
BRANCH  24  29
ATOM     29  O   UNL     1      10.440 -40.828  -6.138  1.00  0.00    -0.390 OA
ATOM     30  H   UNL     1       9.961 -41.636  -6.453  1.00  0.00     0.211 HD
ENDBRANCH  24  29
ENDBRANCH   3   5
BRANCH   3  31
ATOM     31  O   UNL     1      19.439 -45.008  -6.720  1.00  0.00    -0.387 OA
ATOM     32  H   UNL     1      19.235 -44.299  -6.062  1.00  0.00     0.211 HD
ENDBRANCH   3  31
ENDBRANCH   2   3
BRANCH   2  33
ATOM     33  O   UNL     1      20.795 -46.121  -8.866  1.00  0.00    -0.390 OA
ATOM     34  H   UNL     1      20.874 -46.544  -7.970  1.00  0.00     0.211 HD
ENDBRANCH   2  33
ENDBRANCH   1   2
BRANCH   1  35
ATOM     35  C   UNL     1      20.469 -45.590 -11.396  1.00  0.00     0.037 C 
BRANCH  35  36
ATOM     36  C   UNL     1      20.943 -44.318 -12.147  1.00  0.00     0.059 C 
ATOM     37  C   UNL     1      22.272 -43.800 -11.556  1.00  0.00     0.042 C 
ATOM     38  C   UNL     1      19.865 -43.223 -12.007  1.00  0.00     0.042 C 
BRANCH  36  39
ATOM     39  O   UNL     1      21.111 -44.633 -13.511  1.00  0.00    -0.390 OA
ATOM     40  H   UNL     1      20.621 -43.954 -14.044  1.00  0.00     0.211 HD
ENDBRANCH  36  39
ENDBRANCH  35  36
ENDBRANCH   1  35
TORSDOF 11
ENDMDL
MODEL 6
REMARK VINA RESULT:    -5.645     11.547     15.328
REMARK INTER + INTRA:          -9.407
REMARK INTER:                  -8.896
REMARK INTRA:                  -0.511
REMARK UNBOUND:                -1.123
REMARK SMILES CC(C)(O)CC[C@@H](O)[C@](C)(O)[C@H]1CC[C@]2(O)C3=CC(=O)[C@H]4C[C@@H](O)[C@H](O)C[C@@]4(C)[C@H]3CC[C@]12C
REMARK SMILES IDX 6 1 7 2 9 3 10 4 12 5 34 6 33 7 32 8 15 9 31 10 17 11 14 12
REMARK SMILES IDX 13 13 30 14 18 15 28 16 19 17 21 18 27 19 29 20 20 21 22 22
REMARK SMILES IDX 25 23 23 24 16 25 26 27 24 29 11 31 8 33 5 35 2 36 1 37 3 38
REMARK SMILES IDX 4 39
REMARK H PARENT 16 26 26 28 24 30 11 32 8 34 4 40
REMARK Flexibility Score: inf
ROOT
ATOM      1  C   UNL     1      25.861 -33.723 -17.014  1.00  0.00     0.038 C 
ENDROOT
BRANCH   1   2
ATOM      2  C   UNL     1      27.180 -33.348 -16.290  1.00  0.00     0.146 C 
BRANCH   2   3
ATOM      3  C   UNL     1      27.121 -31.993 -15.491  1.00  0.00     0.091 C 
ATOM      4  C   UNL     1      25.870 -31.166 -15.921  1.00  0.00     0.045 C 
BRANCH   3   5
ATOM      5  C   UNL     1      27.187 -32.258 -13.926  1.00  0.00     0.032 C 
ATOM      6  C   UNL     1      27.174 -29.734 -13.240  1.00  0.00     0.015 C 
ATOM      7  C   UNL     1      26.801 -31.186 -12.825  1.00  0.00     0.006 C 
ATOM      8  C   UNL     1      25.264 -31.238 -12.578  1.00  0.00     0.011 C 
ATOM      9  C   UNL     1      27.641 -31.628 -11.534  1.00  0.00     0.092 C 
ATOM     10  C   UNL     1      24.874 -30.646 -11.234  1.00  0.00     0.009 C 
ATOM     11  C   UNL     1      26.841 -31.879 -10.243  1.00  0.00    -0.031 C 
ATOM     12  C   UNL     1      28.360 -32.935 -11.957  1.00  0.00     0.041 C 
ATOM     13  C   UNL     1      28.506 -32.862 -13.459  1.00  0.00     0.010 C 
ATOM     14  C   UNL     1      25.357 -31.563 -10.098  1.00  0.00     0.025 C 
ATOM     15  C   UNL     1      27.488 -32.401  -9.185  1.00  0.00     0.050 C 
ATOM     16  C   UNL     1      24.987 -31.033  -8.655  1.00  0.00    -0.013 C 
ATOM     17  C   UNL     1      26.828 -32.644  -7.897  1.00  0.00     0.159 C 
ATOM     18  C   UNL     1      25.442 -32.111  -7.607  1.00  0.00     0.070 C 
ATOM     19  C   UNL     1      25.691 -29.664  -8.374  1.00  0.00     0.042 C 
ATOM     20  C   UNL     1      23.443 -30.864  -8.571  1.00  0.00     0.013 C 
ATOM     21  O   UNL     1      27.418 -33.359  -7.044  1.00  0.00    -0.295 OA
ATOM     22  C   UNL     1      25.341 -31.606  -6.145  1.00  0.00     0.047 C 
ATOM     23  C   UNL     1      25.631 -29.183  -6.911  1.00  0.00     0.143 C 
ATOM     24  C   UNL     1      26.081 -30.275  -5.911  1.00  0.00     0.143 C 
BRANCH   9  25
ATOM     25  O   UNL     1      28.611 -30.654 -11.195  1.00  0.00    -0.385 OA
ATOM     26  H   UNL     1      29.298 -30.604 -11.910  1.00  0.00     0.211 HD
ENDBRANCH   9  25
BRANCH  23  27
ATOM     27  O   UNL     1      24.367 -28.627  -6.621  1.00  0.00    -0.390 OA
ATOM     28  H   UNL     1      23.990 -28.195  -7.431  1.00  0.00     0.211 HD
ENDBRANCH  23  27
BRANCH  24  29
ATOM     29  O   UNL     1      27.470 -30.461  -6.024  1.00  0.00    -0.390 OA
ATOM     30  H   UNL     1      27.877 -30.114  -5.190  1.00  0.00     0.211 HD
ENDBRANCH  24  29
ENDBRANCH   3   5
BRANCH   3  31
ATOM     31  O   UNL     1      28.286 -31.249 -15.798  1.00  0.00    -0.387 OA
ATOM     32  H   UNL     1      28.772 -31.018 -14.968  1.00  0.00     0.211 HD
ENDBRANCH   3  31
ENDBRANCH   2   3
BRANCH   2  33
ATOM     33  O   UNL     1      28.235 -33.339 -17.223  1.00  0.00    -0.390 OA
ATOM     34  H   UNL     1      28.864 -32.617 -16.956  1.00  0.00     0.211 HD
ENDBRANCH   2  33
ENDBRANCH   1   2
BRANCH   1  35
ATOM     35  C   UNL     1      26.116 -34.467 -18.353  1.00  0.00     0.037 C 
BRANCH  35  36
ATOM     36  C   UNL     1      25.856 -33.604 -19.616  1.00  0.00     0.059 C 
ATOM     37  C   UNL     1      24.864 -32.463 -19.302  1.00  0.00     0.042 C 
ATOM     38  C   UNL     1      25.262 -34.501 -20.722  1.00  0.00     0.042 C 
BRANCH  36  39
ATOM     39  O   UNL     1      27.083 -33.069 -20.060  1.00  0.00    -0.390 OA
ATOM     40  H   UNL     1      27.315 -32.306 -19.469  1.00  0.00     0.211 HD
ENDBRANCH  36  39
ENDBRANCH  35  36
ENDBRANCH   1  35
TORSDOF 11
ENDMDL
MODEL 7
REMARK VINA RESULT:    -5.641      1.912      7.864
REMARK INTER + INTRA:          -9.403
REMARK INTER:                  -8.603
REMARK INTRA:                  -0.799
REMARK UNBOUND:                -1.123
REMARK SMILES CC(C)(O)CC[C@@H](O)[C@](C)(O)[C@H]1CC[C@]2(O)C3=CC(=O)[C@H]4C[C@@H](O)[C@H](O)C[C@@]4(C)[C@H]3CC[C@]12C
REMARK SMILES IDX 6 1 7 2 9 3 10 4 12 5 34 6 33 7 32 8 15 9 31 10 17 11 14 12
REMARK SMILES IDX 13 13 30 14 18 15 28 16 19 17 21 18 27 19 29 20 20 21 22 22
REMARK SMILES IDX 25 23 23 24 16 25 26 27 24 29 11 31 8 33 5 35 2 36 1 37 3 38
REMARK SMILES IDX 4 39
REMARK H PARENT 16 26 26 28 24 30 11 32 8 34 4 40
REMARK Flexibility Score: inf
ROOT
ATOM      1  C   UNL     1      28.758 -41.702 -19.577  1.00  0.00     0.038 C 
ENDROOT
BRANCH   1   2
ATOM      2  C   UNL     1      29.355 -43.015 -19.008  1.00  0.00     0.146 C 
BRANCH   2   3
ATOM      3  C   UNL     1      28.312 -44.181 -18.829  1.00  0.00     0.091 C 
ATOM      4  C   UNL     1      28.139 -44.523 -17.316  1.00  0.00     0.045 C 
BRANCH   3   5
ATOM      5  C   UNL     1      26.942 -43.827 -19.549  1.00  0.00     0.032 C 
ATOM      6  C   UNL     1      25.407 -44.738 -17.638  1.00  0.00     0.015 C 
ATOM      7  C   UNL     1      25.547 -43.720 -18.806  1.00  0.00     0.006 C 
ATOM      8  C   UNL     1      25.390 -42.286 -18.218  1.00  0.00     0.011 C 
ATOM      9  C   UNL     1      24.467 -44.032 -19.947  1.00  0.00     0.092 C 
ATOM     10  C   UNL     1      23.938 -41.928 -17.946  1.00  0.00     0.009 C 
ATOM     11  C   UNL     1      23.378 -42.968 -20.178  1.00  0.00    -0.031 C 
ATOM     12  C   UNL     1      25.299 -44.206 -21.244  1.00  0.00     0.041 C 
ATOM     13  C   UNL     1      26.672 -44.655 -20.800  1.00  0.00     0.010 C 
ATOM     14  C   UNL     1      23.185 -41.754 -19.275  1.00  0.00     0.025 C 
ATOM     15  C   UNL     1      22.551 -43.120 -21.228  1.00  0.00     0.050 C 
ATOM     16  C   UNL     1      21.662 -41.370 -19.095  1.00  0.00    -0.013 C 
ATOM     17  C   UNL     1      21.458 -42.184 -21.514  1.00  0.00     0.159 C 
ATOM     18  C   UNL     1      21.048 -41.121 -20.518  1.00  0.00     0.070 C 
ATOM     19  C   UNL     1      20.889 -42.513 -18.356  1.00  0.00     0.042 C 
ATOM     20  C   UNL     1      21.579 -40.053 -18.270  1.00  0.00     0.013 C 
ATOM     21  O   UNL     1      20.893 -42.244 -22.639  1.00  0.00    -0.295 OA
ATOM     22  C   UNL     1      19.507 -40.960 -20.487  1.00  0.00     0.047 C 
ATOM     23  C   UNL     1      19.353 -42.378 -18.364  1.00  0.00     0.143 C 
ATOM     24  C   UNL     1      18.790 -42.128 -19.784  1.00  0.00     0.143 C 
BRANCH   9  25
ATOM     25  O   UNL     1      23.770 -45.234 -19.680  1.00  0.00    -0.385 OA
ATOM     26  H   UNL     1      24.132 -45.964 -20.248  1.00  0.00     0.211 HD
ENDBRANCH   9  25
BRANCH  23  27
ATOM     27  O   UNL     1      18.931 -41.433 -17.406  1.00  0.00    -0.390 OA
ATOM     28  H   UNL     1      19.238 -40.525 -17.663  1.00  0.00     0.211 HD
ENDBRANCH  23  27
BRANCH  24  29
ATOM     29  O   UNL     1      18.911 -43.305 -20.544  1.00  0.00    -0.390 OA
ATOM     30  H   UNL     1      19.584 -43.125 -21.249  1.00  0.00     0.211 HD
ENDBRANCH  24  29
ENDBRANCH   3   5
BRANCH   3  31
ATOM     31  O   UNL     1      28.808 -45.324 -19.500  1.00  0.00    -0.387 OA
ATOM     32  H   UNL     1      29.517 -45.755 -18.962  1.00  0.00     0.211 HD
ENDBRANCH   3  31
ENDBRANCH   2   3
BRANCH   2  33
ATOM     33  O   UNL     1      30.016 -42.738 -17.795  1.00  0.00    -0.390 OA
ATOM     34  H   UNL     1      30.686 -42.027 -17.975  1.00  0.00     0.211 HD
ENDBRANCH   2  33
ENDBRANCH   1   2
BRANCH   1  35
ATOM     35  C   UNL     1      29.032 -41.541 -21.096  1.00  0.00     0.037 C 
BRANCH  35  36
ATOM     36  C   UNL     1      27.852 -40.921 -21.891  1.00  0.00     0.059 C 
ATOM     37  C   UNL     1      26.637 -40.686 -20.967  1.00  0.00     0.042 C 
ATOM     38  C   UNL     1      27.448 -41.888 -23.023  1.00  0.00     0.042 C 
BRANCH  36  39
ATOM     39  O   UNL     1      28.277 -39.699 -22.452  1.00  0.00    -0.390 OA
ATOM     40  H   UNL     1      28.888 -39.905 -23.206  1.00  0.00     0.211 HD
ENDBRANCH  36  39
ENDBRANCH  35  36
ENDBRANCH   1  35
TORSDOF 11
ENDMDL
MODEL 8
REMARK VINA RESULT:    -5.559      2.684      7.265
REMARK INTER + INTRA:          -9.282
REMARK INTER:                  -8.420
REMARK INTRA:                  -0.862
REMARK UNBOUND:                -1.123
REMARK SMILES CC(C)(O)CC[C@@H](O)[C@](C)(O)[C@H]1CC[C@]2(O)C3=CC(=O)[C@H]4C[C@@H](O)[C@H](O)C[C@@]4(C)[C@H]3CC[C@]12C
REMARK SMILES IDX 6 1 7 2 9 3 10 4 12 5 34 6 33 7 32 8 15 9 31 10 17 11 14 12
REMARK SMILES IDX 13 13 30 14 18 15 28 16 19 17 21 18 27 19 29 20 20 21 22 22
REMARK SMILES IDX 25 23 23 24 16 25 26 27 24 29 11 31 8 33 5 35 2 36 1 37 3 38
REMARK SMILES IDX 4 39
REMARK H PARENT 16 26 26 28 24 30 11 32 8 34 4 40
REMARK Flexibility Score: inf
ROOT
ATOM      1  C   UNL     1      27.483 -41.605 -23.872  1.00  0.00     0.038 C 
ENDROOT
BRANCH   1   2
ATOM      2  C   UNL     1      27.357 -43.089 -23.439  1.00  0.00     0.146 C 
BRANCH   2   3
ATOM      3  C   UNL     1      27.667 -43.352 -21.919  1.00  0.00     0.091 C 
ATOM      4  C   UNL     1      28.743 -42.346 -21.404  1.00  0.00     0.045 C 
BRANCH   3   5
ATOM      5  C   UNL     1      26.332 -43.331 -21.059  1.00  0.00     0.032 C 
ATOM      6  C   UNL     1      27.402 -44.344 -18.899  1.00  0.00     0.015 C 
ATOM      7  C   UNL     1      26.289 -43.425 -19.478  1.00  0.00     0.006 C 
ATOM      8  C   UNL     1      26.475 -42.001 -18.876  1.00  0.00     0.011 C 
ATOM      9  C   UNL     1      24.843 -44.037 -19.159  1.00  0.00     0.092 C 
ATOM     10  C   UNL     1      25.956 -41.902 -17.451  1.00  0.00     0.009 C 
ATOM     11  C   UNL     1      23.943 -43.224 -18.210  1.00  0.00    -0.031 C 
ATOM     12  C   UNL     1      24.152 -44.164 -20.541  1.00  0.00     0.041 C 
ATOM     13  C   UNL     1      25.266 -44.303 -21.552  1.00  0.00     0.010 C 
ATOM     14  C   UNL     1      24.421 -41.994 -17.446  1.00  0.00     0.025 C 
ATOM     15  C   UNL     1      22.669 -43.623 -18.043  1.00  0.00     0.050 C 
ATOM     16  C   UNL     1      23.784 -41.892 -16.003  1.00  0.00    -0.013 C 
ATOM     17  C   UNL     1      21.741 -42.942 -17.134  1.00  0.00     0.159 C 
ATOM     18  C   UNL     1      22.221 -41.891 -16.157  1.00  0.00     0.070 C 
ATOM     19  C   UNL     1      24.247 -43.091 -15.110  1.00  0.00     0.042 C 
ATOM     20  C   UNL     1      24.230 -40.547 -15.360  1.00  0.00     0.013 C 
ATOM     21  O   UNL     1      20.512 -43.208 -17.218  1.00  0.00    -0.295 OA
ATOM     22  C   UNL     1      21.485 -42.025 -14.799  1.00  0.00     0.047 C 
ATOM     23  C   UNL     1      23.485 -43.252 -13.780  1.00  0.00     0.143 C 
ATOM     24  C   UNL     1      21.949 -43.241 -13.975  1.00  0.00     0.143 C 
BRANCH   9  25
ATOM     25  O   UNL     1      24.946 -45.322 -18.573  1.00  0.00    -0.385 OA
ATOM     26  H   UNL     1      25.539 -45.279 -17.778  1.00  0.00     0.211 HD
ENDBRANCH   9  25
BRANCH  23  27
ATOM     27  O   UNL     1      23.947 -42.323 -12.825  1.00  0.00    -0.390 OA
ATOM     28  H   UNL     1      24.296 -41.512 -13.278  1.00  0.00     0.211 HD
ENDBRANCH  23  27
BRANCH  24  29
ATOM     29  O   UNL     1      21.554 -44.435 -14.601  1.00  0.00    -0.390 OA
ATOM     30  H   UNL     1      20.567 -44.402 -14.691  1.00  0.00     0.211 HD
ENDBRANCH  24  29
ENDBRANCH   3   5
BRANCH   3  31
ATOM     31  O   UNL     1      28.176 -44.667 -21.793  1.00  0.00    -0.387 OA
ATOM     32  H   UNL     1      28.397 -45.034 -22.685  1.00  0.00     0.211 HD
ENDBRANCH   3  31
ENDBRANCH   2   3
BRANCH   2  33
ATOM     33  O   UNL     1      28.174 -43.885 -24.266  1.00  0.00    -0.390 OA
ATOM     34  H   UNL     1      27.577 -44.491 -24.781  1.00  0.00     0.211 HD
ENDBRANCH   2  33
ENDBRANCH   1   2
BRANCH   1  35
ATOM     35  C   UNL     1      26.148 -40.830 -23.712  1.00  0.00     0.037 C 
BRANCH  35  36
ATOM     36  C   UNL     1      26.288 -39.468 -22.983  1.00  0.00     0.059 C 
ATOM     37  C   UNL     1      25.899 -39.605 -21.494  1.00  0.00     0.042 C 
ATOM     38  C   UNL     1      25.357 -38.440 -23.657  1.00  0.00     0.042 C 
BRANCH  36  39
ATOM     39  O   UNL     1      27.624 -39.029 -23.095  1.00  0.00    -0.390 OA
ATOM     40  H   UNL     1      27.783 -38.776 -24.041  1.00  0.00     0.211 HD
ENDBRANCH  36  39
ENDBRANCH  35  36
ENDBRANCH   1  35
TORSDOF 11
ENDMDL
MODEL 9
REMARK VINA RESULT:    -5.525     12.306     15.877
REMARK INTER + INTRA:          -9.232
REMARK INTER:                  -8.403
REMARK INTRA:                  -0.829
REMARK UNBOUND:                -1.123
REMARK SMILES CC(C)(O)CC[C@@H](O)[C@](C)(O)[C@H]1CC[C@]2(O)C3=CC(=O)[C@H]4C[C@@H](O)[C@H](O)C[C@@]4(C)[C@H]3CC[C@]12C
REMARK SMILES IDX 6 1 7 2 9 3 10 4 12 5 34 6 33 7 32 8 15 9 31 10 17 11 14 12
REMARK SMILES IDX 13 13 30 14 18 15 28 16 19 17 21 18 27 19 29 20 20 21 22 22
REMARK SMILES IDX 25 23 23 24 16 25 26 27 24 29 11 31 8 33 5 35 2 36 1 37 3 38
REMARK SMILES IDX 4 39
REMARK H PARENT 16 26 26 28 24 30 11 32 8 34 4 40
REMARK Flexibility Score: inf
ROOT
ATOM      1  C   UNL     1      27.285 -31.896 -15.387  1.00  0.00     0.038 C 
ENDROOT
BRANCH   1   2
ATOM      2  C   UNL     1      26.814 -33.228 -14.747  1.00  0.00     0.146 C 
BRANCH   2   3
ATOM      3  C   UNL     1      27.921 -33.981 -13.919  1.00  0.00     0.091 C 
ATOM      4  C   UNL     1      29.339 -33.473 -14.327  1.00  0.00     0.045 C 
BRANCH   3   5
ATOM      5  C   UNL     1      27.640 -33.859 -12.360  1.00  0.00     0.032 C 
ATOM      6  C   UNL     1      28.637 -31.455 -12.108  1.00  0.00     0.015 C 
ATOM      7  C   UNL     1      27.610 -32.490 -11.565  1.00  0.00     0.006 C 
ATOM      8  C   UNL     1      26.188 -31.864 -11.678  1.00  0.00     0.011 C 
ATOM      9  C   UNL     1      27.977 -32.900 -10.060  1.00  0.00     0.092 C 
ATOM     10  C   UNL     1      25.909 -30.857 -10.575  1.00  0.00     0.009 C 
ATOM     11  C   UNL     1      26.972 -32.489  -8.968  1.00  0.00    -0.031 C 
ATOM     12  C   UNL     1      28.102 -34.445 -10.089  1.00  0.00     0.041 C 
ATOM     13  C   UNL     1      28.478 -34.805 -11.508  1.00  0.00     0.010 C 
ATOM     14  C   UNL     1      25.773 -31.583  -9.226  1.00  0.00     0.025 C 
ATOM     15  C   UNL     1      27.166 -32.950  -7.719  1.00  0.00     0.050 C 
ATOM     16  C   UNL     1      25.472 -30.616  -8.013  1.00  0.00    -0.013 C 
ATOM     17  C   UNL     1      26.290 -32.587  -6.599  1.00  0.00     0.159 C 
ATOM     18  C   UNL     1      25.253 -31.494  -6.730  1.00  0.00     0.070 C 
ATOM     19  C   UNL     1      26.657 -29.616  -7.798  1.00  0.00     0.042 C 
ATOM     20  C   UNL     1      24.164 -29.831  -8.319  1.00  0.00     0.013 C 
ATOM     21  O   UNL     1      26.377 -33.247  -5.529  1.00  0.00    -0.295 OA
ATOM     22  C   UNL     1      25.175 -30.650  -5.431  1.00  0.00     0.047 C 
ATOM     23  C   UNL     1      26.605 -28.809  -6.485  1.00  0.00     0.143 C 
ATOM     24  C   UNL     1      26.382 -29.711  -5.247  1.00  0.00     0.143 C 
BRANCH   9  25
ATOM     25  O   UNL     1      29.216 -32.342  -9.663  1.00  0.00    -0.385 OA
ATOM     26  H   UNL     1      29.797 -33.053  -9.288  1.00  0.00     0.211 HD
ENDBRANCH   9  25
BRANCH  23  27
ATOM     27  O   UNL     1      25.686 -27.744  -6.590  1.00  0.00    -0.390 OA
ATOM     28  H   UNL     1      25.333 -27.688  -7.516  1.00  0.00     0.211 HD
ENDBRANCH  23  27
BRANCH  24  29
ATOM     29  O   UNL     1      27.549 -30.456  -5.001  1.00  0.00    -0.390 OA
ATOM     30  H   UNL     1      27.765 -30.346  -4.040  1.00  0.00     0.211 HD
ENDBRANCH  24  29
ENDBRANCH   3   5
BRANCH   3  31
ATOM     31  O   UNL     1      27.829 -35.362 -14.213  1.00  0.00    -0.387 OA
ATOM     32  H   UNL     1      28.681 -35.815 -13.997  1.00  0.00     0.211 HD
ENDBRANCH   3  31
ENDBRANCH   2   3
BRANCH   2  33
ATOM     33  O   UNL     1      26.278 -34.061 -15.749  1.00  0.00    -0.390 OA
ATOM     34  H   UNL     1      26.667 -33.773 -16.617  1.00  0.00     0.211 HD
ENDBRANCH   2  33
ENDBRANCH   1   2
BRANCH   1  35
ATOM     35  C   UNL     1      26.183 -30.803 -15.350  1.00  0.00     0.037 C 
BRANCH  35  36
ATOM     36  C   UNL     1      26.725 -29.363 -15.150  1.00  0.00     0.059 C 
ATOM     37  C   UNL     1      26.305 -28.455 -16.326  1.00  0.00     0.042 C 
ATOM     38  C   UNL     1      28.265 -29.414 -15.074  1.00  0.00     0.042 C 
BRANCH  36  39
ATOM     39  O   UNL     1      26.217 -28.852 -13.938  1.00  0.00    -0.390 OA
ATOM     40  H   UNL     1      26.784 -29.195 -13.200  1.00  0.00     0.211 HD
ENDBRANCH  36  39
ENDBRANCH  35  36
ENDBRANCH   1  35
TORSDOF 11
ENDMDL
