MODEL 1
REMARK VINA RESULT:    -3.693      0.000      0.000
REMARK INTER + INTRA:          -7.564
REMARK INTER:                  -6.283
REMARK INTRA:                  -1.281
REMARK UNBOUND:                -1.281
REMARK SMILES CCCCCCCCCCCCCC(=O)[O-]
REMARK SMILES IDX 8 1 9 2 10 3 11 4 12 5 13 6 14 7 15 8 16 9 7 10 6 11 5 12
REMARK SMILES IDX 4 13 3 14 2 15 1 16
REMARK H PARENT
REMARK Flexibility Score: inf
ROOT
ATOM      1  C   UNL     1      45.368 -29.575 -28.518  1.00  0.00     0.000 C 
ENDROOT
BRANCH   1   2
ATOM      2  C   UNL     1      45.559 -28.309 -29.368  1.00  0.00     0.000 C 
BRANCH   2   3
ATOM      3  C   UNL     1      45.418 -28.580 -30.874  1.00  0.00     0.000 C 
BRANCH   3   4
ATOM      4  C   UNL     1      46.531 -27.882 -31.664  1.00  0.00     0.000 C 
BRANCH   4   5
ATOM      5  C   UNL     1      47.578 -28.894 -32.151  1.00  0.00     0.006 C 
BRANCH   5   6
ATOM      6  C   UNL     1      48.946 -28.678 -31.492  1.00  0.00     0.053 C 
BRANCH   6   7
ATOM      7  C   UNL     1      49.831 -27.805 -32.328  1.00  0.00     0.041 C 
ATOM      8  O   UNL     1      50.619 -26.989 -31.781  1.00  0.00    -0.550 OA
ATOM      9  O   UNL     1      49.809 -27.916 -33.713  1.00  0.00    -0.550 OA
ENDBRANCH   6   7
ENDBRANCH   5   6
ENDBRANCH   4   5
ENDBRANCH   3   4
ENDBRANCH   2   3
ENDBRANCH   1   2
BRANCH   1  10
ATOM     10  C   UNL     1      46.232 -30.753 -29.002  1.00  0.00     0.000 C 
BRANCH  10  11
ATOM     11  C   UNL     1      47.603 -30.799 -28.293  1.00  0.00    -0.000 C 
BRANCH  11  12
ATOM     12  C   UNL     1      48.631 -31.712 -28.991  1.00  0.00    -0.000 C 
BRANCH  12  13
ATOM     13  C   UNL     1      48.530 -33.200 -28.617  1.00  0.00    -0.000 C 
BRANCH  13  14
ATOM     14  C   UNL     1      47.501 -33.958 -29.469  1.00  0.00    -0.000 C 
BRANCH  14  15
ATOM     15  C   UNL     1      46.523 -34.736 -28.582  1.00  0.00    -0.003 C 
ATOM     16  C   UNL     1      46.669 -34.336 -27.117  1.00  0.00     0.004 C 
ENDBRANCH  14  15
ENDBRANCH  13  14
ENDBRANCH  12  13
ENDBRANCH  11  12
ENDBRANCH  10  11
ENDBRANCH   1  10
TORSDOF 12
ENDMDL
MODEL 2
REMARK VINA RESULT:    -3.658      1.115      2.067
REMARK INTER + INTRA:          -7.506
REMARK INTER:                  -6.141
REMARK INTRA:                  -1.365
REMARK UNBOUND:                -1.281
REMARK SMILES CCCCCCCCCCCCCC(=O)[O-]
REMARK SMILES IDX 8 1 9 2 10 3 11 4 12 5 13 6 14 7 15 8 16 9 7 10 6 11 5 12
REMARK SMILES IDX 4 13 3 14 2 15 1 16
REMARK H PARENT
REMARK Flexibility Score: inf
ROOT
ATOM      1  C   UNL     1      47.723 -30.819 -27.939  1.00  0.00     0.000 C 
ENDROOT
BRANCH   1   2
ATOM      2  C   UNL     1      46.884 -29.702 -28.581  1.00  0.00     0.000 C 
BRANCH   2   3
ATOM      3  C   UNL     1      46.390 -30.068 -29.989  1.00  0.00     0.000 C 
BRANCH   3   4
ATOM      4  C   UNL     1      46.305 -28.823 -30.881  1.00  0.00     0.000 C 
BRANCH   4   5
ATOM      5  C   UNL     1      47.217 -28.962 -32.109  1.00  0.00     0.006 C 
BRANCH   5   6
ATOM      6  C   UNL     1      48.165 -27.766 -32.267  1.00  0.00     0.053 C 
BRANCH   6   7
ATOM      7  C   UNL     1      49.587 -28.148 -31.992  1.00  0.00     0.041 C 
ATOM      8  O   UNL     1      49.861 -28.951 -31.061  1.00  0.00    -0.550 OA
ATOM      9  O   UNL     1      50.608 -27.640 -32.785  1.00  0.00    -0.550 OA
ENDBRANCH   6   7
ENDBRANCH   5   6
ENDBRANCH   4   5
ENDBRANCH   3   4
ENDBRANCH   2   3
ENDBRANCH   1   2
BRANCH   1  10
ATOM     10  C   UNL     1      48.631 -31.538 -28.953  1.00  0.00     0.000 C 
BRANCH  10  11
ATOM     11  C   UNL     1      48.544 -33.074 -28.828  1.00  0.00    -0.000 C 
BRANCH  11  12
ATOM     12  C   UNL     1      47.327 -33.686 -29.548  1.00  0.00    -0.000 C 
BRANCH  12  13
ATOM     13  C   UNL     1      46.528 -34.702 -28.714  1.00  0.00    -0.000 C 
BRANCH  13  14
ATOM     14  C   UNL     1      46.771 -34.552 -27.204  1.00  0.00    -0.000 C 
BRANCH  14  15
ATOM     15  C   UNL     1      45.708 -33.650 -26.566  1.00  0.00    -0.003 C 
ATOM     16  C   UNL     1      46.244 -32.968 -25.311  1.00  0.00     0.004 C 
ENDBRANCH  14  15
ENDBRANCH  13  14
ENDBRANCH  12  13
ENDBRANCH  11  12
ENDBRANCH  10  11
ENDBRANCH   1  10
TORSDOF 12
ENDMDL
MODEL 3
REMARK VINA RESULT:    -3.637      2.744      4.548
REMARK INTER + INTRA:          -7.470
REMARK INTER:                  -6.605
REMARK INTRA:                  -0.865
REMARK UNBOUND:                -1.281
REMARK SMILES CCCCCCCCCCCCCC(=O)[O-]
REMARK SMILES IDX 8 1 9 2 10 3 11 4 12 5 13 6 14 7 15 8 16 9 7 10 6 11 5 12
REMARK SMILES IDX 4 13 3 14 2 15 1 16
REMARK H PARENT
REMARK Flexibility Score: inf
ROOT
ATOM      1  C   UNL     1      46.913 -27.712 -30.150  1.00  0.00     0.000 C 
ENDROOT
BRANCH   1   2
ATOM      2  C   UNL     1      46.487 -28.079 -31.581  1.00  0.00     0.000 C 
BRANCH   2   3
ATOM      3  C   UNL     1      47.622 -28.725 -32.390  1.00  0.00     0.000 C 
BRANCH   3   4
ATOM      4  C   UNL     1      48.980 -28.479 -31.723  1.00  0.00     0.000 C 
BRANCH   4   5
ATOM      5  C   UNL     1      50.005 -27.953 -32.738  1.00  0.00     0.006 C 
BRANCH   5   6
ATOM      6  C   UNL     1      51.223 -27.315 -32.057  1.00  0.00     0.053 C 
BRANCH   6   7
ATOM      7  C   UNL     1      52.390 -28.253 -32.019  1.00  0.00     0.041 C 
ATOM      8  O   UNL     1      52.208 -29.488 -31.845  1.00  0.00    -0.550 OA
ATOM      9  O   UNL     1      53.678 -27.768 -32.205  1.00  0.00    -0.550 OA
ENDBRANCH   6   7
ENDBRANCH   5   6
ENDBRANCH   4   5
ENDBRANCH   3   4
ENDBRANCH   2   3
ENDBRANCH   1   2
BRANCH   1  10
ATOM     10  C   UNL     1      46.011 -28.351 -29.079  1.00  0.00     0.000 C 
BRANCH  10  11
ATOM     11  C   UNL     1      46.021 -29.893 -29.152  1.00  0.00    -0.000 C 
BRANCH  11  12
ATOM     12  C   UNL     1      44.615 -30.519 -29.227  1.00  0.00    -0.000 C 
BRANCH  12  13
ATOM     13  C   UNL     1      43.470 -29.512 -29.424  1.00  0.00    -0.000 C 
BRANCH  13  14
ATOM     14  C   UNL     1      42.368 -30.040 -30.355  1.00  0.00    -0.000 C 
BRANCH  14  15
ATOM     15  C   UNL     1      41.628 -28.885 -31.038  1.00  0.00    -0.003 C 
ATOM     16  C   UNL     1      42.028 -28.764 -32.506  1.00  0.00     0.004 C 
ENDBRANCH  14  15
ENDBRANCH  13  14
ENDBRANCH  12  13
ENDBRANCH  11  12
ENDBRANCH  10  11
ENDBRANCH   1  10
TORSDOF 12
ENDMDL
MODEL 4
REMARK VINA RESULT:    -3.571     11.871     13.400
REMARK INTER + INTRA:          -7.357
REMARK INTER:                  -5.476
REMARK INTRA:                  -1.881
REMARK UNBOUND:                -1.281
REMARK SMILES CCCCCCCCCCCCCC(=O)[O-]
REMARK SMILES IDX 8 1 9 2 10 3 11 4 12 5 13 6 14 7 15 8 16 9 7 10 6 11 5 12
REMARK SMILES IDX 4 13 3 14 2 15 1 16
REMARK H PARENT
REMARK Flexibility Score: inf
ROOT
ATOM      1  C   UNL     1      54.392 -39.092 -27.282  1.00  0.00     0.000 C 
ENDROOT
BRANCH   1   2
ATOM      2  C   UNL     1      53.180 -40.029 -27.399  1.00  0.00     0.000 C 
BRANCH   2   3
ATOM      3  C   UNL     1      52.806 -40.335 -28.858  1.00  0.00     0.000 C 
BRANCH   3   4
ATOM      4  C   UNL     1      52.899 -41.838 -29.144  1.00  0.00     0.000 C 
BRANCH   4   5
ATOM      5  C   UNL     1      53.952 -42.129 -30.224  1.00  0.00     0.006 C 
BRANCH   5   6
ATOM      6  C   UNL     1      53.904 -41.112 -31.372  1.00  0.00     0.053 C 
BRANCH   6   7
ATOM      7  C   UNL     1      55.278 -40.702 -31.805  1.00  0.00     0.041 C 
ATOM      8  O   UNL     1      56.294 -41.181 -31.234  1.00  0.00    -0.550 OA
ATOM      9  O   UNL     1      55.438 -39.813 -32.860  1.00  0.00    -0.550 OA
ENDBRANCH   6   7
ENDBRANCH   5   6
ENDBRANCH   4   5
ENDBRANCH   3   4
ENDBRANCH   2   3
ENDBRANCH   1   2
BRANCH   1  10
ATOM     10  C   UNL     1      55.596 -39.570 -28.114  1.00  0.00     0.000 C 
BRANCH  10  11
ATOM     11  C   UNL     1      56.604 -40.378 -27.268  1.00  0.00    -0.000 C 
BRANCH  11  12
ATOM     12  C   UNL     1      56.299 -41.887 -27.213  1.00  0.00    -0.000 C 
BRANCH  12  13
ATOM     13  C   UNL     1      55.593 -42.354 -25.929  1.00  0.00    -0.000 C 
BRANCH  13  14
ATOM     14  C   UNL     1      56.178 -41.712 -24.662  1.00  0.00    -0.000 C 
BRANCH  14  15
ATOM     15  C   UNL     1      55.158 -40.777 -24.001  1.00  0.00    -0.003 C 
ATOM     16  C   UNL     1      55.802 -39.454 -23.597  1.00  0.00     0.004 C 
ENDBRANCH  14  15
ENDBRANCH  13  14
ENDBRANCH  12  13
ENDBRANCH  11  12
ENDBRANCH  10  11
ENDBRANCH   1  10
TORSDOF 12
ENDMDL
MODEL 5
REMARK VINA RESULT:    -3.559     11.834     13.830
REMARK INTER + INTRA:          -7.337
REMARK INTER:                  -5.217
REMARK INTRA:                  -2.120
REMARK UNBOUND:                -1.281
REMARK SMILES CCCCCCCCCCCCCC(=O)[O-]
REMARK SMILES IDX 8 1 9 2 10 3 11 4 12 5 13 6 14 7 15 8 16 9 7 10 6 11 5 12
REMARK SMILES IDX 4 13 3 14 2 15 1 16
REMARK H PARENT
REMARK Flexibility Score: inf
ROOT
ATOM      1  C   UNL     1      55.876 -42.148 -25.066  1.00  0.00     0.000 C 
ENDROOT
BRANCH   1   2
ATOM      2  C   UNL     1      54.834 -41.107 -24.629  1.00  0.00     0.000 C 
BRANCH   2   3
ATOM      3  C   UNL     1      55.449 -39.959 -23.814  1.00  0.00     0.000 C 
BRANCH   3   4
ATOM      4  C   UNL     1      56.979 -39.974 -23.912  1.00  0.00     0.000 C 
BRANCH   4   5
ATOM      5  C   UNL     1      57.491 -38.776 -24.725  1.00  0.00     0.006 C 
BRANCH   5   6
ATOM      6  C   UNL     1      56.467 -37.635 -24.787  1.00  0.00     0.053 C 
BRANCH   6   7
ATOM      7  C   UNL     1      56.871 -36.481 -23.923  1.00  0.00     0.041 C 
ATOM      8  O   UNL     1      56.199 -36.186 -22.900  1.00  0.00    -0.550 OA
ATOM      9  O   UNL     1      58.011 -35.748 -24.231  1.00  0.00    -0.550 OA
ENDBRANCH   6   7
ENDBRANCH   5   6
ENDBRANCH   4   5
ENDBRANCH   3   4
ENDBRANCH   2   3
ENDBRANCH   1   2
BRANCH   1  10
ATOM     10  C   UNL     1      55.795 -42.476 -26.568  1.00  0.00     0.000 C 
BRANCH  10  11
ATOM     11  C   UNL     1      56.641 -41.508 -27.422  1.00  0.00    -0.000 C 
BRANCH  11  12
ATOM     12  C   UNL     1      55.808 -40.639 -28.384  1.00  0.00    -0.000 C 
BRANCH  12  13
ATOM     13  C   UNL     1      55.404 -39.264 -27.826  1.00  0.00    -0.000 C 
BRANCH  13  14
ATOM     14  C   UNL     1      53.887 -39.126 -27.629  1.00  0.00    -0.000 C 
BRANCH  14  15
ATOM     15  C   UNL     1      53.136 -40.248 -28.355  1.00  0.00    -0.003 C 
ATOM     16  C   UNL     1      52.320 -41.089 -27.378  1.00  0.00     0.004 C 
ENDBRANCH  14  15
ENDBRANCH  13  14
ENDBRANCH  12  13
ENDBRANCH  11  12
ENDBRANCH  10  11
ENDBRANCH   1  10
TORSDOF 12
ENDMDL
MODEL 6
REMARK VINA RESULT:    -3.553     11.602     12.909
REMARK INTER + INTRA:          -7.326
REMARK INTER:                  -5.862
REMARK INTRA:                  -1.463
REMARK UNBOUND:                -1.281
REMARK SMILES CCCCCCCCCCCCCC(=O)[O-]
REMARK SMILES IDX 8 1 9 2 10 3 11 4 12 5 13 6 14 7 15 8 16 9 7 10 6 11 5 12
REMARK SMILES IDX 4 13 3 14 2 15 1 16
REMARK H PARENT
REMARK Flexibility Score: inf
ROOT
ATOM      1  C   UNL     1      49.998 -41.597 -28.752  1.00  0.00     0.000 C 
ENDROOT
BRANCH   1   2
ATOM      2  C   UNL     1      50.728 -40.965 -29.948  1.00  0.00     0.000 C 
BRANCH   2   3
ATOM      3  C   UNL     1      51.644 -41.961 -30.677  1.00  0.00     0.000 C 
BRANCH   3   4
ATOM      4  C   UNL     1      53.038 -41.990 -30.041  1.00  0.00     0.000 C 
BRANCH   4   5
ATOM      5  C   UNL     1      54.053 -41.226 -30.905  1.00  0.00     0.006 C 
BRANCH   5   6
ATOM      6  C   UNL     1      53.441 -40.731 -32.222  1.00  0.00     0.053 C 
BRANCH   6   7
ATOM      7  C   UNL     1      54.495 -40.405 -33.234  1.00  0.00     0.041 C 
ATOM      8  O   UNL     1      55.414 -39.590 -32.956  1.00  0.00    -0.550 OA
ATOM      9  O   UNL     1      54.481 -41.026 -34.477  1.00  0.00    -0.550 OA
ENDBRANCH   6   7
ENDBRANCH   5   6
ENDBRANCH   4   5
ENDBRANCH   3   4
ENDBRANCH   2   3
ENDBRANCH   1   2
BRANCH   1  10
ATOM     10  C   UNL     1      49.136 -42.807 -29.155  1.00  0.00     0.000 C 
BRANCH  10  11
ATOM     11  C   UNL     1      49.444 -44.054 -28.297  1.00  0.00    -0.000 C 
BRANCH  11  12
ATOM     12  C   UNL     1      50.841 -44.030 -27.648  1.00  0.00    -0.000 C 
BRANCH  12  13
ATOM     13  C   UNL     1      50.841 -44.125 -26.113  1.00  0.00    -0.000 C 
BRANCH  13  14
ATOM     14  C   UNL     1      51.668 -43.013 -25.450  1.00  0.00    -0.000 C 
BRANCH  14  15
ATOM     15  C   UNL     1      52.844 -42.599 -26.342  1.00  0.00    -0.003 C 
ATOM     16  C   UNL     1      53.009 -41.082 -26.369  1.00  0.00     0.004 C 
ENDBRANCH  14  15
ENDBRANCH  13  14
ENDBRANCH  12  13
ENDBRANCH  11  12
ENDBRANCH  10  11
ENDBRANCH   1  10
TORSDOF 12
ENDMDL
MODEL 7
REMARK VINA RESULT:    -3.537     12.212     13.880
REMARK INTER + INTRA:          -7.299
REMARK INTER:                  -5.686
REMARK INTRA:                  -1.613
REMARK UNBOUND:                -1.281
REMARK SMILES CCCCCCCCCCCCCC(=O)[O-]
REMARK SMILES IDX 8 1 9 2 10 3 11 4 12 5 13 6 14 7 15 8 16 9 7 10 6 11 5 12
REMARK SMILES IDX 4 13 3 14 2 15 1 16
REMARK H PARENT
REMARK Flexibility Score: inf
ROOT
ATOM      1  C   UNL     1      52.409 -40.933 -27.276  1.00  0.00     0.000 C 
ENDROOT
BRANCH   1   2
ATOM      2  C   UNL     1      52.832 -42.400 -27.092  1.00  0.00     0.000 C 
BRANCH   2   3
ATOM      3  C   UNL     1      53.650 -42.624 -25.811  1.00  0.00     0.000 C 
BRANCH   3   4
ATOM      4  C   UNL     1      55.151 -42.669 -26.120  1.00  0.00     0.000 C 
BRANCH   4   5
ATOM      5  C   UNL     1      55.854 -41.398 -25.620  1.00  0.00     0.006 C 
BRANCH   5   6
ATOM      6  C   UNL     1      55.241 -40.869 -24.317  1.00  0.00     0.053 C 
BRANCH   6   7
ATOM      7  C   UNL     1      56.108 -39.824 -23.683  1.00  0.00     0.041 C 
ATOM      8  O   UNL     1      55.690 -39.169 -22.691  1.00  0.00    -0.550 OA
ATOM      9  O   UNL     1      57.389 -39.596 -24.168  1.00  0.00    -0.550 OA
ENDBRANCH   6   7
ENDBRANCH   5   6
ENDBRANCH   4   5
ENDBRANCH   3   4
ENDBRANCH   2   3
ENDBRANCH   1   2
BRANCH   1  10
ATOM     10  C   UNL     1      53.192 -40.225 -28.396  1.00  0.00     0.000 C 
BRANCH  10  11
ATOM     11  C   UNL     1      53.850 -41.226 -29.370  1.00  0.00    -0.000 C 
BRANCH  11  12
ATOM     12  C   UNL     1      53.351 -41.097 -30.822  1.00  0.00    -0.000 C 
BRANCH  12  13
ATOM     13  C   UNL     1      51.843 -41.337 -31.010  1.00  0.00    -0.000 C 
BRANCH  13  14
ATOM     14  C   UNL     1      51.423 -42.774 -30.664  1.00  0.00    -0.000 C 
BRANCH  14  15
ATOM     15  C   UNL     1      49.967 -42.819 -30.188  1.00  0.00    -0.003 C 
ATOM     16  C   UNL     1      49.575 -41.521 -29.488  1.00  0.00     0.004 C 
ENDBRANCH  14  15
ENDBRANCH  13  14
ENDBRANCH  12  13
ENDBRANCH  11  12
ENDBRANCH  10  11
ENDBRANCH   1  10
TORSDOF 12
ENDMDL
MODEL 8
REMARK VINA RESULT:    -3.523     11.933     14.259
REMARK INTER + INTRA:          -7.275
REMARK INTER:                  -5.258
REMARK INTRA:                  -2.018
REMARK UNBOUND:                -1.281
REMARK SMILES CCCCCCCCCCCCCC(=O)[O-]
REMARK SMILES IDX 8 1 9 2 10 3 11 4 12 5 13 6 14 7 15 8 16 9 7 10 6 11 5 12
REMARK SMILES IDX 4 13 3 14 2 15 1 16
REMARK H PARENT
REMARK Flexibility Score: inf
ROOT
ATOM      1  C   UNL     1      53.259 -39.801 -23.716  1.00  0.00     0.000 C 
ENDROOT
BRANCH   1   2
ATOM      2  C   UNL     1      52.840 -41.071 -24.474  1.00  0.00     0.000 C 
BRANCH   2   3
ATOM      3  C   UNL     1      53.874 -41.503 -25.525  1.00  0.00     0.000 C 
BRANCH   3   4
ATOM      4  C   UNL     1      54.167 -40.362 -26.506  1.00  0.00     0.000 C 
BRANCH   4   5
ATOM      5  C   UNL     1      55.553 -40.528 -27.146  1.00  0.00     0.006 C 
BRANCH   5   6
ATOM      6  C   UNL     1      56.200 -41.873 -26.791  1.00  0.00     0.053 C 
BRANCH   6   7
ATOM      7  C   UNL     1      56.901 -42.477 -27.969  1.00  0.00     0.041 C 
ATOM      8  O   UNL     1      56.571 -43.618 -28.389  1.00  0.00    -0.550 OA
ATOM      9  O   UNL     1      57.900 -41.767 -28.623  1.00  0.00    -0.550 OA
ENDBRANCH   6   7
ENDBRANCH   5   6
ENDBRANCH   4   5
ENDBRANCH   3   4
ENDBRANCH   2   3
ENDBRANCH   1   2
BRANCH   1  10
ATOM     10  C   UNL     1      54.383 -40.060 -22.697  1.00  0.00     0.000 C 
BRANCH  10  11
ATOM     11  C   UNL     1      55.587 -39.116 -22.904  1.00  0.00    -0.000 C 
BRANCH  11  12
ATOM     12  C   UNL     1      56.733 -39.743 -23.721  1.00  0.00    -0.000 C 
BRANCH  12  13
ATOM     13  C   UNL     1      57.594 -38.736 -24.503  1.00  0.00    -0.000 C 
BRANCH  13  14
ATOM     14  C   UNL     1      56.976 -37.330 -24.539  1.00  0.00    -0.000 C 
BRANCH  14  15
ATOM     15  C   UNL     1      56.357 -37.039 -25.910  1.00  0.00    -0.003 C 
ATOM     16  C   UNL     1      54.847 -36.848 -25.806  1.00  0.00     0.004 C 
ENDBRANCH  14  15
ENDBRANCH  13  14
ENDBRANCH  12  13
ENDBRANCH  11  12
ENDBRANCH  10  11
ENDBRANCH   1  10
TORSDOF 12
ENDMDL
MODEL 9
REMARK VINA RESULT:    -3.505     11.613     14.043
REMARK INTER + INTRA:          -7.245
REMARK INTER:                  -5.236
REMARK INTRA:                  -2.010
REMARK UNBOUND:                -1.281
REMARK SMILES CCCCCCCCCCCCCC(=O)[O-]
REMARK SMILES IDX 8 1 9 2 10 3 11 4 12 5 13 6 14 7 15 8 16 9 7 10 6 11 5 12
REMARK SMILES IDX 4 13 3 14 2 15 1 16
REMARK H PARENT
REMARK Flexibility Score: inf
ROOT
ATOM      1  C   UNL     1      57.089 -39.204 -23.948  1.00  0.00     0.000 C 
ENDROOT
BRANCH   1   2
ATOM      2  C   UNL     1      55.820 -38.936 -23.123  1.00  0.00     0.000 C 
BRANCH   2   3
ATOM      3  C   UNL     1      54.755 -40.030 -23.302  1.00  0.00     0.000 C 
BRANCH   3   4
ATOM      4  C   UNL     1      55.247 -41.124 -24.256  1.00  0.00     0.000 C 
BRANCH   4   5
ATOM      5  C   UNL     1      54.196 -41.431 -25.332  1.00  0.00     0.006 C 
BRANCH   5   6
ATOM      6  C   UNL     1      54.536 -42.694 -26.134  1.00  0.00     0.053 C 
BRANCH   6   7
ATOM      7  C   UNL     1      55.207 -42.362 -27.431  1.00  0.00     0.041 C 
ATOM      8  O   UNL     1      56.402 -41.963 -27.444  1.00  0.00    -0.550 OA
ATOM      9  O   UNL     1      54.523 -42.523 -28.629  1.00  0.00    -0.550 OA
ENDBRANCH   6   7
ENDBRANCH   5   6
ENDBRANCH   4   5
ENDBRANCH   3   4
ENDBRANCH   2   3
ENDBRANCH   1   2
BRANCH   1  10
ATOM     10  C   UNL     1      57.838 -37.913 -24.321  1.00  0.00     0.000 C 
BRANCH  10  11
ATOM     11  C   UNL     1      57.008 -36.647 -24.015  1.00  0.00    -0.000 C 
BRANCH  11  12
ATOM     12  C   UNL     1      56.937 -35.653 -25.190  1.00  0.00    -0.000 C 
BRANCH  12  13
ATOM     13  C   UNL     1      55.967 -36.052 -26.315  1.00  0.00    -0.000 C 
BRANCH  13  14
ATOM     14  C   UNL     1      54.641 -36.617 -25.782  1.00  0.00    -0.000 C 
BRANCH  14  15
ATOM     15  C   UNL     1      54.309 -37.956 -26.449  1.00  0.00    -0.003 C 
ATOM     16  C   UNL     1      55.491 -38.475 -27.263  1.00  0.00     0.004 C 
ENDBRANCH  14  15
ENDBRANCH  13  14
ENDBRANCH  12  13
ENDBRANCH  11  12
ENDBRANCH  10  11
ENDBRANCH   1  10
TORSDOF 12
ENDMDL
