MODEL 1
REMARK VINA RESULT:    -4.547      0.000      0.000
REMARK INTER + INTRA:          -7.134
REMARK INTER:                  -6.407
REMARK INTRA:                  -0.727
REMARK UNBOUND:                -0.727
REMARK SMILES C=CCCCCCCC(=O)[O-]
REMARK SMILES IDX 6 1 7 2 8 3 9 4 10 5 11 6 5 7 4 8 3 9 2 10 1 11
REMARK H PARENT
REMARK Flexibility Score: inf
ROOT
ATOM      1  C   UNL     1      21.784  11.965  37.560  1.00  0.00     0.000 C 
ENDROOT
BRANCH   1   2
ATOM      2  C   UNL     1      21.573  13.336  36.895  1.00  0.00     0.006 C 
BRANCH   2   3
ATOM      3  C   UNL     1      20.199  13.449  36.224  1.00  0.00     0.053 C 
BRANCH   3   4
ATOM      4  C   UNL     1      20.310  13.439  34.730  1.00  0.00     0.041 C 
ATOM      5  O   UNL     1      21.391  13.762  34.172  1.00  0.00    -0.550 OA
ATOM      6  O   UNL     1      19.229  13.037  33.955  1.00  0.00    -0.550 OA
ENDBRANCH   3   4
ENDBRANCH   2   3
ENDBRANCH   1   2
BRANCH   1   7
ATOM      7  C   UNL     1      20.575  11.513  38.399  1.00  0.00     0.000 C 
BRANCH   7   8
ATOM      8  C   UNL     1      20.558  12.032  39.850  1.00  0.00     0.004 C 
BRANCH   8   9
ATOM      9  C   UNL     1      19.188  12.540  40.328  1.00  0.00     0.027 C 
BRANCH   9  10
ATOM     10  C   UNL     1      18.794  13.814  39.629  1.00  0.00    -0.035 C 
ATOM     11  C   UNL     1      19.578  14.895  39.636  1.00  0.00     0.004 C 
ENDBRANCH   9  10
ENDBRANCH   8   9
ENDBRANCH   7   8
ENDBRANCH   1   7
TORSDOF 7
ENDMDL
MODEL 2
REMARK VINA RESULT:    -4.542      2.527      4.450
REMARK INTER + INTRA:          -7.127
REMARK INTER:                  -6.516
REMARK INTRA:                  -0.611
REMARK UNBOUND:                -0.727
REMARK SMILES C=CCCCCCCC(=O)[O-]
REMARK SMILES IDX 6 1 7 2 8 3 9 4 10 5 11 6 5 7 4 8 3 9 2 10 1 11
REMARK H PARENT
REMARK Flexibility Score: inf
ROOT
ATOM      1  C   UNL     1      20.162  11.247  38.734  1.00  0.00     0.000 C 
ENDROOT
BRANCH   1   2
ATOM      2  C   UNL     1      20.845  12.096  39.820  1.00  0.00     0.006 C 
BRANCH   2   3
ATOM      3  C   UNL     1      19.832  12.877  40.666  1.00  0.00     0.053 C 
BRANCH   3   4
ATOM      4  C   UNL     1      19.195  13.985  39.883  1.00  0.00     0.041 C 
ATOM      5  O   UNL     1      17.982  13.911  39.552  1.00  0.00    -0.550 OA
ATOM      6  O   UNL     1      19.931  15.115  39.553  1.00  0.00    -0.550 OA
ENDBRANCH   3   4
ENDBRANCH   2   3
ENDBRANCH   1   2
BRANCH   1   7
ATOM      7  C   UNL     1      20.885  11.315  37.377  1.00  0.00     0.000 C 
BRANCH   7   8
ATOM      8  C   UNL     1      21.897  12.469  37.234  1.00  0.00     0.004 C 
BRANCH   8   9
ATOM      9  C   UNL     1      21.318  13.748  36.609  1.00  0.00     0.027 C 
BRANCH   9  10
ATOM     10  C   UNL     1      20.176  13.443  35.676  1.00  0.00    -0.035 C 
ATOM     11  C   UNL     1      20.289  13.583  34.352  1.00  0.00     0.004 C 
ENDBRANCH   9  10
ENDBRANCH   8   9
ENDBRANCH   7   8
ENDBRANCH   1   7
TORSDOF 7
ENDMDL
MODEL 3
REMARK VINA RESULT:    -4.471      1.190      1.931
REMARK INTER + INTRA:          -7.027
REMARK INTER:                  -6.299
REMARK INTRA:                  -0.729
REMARK UNBOUND:                -0.727
REMARK SMILES C=CCCCCCCC(=O)[O-]
REMARK SMILES IDX 6 1 7 2 8 3 9 4 10 5 11 6 5 7 4 8 3 9 2 10 1 11
REMARK H PARENT
REMARK Flexibility Score: inf
ROOT
ATOM      1  C   UNL     1      20.276  11.104  38.673  1.00  0.00     0.000 C 
ENDROOT
BRANCH   1   2
ATOM      2  C   UNL     1      20.838  11.368  37.265  1.00  0.00     0.006 C 
BRANCH   2   3
ATOM      3  C   UNL     1      21.742  12.606  37.226  1.00  0.00     0.053 C 
BRANCH   3   4
ATOM      4  C   UNL     1      21.142  13.704  36.402  1.00  0.00     0.041 C 
ATOM      5  O   UNL     1      20.153  13.471  35.658  1.00  0.00    -0.550 OA
ATOM      6  O   UNL     1      21.654  14.993  36.484  1.00  0.00    -0.550 OA
ENDBRANCH   3   4
ENDBRANCH   2   3
ENDBRANCH   1   2
BRANCH   1   7
ATOM      7  C   UNL     1      20.983  11.927  39.765  1.00  0.00     0.000 C 
BRANCH   7   8
ATOM      8  C   UNL     1      20.043  12.699  40.711  1.00  0.00     0.004 C 
BRANCH   8   9
ATOM      9  C   UNL     1      18.649  12.985  40.129  1.00  0.00     0.027 C 
BRANCH   9  10
ATOM     10  C   UNL     1      18.603  14.314  39.424  1.00  0.00    -0.035 C 
ATOM     11  C   UNL     1      19.627  15.172  39.467  1.00  0.00     0.004 C 
ENDBRANCH   9  10
ENDBRANCH   8   9
ENDBRANCH   7   8
ENDBRANCH   1   7
TORSDOF 7
ENDMDL
MODEL 4
REMARK VINA RESULT:    -3.362      2.642      4.857
REMARK INTER + INTRA:          -5.465
REMARK INTER:                  -5.231
REMARK INTRA:                  -0.234
REMARK UNBOUND:                -0.727
REMARK SMILES C=CCCCCCCC(=O)[O-]
REMARK SMILES IDX 6 1 7 2 8 3 9 4 10 5 11 6 5 7 4 8 3 9 2 10 1 11
REMARK H PARENT
REMARK Flexibility Score: inf
ROOT
ATOM      1  C   UNL     1      19.761  14.834  39.574  1.00  0.00     0.000 C 
ENDROOT
BRANCH   1   2
ATOM      2  C   UNL     1      18.612  13.811  39.531  1.00  0.00     0.006 C 
BRANCH   2   3
ATOM      3  C   UNL     1      18.941  12.538  40.320  1.00  0.00     0.053 C 
BRANCH   3   4
ATOM      4  C   UNL     1      20.174  11.866  39.799  1.00  0.00     0.041 C 
ATOM      5  O   UNL     1      21.259  11.950  40.432  1.00  0.00    -0.550 OA
ATOM      6  O   UNL     1      20.116  11.116  38.631  1.00  0.00    -0.550 OA
ENDBRANCH   3   4
ENDBRANCH   2   3
ENDBRANCH   1   2
BRANCH   1   7
ATOM      7  C   UNL     1      20.225  15.273  38.174  1.00  0.00     0.000 C 
BRANCH   7   8
ATOM      8  C   UNL     1      20.896  14.169  37.332  1.00  0.00     0.004 C 
BRANCH   8   9
ATOM      9  C   UNL     1      21.302  14.607  35.916  1.00  0.00     0.027 C 
BRANCH   9  10
ATOM     10  C   UNL     1      20.980  13.550  34.894  1.00  0.00    -0.035 C 
ATOM     11  C   UNL     1      19.767  13.448  34.342  1.00  0.00     0.004 C 
ENDBRANCH   9  10
ENDBRANCH   8   9
ENDBRANCH   7   8
ENDBRANCH   1   7
TORSDOF 7
ENDMDL
MODEL 5
REMARK VINA RESULT:    -3.216      1.005      2.531
REMARK INTER + INTRA:          -5.258
REMARK INTER:                  -4.939
REMARK INTRA:                  -0.319
REMARK UNBOUND:                -0.727
REMARK SMILES C=CCCCCCCC(=O)[O-]
REMARK SMILES IDX 6 1 7 2 8 3 9 4 10 5 11 6 5 7 4 8 3 9 2 10 1 11
REMARK H PARENT
REMARK Flexibility Score: inf
ROOT
ATOM      1  C   UNL     1      20.491  15.431  38.241  1.00  0.00     0.000 C 
ENDROOT
BRANCH   1   2
ATOM      2  C   UNL     1      20.506  14.186  37.337  1.00  0.00     0.006 C 
BRANCH   2   3
ATOM      3  C   UNL     1      21.402  14.376  36.107  1.00  0.00     0.053 C 
BRANCH   3   4
ATOM      4  C   UNL     1      20.826  13.713  34.894  1.00  0.00     0.041 C 
ATOM      5  O   UNL     1      19.644  13.278  34.910  1.00  0.00    -0.550 OA
ATOM      6  O   UNL     1      21.582  13.609  33.733  1.00  0.00    -0.550 OA
ENDBRANCH   3   4
ENDBRANCH   2   3
ENDBRANCH   1   2
BRANCH   1   7
ATOM      7  C   UNL     1      19.694  15.218  39.541  1.00  0.00     0.000 C 
BRANCH   7   8
ATOM      8  C   UNL     1      18.941  13.875  39.632  1.00  0.00     0.004 C 
BRANCH   8   9
ATOM      9  C   UNL     1      19.412  12.958  40.772  1.00  0.00     0.027 C 
BRANCH   9  10
ATOM     10  C   UNL     1      20.467  11.990  40.307  1.00  0.00    -0.035 C 
ATOM     11  C   UNL     1      20.434  11.441  39.089  1.00  0.00     0.004 C 
ENDBRANCH   9  10
ENDBRANCH   8   9
ENDBRANCH   7   8
ENDBRANCH   1   7
TORSDOF 7
ENDMDL
MODEL 6
REMARK VINA RESULT:    -2.433      2.821      4.961
REMARK INTER + INTRA:          -4.155
REMARK INTER:                  -4.082
REMARK INTRA:                  -0.072
REMARK UNBOUND:                -0.727
REMARK SMILES C=CCCCCCCC(=O)[O-]
REMARK SMILES IDX 6 1 7 2 8 3 9 4 10 5 11 6 5 7 4 8 3 9 2 10 1 11
REMARK H PARENT
REMARK Flexibility Score: inf
ROOT
ATOM      1  C   UNL     1      20.957  13.991  37.982  1.00  0.00     0.000 C 
ENDROOT
BRANCH   1   2
ATOM      2  C   UNL     1      19.732  14.385  38.826  1.00  0.00     0.006 C 
BRANCH   2   3
ATOM      3  C   UNL     1      19.219  13.219  39.681  1.00  0.00     0.053 C 
BRANCH   3   4
ATOM      4  C   UNL     1      20.190  12.078  39.700  1.00  0.00     0.041 C 
ATOM      5  O   UNL     1      21.083  12.020  40.585  1.00  0.00    -0.550 OA
ATOM      6  O   UNL     1      20.084  11.059  38.762  1.00  0.00    -0.550 OA
ENDBRANCH   3   4
ENDBRANCH   2   3
ENDBRANCH   1   2
BRANCH   1   7
ATOM      7  C   UNL     1      21.256  14.995  36.855  1.00  0.00     0.000 C 
BRANCH   7   8
ATOM      8  C   UNL     1      21.249  14.400  35.432  1.00  0.00     0.004 C 
BRANCH   8   9
ATOM      9  C   UNL     1      20.258  13.241  35.233  1.00  0.00     0.027 C 
BRANCH   9  10
ATOM     10  C   UNL     1      19.421  13.432  33.996  1.00  0.00    -0.035 C 
ATOM     11  C   UNL     1      18.785  12.414  33.410  1.00  0.00     0.004 C 
ENDBRANCH   9  10
ENDBRANCH   8   9
ENDBRANCH   7   8
ENDBRANCH   1   7
TORSDOF 7
ENDMDL
MODEL 7
REMARK VINA RESULT:    -2.148      3.496      5.263
REMARK INTER + INTRA:          -3.753
REMARK INTER:                  -4.357
REMARK INTRA:                   0.603
REMARK UNBOUND:                -0.727
REMARK SMILES C=CCCCCCCC(=O)[O-]
REMARK SMILES IDX 6 1 7 2 8 3 9 4 10 5 11 6 5 7 4 8 3 9 2 10 1 11
REMARK H PARENT
REMARK Flexibility Score: inf
ROOT
ATOM      1  C   UNL     1      20.039  14.058  38.287  1.00  0.00     0.000 C 
ENDROOT
BRANCH   1   2
ATOM      2  C   UNL     1      19.182  14.631  39.429  1.00  0.00     0.006 C 
BRANCH   2   3
ATOM      3  C   UNL     1      18.278  13.568  40.064  1.00  0.00     0.053 C 
BRANCH   3   4
ATOM      4  C   UNL     1      18.965  12.856  41.188  1.00  0.00     0.041 C 
ATOM      5  O   UNL     1      20.093  13.246  41.591  1.00  0.00    -0.550 OA
ATOM      6  O   UNL     1      18.344  11.784  41.816  1.00  0.00    -0.550 OA
ENDBRANCH   3   4
ENDBRANCH   2   3
ENDBRANCH   1   2
BRANCH   1   7
ATOM      7  C   UNL     1      20.851  15.136  37.548  1.00  0.00     0.000 C 
BRANCH   7   8
ATOM      8  C   UNL     1      21.499  14.673  36.227  1.00  0.00     0.004 C 
BRANCH   8   9
ATOM      9  C   UNL     1      21.276  13.189  35.895  1.00  0.00     0.027 C 
BRANCH   9  10
ATOM     10  C   UNL     1      21.902  12.289  36.927  1.00  0.00    -0.035 C 
ATOM     11  C   UNL     1      21.246  11.247  37.446  1.00  0.00     0.004 C 
ENDBRANCH   9  10
ENDBRANCH   8   9
ENDBRANCH   7   8
ENDBRANCH   1   7
TORSDOF 7
ENDMDL
MODEL 8
REMARK VINA RESULT:    -1.775     19.853     21.084
REMARK INTER + INTRA:          -3.228
REMARK INTER:                  -3.132
REMARK INTRA:                  -0.095
REMARK UNBOUND:                -0.727
REMARK SMILES C=CCCCCCCC(=O)[O-]
REMARK SMILES IDX 6 1 7 2 8 3 9 4 10 5 11 6 5 7 4 8 3 9 2 10 1 11
REMARK H PARENT
REMARK Flexibility Score: inf
ROOT
ATOM      1  C   UNL     1      38.063  27.240  34.608  1.00  0.00     0.000 C 
ENDROOT
BRANCH   1   2
ATOM      2  C   UNL     1      36.845  26.604  33.916  1.00  0.00     0.006 C 
BRANCH   2   3
ATOM      3  C   UNL     1      35.994  25.778  34.888  1.00  0.00     0.053 C 
BRANCH   3   4
ATOM      4  C   UNL     1      34.766  25.235  34.223  1.00  0.00     0.041 C 
ATOM      5  O   UNL     1      34.652  23.999  34.014  1.00  0.00    -0.550 OA
ATOM      6  O   UNL     1      33.731  26.091  33.869  1.00  0.00    -0.550 OA
ENDBRANCH   3   4
ENDBRANCH   2   3
ENDBRANCH   1   2
BRANCH   1   7
ATOM      7  C   UNL     1      38.125  26.932  36.115  1.00  0.00     0.000 C 
BRANCH   7   8
ATOM      8  C   UNL     1      38.111  28.169  37.034  1.00  0.00     0.004 C 
BRANCH   8   9
ATOM      9  C   UNL     1      36.792  28.383  37.794  1.00  0.00     0.027 C 
BRANCH   9  10
ATOM     10  C   UNL     1      35.778  27.322  37.455  1.00  0.00    -0.035 C 
ATOM     11  C   UNL     1      35.108  26.658  38.401  1.00  0.00     0.004 C 
ENDBRANCH   9  10
ENDBRANCH   8   9
ENDBRANCH   7   8
ENDBRANCH   1   7
TORSDOF 7
ENDMDL
MODEL 9
REMARK VINA RESULT:    -1.667      3.450      4.836
REMARK INTER + INTRA:          -3.076
REMARK INTER:                  -2.885
REMARK INTRA:                  -0.192
REMARK UNBOUND:                -0.727
REMARK SMILES C=CCCCCCCC(=O)[O-]
REMARK SMILES IDX 6 1 7 2 8 3 9 4 10 5 11 6 5 7 4 8 3 9 2 10 1 11
REMARK H PARENT
REMARK Flexibility Score: inf
ROOT
ATOM      1  C   UNL     1      20.395  10.886  38.373  1.00  0.00     0.000 C 
ENDROOT
BRANCH   1   2
ATOM      2  C   UNL     1      19.354  11.558  39.286  1.00  0.00     0.006 C 
BRANCH   2   3
ATOM      3  C   UNL     1      19.743  12.997  39.645  1.00  0.00     0.053 C 
BRANCH   3   4
ATOM      4  C   UNL     1      20.361  13.080  41.008  1.00  0.00     0.041 C 
ATOM      5  O   UNL     1      19.757  13.667  41.943  1.00  0.00    -0.550 OA
ATOM      6  O   UNL     1      21.587  12.475  41.253  1.00  0.00    -0.550 OA
ENDBRANCH   3   4
ENDBRANCH   2   3
ENDBRANCH   1   2
BRANCH   1   7
ATOM      7  C   UNL     1      20.201  11.231  36.886  1.00  0.00     0.000 C 
BRANCH   7   8
ATOM      8  C   UNL     1      20.356  12.725  36.538  1.00  0.00     0.004 C 
BRANCH   8   9
ATOM      9  C   UNL     1      21.812  13.206  36.438  1.00  0.00     0.027 C 
BRANCH   9  10
ATOM     10  C   UNL     1      21.901  14.709  36.433  1.00  0.00    -0.035 C 
ATOM     11  C   UNL     1      21.087  15.467  37.173  1.00  0.00     0.004 C 
ENDBRANCH   9  10
ENDBRANCH   8   9
ENDBRANCH   7   8
ENDBRANCH   1   7
TORSDOF 7
ENDMDL
