MODEL 1
REMARK VINA RESULT:    -4.017      0.000      0.000
REMARK INTER + INTRA:          -6.869
REMARK INTER:                  -6.131
REMARK INTRA:                  -0.738
REMARK UNBOUND:                -0.738
REMARK SMILES O=C([O-])CCCCCCCCC(=O)[O-]
REMARK SMILES IDX 7 1 6 2 5 3 4 4 2 5 1 6 3 7 8 8 9 9 10 10 11 11 12 12 13 13
REMARK SMILES IDX 14 14
REMARK H PARENT
REMARK Flexibility Score: inf
ROOT
ATOM      1  C   UNL     1      74.620  81.355  76.974  1.00  0.00     0.000 C 
ENDROOT
BRANCH   1   2
ATOM      2  C   UNL     1      73.878  82.526  76.301  1.00  0.00     0.000 C 
BRANCH   2   3
ATOM      3  C   UNL     1      74.694  83.289  75.238  1.00  0.00     0.006 C 
BRANCH   3   4
ATOM      4  C   UNL     1      76.184  82.916  75.193  1.00  0.00     0.053 C 
BRANCH   4   5
ATOM      5  C   UNL     1      77.045  84.088  74.834  1.00  0.00     0.041 C 
ATOM      6  O   UNL     1      76.577  85.255  74.880  1.00  0.00    -0.550 OA
ATOM      7  O   UNL     1      78.374  83.892  74.481  1.00  0.00    -0.550 OA
ENDBRANCH   4   5
ENDBRANCH   3   4
ENDBRANCH   2   3
ENDBRANCH   1   2
BRANCH   1   8
ATOM      8  C   UNL     1      75.069  81.612  78.427  1.00  0.00     0.000 C 
BRANCH   8   9
ATOM      9  C   UNL     1      76.425  80.990  78.805  1.00  0.00     0.000 C 
BRANCH   9  10
ATOM     10  C   UNL     1      77.617  81.896  78.451  1.00  0.00     0.006 C 
BRANCH  10  11
ATOM     11  C   UNL     1      78.883  81.089  78.138  1.00  0.00     0.053 C 
BRANCH  11  12
ATOM     12  C   UNL     1      79.466  81.463  76.809  1.00  0.00     0.041 C 
ATOM     13  O   UNL     1      79.173  80.800  75.780  1.00  0.00    -0.550 OA
ATOM     14  O   UNL     1      80.303  82.567  76.704  1.00  0.00    -0.550 OA
ENDBRANCH  11  12
ENDBRANCH  10  11
ENDBRANCH   9  10
ENDBRANCH   8   9
ENDBRANCH   1   8
TORSDOF 9
ENDMDL
MODEL 2
REMARK VINA RESULT:    -4.008      2.228      5.130
REMARK INTER + INTRA:          -6.854
REMARK INTER:                  -5.998
REMARK INTRA:                  -0.856
REMARK UNBOUND:                -0.738
REMARK SMILES O=C([O-])CCCCCCCCC(=O)[O-]
REMARK SMILES IDX 7 1 6 2 5 3 4 4 2 5 1 6 3 7 8 8 9 9 10 10 11 11 12 12 13 13
REMARK SMILES IDX 14 14
REMARK H PARENT
REMARK Flexibility Score: inf
ROOT
ATOM      1  C   UNL     1      80.230  80.909  76.822  1.00  0.00     0.000 C 
ENDROOT
BRANCH   1   2
ATOM      2  C   UNL     1      79.947  81.055  78.330  1.00  0.00     0.000 C 
BRANCH   2   3
ATOM      3  C   UNL     1      78.473  81.326  78.692  1.00  0.00     0.006 C 
BRANCH   3   4
ATOM      4  C   UNL     1      77.456  80.665  77.748  1.00  0.00     0.053 C 
BRANCH   4   5
ATOM      5  C   UNL     1      76.084  81.248  77.904  1.00  0.00     0.041 C 
ATOM      6  O   UNL     1      75.081  80.630  77.461  1.00  0.00    -0.550 OA
ATOM      7  O   UNL     1      75.913  82.455  78.569  1.00  0.00    -0.550 OA
ENDBRANCH   4   5
ENDBRANCH   3   4
ENDBRANCH   2   3
ENDBRANCH   1   2
BRANCH   1   8
ATOM      8  C   UNL     1      80.794  82.170  76.136  1.00  0.00     0.000 C 
BRANCH   8   9
ATOM      9  C   UNL     1      80.104  82.552  74.815  1.00  0.00     0.000 C 
BRANCH   9  10
ATOM     10  C   UNL     1      78.983  83.589  75.004  1.00  0.00     0.006 C 
BRANCH  10  11
ATOM     11  C   UNL     1      77.592  82.982  74.783  1.00  0.00     0.053 C 
BRANCH  11  12
ATOM     12  C   UNL     1      76.506  83.993  74.990  1.00  0.00     0.041 C 
ATOM     13  O   UNL     1      76.742  85.219  74.821  1.00  0.00    -0.550 OA
ATOM     14  O   UNL     1      75.226  83.579  75.334  1.00  0.00    -0.550 OA
ENDBRANCH  11  12
ENDBRANCH  10  11
ENDBRANCH   9  10
ENDBRANCH   8   9
ENDBRANCH   1   8
TORSDOF 9
ENDMDL
MODEL 3
REMARK VINA RESULT:    -3.931      2.801      4.905
REMARK INTER + INTRA:          -6.737
REMARK INTER:                  -6.010
REMARK INTRA:                  -0.727
REMARK UNBOUND:                -0.738
REMARK SMILES O=C([O-])CCCCCCCCC(=O)[O-]
REMARK SMILES IDX 7 1 6 2 5 3 4 4 2 5 1 6 3 7 8 8 9 9 10 10 11 11 12 12 13 13
REMARK SMILES IDX 14 14
REMARK H PARENT
REMARK Flexibility Score: inf
ROOT
ATOM      1  C   UNL     1      76.538  82.019  78.284  1.00  0.00     0.000 C 
ENDROOT
BRANCH   1   2
ATOM      2  C   UNL     1      77.801  81.447  77.610  1.00  0.00     0.000 C 
BRANCH   2   3
ATOM      3  C   UNL     1      77.921  81.736  76.100  1.00  0.00     0.006 C 
BRANCH   3   4
ATOM      4  C   UNL     1      76.853  82.696  75.552  1.00  0.00     0.053 C 
BRANCH   4   5
ATOM      5  C   UNL     1      77.461  83.922  74.941  1.00  0.00     0.041 C 
ATOM      6  O   UNL     1      78.635  83.887  74.487  1.00  0.00    -0.550 OA
ATOM      7  O   UNL     1      76.718  85.091  74.842  1.00  0.00    -0.550 OA
ENDBRANCH   4   5
ENDBRANCH   3   4
ENDBRANCH   2   3
ENDBRANCH   1   2
BRANCH   1   8
ATOM      8  C   UNL     1      75.601  80.970  78.915  1.00  0.00     0.000 C 
BRANCH   8   9
ATOM      9  C   UNL     1      74.386  80.584  78.053  1.00  0.00     0.000 C 
BRANCH   9  10
ATOM     10  C   UNL     1      73.751  81.792  77.341  1.00  0.00     0.006 C 
BRANCH  10  11
ATOM     11  C   UNL     1      72.961  81.377  76.093  1.00  0.00     0.053 C 
BRANCH  11  12
ATOM     12  C   UNL     1      71.521  81.780  76.189  1.00  0.00     0.041 C 
ATOM     13  O   UNL     1      70.895  81.635  77.272  1.00  0.00    -0.550 OA
ATOM     14  O   UNL     1      70.883  82.348  75.094  1.00  0.00    -0.550 OA
ENDBRANCH  11  12
ENDBRANCH  10  11
ENDBRANCH   9  10
ENDBRANCH   8   9
ENDBRANCH   1   8
TORSDOF 9
ENDMDL
MODEL 4
REMARK VINA RESULT:    -3.900      2.202      3.801
REMARK INTER + INTRA:          -6.689
REMARK INTER:                  -5.849
REMARK INTRA:                  -0.841
REMARK UNBOUND:                -0.738
REMARK SMILES O=C([O-])CCCCCCCCC(=O)[O-]
REMARK SMILES IDX 7 1 6 2 5 3 4 4 2 5 1 6 3 7 8 8 9 9 10 10 11 11 12 12 13 13
REMARK SMILES IDX 14 14
REMARK H PARENT
REMARK Flexibility Score: inf
ROOT
ATOM      1  C   UNL     1      78.593  81.005  76.356  1.00  0.00     0.000 C 
ENDROOT
BRANCH   1   2
ATOM      2  C   UNL     1      79.416  82.245  75.953  1.00  0.00     0.000 C 
BRANCH   2   3
ATOM      3  C   UNL     1      78.743  83.163  74.912  1.00  0.00     0.006 C 
BRANCH   3   4
ATOM      4  C   UNL     1      77.264  82.842  74.647  1.00  0.00     0.053 C 
BRANCH   4   5
ATOM      5  C   UNL     1      76.378  84.021  74.911  1.00  0.00     0.041 C 
ATOM      6  O   UNL     1      76.846  85.189  74.861  1.00  0.00    -0.550 OA
ATOM      7  O   UNL     1      75.028  83.831  75.179  1.00  0.00    -0.550 OA
ENDBRANCH   4   5
ENDBRANCH   3   4
ENDBRANCH   2   3
ENDBRANCH   1   2
BRANCH   1   8
ATOM      8  C   UNL     1      78.611  80.669  77.861  1.00  0.00     0.000 C 
BRANCH   8   9
ATOM      9  C   UNL     1      77.880  81.682  78.760  1.00  0.00     0.000 C 
BRANCH   9  10
ATOM     10  C   UNL     1      76.562  82.183  78.146  1.00  0.00     0.006 C 
BRANCH  10  11
ATOM     11  C   UNL     1      75.350  81.389  78.652  1.00  0.00     0.053 C 
BRANCH  11  12
ATOM     12  C   UNL     1      74.614  80.725  77.528  1.00  0.00     0.041 C 
ATOM     13  O   UNL     1      75.195  79.872  76.807  1.00  0.00    -0.550 OA
ATOM     14  O   UNL     1      73.276  81.023  77.302  1.00  0.00    -0.550 OA
ENDBRANCH  11  12
ENDBRANCH  10  11
ENDBRANCH   9  10
ENDBRANCH   8   9
ENDBRANCH   1   8
TORSDOF 9
ENDMDL
MODEL 5
REMARK VINA RESULT:    -3.887      0.937      3.995
REMARK INTER + INTRA:          -6.669
REMARK INTER:                  -5.791
REMARK INTRA:                  -0.878
REMARK UNBOUND:                -0.738
REMARK SMILES O=C([O-])CCCCCCCCC(=O)[O-]
REMARK SMILES IDX 7 1 6 2 5 3 4 4 2 5 1 6 3 7 8 8 9 9 10 10 11 11 12 12 13 13
REMARK SMILES IDX 14 14
REMARK H PARENT
REMARK Flexibility Score: inf
ROOT
ATOM      1  C   UNL     1      74.411  80.539  77.819  1.00  0.00     0.000 C 
ENDROOT
BRANCH   1   2
ATOM      2  C   UNL     1      75.453  81.001  78.857  1.00  0.00     0.000 C 
BRANCH   2   3
ATOM      3  C   UNL     1      76.433  82.083  78.359  1.00  0.00     0.006 C 
BRANCH   3   4
ATOM      4  C   UNL     1      77.917  81.713  78.515  1.00  0.00     0.053 C 
BRANCH   4   5
ATOM      5  C   UNL     1      78.585  81.505  77.190  1.00  0.00     0.041 C 
ATOM      6  O   UNL     1      78.099  80.695  76.357  1.00  0.00    -0.550 OA
ATOM      7  O   UNL     1      79.723  82.230  76.863  1.00  0.00    -0.550 OA
ENDBRANCH   4   5
ENDBRANCH   3   4
ENDBRANCH   2   3
ENDBRANCH   1   2
BRANCH   1   8
ATOM      8  C   UNL     1      73.634  81.673  77.121  1.00  0.00     0.000 C 
BRANCH   8   9
ATOM      9  C   UNL     1      73.566  81.565  75.588  1.00  0.00     0.000 C 
BRANCH   9  10
ATOM     10  C   UNL     1      74.212  82.765  74.875  1.00  0.00     0.006 C 
BRANCH  10  11
ATOM     11  C   UNL     1      75.737  82.628  74.779  1.00  0.00     0.053 C 
BRANCH  11  12
ATOM     12  C   UNL     1      76.428  83.937  75.012  1.00  0.00     0.041 C 
ATOM     13  O   UNL     1      75.806  84.896  75.539  1.00  0.00    -0.550 OA
ATOM     14  O   UNL     1      77.769  84.084  74.679  1.00  0.00    -0.550 OA
ENDBRANCH  11  12
ENDBRANCH  10  11
ENDBRANCH   9  10
ENDBRANCH   8   9
ENDBRANCH   1   8
TORSDOF 9
ENDMDL
MODEL 6
REMARK VINA RESULT:    -3.854      1.735      2.428
REMARK INTER + INTRA:          -6.619
REMARK INTER:                  -5.771
REMARK INTRA:                  -0.848
REMARK UNBOUND:                -0.738
REMARK SMILES O=C([O-])CCCCCCCCC(=O)[O-]
REMARK SMILES IDX 7 1 6 2 5 3 4 4 2 5 1 6 3 7 8 8 9 9 10 10 11 11 12 12 13 13
REMARK SMILES IDX 14 14
REMARK H PARENT
REMARK Flexibility Score: inf
ROOT
ATOM      1  C   UNL     1      75.046  80.714  75.026  1.00  0.00     0.000 C 
ENDROOT
BRANCH   1   2
ATOM      2  C   UNL     1      73.942  81.779  74.875  1.00  0.00     0.000 C 
BRANCH   2   3
ATOM      3  C   UNL     1      74.356  83.207  75.284  1.00  0.00     0.006 C 
BRANCH   3   4
ATOM      4  C   UNL     1      75.771  83.314  75.873  1.00  0.00     0.053 C 
BRANCH   4   5
ATOM      5  C   UNL     1      76.733  83.945  74.914  1.00  0.00     0.041 C 
ATOM      6  O   UNL     1      76.791  85.199  74.808  1.00  0.00    -0.550 OA
ATOM      7  O   UNL     1      77.588  83.151  74.162  1.00  0.00    -0.550 OA
ENDBRANCH   4   5
ENDBRANCH   3   4
ENDBRANCH   2   3
ENDBRANCH   1   2
BRANCH   1   8
ATOM      8  C   UNL     1      74.817  79.688  76.154  1.00  0.00     0.000 C 
BRANCH   8   9
ATOM      9  C   UNL     1      73.963  80.196  77.328  1.00  0.00     0.000 C 
BRANCH   9  10
ATOM     10  C   UNL     1      74.712  80.156  78.672  1.00  0.00     0.006 C 
BRANCH  10  11
ATOM     11  C   UNL     1      75.695  81.324  78.820  1.00  0.00     0.053 C 
BRANCH  11  12
ATOM     12  C   UNL     1      77.118  80.856  78.811  1.00  0.00     0.041 C 
ATOM     13  O   UNL     1      77.380  79.624  78.831  1.00  0.00    -0.550 OA
ATOM     14  O   UNL     1      78.154  81.779  78.743  1.00  0.00    -0.550 OA
ENDBRANCH  11  12
ENDBRANCH  10  11
ENDBRANCH   9  10
ENDBRANCH   8   9
ENDBRANCH   1   8
TORSDOF 9
ENDMDL
MODEL 7
REMARK VINA RESULT:    -3.832      1.708      3.315
REMARK INTER + INTRA:          -6.586
REMARK INTER:                  -5.800
REMARK INTRA:                  -0.786
REMARK UNBOUND:                -0.738
REMARK SMILES O=C([O-])CCCCCCCCC(=O)[O-]
REMARK SMILES IDX 7 1 6 2 5 3 4 4 2 5 1 6 3 7 8 8 9 9 10 10 11 11 12 12 13 13
REMARK SMILES IDX 14 14
REMARK H PARENT
REMARK Flexibility Score: inf
ROOT
ATOM      1  C   UNL     1      77.415  80.438  77.990  1.00  0.00     0.000 C 
ENDROOT
BRANCH   1   2
ATOM      2  C   UNL     1      76.050  80.785  78.616  1.00  0.00     0.000 C 
BRANCH   2   3
ATOM      3  C   UNL     1      75.358  82.028  78.021  1.00  0.00     0.006 C 
BRANCH   3   4
ATOM      4  C   UNL     1      75.629  82.250  76.525  1.00  0.00     0.053 C 
BRANCH   4   5
ATOM      5  C   UNL     1      74.488  82.945  75.846  1.00  0.00     0.041 C 
ATOM      6  O   UNL     1      73.329  82.884  76.334  1.00  0.00    -0.550 OA
ATOM      7  O   UNL     1      74.713  83.687  74.693  1.00  0.00    -0.550 OA
ENDBRANCH   4   5
ENDBRANCH   3   4
ENDBRANCH   2   3
ENDBRANCH   1   2
BRANCH   1   8
ATOM      8  C   UNL     1      78.625  81.161  78.615  1.00  0.00     0.000 C 
BRANCH   8   9
ATOM      9  C   UNL     1      79.698  81.616  77.610  1.00  0.00     0.000 C 
BRANCH   9  10
ATOM     10  C   UNL     1      79.184  81.646  76.160  1.00  0.00     0.006 C 
BRANCH  10  11
ATOM     11  C   UNL     1      79.604  82.924  75.424  1.00  0.00     0.053 C 
BRANCH  11  12
ATOM     12  C   UNL     1      78.514  83.436  74.533  1.00  0.00     0.041 C 
ATOM     13  O   UNL     1      78.171  82.782  73.513  1.00  0.00    -0.550 OA
ATOM     14  O   UNL     1      77.852  84.615  74.851  1.00  0.00    -0.550 OA
ENDBRANCH  11  12
ENDBRANCH  10  11
ENDBRANCH   9  10
ENDBRANCH   8   9
ENDBRANCH   1   8
TORSDOF 9
ENDMDL
MODEL 8
REMARK VINA RESULT:    -3.821      0.895      4.028
REMARK INTER + INTRA:          -6.569
REMARK INTER:                  -5.650
REMARK INTRA:                  -0.919
REMARK UNBOUND:                -0.738
REMARK SMILES O=C([O-])CCCCCCCCC(=O)[O-]
REMARK SMILES IDX 7 1 6 2 5 3 4 4 2 5 1 6 3 7 8 8 9 9 10 10 11 11 12 12 13 13
REMARK SMILES IDX 14 14
REMARK H PARENT
REMARK Flexibility Score: inf
ROOT
ATOM      1  C   UNL     1      75.960  81.199  78.847  1.00  0.00     0.000 C 
ENDROOT
BRANCH   1   2
ATOM      2  C   UNL     1      77.013  80.075  78.898  1.00  0.00     0.000 C 
BRANCH   2   3
ATOM      3  C   UNL     1      78.105  80.155  77.812  1.00  0.00     0.006 C 
BRANCH   3   4
ATOM      4  C   UNL     1      78.980  81.417  77.883  1.00  0.00     0.053 C 
BRANCH   4   5
ATOM      5  C   UNL     1      80.049  81.418  76.834  1.00  0.00     0.041 C 
ATOM      6  O   UNL     1      81.233  81.720  77.138  1.00  0.00    -0.550 OA
ATOM      7  O   UNL     1      79.745  81.051  75.530  1.00  0.00    -0.550 OA
ENDBRANCH   4   5
ENDBRANCH   3   4
ENDBRANCH   2   3
ENDBRANCH   1   2
BRANCH   1   8
ATOM      8  C   UNL     1      74.746  80.920  77.939  1.00  0.00     0.000 C 
BRANCH   8   9
ATOM      9  C   UNL     1      74.604  81.869  76.737  1.00  0.00     0.000 C 
BRANCH   9  10
ATOM     10  C   UNL     1      75.780  82.852  76.609  1.00  0.00     0.006 C 
BRANCH  10  11
ATOM     11  C   UNL     1      76.518  82.699  75.273  1.00  0.00     0.053 C 
BRANCH  11  12
ATOM     12  C   UNL     1      77.254  83.950  74.899  1.00  0.00     0.041 C 
ATOM     13  O   UNL     1      78.464  83.893  74.554  1.00  0.00    -0.550 OA
ATOM     14  O   UNL     1      76.593  85.172  74.898  1.00  0.00    -0.550 OA
ENDBRANCH  11  12
ENDBRANCH  10  11
ENDBRANCH   9  10
ENDBRANCH   8   9
ENDBRANCH   1   8
TORSDOF 9
ENDMDL
MODEL 9
REMARK VINA RESULT:    -3.803      2.802      3.947
REMARK INTER + INTRA:          -6.541
REMARK INTER:                  -6.095
REMARK INTRA:                  -0.446
REMARK UNBOUND:                -0.738
REMARK SMILES O=C([O-])CCCCCCCCC(=O)[O-]
REMARK SMILES IDX 7 1 6 2 5 3 4 4 2 5 1 6 3 7 8 8 9 9 10 10 11 11 12 12 13 13
REMARK SMILES IDX 14 14
REMARK H PARENT
REMARK Flexibility Score: inf
ROOT
ATOM      1  C   UNL     1      78.668  81.154  77.904  1.00  0.00     0.000 C 
ENDROOT
BRANCH   1   2
ATOM      2  C   UNL     1      77.289  81.832  77.777  1.00  0.00     0.000 C 
BRANCH   2   3
ATOM      3  C   UNL     1      76.692  81.830  76.355  1.00  0.00     0.006 C 
BRANCH   3   4
ATOM      4  C   UNL     1      76.010  83.147  75.952  1.00  0.00     0.053 C 
BRANCH   4   5
ATOM      5  C   UNL     1      76.831  83.927  74.971  1.00  0.00     0.041 C 
ATOM      6  O   UNL     1      76.678  85.172  74.867  1.00  0.00    -0.550 OA
ATOM      7  O   UNL     1      77.789  83.283  74.199  1.00  0.00    -0.550 OA
ENDBRANCH   4   5
ENDBRANCH   3   4
ENDBRANCH   2   3
ENDBRANCH   1   2
BRANCH   1   8
ATOM      8  C   UNL     1      79.764  81.720  76.979  1.00  0.00     0.000 C 
BRANCH   8   9
ATOM      9  C   UNL     1      81.204  81.535  77.492  1.00  0.00     0.000 C 
BRANCH   9  10
ATOM     10  C   UNL     1      81.306  80.492  78.619  1.00  0.00     0.006 C 
BRANCH  10  11
ATOM     11  C   UNL     1      81.887  81.090  79.907  1.00  0.00     0.053 C 
BRANCH  11  12
ATOM     12  C   UNL     1      83.373  80.915  79.979  1.00  0.00     0.041 C 
ATOM     13  O   UNL     1      84.136  81.773  79.464  1.00  0.00    -0.550 OA
ATOM     14  O   UNL     1      83.914  79.824  80.647  1.00  0.00    -0.550 OA
ENDBRANCH  11  12
ENDBRANCH  10  11
ENDBRANCH   9  10
ENDBRANCH   8   9
ENDBRANCH   1   8
TORSDOF 9
ENDMDL
