MODEL 1
REMARK VINA RESULT:    -3.034      0.000      0.000
REMARK INTER + INTRA:         -12.966
REMARK INTER:                  -7.646
REMARK INTRA:                  -5.320
REMARK UNBOUND:                -5.320
REMARK SMILES CCCCCCCCCCCCCCCCCCCCCCCCCCCC(=O)[O-]
REMARK SMILES IDX 15 1 16 2 17 3 18 4 19 5 20 6 21 7 22 8 23 9 24 10 25 11
REMARK SMILES IDX 26 12 27 13 28 14 29 15 30 16 14 17 13 18 12 19 11 20 10 21
REMARK SMILES IDX 9 22 8 23 7 24 6 25 5 26 4 27 3 28 2 29 1 30
REMARK H PARENT
REMARK Flexibility Score: inf
ROOT
ATOM      1  C   UNL     1      54.546  25.991  49.808  1.00  0.00     0.000 C 
ENDROOT
BRANCH   1   2
ATOM      2  C   UNL     1      56.058  26.272  49.835  1.00  0.00     0.000 C 
BRANCH   2   3
ATOM      3  C   UNL     1      56.655  26.139  51.246  1.00  0.00     0.000 C 
BRANCH   3   4
ATOM      4  C   UNL     1      55.680  25.474  52.234  1.00  0.00     0.000 C 
BRANCH   4   5
ATOM      5  C   UNL     1      56.354  25.104  53.573  1.00  0.00     0.000 C 
BRANCH   5   6
ATOM      6  C   UNL     1      57.009  26.295  54.296  1.00  0.00     0.000 C 
BRANCH   6   7
ATOM      7  C   UNL     1      58.546  26.358  54.196  1.00  0.00     0.000 C 
BRANCH   7   8
ATOM      8  C   UNL     1      59.297  25.305  55.034  1.00  0.00     0.000 C 
BRANCH   8   9
ATOM      9  C   UNL     1      60.288  24.429  54.244  1.00  0.00     0.000 C 
BRANCH   9  10
ATOM     10  C   UNL     1      59.659  23.146  53.656  1.00  0.00     0.000 C 
BRANCH  10  11
ATOM     11  C   UNL     1      59.244  23.251  52.173  1.00  0.00     0.000 C 
BRANCH  11  12
ATOM     12  C   UNL     1      59.886  24.414  51.387  1.00  0.00     0.006 C 
BRANCH  12  13
ATOM     13  C   UNL     1      60.321  24.063  49.956  1.00  0.00     0.053 C 
BRANCH  13  14
ATOM     14  C   UNL     1      61.171  22.830  49.911  1.00  0.00     0.041 C 
ATOM     15  O   UNL     1      60.802  21.828  49.243  1.00  0.00    -0.550 OA
ATOM     16  O   UNL     1      62.378  22.791  50.599  1.00  0.00    -0.550 OA
ENDBRANCH  13  14
ENDBRANCH  12  13
ENDBRANCH  11  12
ENDBRANCH  10  11
ENDBRANCH   9  10
ENDBRANCH   8   9
ENDBRANCH   7   8
ENDBRANCH   6   7
ENDBRANCH   5   6
ENDBRANCH   4   5
ENDBRANCH   3   4
ENDBRANCH   2   3
ENDBRANCH   1   2
BRANCH   1  17
ATOM     17  C   UNL     1      53.715  27.276  49.656  1.00  0.00     0.000 C 
BRANCH  17  18
ATOM     18  C   UNL     1      54.376  28.483  50.338  1.00  0.00     0.000 C 
BRANCH  18  19
ATOM     19  C   UNL     1      53.763  28.736  51.724  1.00  0.00     0.000 C 
BRANCH  19  20
ATOM     20  C   UNL     1      54.821  29.034  52.800  1.00  0.00     0.000 C 
BRANCH  20  21
ATOM     21  C   UNL     1      55.920  30.027  52.372  1.00  0.00     0.000 C 
BRANCH  21  22
ATOM     22  C   UNL     1      57.363  29.556  52.634  1.00  0.00    -0.000 C 
BRANCH  22  23
ATOM     23  C   UNL     1      58.369  29.871  51.508  1.00  0.00    -0.000 C 
BRANCH  23  24
ATOM     24  C   UNL     1      57.957  29.384  50.107  1.00  0.00    -0.000 C 
BRANCH  24  25
ATOM     25  C   UNL     1      59.162  29.040  49.211  1.00  0.00    -0.000 C 
BRANCH  25  26
ATOM     26  C   UNL     1      59.782  27.671  49.564  1.00  0.00    -0.000 C 
BRANCH  26  27
ATOM     27  C   UNL     1      61.077  27.765  50.391  1.00  0.00    -0.000 C 
BRANCH  27  28
ATOM     28  C   UNL     1      62.337  27.450  49.569  1.00  0.00    -0.000 C 
BRANCH  28  29
ATOM     29  C   UNL     1      63.305  26.513  50.308  1.00  0.00    -0.003 C 
ATOM     30  C   UNL     1      62.904  26.278  51.765  1.00  0.00     0.004 C 
ENDBRANCH  28  29
ENDBRANCH  27  28
ENDBRANCH  26  27
ENDBRANCH  25  26
ENDBRANCH  24  25
ENDBRANCH  23  24
ENDBRANCH  22  23
ENDBRANCH  21  22
ENDBRANCH  20  21
ENDBRANCH  19  20
ENDBRANCH  18  19
ENDBRANCH  17  18
ENDBRANCH   1  17
TORSDOF 26
ENDMDL
MODEL 2
REMARK VINA RESULT:    -3.007     10.561     13.128
REMARK INTER + INTRA:         -12.898
REMARK INTER:                  -8.455
REMARK INTRA:                  -4.443
REMARK UNBOUND:                -5.320
REMARK SMILES CCCCCCCCCCCCCCCCCCCCCCCCCCCC(=O)[O-]
REMARK SMILES IDX 15 1 16 2 17 3 18 4 19 5 20 6 21 7 22 8 23 9 24 10 25 11
REMARK SMILES IDX 26 12 27 13 28 14 29 15 30 16 14 17 13 18 12 19 11 20 10 21
REMARK SMILES IDX 9 22 8 23 7 24 6 25 5 26 4 27 3 28 2 29 1 30
REMARK H PARENT
REMARK Flexibility Score: inf
ROOT
ATOM      1  C   UNL     1      62.209  32.844  60.529  1.00  0.00     0.000 C 
ENDROOT
BRANCH   1   2
ATOM      2  C   UNL     1      61.631  34.230  60.196  1.00  0.00     0.000 C 
BRANCH   2   3
ATOM      3  C   UNL     1      62.519  35.375  60.710  1.00  0.00     0.000 C 
BRANCH   3   4
ATOM      4  C   UNL     1      63.902  34.882  61.171  1.00  0.00     0.000 C 
BRANCH   4   5
ATOM      5  C   UNL     1      65.059  35.586  60.431  1.00  0.00     0.000 C 
BRANCH   5   6
ATOM      6  C   UNL     1      64.885  35.641  58.901  1.00  0.00     0.000 C 
BRANCH   6   7
ATOM      7  C   UNL     1      65.343  34.378  58.144  1.00  0.00     0.000 C 
BRANCH   7   8
ATOM      8  C   UNL     1      64.216  33.599  57.437  1.00  0.00     0.000 C 
BRANCH   8   9
ATOM      9  C   UNL     1      64.113  32.111  57.820  1.00  0.00     0.000 C 
BRANCH   9  10
ATOM     10  C   UNL     1      65.263  31.616  58.726  1.00  0.00     0.000 C 
BRANCH  10  11
ATOM     11  C   UNL     1      66.262  30.662  58.038  1.00  0.00     0.000 C 
BRANCH  11  12
ATOM     12  C   UNL     1      67.669  31.247  57.786  1.00  0.00     0.006 C 
BRANCH  12  13
ATOM     13  C   UNL     1      68.052  31.393  56.306  1.00  0.00     0.053 C 
BRANCH  13  14
ATOM     14  C   UNL     1      67.508  32.653  55.704  1.00  0.00     0.041 C 
ATOM     15  O   UNL     1      68.064  33.759  55.938  1.00  0.00    -0.550 OA
ATOM     16  O   UNL     1      66.393  32.605  54.876  1.00  0.00    -0.550 OA
ENDBRANCH  13  14
ENDBRANCH  12  13
ENDBRANCH  11  12
ENDBRANCH  10  11
ENDBRANCH   9  10
ENDBRANCH   8   9
ENDBRANCH   7   8
ENDBRANCH   6   7
ENDBRANCH   5   6
ENDBRANCH   4   5
ENDBRANCH   3   4
ENDBRANCH   2   3
ENDBRANCH   1   2
BRANCH   1  17
ATOM     17  C   UNL     1      61.112  31.783  60.713  1.00  0.00     0.000 C 
BRANCH  17  18
ATOM     18  C   UNL     1      61.530  30.673  61.688  1.00  0.00     0.000 C 
BRANCH  18  19
ATOM     19  C   UNL     1      62.911  30.109  61.320  1.00  0.00     0.000 C 
BRANCH  19  20
ATOM     20  C   UNL     1      62.834  28.952  60.308  1.00  0.00     0.000 C 
BRANCH  20  21
ATOM     21  C   UNL     1      63.800  27.783  60.583  1.00  0.00     0.000 C 
BRANCH  21  22
ATOM     22  C   UNL     1      64.988  27.675  59.609  1.00  0.00    -0.000 C 
BRANCH  22  23
ATOM     23  C   UNL     1      66.367  27.491  60.277  1.00  0.00    -0.000 C 
BRANCH  23  24
ATOM     24  C   UNL     1      66.784  28.617  61.240  1.00  0.00    -0.000 C 
BRANCH  24  25
ATOM     25  C   UNL     1      68.308  28.694  61.453  1.00  0.00    -0.000 C 
BRANCH  25  26
ATOM     26  C   UNL     1      69.061  29.071  60.159  1.00  0.00    -0.000 C 
BRANCH  26  27
ATOM     27  C   UNL     1      70.587  29.178  60.334  1.00  0.00    -0.000 C 
BRANCH  27  28
ATOM     28  C   UNL     1      71.007  30.355  61.228  1.00  0.00    -0.000 C 
BRANCH  28  29
ATOM     29  C   UNL     1      71.852  31.395  60.477  1.00  0.00    -0.003 C 
ATOM     30  C   UNL     1      71.067  32.114  59.379  1.00  0.00     0.004 C 
ENDBRANCH  28  29
ENDBRANCH  27  28
ENDBRANCH  26  27
ENDBRANCH  25  26
ENDBRANCH  24  25
ENDBRANCH  23  24
ENDBRANCH  22  23
ENDBRANCH  21  22
ENDBRANCH  20  21
ENDBRANCH  19  20
ENDBRANCH  18  19
ENDBRANCH  17  18
ENDBRANCH   1  17
TORSDOF 26
ENDMDL
MODEL 3
REMARK VINA RESULT:    -2.988      8.229     11.779
REMARK INTER + INTRA:         -12.849
REMARK INTER:                  -6.938
REMARK INTRA:                  -5.910
REMARK UNBOUND:                -5.320
REMARK SMILES CCCCCCCCCCCCCCCCCCCCCCCCCCCC(=O)[O-]
REMARK SMILES IDX 15 1 16 2 17 3 18 4 19 5 20 6 21 7 22 8 23 9 24 10 25 11
REMARK SMILES IDX 26 12 27 13 28 14 29 15 30 16 14 17 13 18 12 19 11 20 10 21
REMARK SMILES IDX 9 22 8 23 7 24 6 25 5 26 4 27 3 28 2 29 1 30
REMARK H PARENT
REMARK Flexibility Score: inf
ROOT
ATOM      1  C   UNL     1      63.240  30.598  61.149  1.00  0.00     0.000 C 
ENDROOT
BRANCH   1   2
ATOM      2  C   UNL     1      61.871  30.291  61.779  1.00  0.00     0.000 C 
BRANCH   2   3
ATOM      3  C   UNL     1      60.753  31.187  61.220  1.00  0.00     0.000 C 
BRANCH   3   4
ATOM      4  C   UNL     1      61.305  32.403  60.455  1.00  0.00     0.000 C 
BRANCH   4   5
ATOM      5  C   UNL     1      60.752  32.500  59.017  1.00  0.00     0.000 C 
BRANCH   5   6
ATOM      6  C   UNL     1      60.480  31.136  58.356  1.00  0.00     0.000 C 
BRANCH   6   7
ATOM      7  C   UNL     1      61.665  30.537  57.574  1.00  0.00     0.000 C 
BRANCH   7   8
ATOM      8  C   UNL     1      61.904  29.032  57.805  1.00  0.00     0.000 C 
BRANCH   8   9
ATOM      9  C   UNL     1      61.008  28.387  58.879  1.00  0.00     0.000 C 
BRANCH   9  10
ATOM     10  C   UNL     1      60.021  27.336  58.324  1.00  0.00     0.000 C 
BRANCH  10  11
ATOM     11  C   UNL     1      58.548  27.557  58.728  1.00  0.00     0.000 C 
BRANCH  11  12
ATOM     12  C   UNL     1      58.332  28.358  60.029  1.00  0.00     0.006 C 
BRANCH  12  13
ATOM     13  C   UNL     1      58.140  27.502  61.290  1.00  0.00     0.053 C 
BRANCH  13  14
ATOM     14  C   UNL     1      56.702  27.418  61.702  1.00  0.00     0.041 C 
ATOM     15  O   UNL     1      56.173  28.358  62.353  1.00  0.00    -0.550 OA
ATOM     16  O   UNL     1      55.942  26.305  61.360  1.00  0.00    -0.550 OA
ENDBRANCH  13  14
ENDBRANCH  12  13
ENDBRANCH  11  12
ENDBRANCH  10  11
ENDBRANCH   9  10
ENDBRANCH   8   9
ENDBRANCH   7   8
ENDBRANCH   6   7
ENDBRANCH   5   6
ENDBRANCH   4   5
ENDBRANCH   3   4
ENDBRANCH   2   3
ENDBRANCH   1   2
BRANCH   1  17
ATOM     17  C   UNL     1      64.072  29.327  60.913  1.00  0.00     0.000 C 
BRANCH  17  18
ATOM     18  C   UNL     1      64.989  29.448  59.688  1.00  0.00     0.000 C 
BRANCH  18  19
ATOM     19  C   UNL     1      65.848  28.186  59.516  1.00  0.00     0.000 C 
BRANCH  19  20
ATOM     20  C   UNL     1      65.194  26.930  60.117  1.00  0.00     0.000 C 
BRANCH  20  21
ATOM     21  C   UNL     1      64.314  26.126  59.139  1.00  0.00     0.000 C 
BRANCH  21  22
ATOM     22  C   UNL     1      62.996  25.594  59.734  1.00  0.00    -0.000 C 
BRANCH  22  23
ATOM     23  C   UNL     1      62.922  25.605  61.275  1.00  0.00    -0.000 C 
BRANCH  23  24
ATOM     24  C   UNL     1      61.852  26.536  61.873  1.00  0.00    -0.000 C 
BRANCH  24  25
ATOM     25  C   UNL     1      61.069  25.887  63.030  1.00  0.00    -0.000 C 
BRANCH  25  26
ATOM     26  C   UNL     1      61.223  24.352  63.053  1.00  0.00    -0.000 C 
BRANCH  26  27
ATOM     27  C   UNL     1      59.970  23.590  62.588  1.00  0.00    -0.000 C 
BRANCH  27  28
ATOM     28  C   UNL     1      60.048  23.149  61.118  1.00  0.00    -0.000 C 
BRANCH  28  29
ATOM     29  C   UNL     1      59.506  24.214  60.152  1.00  0.00    -0.003 C 
ATOM     30  C   UNL     1      58.066  23.940  59.717  1.00  0.00     0.004 C 
ENDBRANCH  28  29
ENDBRANCH  27  28
ENDBRANCH  26  27
ENDBRANCH  25  26
ENDBRANCH  24  25
ENDBRANCH  23  24
ENDBRANCH  22  23
ENDBRANCH  21  22
ENDBRANCH  20  21
ENDBRANCH  19  20
ENDBRANCH  18  19
ENDBRANCH  17  18
ENDBRANCH   1  17
TORSDOF 26
ENDMDL
MODEL 4
REMARK VINA RESULT:    -2.966     10.153     12.803
REMARK INTER + INTRA:         -12.793
REMARK INTER:                  -8.440
REMARK INTRA:                  -4.353
REMARK UNBOUND:                -5.320
REMARK SMILES CCCCCCCCCCCCCCCCCCCCCCCCCCCC(=O)[O-]
REMARK SMILES IDX 15 1 16 2 17 3 18 4 19 5 20 6 21 7 22 8 23 9 24 10 25 11
REMARK SMILES IDX 26 12 27 13 28 14 29 15 30 16 14 17 13 18 12 19 11 20 10 21
REMARK SMILES IDX 9 22 8 23 7 24 6 25 5 26 4 27 3 28 2 29 1 30
REMARK H PARENT
REMARK Flexibility Score: inf
ROOT
ATOM      1  C   UNL     1      62.333  29.603  57.620  1.00  0.00     0.000 C 
ENDROOT
BRANCH   1   2
ATOM      2  C   UNL     1      62.268  28.101  57.944  1.00  0.00     0.000 C 
BRANCH   2   3
ATOM      3  C   UNL     1      63.662  27.484  58.152  1.00  0.00     0.000 C 
BRANCH   3   4
ATOM      4  C   UNL     1      63.671  26.424  59.267  1.00  0.00     0.000 C 
BRANCH   4   5
ATOM      5  C   UNL     1      64.880  26.572  60.216  1.00  0.00     0.000 C 
BRANCH   5   6
ATOM      6  C   UNL     1      65.865  27.683  59.808  1.00  0.00     0.000 C 
BRANCH   6   7
ATOM      7  C   UNL     1      66.733  28.244  60.952  1.00  0.00     0.000 C 
BRANCH   7   8
ATOM      8  C   UNL     1      68.156  28.671  60.541  1.00  0.00     0.000 C 
BRANCH   8   9
ATOM      9  C   UNL     1      69.002  27.568  59.877  1.00  0.00     0.000 C 
BRANCH   9  10
ATOM     10  C   UNL     1      70.365  28.060  59.342  1.00  0.00     0.000 C 
BRANCH  10  11
ATOM     11  C   UNL     1      70.278  29.176  58.280  1.00  0.00     0.000 C 
BRANCH  11  12
ATOM     12  C   UNL     1      71.436  30.196  58.294  1.00  0.00     0.006 C 
BRANCH  12  13
ATOM     13  C   UNL     1      71.034  31.623  58.698  1.00  0.00     0.053 C 
BRANCH  13  14
ATOM     14  C   UNL     1      71.341  31.910  60.136  1.00  0.00     0.041 C 
ATOM     15  O   UNL     1      71.162  31.024  61.012  1.00  0.00    -0.550 OA
ATOM     16  O   UNL     1      71.834  33.156  60.507  1.00  0.00    -0.550 OA
ENDBRANCH  13  14
ENDBRANCH  12  13
ENDBRANCH  11  12
ENDBRANCH  10  11
ENDBRANCH   9  10
ENDBRANCH   8   9
ENDBRANCH   7   8
ENDBRANCH   6   7
ENDBRANCH   5   6
ENDBRANCH   4   5
ENDBRANCH   3   4
ENDBRANCH   2   3
ENDBRANCH   1   2
BRANCH   1  17
ATOM     17  C   UNL     1      63.775  30.135  57.604  1.00  0.00     0.000 C 
BRANCH  17  18
ATOM     18  C   UNL     1      63.931  31.424  58.425  1.00  0.00     0.000 C 
BRANCH  18  19
ATOM     19  C   UNL     1      64.881  31.209  59.612  1.00  0.00     0.000 C 
BRANCH  19  20
ATOM     20  C   UNL     1      64.147  31.146  60.963  1.00  0.00     0.000 C 
BRANCH  20  21
ATOM     21  C   UNL     1      63.446  29.806  61.259  1.00  0.00     0.000 C 
BRANCH  21  22
ATOM     22  C   UNL     1      61.913  29.886  61.388  1.00  0.00    -0.000 C 
BRANCH  22  23
ATOM     23  C   UNL     1      61.319  31.305  61.272  1.00  0.00    -0.000 C 
BRANCH  23  24
ATOM     24  C   UNL     1      60.495  31.568  59.998  1.00  0.00    -0.000 C 
BRANCH  24  25
ATOM     25  C   UNL     1      60.841  32.909  59.324  1.00  0.00    -0.000 C 
BRANCH  25  26
ATOM     26  C   UNL     1      61.765  33.784  60.199  1.00  0.00    -0.000 C 
BRANCH  26  27
ATOM     27  C   UNL     1      61.329  35.257  60.290  1.00  0.00    -0.000 C 
BRANCH  27  28
ATOM     28  C   UNL     1      62.505  36.215  60.535  1.00  0.00    -0.000 C 
BRANCH  28  29
ATOM     29  C   UNL     1      63.625  35.575  61.369  1.00  0.00    -0.003 C 
ATOM     30  C   UNL     1      64.965  35.540  60.631  1.00  0.00     0.004 C 
ENDBRANCH  28  29
ENDBRANCH  27  28
ENDBRANCH  26  27
ENDBRANCH  25  26
ENDBRANCH  24  25
ENDBRANCH  23  24
ENDBRANCH  22  23
ENDBRANCH  21  22
ENDBRANCH  20  21
ENDBRANCH  19  20
ENDBRANCH  18  19
ENDBRANCH  17  18
ENDBRANCH   1  17
TORSDOF 26
ENDMDL
MODEL 5
REMARK VINA RESULT:    -2.958      3.623      8.462
REMARK INTER + INTRA:         -12.773
REMARK INTER:                  -9.678
REMARK INTRA:                  -3.095
REMARK UNBOUND:                -5.320
REMARK SMILES CCCCCCCCCCCCCCCCCCCCCCCCCCCC(=O)[O-]
REMARK SMILES IDX 15 1 16 2 17 3 18 4 19 5 20 6 21 7 22 8 23 9 24 10 25 11
REMARK SMILES IDX 26 12 27 13 28 14 29 15 30 16 14 17 13 18 12 19 11 20 10 21
REMARK SMILES IDX 9 22 8 23 7 24 6 25 5 26 4 27 3 28 2 29 1 30
REMARK H PARENT
REMARK Flexibility Score: inf
ROOT
ATOM      1  C   UNL     1      60.305  24.565  51.616  1.00  0.00     0.000 C 
ENDROOT
BRANCH   1   2
ATOM      2  C   UNL     1      58.800  24.418  51.900  1.00  0.00     0.000 C 
BRANCH   2   3
ATOM      3  C   UNL     1      58.101  25.776  52.077  1.00  0.00     0.000 C 
BRANCH   3   4
ATOM      4  C   UNL     1      56.597  25.706  51.757  1.00  0.00     0.000 C 
BRANCH   4   5
ATOM      5  C   UNL     1      56.286  26.070  50.289  1.00  0.00     0.000 C 
BRANCH   5   6
ATOM      6  C   UNL     1      54.783  26.090  49.952  1.00  0.00     0.000 C 
BRANCH   6   7
ATOM      7  C   UNL     1      54.183  27.490  49.715  1.00  0.00     0.000 C 
BRANCH   7   8
ATOM      8  C   UNL     1      54.262  28.446  50.921  1.00  0.00     0.000 C 
BRANCH   8   9
ATOM      9  C   UNL     1      55.337  29.544  50.815  1.00  0.00     0.000 C 
BRANCH   9  10
ATOM     10  C   UNL     1      56.353  29.542  51.979  1.00  0.00     0.000 C 
BRANCH  10  11
ATOM     11  C   UNL     1      57.821  29.332  51.554  1.00  0.00     0.000 C 
BRANCH  11  12
ATOM     12  C   UNL     1      58.077  29.332  50.032  1.00  0.00     0.006 C 
BRANCH  12  13
ATOM     13  C   UNL     1      59.115  28.307  49.552  1.00  0.00     0.053 C 
BRANCH  13  14
ATOM     14  C   UNL     1      60.512  28.702  49.923  1.00  0.00     0.041 C 
ATOM     15  O   UNL     1      60.798  29.913  50.116  1.00  0.00    -0.550 OA
ATOM     16  O   UNL     1      61.496  27.731  50.065  1.00  0.00    -0.550 OA
ENDBRANCH  13  14
ENDBRANCH  12  13
ENDBRANCH  11  12
ENDBRANCH  10  11
ENDBRANCH   9  10
ENDBRANCH   8   9
ENDBRANCH   7   8
ENDBRANCH   6   7
ENDBRANCH   5   6
ENDBRANCH   4   5
ENDBRANCH   3   4
ENDBRANCH   2   3
ENDBRANCH   1   2
BRANCH   1  17
ATOM     17  C   UNL     1      60.653  24.273  50.147  1.00  0.00     0.000 C 
BRANCH  17  18
ATOM     18  C   UNL     1      61.507  23.007  49.989  1.00  0.00     0.000 C 
BRANCH  18  19
ATOM     19  C   UNL     1      60.724  21.901  49.266  1.00  0.00     0.000 C 
BRANCH  19  20
ATOM     20  C   UNL     1      60.378  20.715  50.183  1.00  0.00     0.000 C 
BRANCH  20  21
ATOM     21  C   UNL     1      59.430  19.670  49.563  1.00  0.00     0.000 C 
BRANCH  21  22
ATOM     22  C   UNL     1      59.557  18.248  50.144  1.00  0.00    -0.000 C 
BRANCH  22  23
ATOM     23  C   UNL     1      58.323  17.747  50.922  1.00  0.00    -0.000 C 
BRANCH  23  24
ATOM     24  C   UNL     1      56.964  18.071  50.274  1.00  0.00    -0.000 C 
BRANCH  24  25
ATOM     25  C   UNL     1      56.003  18.803  51.229  1.00  0.00    -0.000 C 
BRANCH  25  26
ATOM     26  C   UNL     1      56.749  19.535  52.365  1.00  0.00    -0.000 C 
BRANCH  26  27
ATOM     27  C   UNL     1      55.821  20.146  53.430  1.00  0.00    -0.000 C 
BRANCH  27  28
ATOM     28  C   UNL     1      55.183  19.088  54.345  1.00  0.00    -0.000 C 
BRANCH  28  29
ATOM     29  C   UNL     1      53.652  19.043  54.218  1.00  0.00    -0.003 C 
ATOM     30  C   UNL     1      53.105  20.118  53.277  1.00  0.00     0.004 C 
ENDBRANCH  28  29
ENDBRANCH  27  28
ENDBRANCH  26  27
ENDBRANCH  25  26
ENDBRANCH  24  25
ENDBRANCH  23  24
ENDBRANCH  22  23
ENDBRANCH  21  22
ENDBRANCH  20  21
ENDBRANCH  19  20
ENDBRANCH  18  19
ENDBRANCH  17  18
ENDBRANCH   1  17
TORSDOF 26
ENDMDL
MODEL 6
REMARK VINA RESULT:    -2.935      9.275     11.584
REMARK INTER + INTRA:         -12.715
REMARK INTER:                  -7.713
REMARK INTRA:                  -5.002
REMARK UNBOUND:                -5.320
REMARK SMILES CCCCCCCCCCCCCCCCCCCCCCCCCCCC(=O)[O-]
REMARK SMILES IDX 15 1 16 2 17 3 18 4 19 5 20 6 21 7 22 8 23 9 24 10 25 11
REMARK SMILES IDX 26 12 27 13 28 14 29 15 30 16 14 17 13 18 12 19 11 20 10 21
REMARK SMILES IDX 9 22 8 23 7 24 6 25 5 26 4 27 3 28 2 29 1 30
REMARK H PARENT
REMARK Flexibility Score: inf
ROOT
ATOM      1  C   UNL     1      62.844  31.121  60.656  1.00  0.00     0.000 C 
ENDROOT
BRANCH   1   2
ATOM      2  C   UNL     1      61.378  31.319  61.074  1.00  0.00     0.000 C 
BRANCH   2   3
ATOM      3  C   UNL     1      60.455  31.583  59.873  1.00  0.00     0.000 C 
BRANCH   3   4
ATOM      4  C   UNL     1      60.483  30.433  58.850  1.00  0.00     0.000 C 
BRANCH   4   5
ATOM      5  C   UNL     1      59.824  29.145  59.389  1.00  0.00     0.000 C 
BRANCH   5   6
ATOM      6  C   UNL     1      60.512  27.847  58.925  1.00  0.00     0.000 C 
BRANCH   6   7
ATOM      7  C   UNL     1      60.544  26.713  59.968  1.00  0.00     0.000 C 
BRANCH   7   8
ATOM      8  C   UNL     1      61.229  27.073  61.301  1.00  0.00     0.000 C 
BRANCH   8   9
ATOM      9  C   UNL     1      62.691  27.540  61.178  1.00  0.00     0.000 C 
BRANCH   9  10
ATOM     10  C   UNL     1      63.636  26.484  60.562  1.00  0.00     0.000 C 
BRANCH  10  11
ATOM     11  C   UNL     1      65.066  26.988  60.271  1.00  0.00     0.000 C 
BRANCH  11  12
ATOM     12  C   UNL     1      65.164  28.441  59.760  1.00  0.00     0.006 C 
BRANCH  12  13
ATOM     13  C   UNL     1      66.139  29.335  60.542  1.00  0.00     0.053 C 
BRANCH  13  14
ATOM     14  C   UNL     1      67.438  28.644  60.823  1.00  0.00     0.041 C 
ATOM     15  O   UNL     1      67.792  28.417  62.011  1.00  0.00    -0.550 OA
ATOM     16  O   UNL     1      68.254  28.241  59.773  1.00  0.00    -0.550 OA
ENDBRANCH  13  14
ENDBRANCH  12  13
ENDBRANCH  11  12
ENDBRANCH  10  11
ENDBRANCH   9  10
ENDBRANCH   8   9
ENDBRANCH   7   8
ENDBRANCH   6   7
ENDBRANCH   5   6
ENDBRANCH   4   5
ENDBRANCH   3   4
ENDBRANCH   2   3
ENDBRANCH   1   2
BRANCH   1  17
ATOM     17  C   UNL     1      63.659  32.422  60.748  1.00  0.00     0.000 C 
BRANCH  17  18
ATOM     18  C   UNL     1      64.528  32.656  59.504  1.00  0.00     0.000 C 
BRANCH  18  19
ATOM     19  C   UNL     1      63.763  32.292  58.222  1.00  0.00     0.000 C 
BRANCH  19  20
ATOM     20  C   UNL     1      63.254  33.526  57.458  1.00  0.00     0.000 C 
BRANCH  20  21
ATOM     21  C   UNL     1      61.757  33.493  57.094  1.00  0.00     0.000 C 
BRANCH  21  22
ATOM     22  C   UNL     1      61.267  34.674  56.236  1.00  0.00    -0.000 C 
BRANCH  22  23
ATOM     23  C   UNL     1      60.496  35.767  57.006  1.00  0.00    -0.000 C 
BRANCH  23  24
ATOM     24  C   UNL     1      59.728  35.275  58.247  1.00  0.00    -0.000 C 
BRANCH  24  25
ATOM     25  C   UNL     1      60.185  35.962  59.548  1.00  0.00    -0.000 C 
BRANCH  25  26
ATOM     26  C   UNL     1      61.205  35.110  60.333  1.00  0.00    -0.000 C 
BRANCH  26  27
ATOM     27  C   UNL     1      62.372  35.920  60.927  1.00  0.00    -0.000 C 
BRANCH  27  28
ATOM     28  C   UNL     1      63.408  36.338  59.872  1.00  0.00    -0.000 C 
BRANCH  28  29
ATOM     29  C   UNL     1      64.847  36.297  60.408  1.00  0.00    -0.003 C 
ATOM     30  C   UNL     1      64.936  35.705  61.816  1.00  0.00     0.004 C 
ENDBRANCH  28  29
ENDBRANCH  27  28
ENDBRANCH  26  27
ENDBRANCH  25  26
ENDBRANCH  24  25
ENDBRANCH  23  24
ENDBRANCH  22  23
ENDBRANCH  21  22
ENDBRANCH  20  21
ENDBRANCH  19  20
ENDBRANCH  18  19
ENDBRANCH  17  18
ENDBRANCH   1  17
TORSDOF 26
ENDMDL
MODEL 7
REMARK VINA RESULT:    -2.881      8.969     12.127
REMARK INTER + INTRA:         -12.580
REMARK INTER:                  -7.357
REMARK INTRA:                  -5.223
REMARK UNBOUND:                -5.320
REMARK SMILES CCCCCCCCCCCCCCCCCCCCCCCCCCCC(=O)[O-]
REMARK SMILES IDX 15 1 16 2 17 3 18 4 19 5 20 6 21 7 22 8 23 9 24 10 25 11
REMARK SMILES IDX 26 12 27 13 28 14 29 15 30 16 14 17 13 18 12 19 11 20 10 21
REMARK SMILES IDX 9 22 8 23 7 24 6 25 5 26 4 27 3 28 2 29 1 30
REMARK H PARENT
REMARK Flexibility Score: inf
ROOT
ATOM      1  C   UNL     1      64.078  31.542  57.372  1.00  0.00     0.000 C 
ENDROOT
BRANCH   1   2
ATOM      2  C   UNL     1      64.648  32.069  58.699  1.00  0.00     0.000 C 
BRANCH   2   3
ATOM      3  C   UNL     1      64.184  33.502  59.011  1.00  0.00     0.000 C 
BRANCH   3   4
ATOM      4  C   UNL     1      64.040  33.754  60.522  1.00  0.00     0.000 C 
BRANCH   4   5
ATOM      5  C   UNL     1      64.624  35.116  60.954  1.00  0.00     0.000 C 
BRANCH   5   6
ATOM      6  C   UNL     1      63.561  36.157  61.352  1.00  0.00     0.000 C 
BRANCH   6   7
ATOM      7  C   UNL     1      62.523  36.484  60.260  1.00  0.00     0.000 C 
BRANCH   7   8
ATOM      8  C   UNL     1      61.084  36.030  60.573  1.00  0.00     0.000 C 
BRANCH   8   9
ATOM      9  C   UNL     1      60.167  35.874  59.345  1.00  0.00     0.000 C 
BRANCH   9  10
ATOM     10  C   UNL     1      60.809  35.088  58.180  1.00  0.00     0.000 C 
BRANCH  10  11
ATOM     11  C   UNL     1      59.902  34.906  56.946  1.00  0.00     0.000 C 
BRANCH  11  12
ATOM     12  C   UNL     1      58.682  33.983  57.151  1.00  0.00     0.006 C 
BRANCH  12  13
ATOM     13  C   UNL     1      57.994  33.525  55.856  1.00  0.00     0.053 C 
BRANCH  13  14
ATOM     14  C   UNL     1      56.650  34.161  55.676  1.00  0.00     0.041 C 
ATOM     15  O   UNL     1      56.443  34.944  54.711  1.00  0.00    -0.550 OA
ATOM     16  O   UNL     1      55.620  33.881  56.567  1.00  0.00    -0.550 OA
ENDBRANCH  13  14
ENDBRANCH  12  13
ENDBRANCH  11  12
ENDBRANCH  10  11
ENDBRANCH   9  10
ENDBRANCH   8   9
ENDBRANCH   7   8
ENDBRANCH   6   7
ENDBRANCH   5   6
ENDBRANCH   4   5
ENDBRANCH   3   4
ENDBRANCH   2   3
ENDBRANCH   1   2
BRANCH   1  17
ATOM     17  C   UNL     1      62.819  32.308  56.933  1.00  0.00     0.000 C 
BRANCH  17  18
ATOM     18  C   UNL     1      61.620  31.377  56.702  1.00  0.00     0.000 C 
BRANCH  18  19
ATOM     19  C   UNL     1      61.262  30.612  57.985  1.00  0.00     0.000 C 
BRANCH  19  20
ATOM     20  C   UNL     1      60.318  31.401  58.909  1.00  0.00     0.000 C 
BRANCH  20  21
ATOM     21  C   UNL     1      60.976  31.956  60.188  1.00  0.00     0.000 C 
BRANCH  21  22
ATOM     22  C   UNL     1      60.673  31.164  61.474  1.00  0.00    -0.000 C 
BRANCH  22  23
ATOM     23  C   UNL     1      61.798  30.216  61.940  1.00  0.00    -0.000 C 
BRANCH  23  24
ATOM     24  C   UNL     1      63.137  30.373  61.195  1.00  0.00    -0.000 C 
BRANCH  24  25
ATOM     25  C   UNL     1      63.796  29.024  60.854  1.00  0.00    -0.000 C 
BRANCH  25  26
ATOM     26  C   UNL     1      62.893  28.137  59.970  1.00  0.00    -0.000 C 
BRANCH  26  27
ATOM     27  C   UNL     1      62.435  26.836  60.653  1.00  0.00    -0.000 C 
BRANCH  27  28
ATOM     28  C   UNL     1      60.939  26.837  61.003  1.00  0.00    -0.000 C 
BRANCH  28  29
ATOM     29  C   UNL     1      60.094  27.618  59.984  1.00  0.00    -0.003 C 
ATOM     30  C   UNL     1      58.776  28.124  60.572  1.00  0.00     0.004 C 
ENDBRANCH  28  29
ENDBRANCH  27  28
ENDBRANCH  26  27
ENDBRANCH  25  26
ENDBRANCH  24  25
ENDBRANCH  23  24
ENDBRANCH  22  23
ENDBRANCH  21  22
ENDBRANCH  20  21
ENDBRANCH  19  20
ENDBRANCH  18  19
ENDBRANCH  17  18
ENDBRANCH   1  17
TORSDOF 26
ENDMDL
MODEL 8
REMARK VINA RESULT:    -2.863      8.940     11.428
REMARK INTER + INTRA:         -12.534
REMARK INTER:                  -7.269
REMARK INTRA:                  -5.265
REMARK UNBOUND:                -5.320
REMARK SMILES CCCCCCCCCCCCCCCCCCCCCCCCCCCC(=O)[O-]
REMARK SMILES IDX 15 1 16 2 17 3 18 4 19 5 20 6 21 7 22 8 23 9 24 10 25 11
REMARK SMILES IDX 26 12 27 13 28 14 29 15 30 16 14 17 13 18 12 19 11 20 10 21
REMARK SMILES IDX 9 22 8 23 7 24 6 25 5 26 4 27 3 28 2 29 1 30
REMARK H PARENT
REMARK Flexibility Score: inf
ROOT
ATOM      1  C   UNL     1      61.006  30.384  58.637  1.00  0.00     0.000 C 
ENDROOT
BRANCH   1   2
ATOM      2  C   UNL     1      61.225  31.427  59.745  1.00  0.00     0.000 C 
BRANCH   2   3
ATOM      3  C   UNL     1      60.753  30.930  61.122  1.00  0.00     0.000 C 
BRANCH   3   4
ATOM      4  C   UNL     1      61.775  29.989  61.785  1.00  0.00     0.000 C 
BRANCH   4   5
ATOM      5  C   UNL     1      63.220  30.254  61.310  1.00  0.00     0.000 C 
BRANCH   5   6
ATOM      6  C   UNL     1      63.911  29.025  60.691  1.00  0.00     0.000 C 
BRANCH   6   7
ATOM      7  C   UNL     1      63.115  27.709  60.784  1.00  0.00     0.000 C 
BRANCH   7   8
ATOM      8  C   UNL     1      62.664  27.124  59.431  1.00  0.00     0.000 C 
BRANCH   8   9
ATOM      9  C   UNL     1      61.163  26.790  59.334  1.00  0.00     0.000 C 
BRANCH   9  10
ATOM     10  C   UNL     1      60.465  26.637  60.703  1.00  0.00     0.000 C 
BRANCH  10  11
ATOM     11  C   UNL     1      59.225  27.534  60.900  1.00  0.00     0.000 C 
BRANCH  11  12
ATOM     12  C   UNL     1      57.927  26.794  61.289  1.00  0.00     0.006 C 
BRANCH  12  13
ATOM     13  C   UNL     1      56.715  27.108  60.400  1.00  0.00     0.053 C 
BRANCH  13  14
ATOM     14  C   UNL     1      55.755  28.047  61.064  1.00  0.00     0.041 C 
ATOM     15  O   UNL     1      54.815  28.565  60.405  1.00  0.00    -0.550 OA
ATOM     16  O   UNL     1      55.893  28.345  62.415  1.00  0.00    -0.550 OA
ENDBRANCH  13  14
ENDBRANCH  12  13
ENDBRANCH  11  12
ENDBRANCH  10  11
ENDBRANCH   9  10
ENDBRANCH   8   9
ENDBRANCH   7   8
ENDBRANCH   6   7
ENDBRANCH   5   6
ENDBRANCH   4   5
ENDBRANCH   3   4
ENDBRANCH   2   3
ENDBRANCH   1   2
BRANCH   1  17
ATOM     17  C   UNL     1      61.877  30.655  57.399  1.00  0.00     0.000 C 
BRANCH  17  18
ATOM     18  C   UNL     1      63.268  31.189  57.770  1.00  0.00     0.000 C 
BRANCH  18  19
ATOM     19  C   UNL     1      63.512  32.570  57.142  1.00  0.00     0.000 C 
BRANCH  19  20
ATOM     20  C   UNL     1      64.155  33.567  58.122  1.00  0.00     0.000 C 
BRANCH  20  21
ATOM     21  C   UNL     1      64.500  32.985  59.507  1.00  0.00     0.000 C 
BRANCH  21  22
ATOM     22  C   UNL     1      63.991  33.808  60.706  1.00  0.00    -0.000 C 
BRANCH  22  23
ATOM     23  C   UNL     1      62.637  34.514  60.487  1.00  0.00    -0.000 C 
BRANCH  23  24
ATOM     24  C   UNL     1      62.592  35.992  60.915  1.00  0.00    -0.000 C 
BRANCH  24  25
ATOM     25  C   UNL     1      62.044  36.920  59.815  1.00  0.00    -0.000 C 
BRANCH  25  26
ATOM     26  C   UNL     1      63.050  37.119  58.661  1.00  0.00    -0.000 C 
BRANCH  26  27
ATOM     27  C   UNL     1      62.497  36.737  57.276  1.00  0.00    -0.000 C 
BRANCH  27  28
ATOM     28  C   UNL     1      61.009  36.352  57.311  1.00  0.00    -0.000 C 
BRANCH  28  29
ATOM     29  C   UNL     1      60.773  34.875  56.965  1.00  0.00    -0.003 C 
ATOM     30  C   UNL     1      59.827  34.181  57.947  1.00  0.00     0.004 C 
ENDBRANCH  28  29
ENDBRANCH  27  28
ENDBRANCH  26  27
ENDBRANCH  25  26
ENDBRANCH  24  25
ENDBRANCH  23  24
ENDBRANCH  22  23
ENDBRANCH  21  22
ENDBRANCH  20  21
ENDBRANCH  19  20
ENDBRANCH  18  19
ENDBRANCH  17  18
ENDBRANCH   1  17
TORSDOF 26
ENDMDL
MODEL 9
REMARK VINA RESULT:    -2.818      8.377     10.998
REMARK INTER + INTRA:         -12.420
REMARK INTER:                  -6.662
REMARK INTRA:                  -5.758
REMARK UNBOUND:                -5.320
REMARK SMILES CCCCCCCCCCCCCCCCCCCCCCCCCCCC(=O)[O-]
REMARK SMILES IDX 15 1 16 2 17 3 18 4 19 5 20 6 21 7 22 8 23 9 24 10 25 11
REMARK SMILES IDX 26 12 27 13 28 14 29 15 30 16 14 17 13 18 12 19 11 20 10 21
REMARK SMILES IDX 9 22 8 23 7 24 6 25 5 26 4 27 3 28 2 29 1 30
REMARK H PARENT
REMARK Flexibility Score: inf
ROOT
ATOM      1  C   UNL     1      61.429  29.846  58.367  1.00  0.00     0.000 C 
ENDROOT
BRANCH   1   2
ATOM      2  C   UNL     1      61.365  30.865  59.517  1.00  0.00     0.000 C 
BRANCH   2   3
ATOM      3  C   UNL     1      61.164  30.194  60.887  1.00  0.00     0.000 C 
BRANCH   3   4
ATOM      4  C   UNL     1      62.489  30.012  61.649  1.00  0.00     0.000 C 
BRANCH   4   5
ATOM      5  C   UNL     1      63.577  31.006  61.191  1.00  0.00     0.000 C 
BRANCH   5   6
ATOM      6  C   UNL     1      64.811  30.337  60.556  1.00  0.00     0.000 C 
BRANCH   6   7
ATOM      7  C   UNL     1      64.812  28.796  60.592  1.00  0.00     0.000 C 
BRANCH   7   8
ATOM      8  C   UNL     1      64.583  28.113  59.230  1.00  0.00     0.000 C 
BRANCH   8   9
ATOM      9  C   UNL     1      63.774  26.803  59.286  1.00  0.00     0.000 C 
BRANCH   9  10
ATOM     10  C   UNL     1      63.050  26.571  60.631  1.00  0.00     0.000 C 
BRANCH  10  11
ATOM     11  C   UNL     1      61.706  25.821  60.519  1.00  0.00     0.000 C 
BRANCH  11  12
ATOM     12  C   UNL     1      60.491  26.693  60.136  1.00  0.00     0.006 C 
BRANCH  12  13
ATOM     13  C   UNL     1      59.424  26.832  61.233  1.00  0.00     0.053 C 
BRANCH  13  14
ATOM     14  C   UNL     1      58.300  27.730  60.816  1.00  0.00     0.041 C 
ATOM     15  O   UNL     1      58.351  28.342  59.717  1.00  0.00    -0.550 OA
ATOM     16  O   UNL     1      57.189  27.883  61.638  1.00  0.00    -0.550 OA
ENDBRANCH  13  14
ENDBRANCH  12  13
ENDBRANCH  11  12
ENDBRANCH  10  11
ENDBRANCH   9  10
ENDBRANCH   8   9
ENDBRANCH   7   8
ENDBRANCH   6   7
ENDBRANCH   5   6
ENDBRANCH   4   5
ENDBRANCH   3   4
ENDBRANCH   2   3
ENDBRANCH   1   2
BRANCH   1  17
ATOM     17  C   UNL     1      62.141  30.409  57.127  1.00  0.00     0.000 C 
BRANCH  17  18
ATOM     18  C   UNL     1      63.167  31.494  57.485  1.00  0.00     0.000 C 
BRANCH  18  19
ATOM     19  C   UNL     1      62.837  32.818  56.780  1.00  0.00     0.000 C 
BRANCH  19  20
ATOM     20  C   UNL     1      63.329  34.050  57.559  1.00  0.00     0.000 C 
BRANCH  20  21
ATOM     21  C   UNL     1      63.917  33.744  58.951  1.00  0.00     0.000 C 
BRANCH  21  22
ATOM     22  C   UNL     1      63.313  34.563  60.108  1.00  0.00    -0.000 C 
BRANCH  22  23
ATOM     23  C   UNL     1      61.773  34.539  60.192  1.00  0.00    -0.000 C 
BRANCH  23  24
ATOM     24  C   UNL     1      61.112  35.900  60.479  1.00  0.00    -0.000 C 
BRANCH  24  25
ATOM     25  C   UNL     1      59.985  36.242  59.487  1.00  0.00    -0.000 C 
BRANCH  25  26
ATOM     26  C   UNL     1      60.507  36.418  58.044  1.00  0.00    -0.000 C 
BRANCH  26  27
ATOM     27  C   UNL     1      59.909  35.420  57.037  1.00  0.00    -0.000 C 
BRANCH  27  28
ATOM     28  C   UNL     1      58.861  34.489  57.667  1.00  0.00    -0.000 C 
BRANCH  28  29
ATOM     29  C   UNL     1      59.334  33.028  57.737  1.00  0.00    -0.003 C 
ATOM     30  C   UNL     1      58.201  32.028  57.502  1.00  0.00     0.004 C 
ENDBRANCH  28  29
ENDBRANCH  27  28
ENDBRANCH  26  27
ENDBRANCH  25  26
ENDBRANCH  24  25
ENDBRANCH  23  24
ENDBRANCH  22  23
ENDBRANCH  21  22
ENDBRANCH  20  21
ENDBRANCH  19  20
ENDBRANCH  18  19
ENDBRANCH  17  18
ENDBRANCH   1  17
TORSDOF 26
ENDMDL
