MODEL 1
REMARK VINA RESULT:    -4.391      0.000      0.000
REMARK INTER + INTRA:          -6.689
REMARK INTER:                  -5.931
REMARK INTRA:                  -0.758
REMARK UNBOUND:                -0.758
REMARK SMILES CCCCCCC=CC(=O)[O-]
REMARK SMILES IDX 5 1 6 2 7 3 8 4 9 5 10 6 11 7 4 8 3 9 2 10 1 11
REMARK H PARENT
REMARK Flexibility Score: inf
ROOT
ATOM      1  C   UNL     1      -4.615 -24.589  49.696  1.00  0.00     0.004 C 
ENDROOT
BRANCH   1   2
ATOM      2  C   UNL     1      -5.532 -24.069  48.580  1.00  0.00     0.027 C 
BRANCH   2   3
ATOM      3  C   UNL     1      -5.399 -22.585  48.374  1.00  0.00    -0.025 C 
ATOM      4  C   UNL     1      -5.659 -21.717  49.356  1.00  0.00     0.020 C 
BRANCH   4   5
ATOM      5  C   UNL     1      -5.526 -20.265  49.169  1.00  0.00     0.064 C 
ATOM      6  O   UNL     1      -6.013 -19.723  48.142  1.00  0.00    -0.545 OA
ATOM      7  O   UNL     1      -4.868 -19.478  50.108  1.00  0.00    -0.545 OA
ENDBRANCH   4   5
ENDBRANCH   2   3
ENDBRANCH   1   2
BRANCH   1   8
ATOM      8  C   UNL     1      -3.128 -24.434  49.343  1.00  0.00     0.000 C 
BRANCH   8   9
ATOM      9  C   UNL     1      -2.336 -23.872  50.530  1.00  0.00    -0.000 C 
BRANCH   9  10
ATOM     10  C   UNL     1      -2.287 -22.341  50.484  1.00  0.00    -0.003 C 
ATOM     11  C   UNL     1      -1.848 -21.844  49.110  1.00  0.00     0.004 C 
ENDBRANCH   9  10
ENDBRANCH   8   9
ENDBRANCH   1   8
TORSDOF 6
ENDMDL
MODEL 2
REMARK VINA RESULT:    -4.332      2.734      4.278
REMARK INTER + INTRA:          -6.609
REMARK INTER:                  -5.972
REMARK INTRA:                  -0.637
REMARK UNBOUND:                -0.758
REMARK SMILES CCCCCCC=CC(=O)[O-]
REMARK SMILES IDX 5 1 6 2 7 3 8 4 9 5 10 6 11 7 4 8 3 9 2 10 1 11
REMARK H PARENT
REMARK Flexibility Score: inf
ROOT
ATOM      1  C   UNL     1      -5.611 -23.784  48.625  1.00  0.00     0.004 C 
ENDROOT
BRANCH   1   2
ATOM      2  C   UNL     1      -4.758 -24.413  49.737  1.00  0.00     0.027 C 
BRANCH   2   3
ATOM      3  C   UNL     1      -3.285 -24.208  49.515  1.00  0.00    -0.025 C 
ATOM      4  C   UNL     1      -2.498 -23.702  50.470  1.00  0.00     0.020 C 
BRANCH   4   5
ATOM      5  C   UNL     1      -1.056 -23.502  50.268  1.00  0.00     0.064 C 
ATOM      6  O   UNL     1      -0.238 -24.011  51.080  1.00  0.00    -0.545 OA
ATOM      7  O   UNL     1      -0.579 -22.759  49.194  1.00  0.00    -0.545 OA
ENDBRANCH   4   5
ENDBRANCH   2   3
ENDBRANCH   1   2
BRANCH   1   8
ATOM      8  C   UNL     1      -5.156 -22.356  48.285  1.00  0.00     0.000 C 
BRANCH   8   9
ATOM      9  C   UNL     1      -5.669 -21.354  49.326  1.00  0.00    -0.000 C 
BRANCH   9  10
ATOM     10  C   UNL     1      -4.574 -20.353  49.712  1.00  0.00    -0.003 C 
ATOM     11  C   UNL     1      -4.304 -20.383  51.213  1.00  0.00     0.004 C 
ENDBRANCH   9  10
ENDBRANCH   8   9
ENDBRANCH   1   8
TORSDOF 6
ENDMDL
MODEL 3
REMARK VINA RESULT:    -4.306      1.246      2.985
REMARK INTER + INTRA:          -6.575
REMARK INTER:                  -5.928
REMARK INTRA:                  -0.647
REMARK UNBOUND:                -0.758
REMARK SMILES CCCCCCC=CC(=O)[O-]
REMARK SMILES IDX 5 1 6 2 7 3 8 4 9 5 10 6 11 7 4 8 3 9 2 10 1 11
REMARK H PARENT
REMARK Flexibility Score: inf
ROOT
ATOM      1  C   UNL     1      -2.418 -23.905  50.566  1.00  0.00     0.004 C 
ENDROOT
BRANCH   1   2
ATOM      2  C   UNL     1      -1.834 -22.500  50.357  1.00  0.00     0.027 C 
BRANCH   2   3
ATOM      3  C   UNL     1      -2.897 -21.475  50.067  1.00  0.00    -0.025 C 
ATOM      4  C   UNL     1      -3.653 -20.959  51.040  1.00  0.00     0.020 C 
BRANCH   4   5
ATOM      5  C   UNL     1      -4.690 -19.952  50.770  1.00  0.00     0.064 C 
ATOM      6  O   UNL     1      -4.706 -18.882  51.434  1.00  0.00    -0.545 OA
ATOM      7  O   UNL     1      -5.656 -20.162  49.792  1.00  0.00    -0.545 OA
ENDBRANCH   4   5
ENDBRANCH   2   3
ENDBRANCH   1   2
BRANCH   1   8
ATOM      8  C   UNL     1      -3.205 -24.393  49.340  1.00  0.00     0.000 C 
BRANCH   8   9
ATOM      9  C   UNL     1      -4.680 -24.624  49.690  1.00  0.00    -0.000 C 
BRANCH   9  10
ATOM     10  C   UNL     1      -5.600 -23.998  48.637  1.00  0.00    -0.003 C 
ATOM     11  C   UNL     1      -4.796 -23.274  47.562  1.00  0.00     0.004 C 
ENDBRANCH   9  10
ENDBRANCH   8   9
ENDBRANCH   1   8
TORSDOF 6
ENDMDL
MODEL 4
REMARK VINA RESULT:    -4.206      1.290      2.030
REMARK INTER + INTRA:          -6.439
REMARK INTER:                  -5.839
REMARK INTRA:                  -0.600
REMARK UNBOUND:                -0.758
REMARK SMILES CCCCCCC=CC(=O)[O-]
REMARK SMILES IDX 5 1 6 2 7 3 8 4 9 5 10 6 11 7 4 8 3 9 2 10 1 11
REMARK H PARENT
REMARK Flexibility Score: inf
ROOT
ATOM      1  C   UNL     1      -4.197 -24.562  47.136  1.00  0.00     0.004 C 
ENDROOT
BRANCH   1   2
ATOM      2  C   UNL     1      -5.035 -24.527  48.423  1.00  0.00     0.027 C 
BRANCH   2   3
ATOM      3  C   UNL     1      -5.655 -23.179  48.666  1.00  0.00    -0.025 C 
ATOM      4  C   UNL     1      -5.041 -22.251  49.407  1.00  0.00     0.020 C 
BRANCH   4   5
ATOM      5  C   UNL     1      -5.633 -20.927  49.647  1.00  0.00     0.064 C 
ATOM      6  O   UNL     1      -5.237 -20.236  50.622  1.00  0.00    -0.545 OA
ATOM      7  O   UNL     1      -6.627 -20.425  48.814  1.00  0.00    -0.545 OA
ENDBRANCH   4   5
ENDBRANCH   2   3
ENDBRANCH   1   2
BRANCH   1   8
ATOM      8  C   UNL     1      -2.704 -24.326  47.411  1.00  0.00     0.000 C 
BRANCH   8   9
ATOM      9  C   UNL     1      -2.179 -25.300  48.472  1.00  0.00    -0.000 C 
BRANCH   9  10
ATOM     10  C   UNL     1      -1.196 -24.604  49.420  1.00  0.00    -0.003 C 
ATOM     11  C   UNL     1      -1.934 -23.833  50.510  1.00  0.00     0.004 C 
ENDBRANCH   9  10
ENDBRANCH   8   9
ENDBRANCH   1   8
TORSDOF 6
ENDMDL
MODEL 5
REMARK VINA RESULT:    -4.174      3.104      4.731
REMARK INTER + INTRA:          -6.396
REMARK INTER:                  -5.685
REMARK INTRA:                  -0.711
REMARK UNBOUND:                -0.758
REMARK SMILES CCCCCCC=CC(=O)[O-]
REMARK SMILES IDX 5 1 6 2 7 3 8 4 9 5 10 6 11 7 4 8 3 9 2 10 1 11
REMARK H PARENT
REMARK Flexibility Score: inf
ROOT
ATOM      1  C   UNL     1      -3.466 -25.170  46.564  1.00  0.00     0.004 C 
ENDROOT
BRANCH   1   2
ATOM      2  C   UNL     1      -2.177 -25.647  47.249  1.00  0.00     0.027 C 
BRANCH   2   3
ATOM      3  C   UNL     1      -1.526 -24.563  48.064  1.00  0.00    -0.025 C 
ATOM      4  C   UNL     1      -1.177 -24.762  49.339  1.00  0.00     0.020 C 
BRANCH   4   5
ATOM      5  C   UNL     1      -0.533 -23.713  50.143  1.00  0.00     0.064 C 
ATOM      6  O   UNL     1      -0.029 -24.007  51.259  1.00  0.00    -0.545 OA
ATOM      7  O   UNL     1      -0.475 -22.399  49.693  1.00  0.00    -0.545 OA
ENDBRANCH   4   5
ENDBRANCH   2   3
ENDBRANCH   1   2
BRANCH   1   8
ATOM      8  C   UNL     1      -4.124 -24.003  47.317  1.00  0.00     0.000 C 
BRANCH   8   9
ATOM      9  C   UNL     1      -5.300 -24.493  48.170  1.00  0.00    -0.000 C 
BRANCH   9  10
ATOM     10  C   UNL     1      -4.941 -24.481  49.660  1.00  0.00    -0.003 C 
ATOM     11  C   UNL     1      -4.348 -23.138  50.074  1.00  0.00     0.004 C 
ENDBRANCH   9  10
ENDBRANCH   8   9
ENDBRANCH   1   8
TORSDOF 6
ENDMDL
MODEL 6
REMARK VINA RESULT:    -4.141     11.419     13.049
REMARK INTER + INTRA:          -6.351
REMARK INTER:                  -5.635
REMARK INTRA:                  -0.717
REMARK UNBOUND:                -0.758
REMARK SMILES CCCCCCC=CC(=O)[O-]
REMARK SMILES IDX 5 1 6 2 7 3 8 4 9 5 10 6 11 7 4 8 3 9 2 10 1 11
REMARK H PARENT
REMARK Flexibility Score: inf
ROOT
ATOM      1  C   UNL     1      -8.980 -11.029  51.495  1.00  0.00     0.004 C 
ENDROOT
BRANCH   1   2
ATOM      2  C   UNL     1      -9.027  -9.903  52.538  1.00  0.00     0.027 C 
BRANCH   2   3
ATOM      3  C   UNL     1      -8.981 -10.425  53.948  1.00  0.00    -0.025 C 
ATOM      4  C   UNL     1      -8.185  -9.875  54.870  1.00  0.00     0.020 C 
BRANCH   4   5
ATOM      5  C   UNL     1      -8.136 -10.372  56.253  1.00  0.00     0.064 C 
ATOM      6  O   UNL     1      -7.073 -10.887  56.692  1.00  0.00    -0.545 OA
ATOM      7  O   UNL     1      -9.245 -10.283  57.087  1.00  0.00    -0.545 OA
ENDBRANCH   4   5
ENDBRANCH   2   3
ENDBRANCH   1   2
BRANCH   1   8
ATOM      8  C   UNL     1      -7.585 -11.180  50.869  1.00  0.00     0.000 C 
BRANCH   8   9
ATOM      9  C   UNL     1      -6.769 -12.256  51.594  1.00  0.00    -0.000 C 
BRANCH   9  10
ATOM     10  C   UNL     1      -5.710 -11.625  52.504  1.00  0.00    -0.003 C 
ATOM     11  C   UNL     1      -5.587 -12.386  53.819  1.00  0.00     0.004 C 
ENDBRANCH   9  10
ENDBRANCH   8   9
ENDBRANCH   1   8
TORSDOF 6
ENDMDL
MODEL 7
REMARK VINA RESULT:    -4.116      2.825      4.139
REMARK INTER + INTRA:          -6.318
REMARK INTER:                  -5.601
REMARK INTRA:                  -0.717
REMARK UNBOUND:                -0.758
REMARK SMILES CCCCCCC=CC(=O)[O-]
REMARK SMILES IDX 5 1 6 2 7 3 8 4 9 5 10 6 11 7 4 8 3 9 2 10 1 11
REMARK H PARENT
REMARK Flexibility Score: inf
ROOT
ATOM      1  C   UNL     1      -5.295 -24.265  48.322  1.00  0.00     0.004 C 
ENDROOT
BRANCH   1   2
ATOM      2  C   UNL     1      -4.731 -24.527  49.726  1.00  0.00     0.027 C 
BRANCH   2   3
ATOM      3  C   UNL     1      -3.230 -24.428  49.769  1.00  0.00    -0.025 C 
ATOM      4  C   UNL     1      -2.612 -23.515  50.525  1.00  0.00     0.020 C 
BRANCH   4   5
ATOM      5  C   UNL     1      -1.147 -23.412  50.581  1.00  0.00     0.064 C 
ATOM      6  O   UNL     1      -0.443 -24.437  50.379  1.00  0.00    -0.545 OA
ATOM      7  O   UNL     1      -0.523 -22.200  50.855  1.00  0.00    -0.545 OA
ENDBRANCH   4   5
ENDBRANCH   2   3
ENDBRANCH   1   2
BRANCH   1   8
ATOM      8  C   UNL     1      -5.271 -22.773  47.957  1.00  0.00     0.000 C 
BRANCH   8   9
ATOM      9  C   UNL     1      -4.242 -22.492  46.856  1.00  0.00    -0.000 C 
BRANCH   9  10
ATOM     10  C   UNL     1      -3.179 -21.497  47.337  1.00  0.00    -0.003 C 
ATOM     11  C   UNL     1      -1.772 -22.049  47.126  1.00  0.00     0.004 C 
ENDBRANCH   9  10
ENDBRANCH   8   9
ENDBRANCH   1   8
TORSDOF 6
ENDMDL
MODEL 8
REMARK VINA RESULT:    -4.080     11.524     13.197
REMARK INTER + INTRA:          -6.269
REMARK INTER:                  -5.690
REMARK INTRA:                  -0.579
REMARK UNBOUND:                -0.758
REMARK SMILES CCCCCCC=CC(=O)[O-]
REMARK SMILES IDX 5 1 6 2 7 3 8 4 9 5 10 6 11 7 4 8 3 9 2 10 1 11
REMARK H PARENT
REMARK Flexibility Score: inf
ROOT
ATOM      1  C   UNL     1      -5.516 -11.632  53.380  1.00  0.00     0.004 C 
ENDROOT
BRANCH   1   2
ATOM      2  C   UNL     1      -5.536 -10.361  54.243  1.00  0.00     0.027 C 
BRANCH   2   3
ATOM      3  C   UNL     1      -6.922 -10.008  54.709  1.00  0.00    -0.025 C 
ATOM      4  C   UNL     1      -7.570 -10.758  55.605  1.00  0.00     0.020 C 
BRANCH   4   5
ATOM      5  C   UNL     1      -8.921 -10.419  56.074  1.00  0.00     0.064 C 
ATOM      6  O   UNL     1      -9.232 -10.625  57.277  1.00  0.00    -0.545 OA
ATOM      7  O   UNL     1      -9.865  -9.875  55.209  1.00  0.00    -0.545 OA
ENDBRANCH   4   5
ENDBRANCH   2   3
ENDBRANCH   1   2
BRANCH   1   8
ATOM      8  C   UNL     1      -6.026 -11.372  51.954  1.00  0.00     0.000 C 
BRANCH   8   9
ATOM      9  C   UNL     1      -7.106 -12.388  51.563  1.00  0.00    -0.000 C 
BRANCH   9  10
ATOM     10  C   UNL     1      -8.281 -11.700  50.860  1.00  0.00    -0.003 C 
ATOM     11  C   UNL     1      -8.729 -10.457  51.622  1.00  0.00     0.004 C 
ENDBRANCH   9  10
ENDBRANCH   8   9
ENDBRANCH   1   8
TORSDOF 6
ENDMDL
MODEL 9
REMARK VINA RESULT:    -3.968     11.025     12.605
REMARK INTER + INTRA:          -6.117
REMARK INTER:                  -5.611
REMARK INTRA:                  -0.506
REMARK UNBOUND:                -0.758
REMARK SMILES CCCCCCC=CC(=O)[O-]
REMARK SMILES IDX 5 1 6 2 7 3 8 4 9 5 10 6 11 7 4 8 3 9 2 10 1 11
REMARK H PARENT
REMARK Flexibility Score: inf
ROOT
ATOM      1  C   UNL     1      -5.259 -10.823  53.863  1.00  0.00     0.004 C 
ENDROOT
BRANCH   1   2
ATOM      2  C   UNL     1      -5.692 -12.253  53.506  1.00  0.00     0.027 C 
BRANCH   2   3
ATOM      3  C   UNL     1      -6.959 -12.283  52.696  1.00  0.00    -0.025 C 
ATOM      4  C   UNL     1      -7.045 -11.670  51.512  1.00  0.00     0.020 C 
BRANCH   4   5
ATOM      5  C   UNL     1      -8.275 -11.698  50.707  1.00  0.00     0.064 C 
ATOM      6  O   UNL     1      -9.361 -11.318  51.219  1.00  0.00    -0.545 OA
ATOM      7  O   UNL     1      -8.260 -12.139  49.389  1.00  0.00    -0.545 OA
ENDBRANCH   4   5
ENDBRANCH   2   3
ENDBRANCH   1   2
BRANCH   1   8
ATOM      8  C   UNL     1      -6.364 -10.050  54.600  1.00  0.00     0.000 C 
BRANCH   8   9
ATOM      9  C   UNL     1      -6.709 -10.722  55.934  1.00  0.00    -0.000 C 
BRANCH   9  10
ATOM     10  C   UNL     1      -8.209 -10.623  56.229  1.00  0.00    -0.003 C 
ATOM     11  C   UNL     1      -8.941  -9.875  55.119  1.00  0.00     0.004 C 
ENDBRANCH   9  10
ENDBRANCH   8   9
ENDBRANCH   1   8
TORSDOF 6
ENDMDL
