MODEL 1
REMARK VINA RESULT:    -3.991      0.000      0.000
REMARK INTER + INTRA:          -4.874
REMARK INTER:                  -4.807
REMARK INTRA:                  -0.067
REMARK UNBOUND:                -0.067
REMARK SMILES CC[C@H](C)[C@@H]([NH3+])C(=O)[O-]
REMARK SMILES IDX 3 1 4 2 5 3 6 4 7 8 8 9 9 10 2 11 1 12
REMARK H PARENT 6 5 6 6 6 7
REMARK Flexibility Score: inf
ROOT
ATOM      1  C   UNL     1      27.397   3.655   9.489  1.00  0.00     0.050 C 
ATOM      2  C   UNL     1      25.949   4.174   9.564  1.00  0.00     0.014 C 
ENDROOT
BRANCH   1   3
ATOM      3  C   UNL     1      28.450   4.742   9.868  1.00  0.00     0.230 C 
BRANCH   3   4
ATOM      4  N   UNL     1      28.033   6.101   9.487  1.00  0.00    -0.350 N 
ATOM      5  H   UNL     1      27.893   6.677  10.349  1.00  0.00     0.345 HD
ATOM      6  H   UNL     1      28.776   6.564   8.917  1.00  0.00     0.345 HD
ATOM      7  H   UNL     1      27.138   6.090   8.946  1.00  0.00     0.345 HD
ENDBRANCH   3   4
BRANCH   3   8
ATOM      8  C   UNL     1      28.800   4.673  11.335  1.00  0.00     0.099 C 
ATOM      9  O   UNL     1      28.760   5.703  12.060  1.00  0.00    -0.544 OA
ATOM     10  O   UNL     1      29.125   3.450  11.908  1.00  0.00    -0.544 OA
ENDBRANCH   3   8
ENDBRANCH   1   3
BRANCH   1  11
ATOM     11  C   UNL     1      27.701   3.042   8.098  1.00  0.00     0.006 C 
ATOM     12  C   UNL     1      27.799   1.516   8.132  1.00  0.00     0.004 C 
ENDBRANCH   1  11
TORSDOF 4
ENDMDL
MODEL 2
REMARK VINA RESULT:    -3.894      2.376      3.440
REMARK INTER + INTRA:          -4.758
REMARK INTER:                  -4.654
REMARK INTRA:                  -0.104
REMARK UNBOUND:                -0.067
REMARK SMILES CC[C@H](C)[C@@H]([NH3+])C(=O)[O-]
REMARK SMILES IDX 3 1 4 2 5 3 6 4 7 8 8 9 9 10 2 11 1 12
REMARK H PARENT 6 5 6 6 6 7
REMARK Flexibility Score: inf
ROOT
ATOM      1  C   UNL     1      27.608   4.164  10.332  1.00  0.00     0.050 C 
ATOM      2  C   UNL     1      28.020   3.592   8.962  1.00  0.00     0.014 C 
ENDROOT
BRANCH   1   3
ATOM      3  C   UNL     1      27.134   5.648  10.250  1.00  0.00     0.230 C 
BRANCH   3   4
ATOM      4  N   UNL     1      27.678   6.360   9.083  1.00  0.00    -0.350 N 
ATOM      5  H   UNL     1      27.091   6.153   8.243  1.00  0.00     0.345 HD
ATOM      6  H   UNL     1      27.649   7.393   9.241  1.00  0.00     0.345 HD
ATOM      7  H   UNL     1      28.662   6.068   8.882  1.00  0.00     0.345 HD
ENDBRANCH   3   4
BRANCH   3   8
ATOM      8  C   UNL     1      25.627   5.740  10.288  1.00  0.00     0.099 C 
ATOM      9  O   UNL     1      25.031   6.777   9.888  1.00  0.00    -0.544 OA
ATOM     10  O   UNL     1      24.882   4.653  10.724  1.00  0.00    -0.544 OA
ENDBRANCH   3   8
ENDBRANCH   1   3
BRANCH   1  11
ATOM     11  C   UNL     1      28.743   3.995  11.374  1.00  0.00     0.006 C 
ATOM     12  C   UNL     1      29.041   5.286  12.139  1.00  0.00     0.004 C 
ENDBRANCH   1  11
TORSDOF 4
ENDMDL
MODEL 3
REMARK VINA RESULT:    -3.858      3.260      3.874
REMARK INTER + INTRA:          -4.715
REMARK INTER:                  -4.636
REMARK INTRA:                  -0.079
REMARK UNBOUND:                -0.067
REMARK SMILES CC[C@H](C)[C@@H]([NH3+])C(=O)[O-]
REMARK SMILES IDX 3 1 4 2 5 3 6 4 7 8 8 9 9 10 2 11 1 12
REMARK H PARENT 6 5 6 6 6 7
REMARK Flexibility Score: inf
ROOT
ATOM      1  C   UNL     1      27.030   5.625  10.611  1.00  0.00     0.050 C 
ATOM      2  C   UNL     1      26.187   4.335  10.617  1.00  0.00     0.014 C 
ENDROOT
BRANCH   1   3
ATOM      3  C   UNL     1      27.259   6.190   9.174  1.00  0.00     0.230 C 
BRANCH   3   4
ATOM      4  N   UNL     1      27.243   5.145   8.138  1.00  0.00    -0.350 N 
ATOM      5  H   UNL     1      26.370   5.231   7.569  1.00  0.00     0.345 HD
ATOM      6  H   UNL     1      28.054   5.264   7.490  1.00  0.00     0.345 HD
ATOM      7  H   UNL     1      27.273   4.189   8.558  1.00  0.00     0.345 HD
ENDBRANCH   3   4
BRANCH   3   8
ATOM      8  C   UNL     1      26.268   7.285   8.856  1.00  0.00     0.099 C 
ATOM      9  O   UNL     1      25.301   7.527   9.627  1.00  0.00    -0.544 OA
ATOM     10  O   UNL     1      26.450   8.068   7.724  1.00  0.00    -0.544 OA
ENDBRANCH   3   8
ENDBRANCH   1   3
BRANCH   1  11
ATOM     11  C   UNL     1      28.375   5.419  11.352  1.00  0.00     0.006 C 
ATOM     12  C   UNL     1      28.769   3.945  11.465  1.00  0.00     0.004 C 
ENDBRANCH   1  11
TORSDOF 4
ENDMDL
MODEL 4
REMARK VINA RESULT:    -3.811      2.782      3.807
REMARK INTER + INTRA:          -4.658
REMARK INTER:                  -4.540
REMARK INTRA:                  -0.118
REMARK UNBOUND:                -0.067
REMARK SMILES CC[C@H](C)[C@@H]([NH3+])C(=O)[O-]
REMARK SMILES IDX 3 1 4 2 5 3 6 4 7 8 8 9 9 10 2 11 1 12
REMARK H PARENT 6 5 6 6 6 7
REMARK Flexibility Score: inf
ROOT
ATOM      1  C   UNL     1      27.659   5.270   9.728  1.00  0.00     0.050 C 
ATOM      2  C   UNL     1      26.599   6.387   9.673  1.00  0.00     0.014 C 
ENDROOT
BRANCH   1   3
ATOM      3  C   UNL     1      27.067   3.859   9.428  1.00  0.00     0.230 C 
BRANCH   3   4
ATOM      4  N   UNL     1      25.636   3.755   9.757  1.00  0.00    -0.350 N 
ATOM      5  H   UNL     1      25.521   3.226  10.652  1.00  0.00     0.345 HD
ATOM      6  H   UNL     1      25.226   4.706   9.899  1.00  0.00     0.345 HD
ATOM      7  H   UNL     1      25.105   3.258   9.006  1.00  0.00     0.345 HD
ENDBRANCH   3   4
BRANCH   3   8
ATOM      8  C   UNL     1      27.324   3.454   7.996  1.00  0.00     0.099 C 
ATOM      9  O   UNL     1      27.997   2.423   7.725  1.00  0.00    -0.544 OA
ATOM     10  O   UNL     1      26.774   4.200   6.961  1.00  0.00    -0.544 OA
ENDBRANCH   3   8
ENDBRANCH   1   3
BRANCH   1  11
ATOM     11  C   UNL     1      28.417   5.283  11.080  1.00  0.00     0.006 C 
ATOM     12  C   UNL     1      28.860   3.888  11.524  1.00  0.00     0.004 C 
ENDBRANCH   1  11
TORSDOF 4
ENDMDL
MODEL 5
REMARK VINA RESULT:    -3.810      1.761      3.073
REMARK INTER + INTRA:          -4.657
REMARK INTER:                  -4.591
REMARK INTRA:                  -0.066
REMARK UNBOUND:                -0.067
REMARK SMILES CC[C@H](C)[C@@H]([NH3+])C(=O)[O-]
REMARK SMILES IDX 3 1 4 2 5 3 6 4 7 8 8 9 9 10 2 11 1 12
REMARK H PARENT 6 5 6 6 6 7
REMARK Flexibility Score: inf
ROOT
ATOM      1  C   UNL     1      26.619   5.592  10.448  1.00  0.00     0.050 C 
ATOM      2  C   UNL     1      26.672   6.608   9.290  1.00  0.00     0.014 C 
ENDROOT
BRANCH   1   3
ATOM      3  C   UNL     1      27.688   4.464  10.311  1.00  0.00     0.230 C 
BRANCH   3   4
ATOM      4  N   UNL     1      28.456   4.550   9.059  1.00  0.00    -0.350 N 
ATOM      5  H   UNL     1      29.236   3.853   9.079  1.00  0.00     0.345 HD
ATOM      6  H   UNL     1      27.847   4.318   8.242  1.00  0.00     0.345 HD
ATOM      7  H   UNL     1      28.866   5.502   8.926  1.00  0.00     0.345 HD
ENDBRANCH   3   4
BRANCH   3   8
ATOM      8  C   UNL     1      28.605   4.436  11.510  1.00  0.00     0.099 C 
ATOM      9  O   UNL     1      29.125   3.357  11.904  1.00  0.00    -0.544 OA
ATOM     10  O   UNL     1      28.921   5.621  12.162  1.00  0.00    -0.544 OA
ENDBRANCH   3   8
ENDBRANCH   1   3
BRANCH   1  11
ATOM     11  C   UNL     1      25.196   4.999  10.607  1.00  0.00     0.006 C 
ATOM     12  C   UNL     1      24.248   5.930  11.364  1.00  0.00     0.004 C 
ENDBRANCH   1  11
TORSDOF 4
ENDMDL
MODEL 6
REMARK VINA RESULT:    -3.642      2.909      4.022
REMARK INTER + INTRA:          -4.454
REMARK INTER:                  -4.362
REMARK INTRA:                  -0.092
REMARK UNBOUND:                -0.067
REMARK SMILES CC[C@H](C)[C@@H]([NH3+])C(=O)[O-]
REMARK SMILES IDX 3 1 4 2 5 3 6 4 7 8 8 9 9 10 2 11 1 12
REMARK H PARENT 6 5 6 6 6 7
REMARK Flexibility Score: inf
ROOT
ATOM      1  C   UNL     1      27.646   3.994  10.697  1.00  0.00     0.050 C 
ATOM      2  C   UNL     1      28.647   2.994  11.308  1.00  0.00     0.014 C 
ENDROOT
BRANCH   1   3
ATOM      3  C   UNL     1      27.403   3.752   9.175  1.00  0.00     0.230 C 
BRANCH   3   4
ATOM      4  N   UNL     1      27.153   2.339   8.852  1.00  0.00    -0.350 N 
ATOM      5  H   UNL     1      28.065   1.831   8.776  1.00  0.00     0.345 HD
ATOM      6  H   UNL     1      26.602   1.883   9.613  1.00  0.00     0.345 HD
ATOM      7  H   UNL     1      26.641   2.238   7.945  1.00  0.00     0.345 HD
ENDBRANCH   3   4
BRANCH   3   8
ATOM      8  C   UNL     1      26.292   4.633   8.655  1.00  0.00     0.099 C 
ATOM      9  O   UNL     1      25.119   4.530   9.106  1.00  0.00    -0.544 OA
ATOM     10  O   UNL     1      26.572   5.602   7.700  1.00  0.00    -0.544 OA
ENDBRANCH   3   8
ENDBRANCH   1   3
BRANCH   1  11
ATOM     11  C   UNL     1      28.079   5.457  10.970  1.00  0.00     0.006 C 
ATOM     12  C   UNL     1      28.994   5.586  12.188  1.00  0.00     0.004 C 
ENDBRANCH   1  11
TORSDOF 4
ENDMDL
MODEL 7
REMARK VINA RESULT:    -3.610      2.329      3.084
REMARK INTER + INTRA:          -4.415
REMARK INTER:                  -4.374
REMARK INTRA:                  -0.041
REMARK UNBOUND:                -0.067
REMARK SMILES CC[C@H](C)[C@@H]([NH3+])C(=O)[O-]
REMARK SMILES IDX 3 1 4 2 5 3 6 4 7 8 8 9 9 10 2 11 1 12
REMARK H PARENT 6 5 6 6 6 7
REMARK Flexibility Score: inf
ROOT
ATOM      1  C   UNL     1      28.161   5.143  10.085  1.00  0.00     0.050 C 
ATOM      2  C   UNL     1      28.681   5.242  11.532  1.00  0.00     0.014 C 
ENDROOT
BRANCH   1   3
ATOM      3  C   UNL     1      27.126   6.258   9.737  1.00  0.00     0.230 C 
BRANCH   3   4
ATOM      4  N   UNL     1      27.317   6.818   8.390  1.00  0.00    -0.350 N 
ATOM      5  H   UNL     1      28.298   7.170   8.294  1.00  0.00     0.345 HD
ATOM      6  H   UNL     1      27.175   6.079   7.665  1.00  0.00     0.345 HD
ATOM      7  H   UNL     1      26.661   7.612   8.208  1.00  0.00     0.345 HD
ENDBRANCH   3   4
BRANCH   3   8
ATOM      8  C   UNL     1      25.711   5.764   9.924  1.00  0.00     0.099 C 
ATOM      9  O   UNL     1      25.191   5.707  11.070  1.00  0.00    -0.544 OA
ATOM     10  O   UNL     1      24.955   5.411   8.814  1.00  0.00    -0.544 OA
ENDBRANCH   3   8
ENDBRANCH   1   3
BRANCH   1  11
ATOM     11  C   UNL     1      27.585   3.734   9.791  1.00  0.00     0.006 C 
ATOM     12  C   UNL     1      27.921   3.240   8.383  1.00  0.00     0.004 C 
ENDBRANCH   1  11
TORSDOF 4
ENDMDL
MODEL 8
REMARK VINA RESULT:    -3.585      9.922     10.736
REMARK INTER + INTRA:          -4.386
REMARK INTER:                  -4.309
REMARK INTRA:                  -0.077
REMARK UNBOUND:                -0.067
REMARK SMILES CC[C@H](C)[C@@H]([NH3+])C(=O)[O-]
REMARK SMILES IDX 3 1 4 2 5 3 6 4 7 8 8 9 9 10 2 11 1 12
REMARK H PARENT 6 5 6 6 6 7
REMARK Flexibility Score: inf
ROOT
ATOM      1  C   UNL     1      23.715   1.114  18.886  1.00  0.00     0.050 C 
ATOM      2  C   UNL     1      24.088   2.579  18.589  1.00  0.00     0.014 C 
ENDROOT
BRANCH   1   3
ATOM      3  C   UNL     1      23.750   0.211  17.614  1.00  0.00     0.230 C 
BRANCH   3   4
ATOM      4  N   UNL     1      24.662   0.717  16.576  1.00  0.00    -0.350 N 
ATOM      5  H   UNL     1      25.463   0.055  16.463  1.00  0.00     0.345 HD
ATOM      6  H   UNL     1      24.169   0.776  15.657  1.00  0.00     0.345 HD
ATOM      7  H   UNL     1      25.042   1.659  16.827  1.00  0.00     0.345 HD
ENDBRANCH   3   4
BRANCH   3   8
ATOM      8  C   UNL     1      24.075  -1.220  17.972  1.00  0.00     0.099 C 
ATOM      9  O   UNL     1      25.151  -1.512  18.560  1.00  0.00    -0.544 OA
ATOM     10  O   UNL     1      23.158  -2.224  17.691  1.00  0.00    -0.544 OA
ENDBRANCH   3   8
ENDBRANCH   1   3
BRANCH   1  11
ATOM     11  C   UNL     1      22.343   1.020  19.602  1.00  0.00     0.006 C 
ATOM     12  C   UNL     1      21.659   2.380  19.751  1.00  0.00     0.004 C 
ENDBRANCH   1  11
TORSDOF 4
ENDMDL
MODEL 9
REMARK VINA RESULT:    -3.557      3.041      4.011
REMARK INTER + INTRA:          -4.351
REMARK INTER:                  -4.257
REMARK INTRA:                  -0.094
REMARK UNBOUND:                -0.067
REMARK SMILES CC[C@H](C)[C@@H]([NH3+])C(=O)[O-]
REMARK SMILES IDX 3 1 4 2 5 3 6 4 7 8 8 9 9 10 2 11 1 12
REMARK H PARENT 6 5 6 6 6 7
REMARK Flexibility Score: inf
ROOT
ATOM      1  C   UNL     1      27.145   4.730   9.908  1.00  0.00     0.050 C 
ATOM      2  C   UNL     1      28.028   3.804   9.051  1.00  0.00     0.014 C 
ENDROOT
BRANCH   1   3
ATOM      3  C   UNL     1      26.357   5.773   9.056  1.00  0.00     0.230 C 
BRANCH   3   4
ATOM      4  N   UNL     1      27.222   6.817   8.483  1.00  0.00    -0.350 N 
ATOM      5  H   UNL     1      27.668   7.364   9.255  1.00  0.00     0.345 HD
ATOM      6  H   UNL     1      27.989   6.384   7.920  1.00  0.00     0.345 HD
ATOM      7  H   UNL     1      26.679   7.475   7.879  1.00  0.00     0.345 HD
ENDBRANCH   3   4
BRANCH   3   8
ATOM      8  C   UNL     1      25.542   5.094   7.982  1.00  0.00     0.099 C 
ATOM      9  O   UNL     1      25.774   5.305   6.761  1.00  0.00    -0.544 OA
ATOM     10  O   UNL     1      24.553   4.187   8.340  1.00  0.00    -0.544 OA
ENDBRANCH   3   8
ENDBRANCH   1   3
BRANCH   1  11
ATOM     11  C   UNL     1      27.974   5.426  11.018  1.00  0.00     0.006 C 
ATOM     12  C   UNL     1      29.012   4.497  11.651  1.00  0.00     0.004 C 
ENDBRANCH   1  11
TORSDOF 4
ENDMDL
