MODEL 1
REMARK VINA RESULT:    -1.805      0.000      0.000
REMARK INTER + INTRA:          -2.988
REMARK INTER:                  -3.124
REMARK INTRA:                   0.135
REMARK UNBOUND:                 0.135
REMARK SMILES OC[C@@H]1O[C@H](O[C@@H]2[C@@H](O)[C@@H](O)[C@H](O)O[C@H]2CO)[C@H](O)[C@@H](O)[C@H]1O[C@@H]1O[C@H](CO)[C@H](O)[C@@H](O)[C@@H]1O
REMARK SMILES IDX 22 1 3 2 4 3 5 4 18 5 20 6 23 7 24 8 26 9 29 10 25 11 31 12
REMARK SMILES IDX 33 13 27 14 28 15 30 17 32 19 34 21 2 23 1 24 21 26 19 28
REMARK SMILES IDX 6 30 7 31 15 32 8 33 14 34 10 35 12 36 16 37 17 38 9 40
REMARK SMILES IDX 11 42 13 44
REMARK H PARENT 28 16 30 18 32 20 34 22 1 25 21 27 19 29 17 39 9 41 11 43
REMARK H PARENT 13 45
REMARK Flexibility Score: inf
ROOT
ATOM      1  C   UNL     1       7.895  33.579  33.481  1.00  0.00     0.184 C 
ATOM      2  C   UNL     1       8.150  35.011  34.052  1.00  0.00     0.178 C 
ATOM      3  O   UNL     1       9.536  35.300  34.106  1.00  0.00    -0.341 OA
ATOM      4  C   UNL     1      10.193  34.487  35.069  1.00  0.00     0.282 C 
ATOM      5  C   UNL     1       9.969  32.968  34.774  1.00  0.00     0.202 C 
ATOM      6  C   UNL     1       9.217  32.782  33.448  1.00  0.00     0.180 C 
ENDROOT
BRANCH   1   7
ATOM      7  O   UNL     1       6.988  32.885  34.322  1.00  0.00    -0.341 OA
BRANCH   7   8
ATOM      8  C   UNL     1       5.659  33.379  34.249  1.00  0.00     0.282 C 
ATOM      9  C   UNL     1       4.638  31.277  34.757  1.00  0.00     0.178 C 
ATOM     10  C   UNL     1       4.156  31.100  33.291  1.00  0.00     0.177 C 
ATOM     11  O   UNL     1       4.815  32.643  35.125  1.00  0.00    -0.341 OA
ATOM     12  C   UNL     1       5.037  31.891  32.314  1.00  0.00     0.179 C 
ATOM     13  C   UNL     1       5.140  33.342  32.800  1.00  0.00     0.202 C 
BRANCH   9  14
ATOM     14  C   UNL     1       5.852  30.395  35.125  1.00  0.00     0.191 C 
BRANCH  14  15
ATOM     15  O   UNL     1       5.481  29.044  35.114  1.00  0.00    -0.394 OA
ATOM     16  H   UNL     1       4.969  28.891  35.951  1.00  0.00     0.210 HD
ENDBRANCH  14  15
ENDBRANCH   9  14
BRANCH  10  17
ATOM     17  O   UNL     1       4.147  29.745  32.925  1.00  0.00    -0.387 OA
ATOM     18  H   UNL     1       4.368  29.711  31.958  1.00  0.00     0.211 HD
ENDBRANCH  10  17
BRANCH  12  19
ATOM     19  O   UNL     1       4.462  31.872  31.032  1.00  0.00    -0.387 OA
ATOM     20  H   UNL     1       4.554  30.945  30.687  1.00  0.00     0.211 HD
ENDBRANCH  12  19
BRANCH  13  21
ATOM     21  O   UNL     1       6.005  34.076  31.969  1.00  0.00    -0.385 OA
ATOM     22  H   UNL     1       5.807  35.036  32.125  1.00  0.00     0.211 HD
ENDBRANCH  13  21
ENDBRANCH   7   8
ENDBRANCH   1   7
BRANCH   2  23
ATOM     23  C   UNL     1       7.459  36.097  33.213  1.00  0.00     0.191 C 
BRANCH  23  24
ATOM     24  O   UNL     1       8.395  36.856  32.496  1.00  0.00    -0.394 OA
ATOM     25  H   UNL     1       8.359  36.542  31.554  1.00  0.00     0.210 HD
ENDBRANCH  23  24
ENDBRANCH   2  23
BRANCH   6  26
ATOM     26  O   UNL     1       8.963  31.416  33.235  1.00  0.00    -0.387 OA
ATOM     27  H   UNL     1       8.024  31.253  33.518  1.00  0.00     0.211 HD
ENDBRANCH   6  26
BRANCH   5  28
ATOM     28  O   UNL     1      11.186  32.266  34.711  1.00  0.00    -0.385 OA
ATOM     29  H   UNL     1      11.174  31.609  35.455  1.00  0.00     0.211 HD
ENDBRANCH   5  28
BRANCH   4  30
ATOM     30  O   UNL     1      11.593  34.745  35.124  1.00  0.00    -0.341 OA
BRANCH  30  31
ATOM     31  C   UNL     1      12.161  35.525  34.075  1.00  0.00     0.184 C 
ATOM     32  C   UNL     1      12.516  36.969  34.522  1.00  0.00     0.178 C 
ATOM     33  C   UNL     1      13.309  34.853  33.252  1.00  0.00     0.180 C 
ATOM     34  O   UNL     1      12.953  37.697  33.391  1.00  0.00    -0.342 OA
ATOM     35  C   UNL     1      14.563  35.748  33.219  1.00  0.00     0.201 C 
ATOM     36  C   UNL     1      14.199  37.225  32.876  1.00  0.00     0.279 C 
BRANCH  32  37
ATOM     37  C   UNL     1      11.296  37.674  35.125  1.00  0.00     0.191 C 
BRANCH  37  38
ATOM     38  O   UNL     1      10.449  38.111  34.097  1.00  0.00    -0.394 OA
ATOM     39  H   UNL     1      10.501  39.102  34.101  1.00  0.00     0.210 HD
ENDBRANCH  37  38
ENDBRANCH  32  37
BRANCH  33  40
ATOM     40  O   UNL     1      12.884  34.615  31.933  1.00  0.00    -0.387 OA
ATOM     41  H   UNL     1      13.659  34.810  31.345  1.00  0.00     0.211 HD
ENDBRANCH  33  40
BRANCH  35  42
ATOM     42  O   UNL     1      15.484  35.243  32.287  1.00  0.00    -0.385 OA
ATOM     43  H   UNL     1      14.988  34.607  31.709  1.00  0.00     0.211 HD
ENDBRANCH  35  42
BRANCH  36  44
ATOM     44  O   UNL     1      15.234  38.087  33.272  1.00  0.00    -0.366 OA
ATOM     45  H   UNL     1      15.223  38.861  32.651  1.00  0.00     0.213 HD
ENDBRANCH  36  44
ENDBRANCH  30  31
ENDBRANCH   4  30
TORSDOF 18
ENDMDL
MODEL 2
REMARK VINA RESULT:    -0.532      1.962      8.630
REMARK INTER + INTRA:          -0.786
REMARK INTER:                  -1.946
REMARK INTRA:                   1.161
REMARK UNBOUND:                 0.135
REMARK SMILES OC[C@@H]1O[C@H](O[C@@H]2[C@@H](O)[C@@H](O)[C@H](O)O[C@H]2CO)[C@H](O)[C@@H](O)[C@H]1O[C@@H]1O[C@H](CO)[C@H](O)[C@@H](O)[C@@H]1O
REMARK SMILES IDX 22 1 3 2 4 3 5 4 18 5 20 6 23 7 24 8 26 9 29 10 25 11 31 12
REMARK SMILES IDX 33 13 27 14 28 15 30 17 32 19 34 21 2 23 1 24 21 26 19 28
REMARK SMILES IDX 6 30 7 31 15 32 8 33 14 34 10 35 12 36 16 37 17 38 9 40
REMARK SMILES IDX 11 42 13 44
REMARK H PARENT 28 16 30 18 32 20 34 22 1 25 21 27 19 29 17 39 9 41 11 43
REMARK H PARENT 13 45
REMARK Flexibility Score: inf
ROOT
ATOM      1  C   UNL     1      12.827  34.582  32.898  1.00  0.00     0.184 C 
ATOM      2  C   UNL     1      12.482  34.577  34.421  1.00  0.00     0.178 C 
ATOM      3  O   UNL     1      11.083  34.666  34.629  1.00  0.00    -0.341 OA
ATOM      4  C   UNL     1      10.584  35.935  34.226  1.00  0.00     0.282 C 
ATOM      5  C   UNL     1      10.928  36.228  32.730  1.00  0.00     0.202 C 
ATOM      6  C   UNL     1      11.589  35.005  32.078  1.00  0.00     0.180 C 
ENDROOT
BRANCH   1   7
ATOM      7  O   UNL     1      13.859  35.522  32.645  1.00  0.00    -0.341 OA
BRANCH   7   8
ATOM      8  C   UNL     1      13.899  36.583  33.588  1.00  0.00     0.282 C 
ATOM      9  C   UNL     1      14.998  38.113  32.115  1.00  0.00     0.178 C 
ATOM     10  C   UNL     1      16.333  37.988  32.900  1.00  0.00     0.177 C 
ATOM     11  O   UNL     1      13.852  37.835  32.917  1.00  0.00    -0.341 OA
ATOM     12  C   UNL     1      16.417  36.651  33.649  1.00  0.00     0.179 C 
ATOM     13  C   UNL     1      15.146  36.469  34.486  1.00  0.00     0.202 C 
BRANCH   9  14
ATOM     14  C   UNL     1      14.990  37.351  30.772  1.00  0.00     0.191 C 
BRANCH  14  15
ATOM     15  O   UNL     1      15.970  37.875  29.920  1.00  0.00    -0.394 OA
ATOM     16  H   UNL     1      16.392  37.096  29.470  1.00  0.00     0.210 HD
ENDBRANCH  14  15
ENDBRANCH   9  14
BRANCH  10  17
ATOM     17  O   UNL     1      17.435  38.115  32.039  1.00  0.00    -0.387 OA
ATOM     18  H   UNL     1      18.245  37.959  32.591  1.00  0.00     0.211 HD
ENDBRANCH  10  17
BRANCH  12  19
ATOM     19  O   UNL     1      17.535  36.652  34.500  1.00  0.00    -0.387 OA
ATOM     20  H   UNL     1      18.187  36.004  34.121  1.00  0.00     0.211 HD
ENDBRANCH  12  19
BRANCH  13  21
ATOM     21  O   UNL     1      15.155  35.217  35.125  1.00  0.00    -0.385 OA
ATOM     22  H   UNL     1      16.100  35.019  35.356  1.00  0.00     0.211 HD
ENDBRANCH  13  21
ENDBRANCH   7   8
ENDBRANCH   1   7
BRANCH   2  23
ATOM     23  C   UNL     1      12.998  33.312  35.125  1.00  0.00     0.191 C 
BRANCH  23  24
ATOM     24  O   UNL     1      13.541  32.405  34.203  1.00  0.00    -0.394 OA
ATOM     25  H   UNL     1      14.489  32.262  34.465  1.00  0.00     0.210 HD
ENDBRANCH  23  24
ENDBRANCH   2  23
BRANCH   6  26
ATOM     26  O   UNL     1      11.955  35.312  30.756  1.00  0.00    -0.387 OA
ATOM     27  H   UNL     1      12.531  36.120  30.801  1.00  0.00     0.211 HD
ENDBRANCH   6  26
BRANCH   5  28
ATOM     28  O   UNL     1       9.782  36.576  31.992  1.00  0.00    -0.385 OA
ATOM     29  H   UNL     1       9.204  35.769  31.969  1.00  0.00     0.211 HD
ENDBRANCH   5  28
BRANCH   4  30
ATOM     30  O   UNL     1       9.175  36.037  34.404  1.00  0.00    -0.341 OA
BRANCH  30  31
ATOM     31  C   UNL     1       8.413  34.833  34.354  1.00  0.00     0.184 C 
ATOM     32  C   UNL     1       6.915  35.080  34.031  1.00  0.00     0.178 C 
ATOM     33  C   UNL     1       9.023  33.660  33.518  1.00  0.00     0.180 C 
ATOM     34  O   UNL     1       6.224  33.849  34.127  1.00  0.00    -0.342 OA
ATOM     35  C   UNL     1       8.012  33.141  32.476  1.00  0.00     0.201 C 
ATOM     36  C   UNL     1       6.605  32.920  33.110  1.00  0.00     0.279 C 
BRANCH  32  37
ATOM     37  C   UNL     1       6.295  36.075  35.018  1.00  0.00     0.191 C 
BRANCH  37  38
ATOM     38  O   UNL     1       5.877  37.222  34.329  1.00  0.00    -0.394 OA
ATOM     39  H   UNL     1       5.954  37.005  33.363  1.00  0.00     0.210 HD
ENDBRANCH  37  38
ENDBRANCH  32  37
BRANCH  33  40
ATOM     40  O   UNL     1       9.388  32.600  34.366  1.00  0.00    -0.387 OA
ATOM     41  H   UNL     1      10.230  32.221  34.002  1.00  0.00     0.211 HD
ENDBRANCH  33  40
BRANCH  35  42
ATOM     42  O   UNL     1       8.485  31.946  31.909  1.00  0.00    -0.385 OA
ATOM     43  H   UNL     1       9.205  32.195  31.274  1.00  0.00     0.211 HD
ENDBRANCH  35  42
BRANCH  36  44
ATOM     44  O   UNL     1       5.620  32.881  32.109  1.00  0.00    -0.366 OA
ATOM     45  H   UNL     1       5.307  33.812  31.971  1.00  0.00     0.213 HD
ENDBRANCH  36  44
ENDBRANCH  30  31
ENDBRANCH   4  30
TORSDOF 18
ENDMDL
MODEL 3
REMARK VINA RESULT:    -0.009      1.740      8.157
REMARK INTER + INTRA:           0.119
REMARK INTER:                   0.824
REMARK INTRA:                  -0.705
REMARK UNBOUND:                 0.135
REMARK SMILES OC[C@@H]1O[C@H](O[C@@H]2[C@@H](O)[C@@H](O)[C@H](O)O[C@H]2CO)[C@H](O)[C@@H](O)[C@H]1O[C@@H]1O[C@H](CO)[C@H](O)[C@@H](O)[C@@H]1O
REMARK SMILES IDX 22 1 3 2 4 3 5 4 18 5 20 6 23 7 24 8 26 9 29 10 25 11 31 12
REMARK SMILES IDX 33 13 27 14 28 15 30 17 32 19 34 21 2 23 1 24 21 26 19 28
REMARK SMILES IDX 6 30 7 31 15 32 8 33 14 34 10 35 12 36 16 37 17 38 9 40
REMARK SMILES IDX 11 42 13 44
REMARK H PARENT 28 16 30 18 32 20 34 22 1 25 21 27 19 29 17 39 9 41 11 43
REMARK H PARENT 13 45
REMARK Flexibility Score: inf
ROOT
ATOM      1  C   UNL     1      10.018  35.751  31.950  1.00  0.00     0.184 C 
ATOM      2  C   UNL     1       9.511  34.382  32.507  1.00  0.00     0.178 C 
ATOM      3  O   UNL     1       8.134  34.444  32.837  1.00  0.00    -0.341 OA
ATOM      4  C   UNL     1       7.910  35.306  33.946  1.00  0.00     0.282 C 
ATOM      5  C   UNL     1       8.465  36.740  33.667  1.00  0.00     0.202 C 
ATOM      6  C   UNL     1       8.972  36.852  32.222  1.00  0.00     0.180 C 
ENDROOT
BRANCH   1   7
ATOM      7  O   UNL     1      11.219  36.118  32.610  1.00  0.00    -0.341 OA
BRANCH   7   8
ATOM      8  C   UNL     1      11.721  35.109  33.474  1.00  0.00     0.282 C 
ATOM      9  C   UNL     1      12.654  36.645  35.051  1.00  0.00     0.178 C 
ATOM     10  C   UNL     1      14.101  36.315  34.591  1.00  0.00     0.177 C 
ATOM     11  O   UNL     1      11.738  35.578  34.816  1.00  0.00    -0.341 OA
ATOM     12  C   UNL     1      14.123  35.793  33.148  1.00  0.00     0.179 C 
ATOM     13  C   UNL     1      13.117  34.644  33.019  1.00  0.00     0.202 C 
BRANCH   9  14
ATOM     14  C   UNL     1      12.133  38.006  34.542  1.00  0.00     0.191 C 
BRANCH  14  15
ATOM     15  O   UNL     1      10.744  38.079  34.711  1.00  0.00    -0.394 OA
ATOM     16  H   UNL     1      10.423  37.141  34.771  1.00  0.00     0.210 HD
ENDBRANCH  14  15
ENDBRANCH   9  14
BRANCH  10  17
ATOM     17  O   UNL     1      14.930  37.443  34.697  1.00  0.00    -0.387 OA
ATOM     18  H   UNL     1      15.123  37.564  35.663  1.00  0.00     0.211 HD
ENDBRANCH  10  17
BRANCH  12  19
ATOM     19  O   UNL     1      15.408  35.321  32.832  1.00  0.00    -0.387 OA
ATOM     20  H   UNL     1      16.046  36.051  33.049  1.00  0.00     0.211 HD
ENDBRANCH  12  19
BRANCH  13  21
ATOM     21  O   UNL     1      13.055  34.194  31.689  1.00  0.00    -0.385 OA
ATOM     22  H   UNL     1      12.137  34.386  31.362  1.00  0.00     0.211 HD
ENDBRANCH  13  21
ENDBRANCH   7   8
ENDBRANCH   1   7
BRANCH   2  23
ATOM     23  C   UNL     1       9.719  33.239  31.502  1.00  0.00     0.191 C 
BRANCH  23  24
ATOM     24  O   UNL     1       8.511  32.581  31.225  1.00  0.00    -0.394 OA
ATOM     25  H   UNL     1       8.259  32.084  32.047  1.00  0.00     0.210 HD
ENDBRANCH  23  24
ENDBRANCH   2  23
BRANCH   6  26
ATOM     26  O   UNL     1       9.530  38.125  32.013  1.00  0.00    -0.387 OA
ATOM     27  H   UNL     1       9.888  38.130  31.086  1.00  0.00     0.211 HD
ENDBRANCH   6  26
BRANCH   5  28
ATOM     28  O   UNL     1       7.485  37.726  33.885  1.00  0.00    -0.385 OA
ATOM     29  H   UNL     1       7.283  37.716  34.858  1.00  0.00     0.211 HD
ENDBRANCH   5  28
BRANCH   4  30
ATOM     30  O   UNL     1       6.529  35.401  34.280  1.00  0.00    -0.341 OA
BRANCH  30  31
ATOM     31  C   UNL     1       5.846  34.196  34.616  1.00  0.00     0.184 C 
ATOM     32  C   UNL     1       4.315  34.284  34.379  1.00  0.00     0.178 C 
ATOM     33  C   UNL     1       6.464  32.869  34.063  1.00  0.00     0.180 C 
ATOM     34  O   UNL     1       3.715  33.095  34.856  1.00  0.00    -0.342 OA
ATOM     35  C   UNL     1       5.412  32.050  33.291  1.00  0.00     0.201 C 
ATOM     36  C   UNL     1       4.075  31.946  34.087  1.00  0.00     0.279 C 
BRANCH  32  37
ATOM     37  C   UNL     1       3.710  35.478  35.125  1.00  0.00     0.191 C 
BRANCH  37  38
ATOM     38  O   UNL     1       4.523  36.606  34.945  1.00  0.00    -0.394 OA
ATOM     39  H   UNL     1       4.468  36.832  33.979  1.00  0.00     0.210 HD
ENDBRANCH  37  38
ENDBRANCH  32  37
BRANCH  33  40
ATOM     40  O   UNL     1       6.962  32.089  35.122  1.00  0.00    -0.387 OA
ATOM     41  H   UNL     1       7.228  32.721  35.839  1.00  0.00     0.211 HD
ENDBRANCH  33  40
BRANCH  35  42
ATOM     42  O   UNL     1       5.916  30.768  33.014  1.00  0.00    -0.385 OA
ATOM     43  H   UNL     1       6.826  30.892  32.641  1.00  0.00     0.211 HD
ENDBRANCH  35  42
BRANCH  36  44
ATOM     44  O   UNL     1       3.020  31.601  33.226  1.00  0.00    -0.366 OA
ATOM     45  H   UNL     1       3.154  30.652  32.966  1.00  0.00     0.213 HD
ENDBRANCH  36  44
ENDBRANCH  30  31
ENDBRANCH   4  30
TORSDOF 18
ENDMDL
MODEL 4
REMARK VINA RESULT:     0.500      1.827      8.186
REMARK INTER + INTRA:           1.001
REMARK INTER:                   0.351
REMARK INTRA:                   0.650
REMARK UNBOUND:                 0.135
REMARK SMILES OC[C@@H]1O[C@H](O[C@@H]2[C@@H](O)[C@@H](O)[C@H](O)O[C@H]2CO)[C@H](O)[C@@H](O)[C@H]1O[C@@H]1O[C@H](CO)[C@H](O)[C@@H](O)[C@@H]1O
REMARK SMILES IDX 22 1 3 2 4 3 5 4 18 5 20 6 23 7 24 8 26 9 29 10 25 11 31 12
REMARK SMILES IDX 33 13 27 14 28 15 30 17 32 19 34 21 2 23 1 24 21 26 19 28
REMARK SMILES IDX 6 30 7 31 15 32 8 33 14 34 10 35 12 36 16 37 17 38 9 40
REMARK SMILES IDX 11 42 13 44
REMARK H PARENT 28 16 30 18 32 20 34 22 1 25 21 27 19 29 17 39 9 41 11 43
REMARK H PARENT 13 45
REMARK Flexibility Score: inf
ROOT
ATOM      1  C   UNL     1      12.011  34.580  32.782  1.00  0.00     0.184 C 
ATOM      2  C   UNL     1      11.835  34.416  34.326  1.00  0.00     0.178 C 
ATOM      3  O   UNL     1      10.468  34.474  34.694  1.00  0.00    -0.341 OA
ATOM      4  C   UNL     1       9.935  35.775  34.482  1.00  0.00     0.282 C 
ATOM      5  C   UNL     1      10.115  36.224  32.995  1.00  0.00     0.202 C 
ATOM      6  C   UNL     1      10.693  35.078  32.152  1.00  0.00     0.180 C 
ENDROOT
BRANCH   1   7
ATOM      7  O   UNL     1      13.014  35.547  32.517  1.00  0.00    -0.341 OA
BRANCH   7   8
ATOM      8  C   UNL     1      14.323  35.000  32.448  1.00  0.00     0.282 C 
ATOM      9  C   UNL     1      15.019  35.886  34.557  1.00  0.00     0.178 C 
ATOM     10  C   UNL     1      15.929  36.941  33.870  1.00  0.00     0.177 C 
ATOM     11  O   UNL     1      14.808  34.726  33.756  1.00  0.00    -0.341 OA
ATOM     12  C   UNL     1      15.445  37.255  32.448  1.00  0.00     0.179 C 
ATOM     13  C   UNL     1      15.270  35.940  31.680  1.00  0.00     0.202 C 
BRANCH   9  14
ATOM     14  C   UNL     1      13.707  36.470  35.125  1.00  0.00     0.191 C 
BRANCH  14  15
ATOM     15  O   UNL     1      13.296  37.562  34.350  1.00  0.00    -0.394 OA
ATOM     16  H   UNL     1      13.752  37.467  33.472  1.00  0.00     0.210 HD
ENDBRANCH  14  15
ENDBRANCH   9  14
BRANCH  10  17
ATOM     17  O   UNL     1      15.982  38.125  34.622  1.00  0.00    -0.387 OA
ATOM     18  H   UNL     1      16.508  38.777  34.088  1.00  0.00     0.211 HD
ENDBRANCH  10  17
BRANCH  12  19
ATOM     19  O   UNL     1      16.393  38.055  31.787  1.00  0.00    -0.387 OA
ATOM     20  H   UNL     1      15.974  38.945  31.648  1.00  0.00     0.211 HD
ENDBRANCH  12  19
BRANCH  13  21
ATOM     21  O   UNL     1      14.751  36.187  30.397  1.00  0.00    -0.385 OA
ATOM     22  H   UNL     1      15.473  36.624  29.874  1.00  0.00     0.211 HD
ENDBRANCH  13  21
ENDBRANCH   7   8
ENDBRANCH   1   7
BRANCH   2  23
ATOM     23  C   UNL     1      12.419  33.088  34.834  1.00  0.00     0.191 C 
BRANCH  23  24
ATOM     24  O   UNL     1      11.445  32.079  34.850  1.00  0.00    -0.394 OA
ATOM     25  H   UNL     1      11.928  31.212  34.800  1.00  0.00     0.210 HD
ENDBRANCH  23  24
ENDBRANCH   2  23
BRANCH   6  26
ATOM     26  O   UNL     1      10.914  35.523  30.837  1.00  0.00    -0.387 OA
ATOM     27  H   UNL     1      11.853  35.845  30.799  1.00  0.00     0.211 HD
ENDBRANCH   6  26
BRANCH   5  28
ATOM     28  O   UNL     1       8.897  36.639  32.427  1.00  0.00    -0.385 OA
ATOM     29  H   UNL     1       8.290  35.853  32.451  1.00  0.00     0.211 HD
ENDBRANCH   5  28
BRANCH   4  30
ATOM     30  O   UNL     1       8.554  35.850  34.823  1.00  0.00    -0.341 OA
BRANCH  30  31
ATOM     31  C   UNL     1       7.785  34.653  34.730  1.00  0.00     0.184 C 
ATOM     32  C   UNL     1       6.365  34.892  34.150  1.00  0.00     0.178 C 
ATOM     33  C   UNL     1       8.497  33.418  34.087  1.00  0.00     0.180 C 
ATOM     34  O   UNL     1       5.641  33.679  34.215  1.00  0.00    -0.342 OA
ATOM     35  C   UNL     1       7.658  32.837  32.931  1.00  0.00     0.201 C 
ATOM     36  C   UNL     1       6.161  32.677  33.339  1.00  0.00     0.279 C 
BRANCH  32  37
ATOM     37  C   UNL     1       5.615  35.961  34.952  1.00  0.00     0.191 C 
BRANCH  37  38
ATOM     38  O   UNL     1       5.952  37.233  34.471  1.00  0.00    -0.394 OA
ATOM     39  H   UNL     1       5.750  37.868  35.207  1.00  0.00     0.210 HD
ENDBRANCH  37  38
ENDBRANCH  32  37
BRANCH  33  40
ATOM     40  O   UNL     1       8.696  32.416  35.053  1.00  0.00    -0.387 OA
ATOM     41  H   UNL     1       7.880  32.400  35.618  1.00  0.00     0.211 HD
ENDBRANCH  33  40
BRANCH  35  42
ATOM     42  O   UNL     1       8.190  31.600  32.532  1.00  0.00    -0.385 OA
ATOM     43  H   UNL     1       9.090  31.783  32.157  1.00  0.00     0.211 HD
ENDBRANCH  35  42
BRANCH  36  44
ATOM     44  O   UNL     1       5.352  32.577  32.196  1.00  0.00    -0.366 OA
ATOM     45  H   UNL     1       5.482  31.667  31.824  1.00  0.00     0.213 HD
ENDBRANCH  36  44
ENDBRANCH  30  31
ENDBRANCH   4  30
TORSDOF 18
ENDMDL
MODEL 5
REMARK VINA RESULT:     1.035      1.555      2.828
REMARK INTER + INTRA:           1.926
REMARK INTER:                   1.046
REMARK INTRA:                   0.881
REMARK UNBOUND:                 0.135
REMARK SMILES OC[C@@H]1O[C@H](O[C@@H]2[C@@H](O)[C@@H](O)[C@H](O)O[C@H]2CO)[C@H](O)[C@@H](O)[C@H]1O[C@@H]1O[C@H](CO)[C@H](O)[C@@H](O)[C@@H]1O
REMARK SMILES IDX 22 1 3 2 4 3 5 4 18 5 20 6 23 7 24 8 26 9 29 10 25 11 31 12
REMARK SMILES IDX 33 13 27 14 28 15 30 17 32 19 34 21 2 23 1 24 21 26 19 28
REMARK SMILES IDX 6 30 7 31 15 32 8 33 14 34 10 35 12 36 16 37 17 38 9 40
REMARK SMILES IDX 11 42 13 44
REMARK H PARENT 28 16 30 18 32 20 34 22 1 25 21 27 19 29 17 39 9 41 11 43
REMARK H PARENT 13 45
REMARK Flexibility Score: inf
ROOT
ATOM      1  C   UNL     1       8.497  34.186  32.452  1.00  0.00     0.184 C 
ATOM      2  C   UNL     1       9.167  35.503  32.958  1.00  0.00     0.178 C 
ATOM      3  O   UNL     1      10.477  35.257  33.441  1.00  0.00    -0.341 OA
ATOM      4  C   UNL     1      10.448  34.475  34.628  1.00  0.00     0.282 C 
ATOM      5  C   UNL     1       9.695  33.125  34.397  1.00  0.00     0.202 C 
ATOM      6  C   UNL     1       9.317  32.964  32.917  1.00  0.00     0.180 C 
ENDROOT
BRANCH   1   7
ATOM      7  O   UNL     1       7.194  34.071  33.002  1.00  0.00    -0.341 OA
BRANCH   7   8
ATOM      8  C   UNL     1       7.171  34.148  34.419  1.00  0.00     0.282 C 
ATOM      9  C   UNL     1       5.452  32.506  34.678  1.00  0.00     0.178 C 
ATOM     10  C   UNL     1       4.408  33.588  35.068  1.00  0.00     0.177 C 
ATOM     11  O   UNL     1       6.792  32.894  34.972  1.00  0.00    -0.341 OA
ATOM     12  C   UNL     1       4.788  34.962  34.500  1.00  0.00     0.179 C 
ATOM     13  C   UNL     1       6.236  35.278  34.890  1.00  0.00     0.202 C 
BRANCH   9  14
ATOM     14  C   UNL     1       5.284  31.967  33.241  1.00  0.00     0.191 C 
BRANCH  14  15
ATOM     15  O   UNL     1       4.567  30.764  33.263  1.00  0.00    -0.394 OA
ATOM     16  H   UNL     1       4.112  30.729  34.145  1.00  0.00     0.210 HD
ENDBRANCH  14  15
ENDBRANCH   9  14
BRANCH  10  17
ATOM     17  O   UNL     1       3.125  33.232  34.621  1.00  0.00    -0.387 OA
ATOM     18  H   UNL     1       2.479  33.734  35.184  1.00  0.00     0.211 HD
ENDBRANCH  10  17
BRANCH  12  19
ATOM     19  O   UNL     1       3.939  35.948  35.030  1.00  0.00    -0.387 OA
ATOM     20  H   UNL     1       4.492  36.761  35.171  1.00  0.00     0.211 HD
ENDBRANCH  12  19
BRANCH  13  21
ATOM     21  O   UNL     1       6.642  36.496  34.319  1.00  0.00    -0.385 OA
ATOM     22  H   UNL     1       7.635  36.494  34.311  1.00  0.00     0.211 HD
ENDBRANCH  13  21
ENDBRANCH   7   8
ENDBRANCH   1   7
BRANCH   2  23
ATOM     23  C   UNL     1       9.247  36.570  31.856  1.00  0.00     0.191 C 
BRANCH  23  24
ATOM     24  O   UNL     1       8.308  37.590  32.067  1.00  0.00    -0.394 OA
ATOM     25  H   UNL     1       7.574  37.197  32.610  1.00  0.00     0.210 HD
ENDBRANCH  23  24
ENDBRANCH   2  23
BRANCH   6  26
ATOM     26  O   UNL     1       8.580  31.780  32.742  1.00  0.00    -0.387 OA
ATOM     27  H   UNL     1       9.085  31.059  33.204  1.00  0.00     0.211 HD
ENDBRANCH   6  26
BRANCH   5  28
ATOM     28  O   UNL     1      10.473  32.022  34.792  1.00  0.00    -0.385 OA
ATOM     29  H   UNL     1      11.384  32.370  34.979  1.00  0.00     0.211 HD
ENDBRANCH   5  28
BRANCH   4  30
ATOM     30  O   UNL     1      11.756  34.196  35.117  1.00  0.00    -0.341 OA
BRANCH  30  31
ATOM     31  C   UNL     1      12.763  35.183  34.910  1.00  0.00     0.184 C 
ATOM     32  C   UNL     1      14.059  34.602  34.283  1.00  0.00     0.178 C 
ATOM     33  C   UNL     1      12.305  36.510  34.219  1.00  0.00     0.180 C 
ATOM     34  O   UNL     1      15.035  35.625  34.234  1.00  0.00    -0.342 OA
ATOM     35  C   UNL     1      13.181  36.824  32.991  1.00  0.00     0.201 C 
ATOM     36  C   UNL     1      14.697  36.669  33.318  1.00  0.00     0.279 C 
BRANCH  32  37
ATOM     37  C   UNL     1      14.601  33.438  35.119  1.00  0.00     0.191 C 
BRANCH  37  38
ATOM     38  O   UNL     1      13.694  32.370  35.083  1.00  0.00    -0.394 OA
ATOM     39  H   UNL     1      14.080  31.704  34.456  1.00  0.00     0.210 HD
ENDBRANCH  37  38
ENDBRANCH  32  37
BRANCH  33  40
ATOM     40  O   UNL     1      12.388  37.582  35.125  1.00  0.00    -0.387 OA
ATOM     41  H   UNL     1      13.339  37.864  35.145  1.00  0.00     0.211 HD
ENDBRANCH  33  40
BRANCH  35  42
ATOM     42  O   UNL     1      12.912  38.125  32.534  1.00  0.00    -0.385 OA
ATOM     43  H   UNL     1      13.567  38.725  32.975  1.00  0.00     0.211 HD
ENDBRANCH  35  42
BRANCH  36  44
ATOM     44  O   UNL     1      15.440  36.522  32.135  1.00  0.00    -0.366 OA
ATOM     45  H   UNL     1      16.051  37.301  32.075  1.00  0.00     0.213 HD
ENDBRANCH  36  44
ENDBRANCH  30  31
ENDBRANCH   4  30
TORSDOF 18
ENDMDL
MODEL 6
REMARK VINA RESULT:     1.146      1.434      8.143
REMARK INTER + INTRA:           2.119
REMARK INTER:                   2.106
REMARK INTRA:                   0.013
REMARK UNBOUND:                 0.135
REMARK SMILES OC[C@@H]1O[C@H](O[C@@H]2[C@@H](O)[C@@H](O)[C@H](O)O[C@H]2CO)[C@H](O)[C@@H](O)[C@H]1O[C@@H]1O[C@H](CO)[C@H](O)[C@@H](O)[C@@H]1O
REMARK SMILES IDX 22 1 3 2 4 3 5 4 18 5 20 6 23 7 24 8 26 9 29 10 25 11 31 12
REMARK SMILES IDX 33 13 27 14 28 15 30 17 32 19 34 21 2 23 1 24 21 26 19 28
REMARK SMILES IDX 6 30 7 31 15 32 8 33 14 34 10 35 12 36 16 37 17 38 9 40
REMARK SMILES IDX 11 42 13 44
REMARK H PARENT 28 16 30 18 32 20 34 22 1 25 21 27 19 29 17 39 9 41 11 43
REMARK H PARENT 13 45
REMARK Flexibility Score: inf
ROOT
ATOM      1  C   UNL     1       9.750  34.660  34.649  1.00  0.00     0.184 C 
ATOM      2  C   UNL     1       8.554  35.528  34.141  1.00  0.00     0.178 C 
ATOM      3  O   UNL     1       7.399  34.733  33.933  1.00  0.00    -0.341 OA
ATOM      4  C   UNL     1       7.583  33.834  32.847  1.00  0.00     0.282 C 
ATOM      5  C   UNL     1       8.832  32.923  33.074  1.00  0.00     0.202 C 
ATOM      6  C   UNL     1       9.429  33.161  34.469  1.00  0.00     0.180 C 
ENDROOT
BRANCH   1   7
ATOM      7  O   UNL     1      10.909  34.953  33.886  1.00  0.00    -0.341 OA
BRANCH   7   8
ATOM      8  C   UNL     1      12.067  35.171  34.679  1.00  0.00     0.282 C 
ATOM      9  C   UNL     1      12.283  37.477  34.083  1.00  0.00     0.178 C 
ATOM     10  C   UNL     1      13.519  37.182  33.190  1.00  0.00     0.177 C 
ATOM     11  O   UNL     1      12.107  36.520  35.125  1.00  0.00    -0.341 OA
ATOM     12  C   UNL     1      13.519  35.729  32.697  1.00  0.00     0.179 C 
ATOM     13  C   UNL     1      13.342  34.795  33.900  1.00  0.00     0.202 C 
BRANCH   9  14
ATOM     14  C   UNL     1      10.987  37.740  33.285  1.00  0.00     0.191 C 
BRANCH  14  15
ATOM     15  O   UNL     1      10.946  36.913  32.154  1.00  0.00    -0.394 OA
ATOM     16  H   UNL     1       9.985  36.765  31.953  1.00  0.00     0.210 HD
ENDBRANCH  14  15
ENDBRANCH   9  14
BRANCH  10  17
ATOM     17  O   UNL     1      13.564  38.052  32.090  1.00  0.00    -0.387 OA
ATOM     18  H   UNL     1      12.953  38.807  32.300  1.00  0.00     0.211 HD
ENDBRANCH  10  17
BRANCH  12  19
ATOM     19  O   UNL     1      14.739  35.440  32.063  1.00  0.00    -0.387 OA
ATOM     20  H   UNL     1      14.539  34.813  31.319  1.00  0.00     0.211 HD
ENDBRANCH  12  19
BRANCH  13  21
ATOM     21  O   UNL     1      13.258  33.458  33.474  1.00  0.00    -0.385 OA
ATOM     22  H   UNL     1      13.306  33.468  32.482  1.00  0.00     0.211 HD
ENDBRANCH  13  21
ENDBRANCH   7   8
ENDBRANCH   1   7
BRANCH   2  23
ATOM     23  C   UNL     1       8.200  36.653  35.125  1.00  0.00     0.191 C 
BRANCH  23  24
ATOM     24  O   UNL     1       7.584  37.728  34.466  1.00  0.00    -0.394 OA
ATOM     25  H   UNL     1       7.496  38.460  35.131  1.00  0.00     0.210 HD
ENDBRANCH  23  24
ENDBRANCH   2  23
BRANCH   6  26
ATOM     26  O   UNL     1      10.590  32.386  34.627  1.00  0.00    -0.387 OA
ATOM     27  H   UNL     1      11.174  32.874  35.265  1.00  0.00     0.211 HD
ENDBRANCH   6  26
BRANCH   5  28
ATOM     28  O   UNL     1       8.511  31.560  32.942  1.00  0.00    -0.385 OA
ATOM     29  H   UNL     1       9.302  31.119  32.534  1.00  0.00     0.211 HD
ENDBRANCH   5  28
BRANCH   4  30
ATOM     30  O   UNL     1       6.441  33.009  32.636  1.00  0.00    -0.341 OA
BRANCH  30  31
ATOM     31  C   UNL     1       5.907  32.319  33.763  1.00  0.00     0.184 C 
ATOM     32  C   UNL     1       4.368  32.471  33.889  1.00  0.00     0.178 C 
ATOM     33  C   UNL     1       6.384  30.843  33.965  1.00  0.00     0.180 C 
ATOM     34  O   UNL     1       3.951  31.863  35.097  1.00  0.00    -0.342 OA
ATOM     35  C   UNL     1       5.181  29.887  34.094  1.00  0.00     0.201 C 
ATOM     36  C   UNL     1       4.116  30.444  35.087  1.00  0.00     0.279 C 
BRANCH  32  37
ATOM     37  C   UNL     1       3.959  33.948  33.911  1.00  0.00     0.191 C 
BRANCH  37  38
ATOM     38  O   UNL     1       4.867  34.675  34.694  1.00  0.00    -0.394 OA
ATOM     39  H   UNL     1       5.590  34.040  34.937  1.00  0.00     0.210 HD
ENDBRANCH  37  38
ENDBRANCH  32  37
BRANCH  33  40
ATOM     40  O   UNL     1       7.172  30.743  35.125  1.00  0.00    -0.387 OA
ATOM     41  H   UNL     1       6.629  30.254  35.797  1.00  0.00     0.211 HD
ENDBRANCH  33  40
BRANCH  35  42
ATOM     42  O   UNL     1       5.623  28.621  34.511  1.00  0.00    -0.385 OA
ATOM     43  H   UNL     1       6.614  28.640  34.485  1.00  0.00     0.211 HD
ENDBRANCH  35  42
BRANCH  36  44
ATOM     44  O   UNL     1       2.875  29.822  34.871  1.00  0.00    -0.366 OA
ATOM     45  H   UNL     1       3.061  28.921  34.500  1.00  0.00     0.213 HD
ENDBRANCH  36  44
ENDBRANCH  30  31
ENDBRANCH   4  30
TORSDOF 18
ENDMDL
