MODEL 1
REMARK VINA RESULT:    16.713      0.000      0.000
REMARK INTER + INTRA:          23.959
REMARK INTER:                  22.575
REMARK INTRA:                   1.384
REMARK UNBOUND:                 1.384
REMARK SMILES COc1ccc(-c2cc(=O)c3c(OC)c(OC)c(OC)c(OC)c3o2)cc1
REMARK SMILES IDX 7 1 8 2 9 3 10 4 11 5 24 6 25 7 21 8 18 9 15 10 12 11 6 12
REMARK SMILES IDX 3 13 4 14 27 15 5 16 26 17 2 18 1 19 22 20 23 21 13 22 14 23
REMARK SMILES IDX 19 24 20 25 16 26 17 27
REMARK H PARENT
REMARK Flexibility Score: inf
ROOT
ATOM      1  C   UNL     1      30.555  -7.137 -13.610  1.00  0.00     0.138 A 
ATOM      2  C   UNL     1      31.876  -7.341 -13.188  1.00  0.00     0.100 A 
ATOM      3  C   UNL     1      32.302  -6.787 -11.982  1.00  0.00     0.197 A 
ATOM      4  O   UNL     1      33.501  -6.955 -11.629  1.00  0.00    -0.289 OA
ATOM      5  C   UNL     1      31.398  -6.038 -11.197  1.00  0.00     0.115 A 
ATOM      6  C   UNL     1      30.095  -5.853 -11.700  1.00  0.00     0.188 A 
ATOM      7  O   UNL     1      29.738  -6.403 -12.860  1.00  0.00    -0.452 OA
ATOM      8  C   UNL     1      29.151  -5.099 -10.997  1.00  0.00     0.209 A 
ATOM      9  C   UNL     1      29.508  -4.481  -9.771  1.00  0.00     0.211 A 
ATOM     10  C   UNL     1      30.829  -4.636  -9.269  1.00  0.00     0.208 A 
ATOM     11  C   UNL     1      31.746  -5.470  -9.952  1.00  0.00     0.179 A 
ENDROOT
BRANCH   1  12
ATOM     12  C   UNL     1      30.039  -7.700 -14.885  1.00  0.00     0.018 A 
ATOM     13  C   UNL     1      29.101  -8.810 -17.307  1.00  0.00     0.118 A 
ATOM     14  C   UNL     1      28.775  -7.497 -16.957  1.00  0.00     0.047 A 
ATOM     15  C   UNL     1      29.910  -9.569 -16.442  1.00  0.00     0.047 A 
ATOM     16  C   UNL     1      29.240  -6.941 -15.761  1.00  0.00     0.016 A 
ATOM     17  C   UNL     1      30.378  -9.015 -15.247  1.00  0.00     0.016 A 
BRANCH  13  18
ATOM     18  O   UNL     1      28.606  -9.320 -18.517  1.00  0.00    -0.497 OA
ATOM     19  C   UNL     1      27.256  -9.194 -18.950  1.00  0.00     0.278 C 
ENDBRANCH  13  18
ENDBRANCH   1  12
BRANCH   8  20
ATOM     20  O   UNL     1      27.871  -5.003 -11.583  1.00  0.00    -0.490 OA
ATOM     21  C   UNL     1      27.500  -5.369 -12.907  1.00  0.00     0.278 C 
ENDBRANCH   8  20
BRANCH  11  22
ATOM     22  O   UNL     1      32.982  -5.766  -9.374  1.00  0.00    -0.492 OA
ATOM     23  C   UNL     1      33.226  -7.030  -8.769  1.00  0.00     0.278 C 
ENDBRANCH  11  22
BRANCH   9  24
ATOM     24  O   UNL     1      28.527  -3.722  -9.102  1.00  0.00    -0.490 OA
ATOM     25  C   UNL     1      27.784  -2.620  -9.614  1.00  0.00     0.279 C 
ENDBRANCH   9  24
BRANCH  10  26
ATOM     26  O   UNL     1      31.194  -3.949  -8.098  1.00  0.00    -0.490 OA
ATOM     27  C   UNL     1      30.548  -4.048  -6.832  1.00  0.00     0.278 C 
ENDBRANCH  10  26
TORSDOF 6
ENDMDL
MODEL 2
REMARK VINA RESULT:    17.070      0.835      3.417
REMARK INTER + INTRA:          24.441
REMARK INTER:                  23.460
REMARK INTRA:                   0.982
REMARK UNBOUND:                 1.384
REMARK SMILES COc1ccc(-c2cc(=O)c3c(OC)c(OC)c(OC)c(OC)c3o2)cc1
REMARK SMILES IDX 7 1 8 2 9 3 10 4 11 5 24 6 25 7 21 8 18 9 15 10 12 11 6 12
REMARK SMILES IDX 3 13 4 14 27 15 5 16 26 17 2 18 1 19 22 20 23 21 13 22 14 23
REMARK SMILES IDX 19 24 20 25 16 26 17 27
REMARK H PARENT
REMARK Flexibility Score: inf
ROOT
ATOM      1  C   UNL     1      29.588  -6.601 -13.517  1.00  0.00     0.138 A 
ATOM      2  C   UNL     1      28.591  -5.697 -13.127  1.00  0.00     0.100 A 
ATOM      3  C   UNL     1      28.741  -4.983 -11.939  1.00  0.00     0.197 A 
ATOM      4  O   UNL     1      27.823  -4.194 -11.587  1.00  0.00    -0.289 OA
ATOM      5  C   UNL     1      29.897  -5.172 -11.150  1.00  0.00     0.115 A 
ATOM      6  C   UNL     1      30.842  -6.117 -11.594  1.00  0.00     0.188 A 
ATOM      7  O   UNL     1      30.651  -6.774 -12.737  1.00  0.00    -0.452 OA
ATOM      8  C   UNL     1      31.999  -6.383 -10.854  1.00  0.00     0.209 A 
ATOM      9  C   UNL     1      32.219  -5.717  -9.621  1.00  0.00     0.211 A 
ATOM     10  C   UNL     1      31.257  -4.783  -9.149  1.00  0.00     0.208 A 
ATOM     11  C   UNL     1      30.135  -4.466  -9.951  1.00  0.00     0.179 A 
ENDROOT
BRANCH   1  12
ATOM     12  C   UNL     1      29.489  -7.392 -14.771  1.00  0.00     0.018 A 
ATOM     13  C   UNL     1      29.347  -8.928 -17.138  1.00  0.00     0.118 A 
ATOM     14  C   UNL     1      28.819  -7.634 -17.101  1.00  0.00     0.047 A 
ATOM     15  C   UNL     1      29.959  -9.451 -15.985  1.00  0.00     0.047 A 
ATOM     16  C   UNL     1      28.890  -6.868 -15.933  1.00  0.00     0.016 A 
ATOM     17  C   UNL     1      30.033  -8.688 -14.817  1.00  0.00     0.016 A 
BRANCH  13  18
ATOM     18  O   UNL     1      29.246  -9.655 -18.334  1.00  0.00    -0.497 OA
ATOM     19  C   UNL     1      28.066  -9.741 -19.125  1.00  0.00     0.278 C 
ENDBRANCH  13  18
ENDBRANCH   1  12
BRANCH   8  20
ATOM     20  O   UNL     1      32.887  -7.330 -11.406  1.00  0.00    -0.490 OA
ATOM     21  C   UNL     1      33.382  -7.371 -12.740  1.00  0.00     0.278 C 
ENDBRANCH   8  20
BRANCH  11  22
ATOM     22  O   UNL     1      29.282  -3.426  -9.575  1.00  0.00    -0.492 OA
ATOM     23  C   UNL     1      28.247  -3.634  -8.621  1.00  0.00     0.278 C 
ENDBRANCH  11  22
BRANCH   9  24
ATOM     24  O   UNL     1      33.393  -6.025  -8.903  1.00  0.00    -0.490 OA
ATOM     25  C   UNL     1      33.917  -7.315  -8.607  1.00  0.00     0.279 C 
ENDBRANCH   9  24
BRANCH  10  26
ATOM     26  O   UNL     1      31.446  -4.195  -7.886  1.00  0.00    -0.490 OA
ATOM     27  C   UNL     1      30.590  -4.337  -6.757  1.00  0.00     0.278 C 
ENDBRANCH  10  26
TORSDOF 6
ENDMDL
MODEL 3
REMARK VINA RESULT:    18.518      4.209      6.300
REMARK INTER + INTRA:          26.398
REMARK INTER:                  25.548
REMARK INTRA:                   0.850
REMARK UNBOUND:                 1.384
REMARK SMILES COc1ccc(-c2cc(=O)c3c(OC)c(OC)c(OC)c(OC)c3o2)cc1
REMARK SMILES IDX 7 1 8 2 9 3 10 4 11 5 24 6 25 7 21 8 18 9 15 10 12 11 6 12
REMARK SMILES IDX 3 13 4 14 27 15 5 16 26 17 2 18 1 19 22 20 23 21 13 22 14 23
REMARK SMILES IDX 19 24 20 25 16 26 17 27
REMARK H PARENT
REMARK Flexibility Score: inf
ROOT
ATOM      1  C   UNL     1      33.111  -5.652 -15.827  1.00  0.00     0.138 A 
ATOM      2  C   UNL     1      31.842  -5.683 -16.424  1.00  0.00     0.100 A 
ATOM      3  C   UNL     1      30.730  -6.008 -15.649  1.00  0.00     0.197 A 
ATOM      4  O   UNL     1      29.600  -6.060 -16.205  1.00  0.00    -0.289 OA
ATOM      5  C   UNL     1      30.891  -6.291 -14.275  1.00  0.00     0.115 A 
ATOM      6  C   UNL     1      32.200  -6.266 -13.753  1.00  0.00     0.188 A 
ATOM      7  O   UNL     1      33.230  -5.951 -14.536  1.00  0.00    -0.452 OA
ATOM      8  C   UNL     1      32.446  -6.564 -12.409  1.00  0.00     0.209 A 
ATOM      9  C   UNL     1      31.373  -6.927 -11.555  1.00  0.00     0.211 A 
ATOM     10  C   UNL     1      30.052  -6.985 -12.079  1.00  0.00     0.208 A 
ATOM     11  C   UNL     1      29.811  -6.600 -13.420  1.00  0.00     0.179 A 
ENDROOT
BRANCH   1  12
ATOM     12  C   UNL     1      34.336  -5.313 -16.596  1.00  0.00     0.018 A 
ATOM     13  C   UNL     1      36.641  -4.691 -18.106  1.00  0.00     0.118 A 
ATOM     14  C   UNL     1      36.719  -4.827 -16.717  1.00  0.00     0.047 A 
ATOM     15  C   UNL     1      35.400  -4.879 -18.743  1.00  0.00     0.047 A 
ATOM     16  C   UNL     1      35.582  -5.138 -15.966  1.00  0.00     0.016 A 
ATOM     17  C   UNL     1      34.263  -5.192 -17.995  1.00  0.00     0.016 A 
BRANCH  13  18
ATOM     18  O   UNL     1      37.810  -4.375 -18.813  1.00  0.00    -0.497 OA
ATOM     19  C   UNL     1      38.227  -3.050 -19.125  1.00  0.00     0.278 C 
ENDBRANCH  13  18
ENDBRANCH   1  12
BRANCH   8  20
ATOM     20  O   UNL     1      33.791  -6.483 -11.990  1.00  0.00    -0.490 OA
ATOM     21  C   UNL     1      34.483  -7.387 -11.136  1.00  0.00     0.278 C 
ENDBRANCH   8  20
BRANCH  11  22
ATOM     22  O   UNL     1      28.500  -6.486 -13.886  1.00  0.00    -0.492 OA
ATOM     23  C   UNL     1      27.627  -5.481 -13.384  1.00  0.00     0.278 C 
ENDBRANCH  11  22
BRANCH   9  24
ATOM     24  O   UNL     1      31.669  -7.230 -10.211  1.00  0.00    -0.490 OA
ATOM     25  C   UNL     1      32.511  -6.503  -9.323  1.00  0.00     0.279 C 
ENDBRANCH   9  24
BRANCH  10  26
ATOM     26  O   UNL     1      29.011  -7.428 -11.245  1.00  0.00    -0.490 OA
ATOM     27  C   UNL     1      28.583  -8.776 -11.081  1.00  0.00     0.278 C 
ENDBRANCH  10  26
TORSDOF 6
ENDMDL
