MODEL 1
REMARK VINA RESULT:    -5.961      0.000      0.000
REMARK INTER + INTRA:         -16.926
REMARK INTER:                 -15.021
REMARK INTRA:                  -1.905
REMARK UNBOUND:                -1.905
REMARK SMILES CCCCCCCCCCCCCCCCCCCCCCCCCCCC(=O)[O-]
REMARK SMILES IDX 15 1 16 2 17 3 18 4 19 5 20 6 21 7 22 8 23 9 24 10 25 11
REMARK SMILES IDX 26 12 27 13 28 14 29 15 30 16 14 17 13 18 12 19 11 20 10 21
REMARK SMILES IDX 9 22 8 23 7 24 6 25 5 26 4 27 3 28 2 29 1 30
REMARK H PARENT
REMARK Flexibility Score: inf
ROOT
ATOM      1  C   UNL     1     -18.204  25.362   1.010  1.00  0.00     0.000 C 
ENDROOT
BRANCH   1   2
ATOM      2  C   UNL     1     -17.071  26.380   1.250  1.00  0.00     0.000 C 
BRANCH   2   3
ATOM      3  C   UNL     1     -16.693  27.235   0.023  1.00  0.00     0.000 C 
BRANCH   3   4
ATOM      4  C   UNL     1     -17.867  27.992  -0.623  1.00  0.00     0.000 C 
BRANCH   4   5
ATOM      5  C   UNL     1     -17.609  29.504  -0.736  1.00  0.00     0.000 C 
BRANCH   5   6
ATOM      6  C   UNL     1     -18.510  30.182  -1.781  1.00  0.00     0.000 C 
BRANCH   6   7
ATOM      7  C   UNL     1     -18.113  31.645  -2.042  1.00  0.00     0.000 C 
BRANCH   7   8
ATOM      8  C   UNL     1     -18.174  32.505  -0.769  1.00  0.00     0.000 C 
BRANCH   8   9
ATOM      9  C   UNL     1     -16.934  33.399  -0.596  1.00  0.00     0.000 C 
BRANCH   9  10
ATOM     10  C   UNL     1     -16.216  33.171   0.747  1.00  0.00     0.000 C 
BRANCH  10  11
ATOM     11  C   UNL     1     -16.620  31.883   1.488  1.00  0.00     0.000 C 
BRANCH  11  12
ATOM     12  C   UNL     1     -15.465  30.874   1.608  1.00  0.00     0.006 C 
BRANCH  12  13
ATOM     13  C   UNL     1     -15.772  29.759   2.618  1.00  0.00     0.053 C 
BRANCH  13  14
ATOM     14  C   UNL     1     -16.268  30.310   3.920  1.00  0.00     0.041 C 
ATOM     15  O   UNL     1     -17.133  29.683   4.586  1.00  0.00    -0.550 OA
ATOM     16  O   UNL     1     -15.797  31.533   4.381  1.00  0.00    -0.550 OA
ENDBRANCH  13  14
ENDBRANCH  12  13
ENDBRANCH  11  12
ENDBRANCH  10  11
ENDBRANCH   9  10
ENDBRANCH   8   9
ENDBRANCH   7   8
ENDBRANCH   6   7
ENDBRANCH   5   6
ENDBRANCH   4   5
ENDBRANCH   3   4
ENDBRANCH   2   3
ENDBRANCH   1   2
BRANCH   1  17
ATOM     17  C   UNL     1     -18.117  24.586  -0.320  1.00  0.00     0.000 C 
BRANCH  17  18
ATOM     18  C   UNL     1     -18.903  23.264  -0.352  1.00  0.00     0.000 C 
BRANCH  18  19
ATOM     19  C   UNL     1     -19.266  22.819  -1.779  1.00  0.00     0.000 C 
BRANCH  19  20
ATOM     20  C   UNL     1     -20.362  21.742  -1.796  1.00  0.00     0.000 C 
BRANCH  20  21
ATOM     21  C   UNL     1     -20.880  21.411  -0.385  1.00  0.00     0.000 C 
BRANCH  21  22
ATOM     22  C   UNL     1     -22.358  21.788  -0.197  1.00  0.00    -0.000 C 
BRANCH  22  23
ATOM     23  C   UNL     1     -22.601  23.301  -0.333  1.00  0.00    -0.000 C 
BRANCH  23  24
ATOM     24  C   UNL     1     -24.032  23.628  -0.788  1.00  0.00    -0.000 C 
BRANCH  24  25
ATOM     25  C   UNL     1     -25.046  22.553  -0.362  1.00  0.00    -0.000 C 
BRANCH  25  26
ATOM     26  C   UNL     1     -26.048  22.212  -1.476  1.00  0.00    -0.000 C 
BRANCH  26  27
ATOM     27  C   UNL     1     -26.532  23.460  -2.237  1.00  0.00    -0.000 C 
BRANCH  27  28
ATOM     28  C   UNL     1     -26.767  23.173  -3.735  1.00  0.00    -0.000 C 
BRANCH  28  29
ATOM     29  C   UNL     1     -26.641  24.419  -4.628  1.00  0.00    -0.003 C 
ATOM     30  C   UNL     1     -25.241  25.026  -4.617  1.00  0.00     0.004 C 
ENDBRANCH  28  29
ENDBRANCH  27  28
ENDBRANCH  26  27
ENDBRANCH  25  26
ENDBRANCH  24  25
ENDBRANCH  23  24
ENDBRANCH  22  23
ENDBRANCH  21  22
ENDBRANCH  20  21
ENDBRANCH  19  20
ENDBRANCH  18  19
ENDBRANCH  17  18
ENDBRANCH   1  17
TORSDOF 26
ENDMDL
MODEL 2
REMARK VINA RESULT:    -5.505      3.532     11.040
REMARK INTER + INTRA:         -15.779
REMARK INTER:                 -13.714
REMARK INTRA:                  -2.064
REMARK UNBOUND:                -1.905
REMARK SMILES CCCCCCCCCCCCCCCCCCCCCCCCCCCC(=O)[O-]
REMARK SMILES IDX 15 1 16 2 17 3 18 4 19 5 20 6 21 7 22 8 23 9 24 10 25 11
REMARK SMILES IDX 26 12 27 13 28 14 29 15 30 16 14 17 13 18 12 19 11 20 10 21
REMARK SMILES IDX 9 22 8 23 7 24 6 25 5 26 4 27 3 28 2 29 1 30
REMARK H PARENT
REMARK Flexibility Score: inf
ROOT
ATOM      1  C   UNL     1     -18.044  25.525  -0.233  1.00  0.00     0.000 C 
ENDROOT
BRANCH   1   2
ATOM      2  C   UNL     1     -18.194  23.992  -0.279  1.00  0.00     0.000 C 
BRANCH   2   3
ATOM      3  C   UNL     1     -19.439  23.482  -1.034  1.00  0.00     0.000 C 
BRANCH   3   4
ATOM      4  C   UNL     1     -19.166  22.345  -2.036  1.00  0.00     0.000 C 
BRANCH   4   5
ATOM      5  C   UNL     1     -20.003  21.086  -1.747  1.00  0.00     0.000 C 
BRANCH   5   6
ATOM      6  C   UNL     1     -20.446  20.994  -0.278  1.00  0.00     0.000 C 
BRANCH   6   7
ATOM      7  C   UNL     1     -21.975  21.050  -0.119  1.00  0.00     0.000 C 
BRANCH   7   8
ATOM      8  C   UNL     1     -22.443  22.319   0.612  1.00  0.00     0.000 C 
BRANCH   8   9
ATOM      9  C   UNL     1     -23.104  23.338  -0.333  1.00  0.00     0.000 C 
BRANCH   9  10
ATOM     10  C   UNL     1     -24.562  22.978  -0.673  1.00  0.00     0.000 C 
BRANCH  10  11
ATOM     11  C   UNL     1     -25.274  23.973  -1.609  1.00  0.00     0.000 C 
BRANCH  11  12
ATOM     12  C   UNL     1     -26.479  23.353  -2.337  1.00  0.00     0.006 C 
BRANCH  12  13
ATOM     13  C   UNL     1     -26.737  24.015  -3.697  1.00  0.00     0.053 C 
BRANCH  13  14
ATOM     14  C   UNL     1     -25.473  24.531  -4.314  1.00  0.00     0.041 C 
ATOM     15  O   UNL     1     -25.205  25.761  -4.277  1.00  0.00    -0.550 OA
ATOM     16  O   UNL     1     -24.607  23.656  -4.959  1.00  0.00    -0.550 OA
ENDBRANCH  13  14
ENDBRANCH  12  13
ENDBRANCH  11  12
ENDBRANCH  10  11
ENDBRANCH   9  10
ENDBRANCH   8   9
ENDBRANCH   7   8
ENDBRANCH   6   7
ENDBRANCH   5   6
ENDBRANCH   4   5
ENDBRANCH   3   4
ENDBRANCH   2   3
ENDBRANCH   1   2
BRANCH   1  17
ATOM     17  C   UNL     1     -17.476  26.088   1.087  1.00  0.00     0.000 C 
BRANCH  17  18
ATOM     18  C   UNL     1     -16.354  27.126   0.919  1.00  0.00     0.000 C 
BRANCH  18  19
ATOM     19  C   UNL     1     -16.480  27.935  -0.384  1.00  0.00     0.000 C 
BRANCH  19  20
ATOM     20  C   UNL     1     -17.389  29.164  -0.225  1.00  0.00     0.000 C 
BRANCH  20  21
ATOM     21  C   UNL     1     -18.153  29.498  -1.519  1.00  0.00     0.000 C 
BRANCH  21  22
ATOM     22  C   UNL     1     -18.158  31.004  -1.828  1.00  0.00    -0.000 C 
BRANCH  22  23
ATOM     23  C   UNL     1     -18.171  31.865  -0.553  1.00  0.00    -0.000 C 
BRANCH  23  24
ATOM     24  C   UNL     1     -17.339  33.148  -0.701  1.00  0.00    -0.000 C 
BRANCH  24  25
ATOM     25  C   UNL     1     -16.344  33.342   0.456  1.00  0.00    -0.000 C 
BRANCH  25  26
ATOM     26  C   UNL     1     -15.788  32.010   0.985  1.00  0.00    -0.000 C 
BRANCH  26  27
ATOM     27  C   UNL     1     -16.339  31.651   2.377  1.00  0.00    -0.000 C 
BRANCH  27  28
ATOM     28  C   UNL     1     -15.903  30.241   2.829  1.00  0.00    -0.000 C 
BRANCH  28  29
ATOM     29  C   UNL     1     -16.419  29.856   4.226  1.00  0.00    -0.003 C 
ATOM     30  C   UNL     1     -17.221  30.968   4.896  1.00  0.00     0.004 C 
ENDBRANCH  28  29
ENDBRANCH  27  28
ENDBRANCH  26  27
ENDBRANCH  25  26
ENDBRANCH  24  25
ENDBRANCH  23  24
ENDBRANCH  22  23
ENDBRANCH  21  22
ENDBRANCH  20  21
ENDBRANCH  19  20
ENDBRANCH  18  19
ENDBRANCH  17  18
ENDBRANCH   1  17
TORSDOF 26
ENDMDL
MODEL 3
REMARK VINA RESULT:    -5.452      2.237      3.330
REMARK INTER + INTRA:         -15.645
REMARK INTER:                 -14.118
REMARK INTRA:                  -1.527
REMARK UNBOUND:                -1.905
REMARK SMILES CCCCCCCCCCCCCCCCCCCCCCCCCCCC(=O)[O-]
REMARK SMILES IDX 15 1 16 2 17 3 18 4 19 5 20 6 21 7 22 8 23 9 24 10 25 11
REMARK SMILES IDX 26 12 27 13 28 14 29 15 30 16 14 17 13 18 12 19 11 20 10 21
REMARK SMILES IDX 9 22 8 23 7 24 6 25 5 26 4 27 3 28 2 29 1 30
REMARK H PARENT
REMARK Flexibility Score: inf
ROOT
ATOM      1  C   UNL     1     -19.184  24.645   0.250  1.00  0.00     0.000 C 
ENDROOT
BRANCH   1   2
ATOM      2  C   UNL     1     -18.251  25.564   1.062  1.00  0.00     0.000 C 
BRANCH   2   3
ATOM      3  C   UNL     1     -16.939  25.954   0.350  1.00  0.00     0.000 C 
BRANCH   3   4
ATOM      4  C   UNL     1     -17.020  27.241  -0.492  1.00  0.00     0.000 C 
BRANCH   4   5
ATOM      5  C   UNL     1     -16.214  28.401   0.118  1.00  0.00     0.000 C 
BRANCH   5   6
ATOM      6  C   UNL     1     -16.306  28.443   1.652  1.00  0.00     0.000 C 
BRANCH   6   7
ATOM      7  C   UNL     1     -15.718  29.736   2.242  1.00  0.00     0.000 C 
BRANCH   7   8
ATOM      8  C   UNL     1     -15.727  30.898   1.235  1.00  0.00     0.000 C 
BRANCH   8   9
ATOM      9  C   UNL     1     -16.613  32.070   1.689  1.00  0.00     0.000 C 
BRANCH   9  10
ATOM     10  C   UNL     1     -16.415  33.336   0.833  1.00  0.00     0.000 C 
BRANCH  10  11
ATOM     11  C   UNL     1     -16.668  33.146  -0.674  1.00  0.00     0.000 C 
BRANCH  11  12
ATOM     12  C   UNL     1     -18.103  32.689  -0.987  1.00  0.00     0.006 C 
BRANCH  12  13
ATOM     13  C   UNL     1     -18.218  31.161  -1.075  1.00  0.00     0.053 C 
BRANCH  13  14
ATOM     14  C   UNL     1     -18.630  30.713  -2.445  1.00  0.00     0.041 C 
ATOM     15  O   UNL     1     -19.348  29.689  -2.588  1.00  0.00    -0.550 OA
ATOM     16  O   UNL     1     -18.191  31.408  -3.564  1.00  0.00    -0.550 OA
ENDBRANCH  13  14
ENDBRANCH  12  13
ENDBRANCH  11  12
ENDBRANCH  10  11
ENDBRANCH   9  10
ENDBRANCH   8   9
ENDBRANCH   7   8
ENDBRANCH   6   7
ENDBRANCH   5   6
ENDBRANCH   4   5
ENDBRANCH   3   4
ENDBRANCH   2   3
ENDBRANCH   1   2
BRANCH   1  17
ATOM     17  C   UNL     1     -18.473  23.548  -0.569  1.00  0.00     0.000 C 
BRANCH  17  18
ATOM     18  C   UNL     1     -19.291  22.984  -1.744  1.00  0.00     0.000 C 
BRANCH  18  19
ATOM     19  C   UNL     1     -20.653  22.418  -1.307  1.00  0.00     0.000 C 
BRANCH  19  20
ATOM     20  C   UNL     1     -20.589  21.733   0.068  1.00  0.00     0.000 C 
BRANCH  20  21
ATOM     21  C   UNL     1     -21.973  21.626   0.733  1.00  0.00     0.000 C 
BRANCH  21  22
ATOM     22  C   UNL     1     -23.074  21.220  -0.260  1.00  0.00    -0.000 C 
BRANCH  22  23
ATOM     23  C   UNL     1     -24.390  21.981  -0.022  1.00  0.00    -0.000 C 
BRANCH  23  24
ATOM     24  C   UNL     1     -25.556  21.044   0.329  1.00  0.00    -0.000 C 
BRANCH  24  25
ATOM     25  C   UNL     1     -26.881  21.483  -0.319  1.00  0.00    -0.000 C 
BRANCH  25  26
ATOM     26  C   UNL     1     -26.676  22.516  -1.438  1.00  0.00    -0.000 C 
BRANCH  26  27
ATOM     27  C   UNL     1     -26.897  21.920  -2.840  1.00  0.00    -0.000 C 
BRANCH  27  28
ATOM     28  C   UNL     1     -26.595  22.939  -3.960  1.00  0.00    -0.000 C 
BRANCH  28  29
ATOM     29  C   UNL     1     -25.825  24.178  -3.472  1.00  0.00    -0.003 C 
ATOM     30  C   UNL     1     -25.378  25.092  -4.610  1.00  0.00     0.004 C 
ENDBRANCH  28  29
ENDBRANCH  27  28
ENDBRANCH  26  27
ENDBRANCH  25  26
ENDBRANCH  24  25
ENDBRANCH  23  24
ENDBRANCH  22  23
ENDBRANCH  21  22
ENDBRANCH  20  21
ENDBRANCH  19  20
ENDBRANCH  18  19
ENDBRANCH  17  18
ENDBRANCH   1  17
TORSDOF 26
ENDMDL
MODEL 4
REMARK VINA RESULT:    -5.275      3.573     10.744
REMARK INTER + INTRA:         -15.199
REMARK INTER:                 -13.406
REMARK INTRA:                  -1.792
REMARK UNBOUND:                -1.905
REMARK SMILES CCCCCCCCCCCCCCCCCCCCCCCCCCCC(=O)[O-]
REMARK SMILES IDX 15 1 16 2 17 3 18 4 19 5 20 6 21 7 22 8 23 9 24 10 25 11
REMARK SMILES IDX 26 12 27 13 28 14 29 15 30 16 14 17 13 18 12 19 11 20 10 21
REMARK SMILES IDX 9 22 8 23 7 24 6 25 5 26 4 27 3 28 2 29 1 30
REMARK H PARENT
REMARK Flexibility Score: inf
ROOT
ATOM      1  C   UNL     1     -18.847  23.972   0.385  1.00  0.00     0.000 C 
ENDROOT
BRANCH   1   2
ATOM      2  C   UNL     1     -18.621  23.879  -1.137  1.00  0.00     0.000 C 
BRANCH   2   3
ATOM      3  C   UNL     1     -18.892  22.490  -1.751  1.00  0.00     0.000 C 
BRANCH   3   4
ATOM      4  C   UNL     1     -20.381  22.140  -1.924  1.00  0.00     0.000 C 
BRANCH   4   5
ATOM      5  C   UNL     1     -20.793  20.888  -1.130  1.00  0.00     0.000 C 
BRANCH   5   6
ATOM      6  C   UNL     1     -21.287  21.221   0.287  1.00  0.00     0.000 C 
BRANCH   6   7
ATOM      7  C   UNL     1     -22.820  21.187   0.400  1.00  0.00     0.000 C 
BRANCH   7   8
ATOM      8  C   UNL     1     -23.461  22.552   0.102  1.00  0.00     0.000 C 
BRANCH   8   9
ATOM      9  C   UNL     1     -24.996  22.523   0.208  1.00  0.00     0.000 C 
BRANCH   9  10
ATOM     10  C   UNL     1     -25.670  21.922  -1.039  1.00  0.00     0.000 C 
BRANCH  10  11
ATOM     11  C   UNL     1     -27.046  22.521  -1.384  1.00  0.00     0.000 C 
BRANCH  11  12
ATOM     12  C   UNL     1     -26.977  23.576  -2.500  1.00  0.00     0.006 C 
BRANCH  12  13
ATOM     13  C   UNL     1     -25.566  24.158  -2.661  1.00  0.00     0.053 C 
BRANCH  13  14
ATOM     14  C   UNL     1     -25.297  24.584  -4.073  1.00  0.00     0.041 C 
ATOM     15  O   UNL     1     -25.220  25.806  -4.363  1.00  0.00    -0.550 OA
ATOM     16  O   UNL     1     -25.165  23.628  -5.072  1.00  0.00    -0.550 OA
ENDBRANCH  13  14
ENDBRANCH  12  13
ENDBRANCH  11  12
ENDBRANCH  10  11
ENDBRANCH   9  10
ENDBRANCH   8   9
ENDBRANCH   7   8
ENDBRANCH   6   7
ENDBRANCH   5   6
ENDBRANCH   4   5
ENDBRANCH   3   4
ENDBRANCH   2   3
ENDBRANCH   1   2
BRANCH   1  17
ATOM     17  C   UNL     1     -18.654  25.378   0.990  1.00  0.00     0.000 C 
BRANCH  17  18
ATOM     18  C   UNL     1     -17.897  26.372   0.092  1.00  0.00     0.000 C 
BRANCH  18  19
ATOM     19  C   UNL     1     -16.484  26.689   0.610  1.00  0.00     0.000 C 
BRANCH  19  20
ATOM     20  C   UNL     1     -16.272  28.192   0.853  1.00  0.00     0.000 C 
BRANCH  20  21
ATOM     21  C   UNL     1     -16.176  28.535   2.351  1.00  0.00     0.000 C 
BRANCH  21  22
ATOM     22  C   UNL     1     -16.268  30.046   2.616  1.00  0.00    -0.000 C 
BRANCH  22  23
ATOM     23  C   UNL     1     -15.929  30.883   1.370  1.00  0.00    -0.000 C 
BRANCH  23  24
ATOM     24  C   UNL     1     -16.451  32.325   1.471  1.00  0.00    -0.000 C 
BRANCH  24  25
ATOM     25  C   UNL     1     -16.116  33.161   0.223  1.00  0.00    -0.000 C 
BRANCH  25  26
ATOM     26  C   UNL     1     -17.319  33.322  -0.719  1.00  0.00    -0.000 C 
BRANCH  26  27
ATOM     27  C   UNL     1     -18.268  32.111  -0.678  1.00  0.00    -0.000 C 
BRANCH  27  28
ATOM     28  C   UNL     1     -17.748  30.935  -1.533  1.00  0.00    -0.000 C 
BRANCH  28  29
ATOM     29  C   UNL     1     -18.587  29.654  -1.393  1.00  0.00    -0.003 C 
ATOM     30  C   UNL     1     -19.796  29.624  -2.324  1.00  0.00     0.004 C 
ENDBRANCH  28  29
ENDBRANCH  27  28
ENDBRANCH  26  27
ENDBRANCH  25  26
ENDBRANCH  24  25
ENDBRANCH  23  24
ENDBRANCH  22  23
ENDBRANCH  21  22
ENDBRANCH  20  21
ENDBRANCH  19  20
ENDBRANCH  18  19
ENDBRANCH  17  18
ENDBRANCH   1  17
TORSDOF 26
ENDMDL
MODEL 5
REMARK VINA RESULT:    -5.029      1.888      3.375
REMARK INTER + INTRA:         -14.577
REMARK INTER:                 -12.914
REMARK INTRA:                  -1.663
REMARK UNBOUND:                -1.905
REMARK SMILES CCCCCCCCCCCCCCCCCCCCCCCCCCCC(=O)[O-]
REMARK SMILES IDX 15 1 16 2 17 3 18 4 19 5 20 6 21 7 22 8 23 9 24 10 25 11
REMARK SMILES IDX 26 12 27 13 28 14 29 15 30 16 14 17 13 18 12 19 11 20 10 21
REMARK SMILES IDX 9 22 8 23 7 24 6 25 5 26 4 27 3 28 2 29 1 30
REMARK H PARENT
REMARK Flexibility Score: inf
ROOT
ATOM      1  C   UNL     1     -18.193  25.770   0.141  1.00  0.00     0.000 C 
ENDROOT
BRANCH   1   2
ATOM      2  C   UNL     1     -16.788  26.058   0.706  1.00  0.00     0.000 C 
BRANCH   2   3
ATOM      3  C   UNL     1     -16.601  27.470   1.299  1.00  0.00     0.000 C 
BRANCH   3   4
ATOM      4  C   UNL     1     -15.921  27.505   2.680  1.00  0.00     0.000 C 
BRANCH   4   5
ATOM      5  C   UNL     1     -16.619  28.462   3.661  1.00  0.00     0.000 C 
BRANCH   5   6
ATOM      6  C   UNL     1     -15.671  29.539   4.214  1.00  0.00     0.000 C 
BRANCH   6   7
ATOM      7  C   UNL     1     -15.180  30.507   3.124  1.00  0.00     0.000 C 
BRANCH   7   8
ATOM      8  C   UNL     1     -16.299  31.428   2.610  1.00  0.00     0.000 C 
BRANCH   8   9
ATOM      9  C   UNL     1     -16.250  31.628   1.086  1.00  0.00     0.000 C 
BRANCH   9  10
ATOM     10  C   UNL     1     -16.512  33.086   0.665  1.00  0.00     0.000 C 
BRANCH  10  11
ATOM     11  C   UNL     1     -17.082  33.259  -0.755  1.00  0.00     0.000 C 
BRANCH  11  12
ATOM     12  C   UNL     1     -18.356  32.432  -0.993  1.00  0.00     0.006 C 
BRANCH  12  13
ATOM     13  C   UNL     1     -18.166  31.379  -2.094  1.00  0.00     0.053 C 
BRANCH  13  14
ATOM     14  C   UNL     1     -18.721  30.047  -1.691  1.00  0.00     0.041 C 
ATOM     15  O   UNL     1     -19.951  29.808  -1.815  1.00  0.00    -0.550 OA
ATOM     16  O   UNL     1     -17.883  29.081  -1.148  1.00  0.00    -0.550 OA
ENDBRANCH  13  14
ENDBRANCH  12  13
ENDBRANCH  11  12
ENDBRANCH  10  11
ENDBRANCH   9  10
ENDBRANCH   8   9
ENDBRANCH   7   8
ENDBRANCH   6   7
ENDBRANCH   5   6
ENDBRANCH   4   5
ENDBRANCH   3   4
ENDBRANCH   2   3
ENDBRANCH   1   2
BRANCH   1  17
ATOM     17  C   UNL     1     -18.664  24.307   0.272  1.00  0.00     0.000 C 
BRANCH  17  18
ATOM     18  C   UNL     1     -18.365  23.418  -0.948  1.00  0.00     0.000 C 
BRANCH  18  19
ATOM     19  C   UNL     1     -19.633  23.026  -1.726  1.00  0.00     0.000 C 
BRANCH  19  20
ATOM     20  C   UNL     1     -19.999  21.545  -1.541  1.00  0.00     0.000 C 
BRANCH  20  21
ATOM     21  C   UNL     1     -19.942  21.107  -0.066  1.00  0.00     0.000 C 
BRANCH  21  22
ATOM     22  C   UNL     1     -21.212  21.490   0.711  1.00  0.00    -0.000 C 
BRANCH  22  23
ATOM     23  C   UNL     1     -22.444  21.618  -0.201  1.00  0.00    -0.000 C 
BRANCH  23  24
ATOM     24  C   UNL     1     -23.003  23.048  -0.236  1.00  0.00    -0.000 C 
BRANCH  24  25
ATOM     25  C   UNL     1     -24.542  23.080  -0.218  1.00  0.00    -0.000 C 
BRANCH  25  26
ATOM     26  C   UNL     1     -25.128  23.920  -1.363  1.00  0.00    -0.000 C 
BRANCH  26  27
ATOM     27  C   UNL     1     -25.986  23.085  -2.330  1.00  0.00    -0.000 C 
BRANCH  27  28
ATOM     28  C   UNL     1     -26.814  23.970  -3.286  1.00  0.00    -0.000 C 
BRANCH  28  29
ATOM     29  C   UNL     1     -26.368  23.873  -4.755  1.00  0.00    -0.003 C 
ATOM     30  C   UNL     1     -25.053  24.597  -5.031  1.00  0.00     0.004 C 
ENDBRANCH  28  29
ENDBRANCH  27  28
ENDBRANCH  26  27
ENDBRANCH  25  26
ENDBRANCH  24  25
ENDBRANCH  23  24
ENDBRANCH  22  23
ENDBRANCH  21  22
ENDBRANCH  20  21
ENDBRANCH  19  20
ENDBRANCH  18  19
ENDBRANCH  17  18
ENDBRANCH   1  17
TORSDOF 26
ENDMDL
MODEL 6
REMARK VINA RESULT:    -4.604      3.738     10.631
REMARK INTER + INTRA:         -13.507
REMARK INTER:                 -11.375
REMARK INTRA:                  -2.132
REMARK UNBOUND:                -1.905
REMARK SMILES CCCCCCCCCCCCCCCCCCCCCCCCCCCC(=O)[O-]
REMARK SMILES IDX 15 1 16 2 17 3 18 4 19 5 20 6 21 7 22 8 23 9 24 10 25 11
REMARK SMILES IDX 26 12 27 13 28 14 29 15 30 16 14 17 13 18 12 19 11 20 10 21
REMARK SMILES IDX 9 22 8 23 7 24 6 25 5 26 4 27 3 28 2 29 1 30
REMARK H PARENT
REMARK Flexibility Score: inf
ROOT
ATOM      1  C   UNL     1     -19.787  23.662  -0.177  1.00  0.00     0.000 C 
ENDROOT
BRANCH   1   2
ATOM      2  C   UNL     1     -20.795  22.785  -0.946  1.00  0.00     0.000 C 
BRANCH   2   3
ATOM      3  C   UNL     1     -20.917  21.333  -0.438  1.00  0.00     0.000 C 
BRANCH   3   4
ATOM      4  C   UNL     1     -21.312  21.199   1.044  1.00  0.00     0.000 C 
BRANCH   4   5
ATOM      5  C   UNL     1     -20.094  21.061   1.973  1.00  0.00     0.000 C 
BRANCH   5   6
ATOM      6  C   UNL     1     -20.196  21.953   3.220  1.00  0.00     0.000 C 
BRANCH   6   7
ATOM      7  C   UNL     1     -21.027  21.306   4.341  1.00  0.00     0.000 C 
BRANCH   7   8
ATOM      8  C   UNL     1     -22.455  21.870   4.414  1.00  0.00     0.000 C 
BRANCH   8   9
ATOM      9  C   UNL     1     -23.512  20.875   3.904  1.00  0.00     0.000 C 
BRANCH   9  10
ATOM     10  C   UNL     1     -24.638  21.557   3.105  1.00  0.00     0.000 C 
BRANCH  10  11
ATOM     11  C   UNL     1     -24.797  21.061   1.656  1.00  0.00     0.000 C 
BRANCH  11  12
ATOM     12  C   UNL     1     -25.498  22.083   0.746  1.00  0.00     0.006 C 
BRANCH  12  13
ATOM     13  C   UNL     1     -24.512  22.809  -0.178  1.00  0.00     0.053 C 
BRANCH  13  14
ATOM     14  C   UNL     1     -25.210  23.473  -1.326  1.00  0.00     0.041 C 
ATOM     15  O   UNL     1     -25.733  22.780  -2.237  1.00  0.00    -0.550 OA
ATOM     16  O   UNL     1     -25.253  24.860  -1.403  1.00  0.00    -0.550 OA
ENDBRANCH  13  14
ENDBRANCH  12  13
ENDBRANCH  11  12
ENDBRANCH  10  11
ENDBRANCH   9  10
ENDBRANCH   8   9
ENDBRANCH   7   8
ENDBRANCH   6   7
ENDBRANCH   5   6
ENDBRANCH   4   5
ENDBRANCH   3   4
ENDBRANCH   2   3
ENDBRANCH   1   2
BRANCH   1  17
ATOM     17  C   UNL     1     -18.394  23.783  -0.829  1.00  0.00     0.000 C 
BRANCH  17  18
ATOM     18  C   UNL     1     -17.871  25.222  -0.977  1.00  0.00     0.000 C 
BRANCH  18  19
ATOM     19  C   UNL     1     -17.749  25.954   0.371  1.00  0.00     0.000 C 
BRANCH  19  20
ATOM     20  C   UNL     1     -16.419  26.712   0.508  1.00  0.00     0.000 C 
BRANCH  20  21
ATOM     21  C   UNL     1     -16.517  27.895   1.488  1.00  0.00     0.000 C 
BRANCH  21  22
ATOM     22  C   UNL     1     -15.857  29.170   0.940  1.00  0.00    -0.000 C 
BRANCH  22  23
ATOM     23  C   UNL     1     -15.631  30.231   2.031  1.00  0.00    -0.000 C 
BRANCH  23  24
ATOM     24  C   UNL     1     -15.474  31.645   1.452  1.00  0.00    -0.000 C 
BRANCH  24  25
ATOM     25  C   UNL     1     -16.827  32.331   1.196  1.00  0.00    -0.000 C 
BRANCH  25  26
ATOM     26  C   UNL     1     -16.808  33.225  -0.053  1.00  0.00    -0.000 C 
BRANCH  26  27
ATOM     27  C   UNL     1     -17.900  32.844  -1.069  1.00  0.00    -0.000 C 
BRANCH  27  28
ATOM     28  C   UNL     1     -18.008  31.316  -1.262  1.00  0.00    -0.000 C 
BRANCH  28  29
ATOM     29  C   UNL     1     -19.044  30.900  -2.319  1.00  0.00    -0.003 C 
ATOM     30  C   UNL     1     -19.573  29.483  -2.114  1.00  0.00     0.004 C 
ENDBRANCH  28  29
ENDBRANCH  27  28
ENDBRANCH  26  27
ENDBRANCH  25  26
ENDBRANCH  24  25
ENDBRANCH  23  24
ENDBRANCH  22  23
ENDBRANCH  21  22
ENDBRANCH  20  21
ENDBRANCH  19  20
ENDBRANCH  18  19
ENDBRANCH  17  18
ENDBRANCH   1  17
TORSDOF 26
ENDMDL
MODEL 7
REMARK VINA RESULT:    -4.543      1.048      2.187
REMARK INTER + INTRA:         -13.353
REMARK INTER:                 -13.003
REMARK INTRA:                  -0.351
REMARK UNBOUND:                -1.905
REMARK SMILES CCCCCCCCCCCCCCCCCCCCCCCCCCCC(=O)[O-]
REMARK SMILES IDX 15 1 16 2 17 3 18 4 19 5 20 6 21 7 22 8 23 9 24 10 25 11
REMARK SMILES IDX 26 12 27 13 28 14 29 15 30 16 14 17 13 18 12 19 11 20 10 21
REMARK SMILES IDX 9 22 8 23 7 24 6 25 5 26 4 27 3 28 2 29 1 30
REMARK H PARENT
REMARK Flexibility Score: inf
ROOT
ATOM      1  C   UNL     1     -16.814  27.736  -0.014  1.00  0.00     0.000 C 
ENDROOT
BRANCH   1   2
ATOM      2  C   UNL     1     -17.356  28.994  -0.720  1.00  0.00     0.000 C 
BRANCH   2   3
ATOM      3  C   UNL     1     -18.833  28.910  -1.160  1.00  0.00     0.000 C 
BRANCH   3   4
ATOM      4  C   UNL     1     -19.228  29.884  -2.284  1.00  0.00     0.000 C 
BRANCH   4   5
ATOM      5  C   UNL     1     -18.343  31.143  -2.318  1.00  0.00     0.000 C 
BRANCH   5   6
ATOM      6  C   UNL     1     -17.725  31.468  -0.949  1.00  0.00     0.000 C 
BRANCH   6   7
ATOM      7  C   UNL     1     -17.541  32.980  -0.730  1.00  0.00     0.000 C 
BRANCH   7   8
ATOM      8  C   UNL     1     -16.494  33.293   0.351  1.00  0.00     0.000 C 
BRANCH   8   9
ATOM      9  C   UNL     1     -16.506  32.274   1.503  1.00  0.00     0.000 C 
BRANCH   9  10
ATOM     10  C   UNL     1     -15.385  31.225   1.384  1.00  0.00     0.000 C 
BRANCH  10  11
ATOM     11  C   UNL     1     -15.475  30.062   2.389  1.00  0.00     0.000 C 
BRANCH  11  12
ATOM     12  C   UNL     1     -15.608  30.538   3.845  1.00  0.00     0.006 C 
BRANCH  12  13
ATOM     13  C   UNL     1     -16.529  29.630   4.671  1.00  0.00     0.053 C 
BRANCH  13  14
ATOM     14  C   UNL     1     -17.551  30.418   5.432  1.00  0.00     0.041 C 
ATOM     15  O   UNL     1     -17.312  31.607   5.770  1.00  0.00    -0.550 OA
ATOM     16  O   UNL     1     -18.753  29.826   5.798  1.00  0.00    -0.550 OA
ENDBRANCH  13  14
ENDBRANCH  12  13
ENDBRANCH  11  12
ENDBRANCH  10  11
ENDBRANCH   9  10
ENDBRANCH   8   9
ENDBRANCH   7   8
ENDBRANCH   6   7
ENDBRANCH   5   6
ENDBRANCH   4   5
ENDBRANCH   3   4
ENDBRANCH   2   3
ENDBRANCH   1   2
BRANCH   1  17
ATOM     17  C   UNL     1     -17.268  26.395  -0.627  1.00  0.00     0.000 C 
BRANCH  17  18
ATOM     18  C   UNL     1     -18.307  25.622   0.203  1.00  0.00     0.000 C 
BRANCH  18  19
ATOM     19  C   UNL     1     -18.300  24.111  -0.087  1.00  0.00     0.000 C 
BRANCH  19  20
ATOM     20  C   UNL     1     -19.148  23.746  -1.315  1.00  0.00     0.000 C 
BRANCH  20  21
ATOM     21  C   UNL     1     -20.294  22.778  -0.969  1.00  0.00     0.000 C 
BRANCH  21  22
ATOM     22  C   UNL     1     -21.266  23.364   0.068  1.00  0.00    -0.000 C 
BRANCH  22  23
ATOM     23  C   UNL     1     -22.725  23.348  -0.421  1.00  0.00    -0.000 C 
BRANCH  23  24
ATOM     24  C   UNL     1     -23.478  22.082   0.015  1.00  0.00    -0.000 C 
BRANCH  24  25
ATOM     25  C   UNL     1     -24.803  22.400   0.729  1.00  0.00    -0.000 C 
BRANCH  25  26
ATOM     26  C   UNL     1     -26.031  22.097  -0.144  1.00  0.00    -0.000 C 
BRANCH  26  27
ATOM     27  C   UNL     1     -25.822  22.495  -1.616  1.00  0.00    -0.000 C 
BRANCH  27  28
ATOM     28  C   UNL     1     -26.921  23.455  -2.120  1.00  0.00    -0.000 C 
BRANCH  28  29
ATOM     29  C   UNL     1     -26.867  23.711  -3.635  1.00  0.00    -0.003 C 
ATOM     30  C   UNL     1     -25.748  24.666  -4.042  1.00  0.00     0.004 C 
ENDBRANCH  28  29
ENDBRANCH  27  28
ENDBRANCH  26  27
ENDBRANCH  25  26
ENDBRANCH  24  25
ENDBRANCH  23  24
ENDBRANCH  22  23
ENDBRANCH  21  22
ENDBRANCH  20  21
ENDBRANCH  19  20
ENDBRANCH  18  19
ENDBRANCH  17  18
ENDBRANCH   1  17
TORSDOF 26
ENDMDL
MODEL 8
REMARK VINA RESULT:    -4.442      3.696     10.819
REMARK INTER + INTRA:         -13.098
REMARK INTER:                 -11.997
REMARK INTRA:                  -1.101
REMARK UNBOUND:                -1.905
REMARK SMILES CCCCCCCCCCCCCCCCCCCCCCCCCCCC(=O)[O-]
REMARK SMILES IDX 15 1 16 2 17 3 18 4 19 5 20 6 21 7 22 8 23 9 24 10 25 11
REMARK SMILES IDX 26 12 27 13 28 14 29 15 30 16 14 17 13 18 12 19 11 20 10 21
REMARK SMILES IDX 9 22 8 23 7 24 6 25 5 26 4 27 3 28 2 29 1 30
REMARK H PARENT
REMARK Flexibility Score: inf
ROOT
ATOM      1  C   UNL     1     -16.182  28.310   0.597  1.00  0.00     0.000 C 
ENDROOT
BRANCH   1   2
ATOM      2  C   UNL     1     -17.420  27.929  -0.240  1.00  0.00     0.000 C 
BRANCH   2   3
ATOM      3  C   UNL     1     -17.380  26.515  -0.854  1.00  0.00     0.000 C 
BRANCH   3   4
ATOM      4  C   UNL     1     -17.499  25.366   0.164  1.00  0.00     0.000 C 
BRANCH   4   5
ATOM      5  C   UNL     1     -18.473  24.266  -0.292  1.00  0.00     0.000 C 
BRANCH   5   6
ATOM      6  C   UNL     1     -19.828  24.338   0.430  1.00  0.00     0.000 C 
BRANCH   6   7
ATOM      7  C   UNL     1     -20.651  23.049   0.267  1.00  0.00     0.000 C 
BRANCH   7   8
ATOM      8  C   UNL     1     -22.093  23.326  -0.190  1.00  0.00     0.000 C 
BRANCH   8   9
ATOM      9  C   UNL     1     -23.044  22.153   0.102  1.00  0.00     0.000 C 
BRANCH   9  10
ATOM     10  C   UNL     1     -24.519  22.588   0.192  1.00  0.00     0.000 C 
BRANCH  10  11
ATOM     11  C   UNL     1     -24.965  23.596  -0.883  1.00  0.00     0.000 C 
BRANCH  11  12
ATOM     12  C   UNL     1     -25.927  22.984  -1.915  1.00  0.00     0.006 C 
BRANCH  12  13
ATOM     13  C   UNL     1     -26.560  24.049  -2.821  1.00  0.00     0.053 C 
BRANCH  13  14
ATOM     14  C   UNL     1     -25.743  24.286  -4.055  1.00  0.00     0.041 C 
ATOM     15  O   UNL     1     -25.328  25.443  -4.328  1.00  0.00    -0.550 OA
ATOM     16  O   UNL     1     -25.469  23.234  -4.919  1.00  0.00    -0.550 OA
ENDBRANCH  13  14
ENDBRANCH  12  13
ENDBRANCH  11  12
ENDBRANCH  10  11
ENDBRANCH   9  10
ENDBRANCH   8   9
ENDBRANCH   7   8
ENDBRANCH   6   7
ENDBRANCH   5   6
ENDBRANCH   4   5
ENDBRANCH   3   4
ENDBRANCH   2   3
ENDBRANCH   1   2
BRANCH   1  17
ATOM     17  C   UNL     1     -16.257  27.924   2.089  1.00  0.00     0.000 C 
BRANCH  17  18
ATOM     18  C   UNL     1     -16.064  29.093   3.071  1.00  0.00     0.000 C 
BRANCH  18  19
ATOM     19  C   UNL     1     -16.247  28.675   4.540  1.00  0.00     0.000 C 
BRANCH  19  20
ATOM     20  C   UNL     1     -17.071  29.695   5.342  1.00  0.00     0.000 C 
BRANCH  20  21
ATOM     21  C   UNL     1     -16.203  30.833   5.908  1.00  0.00     0.000 C 
BRANCH  21  22
ATOM     22  C   UNL     1     -16.315  32.125   5.082  1.00  0.00    -0.000 C 
BRANCH  22  23
ATOM     23  C   UNL     1     -15.825  31.943   3.636  1.00  0.00    -0.000 C 
BRANCH  23  24
ATOM     24  C   UNL     1     -16.847  32.439   2.602  1.00  0.00    -0.000 C 
BRANCH  24  25
ATOM     25  C   UNL     1     -16.424  32.124   1.156  1.00  0.00    -0.000 C 
BRANCH  25  26
ATOM     26  C   UNL     1     -16.583  33.332   0.219  1.00  0.00    -0.000 C 
BRANCH  26  27
ATOM     27  C   UNL     1     -17.589  33.070  -0.916  1.00  0.00    -0.000 C 
BRANCH  27  28
ATOM     28  C   UNL     1     -18.050  31.597  -0.957  1.00  0.00    -0.000 C 
BRANCH  28  29
ATOM     29  C   UNL     1     -18.456  31.117  -2.361  1.00  0.00    -0.003 C 
ATOM     30  C   UNL     1     -19.362  29.889  -2.335  1.00  0.00     0.004 C 
ENDBRANCH  28  29
ENDBRANCH  27  28
ENDBRANCH  26  27
ENDBRANCH  25  26
ENDBRANCH  24  25
ENDBRANCH  23  24
ENDBRANCH  22  23
ENDBRANCH  21  22
ENDBRANCH  20  21
ENDBRANCH  19  20
ENDBRANCH  18  19
ENDBRANCH  17  18
ENDBRANCH   1  17
TORSDOF 26
ENDMDL
MODEL 9
REMARK VINA RESULT:    -4.344      3.124      4.692
REMARK INTER + INTRA:         -12.851
REMARK INTER:                 -11.087
REMARK INTRA:                  -1.764
REMARK UNBOUND:                -1.905
REMARK SMILES CCCCCCCCCCCCCCCCCCCCCCCCCCCC(=O)[O-]
REMARK SMILES IDX 15 1 16 2 17 3 18 4 19 5 20 6 21 7 22 8 23 9 24 10 25 11
REMARK SMILES IDX 26 12 27 13 28 14 29 15 30 16 14 17 13 18 12 19 11 20 10 21
REMARK SMILES IDX 9 22 8 23 7 24 6 25 5 26 4 27 3 28 2 29 1 30
REMARK H PARENT
REMARK Flexibility Score: inf
ROOT
ATOM      1  C   UNL     1     -18.448  24.231  -0.914  1.00  0.00     0.000 C 
ENDROOT
BRANCH   1   2
ATOM      2  C   UNL     1     -18.676  24.764   0.515  1.00  0.00     0.000 C 
BRANCH   2   3
ATOM      3  C   UNL     1     -17.577  25.710   1.039  1.00  0.00     0.000 C 
BRANCH   3   4
ATOM      4  C   UNL     1     -17.299  26.934   0.148  1.00  0.00     0.000 C 
BRANCH   4   5
ATOM      5  C   UNL     1     -16.667  28.103   0.924  1.00  0.00     0.000 C 
BRANCH   5   6
ATOM      6  C   UNL     1     -16.182  27.691   2.323  1.00  0.00     0.000 C 
BRANCH   6   7
ATOM      7  C   UNL     1     -16.330  28.822   3.355  1.00  0.00     0.000 C 
BRANCH   7   8
ATOM      8  C   UNL     1     -15.384  30.001   3.074  1.00  0.00     0.000 C 
BRANCH   8   9
ATOM      9  C   UNL     1     -15.724  30.734   1.765  1.00  0.00     0.000 C 
BRANCH   9  10
ATOM     10  C   UNL     1     -16.246  32.164   1.999  1.00  0.00     0.000 C 
BRANCH  10  11
ATOM     11  C   UNL     1     -17.100  32.738   0.853  1.00  0.00     0.000 C 
BRANCH  11  12
ATOM     12  C   UNL     1     -17.146  31.819  -0.379  1.00  0.00     0.006 C 
BRANCH  12  13
ATOM     13  C   UNL     1     -18.308  32.168  -1.319  1.00  0.00     0.053 C 
BRANCH  13  14
ATOM     14  C   UNL     1     -18.670  31.016  -2.206  1.00  0.00     0.041 C 
ATOM     15  O   UNL     1     -18.267  30.982  -3.399  1.00  0.00    -0.550 OA
ATOM     16  O   UNL     1     -19.481  29.996  -1.724  1.00  0.00    -0.550 OA
ENDBRANCH  13  14
ENDBRANCH  12  13
ENDBRANCH  11  12
ENDBRANCH  10  11
ENDBRANCH   9  10
ENDBRANCH   8   9
ENDBRANCH   7   8
ENDBRANCH   6   7
ENDBRANCH   5   6
ENDBRANCH   4   5
ENDBRANCH   3   4
ENDBRANCH   2   3
ENDBRANCH   1   2
BRANCH   1  17
ATOM     17  C   UNL     1     -19.492  23.207  -1.405  1.00  0.00     0.000 C 
BRANCH  17  18
ATOM     18  C   UNL     1     -20.674  22.976  -0.447  1.00  0.00     0.000 C 
BRANCH  18  19
ATOM     19  C   UNL     1     -20.709  21.549   0.126  1.00  0.00     0.000 C 
BRANCH  19  20
ATOM     20  C   UNL     1     -20.100  21.467   1.535  1.00  0.00     0.000 C 
BRANCH  20  21
ATOM     21  C   UNL     1     -21.175  21.369   2.632  1.00  0.00     0.000 C 
BRANCH  21  22
ATOM     22  C   UNL     1     -20.570  21.191   4.034  1.00  0.00    -0.000 C 
BRANCH  22  23
ATOM     23  C   UNL     1     -21.645  21.108   5.132  1.00  0.00    -0.000 C 
BRANCH  23  24
ATOM     24  C   UNL     1     -22.915  21.894   4.772  1.00  0.00    -0.000 C 
BRANCH  24  25
ATOM     25  C   UNL     1     -24.196  21.207   5.276  1.00  0.00    -0.000 C 
BRANCH  25  26
ATOM     26  C   UNL     1     -25.319  21.209   4.226  1.00  0.00    -0.000 C 
BRANCH  26  27
ATOM     27  C   UNL     1     -24.789  21.015   2.794  1.00  0.00    -0.000 C 
BRANCH  27  28
ATOM     28  C   UNL     1     -25.250  22.142   1.846  1.00  0.00    -0.000 C 
BRANCH  28  29
ATOM     29  C   UNL     1     -24.353  22.310   0.607  1.00  0.00    -0.003 C 
ATOM     30  C   UNL     1     -25.065  22.986  -0.561  1.00  0.00     0.004 C 
ENDBRANCH  28  29
ENDBRANCH  27  28
ENDBRANCH  26  27
ENDBRANCH  25  26
ENDBRANCH  24  25
ENDBRANCH  23  24
ENDBRANCH  22  23
ENDBRANCH  21  22
ENDBRANCH  20  21
ENDBRANCH  19  20
ENDBRANCH  18  19
ENDBRANCH  17  18
ENDBRANCH   1  17
TORSDOF 26
ENDMDL
