MODEL 1
REMARK VINA RESULT:    -2.788      0.000      0.000
REMARK INTER + INTRA:          -2.788
REMARK INTER:                  -2.788
REMARK INTRA:                   0.000
REMARK UNBOUND:                 0.000
REMARK SMILES c1cc[nH]c1
REMARK SMILES IDX 1 1 5 2 4 3 3 4 2 5
REMARK H PARENT 4 6
REMARK Flexibility Score: inf
ROOT
ATOM      1  C   UNL     1     143.105 127.823 135.730  1.00  0.00     0.019 A 
ATOM      2  C   UNL     1     142.308 126.875 135.122  1.00  0.00     0.082 A 
ATOM      3  N   UNL     1     141.097 127.396 134.855  1.00  0.00    -0.368 N 
ATOM      4  C   UNL     1     141.110 128.670 135.288  1.00  0.00     0.082 A 
ATOM      5  C   UNL     1     142.341 128.969 135.836  1.00  0.00     0.019 A 
ATOM      6  H   UNL     1     140.297 126.906 134.398  1.00  0.00     0.165 HD
ENDROOT
TORSDOF 0
ENDMDL
MODEL 2
REMARK VINA RESULT:    -2.744     13.978     14.707
REMARK INTER + INTRA:          -2.744
REMARK INTER:                  -2.744
REMARK INTRA:                   0.000
REMARK UNBOUND:                 0.000
REMARK SMILES c1cc[nH]c1
REMARK SMILES IDX 1 1 5 2 4 3 3 4 2 5
REMARK H PARENT 4 6
REMARK Flexibility Score: inf
ROOT
ATOM      1  C   UNL     1     144.839 142.374 135.812  1.00  0.00     0.019 A 
ATOM      2  C   UNL     1     145.155 141.158 135.242  1.00  0.00     0.082 A 
ATOM      3  N   UNL     1     146.429 141.170 134.811  1.00  0.00    -0.368 N 
ATOM      4  C   UNL     1     146.933 142.383 135.100  1.00  0.00     0.082 A 
ATOM      5  C   UNL     1     145.974 143.156 135.722  1.00  0.00     0.019 A 
ATOM      6  H   UNL     1     146.932 140.386 134.341  1.00  0.00     0.165 HD
ENDROOT
TORSDOF 0
ENDMDL
MODEL 3
REMARK VINA RESULT:    -2.740     19.849     20.678
REMARK INTER + INTRA:          -2.740
REMARK INTER:                  -2.740
REMARK INTRA:                   0.000
REMARK UNBOUND:                 0.000
REMARK SMILES c1cc[nH]c1
REMARK SMILES IDX 1 1 5 2 4 3 3 4 2 5
REMARK H PARENT 4 6
REMARK Flexibility Score: inf
ROOT
ATOM      1  C   UNL     1     131.452 144.824 135.797  1.00  0.00     0.019 A 
ATOM      2  C   UNL     1     132.664 145.156 135.228  1.00  0.00     0.082 A 
ATOM      3  N   UNL     1     132.639 146.432 134.806  1.00  0.00    -0.368 N 
ATOM      4  C   UNL     1     131.421 146.922 135.098  1.00  0.00     0.082 A 
ATOM      5  C   UNL     1     130.658 145.951 135.715  1.00  0.00     0.019 A 
ATOM      6  H   UNL     1     133.418 146.947 134.339  1.00  0.00     0.165 HD
ENDROOT
TORSDOF 0
ENDMDL
MODEL 4
REMARK VINA RESULT:    -2.294     11.063     11.978
REMARK INTER + INTRA:          -2.294
REMARK INTER:                  -2.294
REMARK INTRA:                   0.000
REMARK UNBOUND:                 0.000
REMARK SMILES c1cc[nH]c1
REMARK SMILES IDX 1 1 5 2 4 3 3 4 2 5
REMARK H PARENT 4 6
REMARK Flexibility Score: inf
ROOT
ATOM      1  C   UNL     1     130.622 131.498 137.998  1.00  0.00     0.019 A 
ATOM      2  C   UNL     1     131.927 131.235 138.361  1.00  0.00     0.082 A 
ATOM      3  N   UNL     1     131.961 130.229 139.252  1.00  0.00    -0.368 N 
ATOM      4  C   UNL     1     130.690 129.844 139.464  1.00  0.00     0.082 A 
ATOM      5  C   UNL     1     129.832 130.610 138.701  1.00  0.00     0.019 A 
ATOM      6  H   UNL     1     132.813 129.822 139.697  1.00  0.00     0.165 HD
ENDROOT
TORSDOF 0
ENDMDL
MODEL 5
REMARK VINA RESULT:    -2.275     18.078     18.987
REMARK INTER + INTRA:          -2.275
REMARK INTER:                  -2.275
REMARK INTRA:                   0.000
REMARK UNBOUND:                 0.000
REMARK SMILES c1cc[nH]c1
REMARK SMILES IDX 1 1 5 2 4 3 3 4 2 5
REMARK H PARENT 4 6
REMARK Flexibility Score: inf
ROOT
ATOM      1  C   UNL     1     130.599 143.854 138.675  1.00  0.00     0.019 A 
ATOM      2  C   UNL     1     129.813 143.028 139.452  1.00  0.00     0.082 A 
ATOM      3  N   UNL     1     130.164 141.744 139.256  1.00  0.00    -0.368 N 
ATOM      4  C   UNL     1     131.168 141.740 138.361  1.00  0.00     0.082 A 
ATOM      5  C   UNL     1     131.464 143.033 137.978  1.00  0.00     0.019 A 
ATOM      6  H   UNL     1     129.739 140.908 139.713  1.00  0.00     0.165 HD
ENDROOT
TORSDOF 0
ENDMDL
MODEL 6
REMARK VINA RESULT:    -2.272      4.549      5.257
REMARK INTER + INTRA:          -2.272
REMARK INTER:                  -2.272
REMARK INTRA:                   0.000
REMARK UNBOUND:                 0.000
REMARK SMILES c1cc[nH]c1
REMARK SMILES IDX 1 1 5 2 4 3 3 4 2 5
REMARK H PARENT 4 6
REMARK Flexibility Score: inf
ROOT
ATOM      1  C   UNL     1     142.307 130.787 137.969  1.00  0.00     0.019 A 
ATOM      2  C   UNL     1     142.647 132.058 138.384  1.00  0.00     0.082 A 
ATOM      3  N   UNL     1     143.647 131.996 139.282  1.00  0.00    -0.368 N 
ATOM      4  C   UNL     1     143.950 130.696 139.446  1.00  0.00     0.082 A 
ATOM      5  C   UNL     1     143.138 129.917 138.646  1.00  0.00     0.019 A 
ATOM      6  H   UNL     1     144.102 132.804 139.761  1.00  0.00     0.165 HD
ENDROOT
TORSDOF 0
ENDMDL
MODEL 7
REMARK VINA RESULT:    -2.268     15.129     15.747
REMARK INTER + INTRA:          -2.268
REMARK INTER:                  -2.268
REMARK INTRA:                   0.000
REMARK UNBOUND:                 0.000
REMARK SMILES c1cc[nH]c1
REMARK SMILES IDX 1 1 5 2 4 3 3 4 2 5
REMARK H PARENT 4 6
REMARK Flexibility Score: inf
ROOT
ATOM      1  C   UNL     1     143.302 142.441 138.089  1.00  0.00     0.019 A 
ATOM      2  C   UNL     1     141.959 142.631 138.340  1.00  0.00     0.082 A 
ATOM      3  N   UNL     1     141.794 143.633 139.222  1.00  0.00    -0.368 N 
ATOM      4  C   UNL     1     143.020 144.088 139.538  1.00  0.00     0.082 A 
ATOM      5  C   UNL     1     143.980 143.370 138.853  1.00  0.00     0.019 A 
ATOM      6  H   UNL     1     140.886 143.992 139.591  1.00  0.00     0.165 HD
ENDROOT
TORSDOF 0
ENDMDL
MODEL 8
REMARK VINA RESULT:    -2.159     11.133     12.198
REMARK INTER + INTRA:          -2.159
REMARK INTER:                  -2.159
REMARK INTRA:                   0.000
REMARK UNBOUND:                 0.000
REMARK SMILES c1cc[nH]c1
REMARK SMILES IDX 1 1 5 2 4 3 3 4 2 5
REMARK H PARENT 4 6
REMARK Flexibility Score: inf
ROOT
ATOM      1  C   UNL     1     132.443 135.789 130.897  1.00  0.00     0.019 A 
ATOM      2  C   UNL     1     133.214 136.120 131.992  1.00  0.00     0.082 A 
ATOM      3  N   UNL     1     134.264 135.284 132.083  1.00  0.00    -0.368 N 
ATOM      4  C   UNL     1     134.172 134.419 131.057  1.00  0.00     0.082 A 
ATOM      5  C   UNL     1     133.053 134.704 130.300  1.00  0.00     0.019 A 
ATOM      6  H   UNL     1     135.010 135.301 132.813  1.00  0.00     0.165 HD
ENDROOT
TORSDOF 0
ENDMDL
MODEL 9
REMARK VINA RESULT:    -2.116     10.680     11.339
REMARK INTER + INTRA:          -2.116
REMARK INTER:                  -2.116
REMARK INTRA:                   0.000
REMARK UNBOUND:                 0.000
REMARK SMILES c1cc[nH]c1
REMARK SMILES IDX 1 1 5 2 4 3 3 4 2 5
REMARK H PARENT 4 6
REMARK Flexibility Score: inf
ROOT
ATOM      1  C   UNL     1     140.720 138.824 130.432  1.00  0.00     0.019 A 
ATOM      2  C   UNL     1     139.560 139.060 131.140  1.00  0.00     0.082 A 
ATOM      3  N   UNL     1     139.495 138.239 132.203  1.00  0.00    -0.368 N 
ATOM      4  C   UNL     1     140.604 137.477 132.182  1.00  0.00     0.082 A 
ATOM      5  C   UNL     1     141.387 137.814 131.097  1.00  0.00     0.019 A 
ATOM      6  H   UNL     1     138.729 138.199 132.910  1.00  0.00     0.165 HD
ENDROOT
TORSDOF 0
ENDMDL
