MODEL 1
REMARK VINA RESULT:    -3.408      0.000      0.000
REMARK INTER + INTRA:          -4.068
REMARK INTER:                  -4.005
REMARK INTRA:                  -0.062
REMARK UNBOUND:                -0.062
REMARK SMILES O=C([O-])CCC(=O)[O-]
REMARK SMILES IDX 4 1 2 2 1 3 3 4 5 5 6 6 7 7 8 8
REMARK H PARENT
REMARK Flexibility Score: inf
ROOT
ATOM      1  C   UNL     1      49.460  14.138  18.497  1.00  0.00     0.059 C 
ENDROOT
BRANCH   1   2
ATOM      2  C   UNL     1      49.265  14.390  17.033  1.00  0.00     0.042 C 
ATOM      3  O   UNL     1      48.718  13.519  16.307  1.00  0.00    -0.550 OA
ATOM      4  O   UNL     1      49.725  15.570  16.462  1.00  0.00    -0.550 OA
ENDBRANCH   1   2
BRANCH   1   5
ATOM      5  C   UNL     1      49.246  15.409  19.324  1.00  0.00     0.059 C 
BRANCH   5   6
ATOM      6  C   UNL     1      48.135  15.243  20.315  1.00  0.00     0.042 C 
ATOM      7  O   UNL     1      47.930  16.125  21.190  1.00  0.00    -0.550 OA
ATOM      8  O   UNL     1      47.352  14.096  20.298  1.00  0.00    -0.550 OA
ENDBRANCH   5   6
ENDBRANCH   1   5
TORSDOF 3
ENDMDL
MODEL 2
REMARK VINA RESULT:    -3.303      1.506      4.156
REMARK INTER + INTRA:          -3.945
REMARK INTER:                  -3.850
REMARK INTRA:                  -0.095
REMARK UNBOUND:                -0.062
REMARK SMILES O=C([O-])CCC(=O)[O-]
REMARK SMILES IDX 4 1 2 2 1 3 3 4 5 5 6 6 7 7 8 8
REMARK H PARENT
REMARK Flexibility Score: inf
ROOT
ATOM      1  C   UNL     1      48.623  13.474  18.453  1.00  0.00     0.059 C 
ENDROOT
BRANCH   1   2
ATOM      2  C   UNL     1      48.936  14.749  19.175  1.00  0.00     0.042 C 
ATOM      3  O   UNL     1      49.964  15.411  18.873  1.00  0.00    -0.550 OA
ATOM      4  O   UNL     1      48.116  15.184  20.208  1.00  0.00    -0.550 OA
ENDBRANCH   1   2
BRANCH   1   5
ATOM      5  C   UNL     1      49.732  13.096  17.466  1.00  0.00     0.059 C 
BRANCH   5   6
ATOM      6  C   UNL     1      49.338  13.395  16.052  1.00  0.00     0.042 C 
ATOM      7  O   UNL     1      48.175  13.802  15.791  1.00  0.00    -0.550 OA
ATOM      8  O   UNL     1      50.241  13.185  15.018  1.00  0.00    -0.550 OA
ENDBRANCH   5   6
ENDBRANCH   1   5
TORSDOF 3
ENDMDL
MODEL 3
REMARK VINA RESULT:    -3.266      2.098      4.309
REMARK INTER + INTRA:          -3.901
REMARK INTER:                  -3.784
REMARK INTRA:                  -0.117
REMARK UNBOUND:                -0.062
REMARK SMILES O=C([O-])CCC(=O)[O-]
REMARK SMILES IDX 4 1 2 2 1 3 3 4 5 5 6 6 7 7 8 8
REMARK H PARENT
REMARK Flexibility Score: inf
ROOT
ATOM      1  C   UNL     1      49.641  13.130  17.095  1.00  0.00     0.059 C 
ENDROOT
BRANCH   1   2
ATOM      2  C   UNL     1      49.187  13.714  18.398  1.00  0.00     0.042 C 
ATOM      3  O   UNL     1      49.742  14.748  18.856  1.00  0.00    -0.550 OA
ATOM      4  O   UNL     1      48.181  13.092  19.127  1.00  0.00    -0.550 OA
ENDBRANCH   1   2
BRANCH   1   5
ATOM      5  C   UNL     1      48.815  13.660  15.919  1.00  0.00     0.059 C 
BRANCH   5   6
ATOM      6  C   UNL     1      49.423  14.896  15.329  1.00  0.00     0.042 C 
ATOM      7  O   UNL     1      48.888  16.019  15.525  1.00  0.00    -0.550 OA
ATOM      8  O   UNL     1      50.554  14.802  14.530  1.00  0.00    -0.550 OA
ENDBRANCH   5   6
ENDBRANCH   1   5
TORSDOF 3
ENDMDL
MODEL 4
REMARK VINA RESULT:    -3.243     18.086     19.080
REMARK INTER + INTRA:          -3.874
REMARK INTER:                  -3.757
REMARK INTRA:                  -0.117
REMARK UNBOUND:                -0.062
REMARK SMILES O=C([O-])CCC(=O)[O-]
REMARK SMILES IDX 4 1 2 2 1 3 3 4 5 5 6 6 7 7 8 8
REMARK H PARENT
REMARK Flexibility Score: inf
ROOT
ATOM      1  C   UNL     1      57.431  -1.778  18.291  1.00  0.00     0.059 C 
ENDROOT
BRANCH   1   2
ATOM      2  C   UNL     1      57.963  -3.111  17.862  1.00  0.00     0.042 C 
ATOM      3  O   UNL     1      57.792  -4.125  18.590  1.00  0.00    -0.550 OA
ATOM      4  O   UNL     1      58.686  -3.226  16.682  1.00  0.00    -0.550 OA
ENDBRANCH   1   2
BRANCH   1   5
ATOM      5  C   UNL     1      56.500  -1.903  19.501  1.00  0.00     0.059 C 
BRANCH   5   6
ATOM      6  C   UNL     1      55.059  -1.910  19.091  1.00  0.00     0.042 C 
ATOM      7  O   UNL     1      54.520  -2.975  18.690  1.00  0.00    -0.550 OA
ATOM      8  O   UNL     1      54.323  -0.733  19.114  1.00  0.00    -0.550 OA
ENDBRANCH   5   6
ENDBRANCH   1   5
TORSDOF 3
ENDMDL
MODEL 5
REMARK VINA RESULT:    -3.237      1.350      1.611
REMARK INTER + INTRA:          -3.867
REMARK INTER:                  -3.766
REMARK INTRA:                  -0.102
REMARK UNBOUND:                -0.062
REMARK SMILES O=C([O-])CCC(=O)[O-]
REMARK SMILES IDX 4 1 2 2 1 3 3 4 5 5 6 6 7 7 8 8
REMARK H PARENT
REMARK Flexibility Score: inf
ROOT
ATOM      1  C   UNL     1      49.657  13.312  17.925  1.00  0.00     0.059 C 
ENDROOT
BRANCH   1   2
ATOM      2  C   UNL     1      49.398  13.589  16.475  1.00  0.00     0.042 C 
ATOM      3  O   UNL     1      49.331  12.638  15.652  1.00  0.00    -0.550 OA
ATOM      4  O   UNL     1      49.274  14.898  16.027  1.00  0.00    -0.550 OA
ENDBRANCH   1   2
BRANCH   1   5
ATOM      5  C   UNL     1      48.534  13.856  18.814  1.00  0.00     0.059 C 
BRANCH   5   6
ATOM      6  C   UNL     1      48.925  15.144  19.471  1.00  0.00     0.042 C 
ATOM      7  O   UNL     1      50.068  15.635  19.273  1.00  0.00    -0.550 OA
ATOM      8  O   UNL     1      48.043  15.780  20.335  1.00  0.00    -0.550 OA
ENDBRANCH   5   6
ENDBRANCH   1   5
TORSDOF 3
ENDMDL
MODEL 6
REMARK VINA RESULT:    -3.197      2.127      2.754
REMARK INTER + INTRA:          -3.820
REMARK INTER:                  -3.731
REMARK INTRA:                  -0.089
REMARK UNBOUND:                -0.062
REMARK SMILES O=C([O-])CCC(=O)[O-]
REMARK SMILES IDX 4 1 2 2 1 3 3 4 5 5 6 6 7 7 8 8
REMARK H PARENT
REMARK Flexibility Score: inf
ROOT
ATOM      1  C   UNL     1      48.859  13.695  15.912  1.00  0.00     0.059 C 
ENDROOT
BRANCH   1   2
ATOM      2  C   UNL     1      49.917  14.287  15.033  1.00  0.00     0.042 C 
ATOM      3  O   UNL     1      50.073  15.536  14.983  1.00  0.00    -0.550 OA
ATOM      4  O   UNL     1      50.703  13.464  14.236  1.00  0.00    -0.550 OA
ENDBRANCH   1   2
BRANCH   1   5
ATOM      5  C   UNL     1      49.462  13.018  17.147  1.00  0.00     0.059 C 
BRANCH   5   6
ATOM      6  C   UNL     1      49.127  13.760  18.404  1.00  0.00     0.042 C 
ATOM      7  O   UNL     1      49.791  14.778  18.735  1.00  0.00    -0.550 OA
ATOM      8  O   UNL     1      48.108  13.305  19.231  1.00  0.00    -0.550 OA
ENDBRANCH   5   6
ENDBRANCH   1   5
TORSDOF 3
ENDMDL
MODEL 7
REMARK VINA RESULT:    -3.174     17.889     18.780
REMARK INTER + INTRA:          -3.793
REMARK INTER:                  -3.698
REMARK INTRA:                  -0.096
REMARK UNBOUND:                -0.062
REMARK SMILES O=C([O-])CCC(=O)[O-]
REMARK SMILES IDX 4 1 2 2 1 3 3 4 5 5 6 6 7 7 8 8
REMARK H PARENT
REMARK Flexibility Score: inf
ROOT
ATOM      1  C   UNL     1      57.189  -2.549  19.181  1.00  0.00     0.059 C 
ENDROOT
BRANCH   1   2
ATOM      2  C   UNL     1      57.526  -1.266  18.486  1.00  0.00     0.042 C 
ATOM      3  O   UNL     1      57.151  -0.166  18.971  1.00  0.00    -0.550 OA
ATOM      4  O   UNL     1      58.216  -1.286  17.280  1.00  0.00    -0.550 OA
ENDBRANCH   1   2
BRANCH   1   5
ATOM      5  C   UNL     1      56.194  -3.387  18.372  1.00  0.00     0.059 C 
BRANCH   5   6
ATOM      6  C   UNL     1      54.784  -3.157  18.822  1.00  0.00     0.042 C 
ATOM      7  O   UNL     1      53.835  -3.780  18.276  1.00  0.00    -0.550 OA
ATOM      8  O   UNL     1      54.513  -2.225  19.815  1.00  0.00    -0.550 OA
ENDBRANCH   5   6
ENDBRANCH   1   5
TORSDOF 3
ENDMDL
MODEL 8
REMARK VINA RESULT:    -3.154     17.341     18.150
REMARK INTER + INTRA:          -3.770
REMARK INTER:                  -3.652
REMARK INTRA:                  -0.117
REMARK UNBOUND:                -0.062
REMARK SMILES O=C([O-])CCC(=O)[O-]
REMARK SMILES IDX 4 1 2 2 1 3 3 4 5 5 6 6 7 7 8 8
REMARK H PARENT
REMARK Flexibility Score: inf
ROOT
ATOM      1  C   UNL     1      56.253  -2.200  19.528  1.00  0.00     0.059 C 
ENDROOT
BRANCH   1   2
ATOM      2  C   UNL     1      54.837  -2.179  19.038  1.00  0.00     0.042 C 
ATOM      3  O   UNL     1      54.324  -3.216  18.541  1.00  0.00    -0.550 OA
ATOM      4  O   UNL     1      54.099  -1.003  19.090  1.00  0.00    -0.550 OA
ENDBRANCH   1   2
BRANCH   1   5
ATOM      5  C   UNL     1      57.252  -2.025  18.380  1.00  0.00     0.059 C 
BRANCH   5   6
ATOM      6  C   UNL     1      57.636  -0.589  18.196  1.00  0.00     0.042 C 
ATOM      7  O   UNL     1      58.355  -0.246  17.220  1.00  0.00    -0.550 OA
ATOM      8  O   UNL     1      57.234   0.364  19.123  1.00  0.00    -0.550 OA
ENDBRANCH   5   6
ENDBRANCH   1   5
TORSDOF 3
ENDMDL
