MODEL 1
REMARK VINA RESULT:    -5.399      0.000      0.000
REMARK INTER + INTRA:          -6.167
REMARK INTER:                  -6.030
REMARK INTRA:                  -0.137
REMARK UNBOUND:                -0.137
REMARK SMILES COc1cc2ccc(=O)oc2cc1OC
REMARK SMILES IDX 3 1 13 2 12 3 11 4 5 5 4 6 6 7 7 8 8 9 9 10 10 11 2 12 1 13
REMARK SMILES IDX 14 14 15 15
REMARK H PARENT
REMARK Flexibility Score: inf
ROOT
ATOM      1  C   UNL     1       2.521  -4.699  22.623  1.00  0.00     0.161 A 
ATOM      2  C   UNL     1       1.858  -3.470  22.460  1.00  0.00     0.164 A 
ATOM      3  C   UNL     1       1.526  -3.021  21.167  1.00  0.00     0.098 A 
ATOM      4  C   UNL     1       1.852  -3.787  20.046  1.00  0.00     0.142 A 
ATOM      5  C   UNL     1       2.517  -5.020  20.209  1.00  0.00     0.022 A 
ATOM      6  C   UNL     1       2.849  -5.471  21.492  1.00  0.00     0.062 A 
ATOM      7  C   UNL     1       2.831  -5.763  19.066  1.00  0.00     0.019 A 
ATOM      8  C   UNL     1       2.479  -5.270  17.810  1.00  0.00     0.094 A 
ATOM      9  C   UNL     1       1.820  -4.040  17.725  1.00  0.00     0.336 A 
ATOM     10  O   UNL     1       1.494  -3.577  16.602  1.00  0.00    -0.246 OA
ATOM     11  O   UNL     1       1.535  -3.353  18.829  1.00  0.00    -0.423 OA
ENDROOT
BRANCH   1  12
ATOM     12  O   UNL     1       2.835  -5.116  23.926  1.00  0.00    -0.493 OA
ATOM     13  C   UNL     1       4.124  -5.004  24.520  1.00  0.00     0.278 C 
ENDBRANCH   1  12
BRANCH   2  14
ATOM     14  O   UNL     1       1.545  -2.726  23.609  1.00  0.00    -0.493 OA
ATOM     15  C   UNL     1       0.256  -2.671  24.210  1.00  0.00     0.278 C 
ENDBRANCH   2  14
TORSDOF 2
ENDMDL
MODEL 2
REMARK VINA RESULT:    -5.045      1.412      4.905
REMARK INTER + INTRA:          -5.771
REMARK INTER:                  -5.651
REMARK INTRA:                  -0.120
REMARK UNBOUND:                -0.137
REMARK SMILES COc1cc2ccc(=O)oc2cc1OC
REMARK SMILES IDX 3 1 13 2 12 3 11 4 5 5 4 6 6 7 7 8 8 9 9 10 10 11 2 12 1 13
REMARK SMILES IDX 14 14 15 15
REMARK H PARENT
REMARK Flexibility Score: inf
ROOT
ATOM      1  C   UNL     1       1.990  -4.360  19.027  1.00  0.00     0.161 A 
ATOM      2  C   UNL     1       1.477  -3.204  19.641  1.00  0.00     0.164 A 
ATOM      3  C   UNL     1       1.649  -3.013  21.027  1.00  0.00     0.098 A 
ATOM      4  C   UNL     1       2.323  -3.966  21.793  1.00  0.00     0.142 A 
ATOM      5  C   UNL     1       2.837  -5.126  21.178  1.00  0.00     0.022 A 
ATOM      6  C   UNL     1       2.670  -5.320  19.802  1.00  0.00     0.062 A 
ATOM      7  C   UNL     1       3.508  -6.061  21.974  1.00  0.00     0.019 A 
ATOM      8  C   UNL     1       3.647  -5.822  23.341  1.00  0.00     0.094 A 
ATOM      9  C   UNL     1       3.111  -4.649  23.883  1.00  0.00     0.336 A 
ATOM     10  O   UNL     1       3.227  -4.414  25.113  1.00  0.00    -0.246 OA
ATOM     11  O   UNL     1       2.479  -3.777  23.102  1.00  0.00    -0.423 OA
ENDROOT
BRANCH   1  12
ATOM     12  O   UNL     1       1.802  -4.517  17.645  1.00  0.00    -0.493 OA
ATOM     13  C   UNL     1       2.779  -4.205  16.657  1.00  0.00     0.278 C 
ENDBRANCH   1  12
BRANCH   2  14
ATOM     14  O   UNL     1       0.805  -2.267  18.839  1.00  0.00    -0.493 OA
ATOM     15  C   UNL     1      -0.418  -1.631  19.193  1.00  0.00     0.278 C 
ENDBRANCH   2  14
TORSDOF 2
ENDMDL
MODEL 3
REMARK VINA RESULT:    -4.810      3.617      5.663
REMARK INTER + INTRA:          -5.509
REMARK INTER:                  -5.346
REMARK INTRA:                  -0.163
REMARK UNBOUND:                -0.137
REMARK SMILES COc1cc2ccc(=O)oc2cc1OC
REMARK SMILES IDX 3 1 13 2 12 3 11 4 5 5 4 6 6 7 7 8 8 9 9 10 10 11 2 12 1 13
REMARK SMILES IDX 14 14 15 15
REMARK H PARENT
REMARK Flexibility Score: inf
ROOT
ATOM      1  C   UNL     1       2.230  -3.721  25.089  1.00  0.00     0.161 A 
ATOM      2  C   UNL     1       1.999  -4.278  23.820  1.00  0.00     0.164 A 
ATOM      3  C   UNL     1       0.685  -4.350  23.315  1.00  0.00     0.098 A 
ATOM      4  C   UNL     1      -0.389  -3.873  24.069  1.00  0.00     0.142 A 
ATOM      5  C   UNL     1      -0.158  -3.315  25.343  1.00  0.00     0.022 A 
ATOM      6  C   UNL     1       1.145  -3.240  25.849  1.00  0.00     0.062 A 
ATOM      7  C   UNL     1      -1.256  -2.846  26.073  1.00  0.00     0.019 A 
ATOM      8  C   UNL     1      -2.535  -2.943  25.526  1.00  0.00     0.094 A 
ATOM      9  C   UNL     1      -2.687  -3.508  24.256  1.00  0.00     0.336 A 
ATOM     10  O   UNL     1      -3.833  -3.605  23.744  1.00  0.00    -0.246 OA
ATOM     11  O   UNL     1      -1.626  -3.946  23.583  1.00  0.00    -0.423 OA
ENDROOT
BRANCH   1  12
ATOM     12  O   UNL     1       3.551  -3.665  25.560  1.00  0.00    -0.493 OA
ATOM     13  C   UNL     1       4.125  -4.600  26.467  1.00  0.00     0.278 C 
ENDBRANCH   1  12
BRANCH   2  14
ATOM     14  O   UNL     1       3.103  -4.747  23.089  1.00  0.00    -0.493 OA
ATOM     15  C   UNL     1       3.489  -6.114  22.998  1.00  0.00     0.278 C 
ENDBRANCH   2  14
TORSDOF 2
ENDMDL
MODEL 4
REMARK VINA RESULT:    -4.733      1.648      2.521
REMARK INTER + INTRA:          -5.424
REMARK INTER:                  -5.299
REMARK INTRA:                  -0.125
REMARK UNBOUND:                -0.137
REMARK SMILES COc1cc2ccc(=O)oc2cc1OC
REMARK SMILES IDX 3 1 13 2 12 3 11 4 5 5 4 6 6 7 7 8 8 9 9 10 10 11 2 12 1 13
REMARK SMILES IDX 14 14 15 15
REMARK H PARENT
REMARK Flexibility Score: inf
ROOT
ATOM      1  C   UNL     1       2.533  -4.682  25.172  1.00  0.00     0.161 A 
ATOM      2  C   UNL     1       1.818  -3.485  24.993  1.00  0.00     0.164 A 
ATOM      3  C   UNL     1       1.523  -3.035  23.690  1.00  0.00     0.098 A 
ATOM      4  C   UNL     1       1.939  -3.769  22.577  1.00  0.00     0.142 A 
ATOM      5  C   UNL     1       2.657  -4.969  22.757  1.00  0.00     0.022 A 
ATOM      6  C   UNL     1       2.952  -5.421  24.048  1.00  0.00     0.062 A 
ATOM      7  C   UNL     1       3.059  -5.681  21.621  1.00  0.00     0.019 A 
ATOM      8  C   UNL     1       2.741  -5.189  20.356  1.00  0.00     0.094 A 
ATOM      9  C   UNL     1       2.026  -3.991  20.255  1.00  0.00     0.336 A 
ATOM     10  O   UNL     1       1.729  -3.529  19.122  1.00  0.00    -0.246 OA
ATOM     11  O   UNL     1       1.656  -3.334  21.351  1.00  0.00    -0.423 OA
ENDROOT
BRANCH   1  12
ATOM     12  O   UNL     1       2.809  -5.101  26.483  1.00  0.00    -0.493 OA
ATOM     13  C   UNL     1       4.088  -5.023  27.104  1.00  0.00     0.278 C 
ENDBRANCH   1  12
BRANCH   2  14
ATOM     14  O   UNL     1       1.416  -2.773  26.134  1.00  0.00    -0.493 OA
ATOM     15  C   UNL     1       0.156  -2.127  26.281  1.00  0.00     0.278 C 
ENDBRANCH   2  14
TORSDOF 2
ENDMDL
MODEL 5
REMARK VINA RESULT:    -4.703      1.776      5.355
REMARK INTER + INTRA:          -5.390
REMARK INTER:                  -5.294
REMARK INTRA:                  -0.096
REMARK UNBOUND:                -0.137
REMARK SMILES COc1cc2ccc(=O)oc2cc1OC
REMARK SMILES IDX 3 1 13 2 12 3 11 4 5 5 4 6 6 7 7 8 8 9 9 10 10 11 2 12 1 13
REMARK SMILES IDX 14 14 15 15
REMARK H PARENT
REMARK Flexibility Score: inf
ROOT
ATOM      1  C   UNL     1       0.945  -2.507  19.419  1.00  0.00     0.161 A 
ATOM      2  C   UNL     1       1.479  -3.521  18.605  1.00  0.00     0.164 A 
ATOM      3  C   UNL     1       2.220  -4.568  19.188  1.00  0.00     0.098 A 
ATOM      4  C   UNL     1       2.428  -4.604  20.568  1.00  0.00     0.142 A 
ATOM      5  C   UNL     1       1.893  -3.588  21.385  1.00  0.00     0.022 A 
ATOM      6  C   UNL     1       1.156  -2.545  20.812  1.00  0.00     0.062 A 
ATOM      7  C   UNL     1       2.120  -3.653  22.764  1.00  0.00     0.019 A 
ATOM      8  C   UNL     1       2.861  -4.712  23.287  1.00  0.00     0.094 A 
ATOM      9  C   UNL     1       3.361  -5.685  22.416  1.00  0.00     0.336 A 
ATOM     10  O   UNL     1       4.032  -6.649  22.867  1.00  0.00    -0.246 OA
ATOM     11  O   UNL     1       3.130  -5.598  21.108  1.00  0.00    -0.423 OA
ENDROOT
BRANCH   1  12
ATOM     12  O   UNL     1       0.212  -1.479  18.805  1.00  0.00    -0.493 OA
ATOM     13  C   UNL     1      -1.198  -1.500  18.609  1.00  0.00     0.278 C 
ENDBRANCH   1  12
BRANCH   2  14
ATOM     14  O   UNL     1       1.250  -3.453  17.221  1.00  0.00    -0.493 OA
ATOM     15  C   UNL     1       2.129  -2.837  16.286  1.00  0.00     0.278 C 
ENDBRANCH   2  14
TORSDOF 2
ENDMDL
MODEL 6
REMARK VINA RESULT:    -4.603      1.275      2.782
REMARK INTER + INTRA:          -5.278
REMARK INTER:                  -5.254
REMARK INTRA:                  -0.024
REMARK UNBOUND:                -0.137
REMARK SMILES COc1cc2ccc(=O)oc2cc1OC
REMARK SMILES IDX 3 1 13 2 12 3 11 4 5 5 4 6 6 7 7 8 8 9 9 10 10 11 2 12 1 13
REMARK SMILES IDX 14 14 15 15
REMARK H PARENT
REMARK Flexibility Score: inf
ROOT
ATOM      1  C   UNL     1       1.939  -3.534  22.342  1.00  0.00     0.161 A 
ATOM      2  C   UNL     1       2.727  -4.525  21.732  1.00  0.00     0.164 A 
ATOM      3  C   UNL     1       2.682  -4.692  20.333  1.00  0.00     0.098 A 
ATOM      4  C   UNL     1       1.858  -3.881  19.551  1.00  0.00     0.142 A 
ATOM      5  C   UNL     1       1.066  -2.887  20.162  1.00  0.00     0.022 A 
ATOM      6  C   UNL     1       1.108  -2.716  21.551  1.00  0.00     0.062 A 
ATOM      7  C   UNL     1       0.251  -2.091  19.350  1.00  0.00     0.019 A 
ATOM      8  C   UNL     1       0.245  -2.301  17.971  1.00  0.00     0.094 A 
ATOM      9  C   UNL     1       1.057  -3.305  17.434  1.00  0.00     0.336 A 
ATOM     10  O   UNL     1       1.066  -3.510  16.193  1.00  0.00    -0.246 OA
ATOM     11  O   UNL     1       1.822  -4.047  18.231  1.00  0.00    -0.423 OA
ENDROOT
BRANCH   1  12
ATOM     12  O   UNL     1       2.009  -3.395  23.738  1.00  0.00    -0.493 OA
ATOM     13  C   UNL     1       0.937  -2.945  24.559  1.00  0.00     0.278 C 
ENDBRANCH   1  12
BRANCH   2  14
ATOM     14  O   UNL     1       3.544  -5.322  22.550  1.00  0.00    -0.493 OA
ATOM     15  C   UNL     1       3.088  -6.441  23.302  1.00  0.00     0.278 C 
ENDBRANCH   2  14
TORSDOF 2
ENDMDL
MODEL 7
REMARK VINA RESULT:    -4.571      3.788      5.312
REMARK INTER + INTRA:          -5.243
REMARK INTER:                  -5.112
REMARK INTRA:                  -0.131
REMARK UNBOUND:                -0.137
REMARK SMILES COc1cc2ccc(=O)oc2cc1OC
REMARK SMILES IDX 3 1 13 2 12 3 11 4 5 5 4 6 6 7 7 8 8 9 9 10 10 11 2 12 1 13
REMARK SMILES IDX 14 14 15 15
REMARK H PARENT
REMARK Flexibility Score: inf
ROOT
ATOM      1  C   UNL     1      -0.444  -2.691  25.177  1.00  0.00     0.161 A 
ATOM      2  C   UNL     1      -0.948  -3.387  24.065  1.00  0.00     0.164 A 
ATOM      3  C   UNL     1      -0.126  -4.308  23.384  1.00  0.00     0.098 A 
ATOM      4  C   UNL     1       1.186  -4.532  23.806  1.00  0.00     0.142 A 
ATOM      5  C   UNL     1       1.692  -3.833  24.921  1.00  0.00     0.022 A 
ATOM      6  C   UNL     1       0.880  -2.918  25.602  1.00  0.00     0.062 A 
ATOM      7  C   UNL     1       3.011  -4.080  25.319  1.00  0.00     0.019 A 
ATOM      8  C   UNL     1       3.780  -5.001  24.608  1.00  0.00     0.094 A 
ATOM      9  C   UNL     1       3.210  -5.657  23.512  1.00  0.00     0.336 A 
ATOM     10  O   UNL     1       3.887  -6.492  22.858  1.00  0.00    -0.246 OA
ATOM     11  O   UNL     1       1.954  -5.403  23.156  1.00  0.00    -0.423 OA
ENDROOT
BRANCH   1  12
ATOM     12  O   UNL     1      -1.290  -1.782  25.831  1.00  0.00    -0.493 OA
ATOM     13  C   UNL     1      -1.241  -0.369  25.664  1.00  0.00     0.278 C 
ENDBRANCH   1  12
BRANCH   2  14
ATOM     14  O   UNL     1      -2.272  -3.138  23.668  1.00  0.00    -0.493 OA
ATOM     15  C   UNL     1      -3.390  -3.937  24.037  1.00  0.00     0.278 C 
ENDBRANCH   2  14
TORSDOF 2
ENDMDL
MODEL 8
REMARK VINA RESULT:    -4.553      2.408      3.738
REMARK INTER + INTRA:          -5.223
REMARK INTER:                  -5.062
REMARK INTRA:                  -0.161
REMARK UNBOUND:                -0.137
REMARK SMILES COc1cc2ccc(=O)oc2cc1OC
REMARK SMILES IDX 3 1 13 2 12 3 11 4 5 5 4 6 6 7 7 8 8 9 9 10 10 11 2 12 1 13
REMARK SMILES IDX 14 14 15 15
REMARK H PARENT
REMARK Flexibility Score: inf
ROOT
ATOM      1  C   UNL     1       1.647  -3.558  25.926  1.00  0.00     0.161 A 
ATOM      2  C   UNL     1       0.718  -2.975  25.047  1.00  0.00     0.164 A 
ATOM      3  C   UNL     1       0.760  -3.291  23.674  1.00  0.00     0.098 A 
ATOM      4  C   UNL     1       1.721  -4.177  23.182  1.00  0.00     0.142 A 
ATOM      5  C   UNL     1       2.653  -4.762  24.064  1.00  0.00     0.022 A 
ATOM      6  C   UNL     1       2.615  -4.452  25.428  1.00  0.00     0.062 A 
ATOM      7  C   UNL     1       3.602  -5.645  23.539  1.00  0.00     0.019 A 
ATOM      8  C   UNL     1       3.600  -5.921  22.172  1.00  0.00     0.094 A 
ATOM      9  C   UNL     1       2.644  -5.304  21.358  1.00  0.00     0.336 A 
ATOM     10  O   UNL     1       2.624  -5.540  20.122  1.00  0.00    -0.246 OA
ATOM     11  O   UNL     1       1.753  -4.468  21.884  1.00  0.00    -0.423 OA
ENDROOT
BRANCH   1  12
ATOM     12  O   UNL     1       1.574  -3.222  27.288  1.00  0.00    -0.493 OA
ATOM     13  C   UNL     1       0.950  -4.024  28.285  1.00  0.00     0.278 C 
ENDBRANCH   1  12
BRANCH   2  14
ATOM     14  O   UNL     1      -0.234  -2.089  25.577  1.00  0.00    -0.493 OA
ATOM     15  C   UNL     1      -1.623  -2.375  25.703  1.00  0.00     0.278 C 
ENDBRANCH   2  14
TORSDOF 2
ENDMDL
MODEL 9
REMARK VINA RESULT:    -4.476      3.059      5.867
REMARK INTER + INTRA:          -5.137
REMARK INTER:                  -5.010
REMARK INTRA:                  -0.126
REMARK UNBOUND:                -0.137
REMARK SMILES COc1cc2ccc(=O)oc2cc1OC
REMARK SMILES IDX 3 1 13 2 12 3 11 4 5 5 4 6 6 7 7 8 8 9 9 10 10 11 2 12 1 13
REMARK SMILES IDX 14 14 15 15
REMARK H PARENT
REMARK Flexibility Score: inf
ROOT
ATOM      1  C   UNL     1       1.729  -4.826  23.603  1.00  0.00     0.161 A 
ATOM      2  C   UNL     1       2.274  -4.183  24.728  1.00  0.00     0.164 A 
ATOM      3  C   UNL     1       1.461  -3.344  25.516  1.00  0.00     0.098 A 
ATOM      4  C   UNL     1       0.119  -3.147  25.186  1.00  0.00     0.142 A 
ATOM      5  C   UNL     1      -0.428  -3.791  24.058  1.00  0.00     0.022 A 
ATOM      6  C   UNL     1       0.375  -4.626  23.271  1.00  0.00     0.062 A 
ATOM      7  C   UNL     1      -1.776  -3.573  23.754  1.00  0.00     0.019 A 
ATOM      8  C   UNL     1      -2.534  -2.732  24.568  1.00  0.00     0.094 A 
ATOM      9  C   UNL     1      -1.925  -2.126  25.672  1.00  0.00     0.336 A 
ATOM     10  O   UNL     1      -2.591  -1.364  26.419  1.00  0.00    -0.246 OA
ATOM     11  O   UNL     1      -0.640  -2.352  25.937  1.00  0.00    -0.423 OA
ENDROOT
BRANCH   1  12
ATOM     12  O   UNL     1       2.568  -5.655  22.841  1.00  0.00    -0.493 OA
ATOM     13  C   UNL     1       2.992  -5.371  21.512  1.00  0.00     0.278 C 
ENDBRANCH   1  12
BRANCH   2  14
ATOM     14  O   UNL     1       3.627  -4.404  25.030  1.00  0.00    -0.493 OA
ATOM     15  C   UNL     1       4.125  -4.714  26.327  1.00  0.00     0.278 C 
ENDBRANCH   2  14
TORSDOF 2
ENDMDL
