MODEL 1
REMARK VINA RESULT:    -4.764      0.000      0.000
REMARK INTER + INTRA:          -5.513
REMARK INTER:                  -5.460
REMARK INTRA:                  -0.053
REMARK UNBOUND:                -0.053
REMARK SMILES O=C([O-])c1cc(O)c(O)c(O)c1
REMARK SMILES IDX 4 1 5 2 12 3 6 4 10 5 8 6 2 7 1 8 3 9 7 10 11 12 9 14
REMARK H PARENT 7 11 11 13 9 15
REMARK Flexibility Score: inf
ROOT
ATOM      1  C   UNL     1      13.853  15.776   9.834  1.00  0.00     0.005 A 
ATOM      2  C   UNL     1      13.037  16.866   9.490  1.00  0.00     0.060 A 
ATOM      3  C   UNL     1      13.387  14.846  10.778  1.00  0.00     0.060 A 
ATOM      4  C   UNL     1      11.777  17.029  10.076  1.00  0.00     0.162 A 
ATOM      5  C   UNL     1      12.126  15.002  11.370  1.00  0.00     0.162 A 
ATOM      6  C   UNL     1      11.316  16.096  11.020  1.00  0.00     0.200 A 
ENDROOT
BRANCH   1   7
ATOM      7  C   UNL     1      15.185  15.614   9.207  1.00  0.00     0.072 C 
ATOM      8  O   UNL     1      15.951  14.681   9.566  1.00  0.00    -0.545 OA
ATOM      9  O   UNL     1      15.608  16.489   8.215  1.00  0.00    -0.545 OA
ENDBRANCH   1   7
BRANCH   4  10
ATOM     10  O   UNL     1      10.998  18.125   9.708  1.00  0.00    -0.504 OA
ATOM     11  H   UNL     1      10.122  18.021   9.209  1.00  0.00     0.293 HD
ENDBRANCH   4  10
BRANCH   5  12
ATOM     12  O   UNL     1      11.675  14.071  12.306  1.00  0.00    -0.504 OA
ATOM     13  H   UNL     1      11.904  13.088  12.231  1.00  0.00     0.293 HD
ENDBRANCH   5  12
BRANCH   6  14
ATOM     14  O   UNL     1      10.059  16.265  11.599  1.00  0.00    -0.502 OA
ATOM     15  H   UNL     1       9.758  17.152  11.987  1.00  0.00     0.293 HD
ENDBRANCH   6  14
TORSDOF 4
ENDMDL
MODEL 2
REMARK VINA RESULT:    -4.714      0.188      2.436
REMARK INTER + INTRA:          -5.456
REMARK INTER:                  -5.404
REMARK INTRA:                  -0.052
REMARK UNBOUND:                -0.053
REMARK SMILES O=C([O-])c1cc(O)c(O)c(O)c1
REMARK SMILES IDX 4 1 5 2 12 3 6 4 10 5 8 6 2 7 1 8 3 9 7 10 11 12 9 14
REMARK H PARENT 7 11 11 13 9 15
REMARK Flexibility Score: inf
ROOT
ATOM      1  C   UNL     1      13.930  15.854   9.829  1.00  0.00     0.005 A 
ATOM      2  C   UNL     1      13.484  14.929  10.786  1.00  0.00     0.060 A 
ATOM      3  C   UNL     1      13.089  16.921   9.468  1.00  0.00     0.060 A 
ATOM      4  C   UNL     1      12.223  15.061  11.376  1.00  0.00     0.162 A 
ATOM      5  C   UNL     1      11.823  17.062  10.055  1.00  0.00     0.162 A 
ATOM      6  C   UNL     1      11.386  16.130  11.012  1.00  0.00     0.200 A 
ENDROOT
BRANCH   1   7
ATOM      7  C   UNL     1      15.267  15.705   9.211  1.00  0.00     0.072 C 
ATOM      8  O   UNL     1      16.169  15.043   9.789  1.00  0.00    -0.545 OA
ATOM      9  O   UNL     1      15.545  16.294   7.983  1.00  0.00    -0.545 OA
ENDBRANCH   1   7
BRANCH   4  10
ATOM     10  O   UNL     1      11.817  14.121  12.322  1.00  0.00    -0.504 OA
ATOM     11  H   UNL     1      11.033  14.283  12.942  1.00  0.00     0.293 HD
ENDBRANCH   4  10
BRANCH   5  12
ATOM     12  O   UNL     1      10.998  18.125   9.688  1.00  0.00    -0.504 OA
ATOM     13  H   UNL     1      11.061  19.028  10.144  1.00  0.00     0.293 HD
ENDBRANCH   5  12
BRANCH   6  14
ATOM     14  O   UNL     1      10.130  16.255  11.605  1.00  0.00    -0.502 OA
ATOM     15  H   UNL     1       9.276  16.004  11.120  1.00  0.00     0.293 HD
ENDBRANCH   6  14
TORSDOF 4
ENDMDL
MODEL 3
REMARK VINA RESULT:    -4.667      1.887      2.603
REMARK INTER + INTRA:          -5.402
REMARK INTER:                  -5.349
REMARK INTRA:                  -0.053
REMARK UNBOUND:                -0.053
REMARK SMILES O=C([O-])c1cc(O)c(O)c(O)c1
REMARK SMILES IDX 4 1 5 2 12 3 6 4 10 5 8 6 2 7 1 8 3 9 7 10 11 12 9 14
REMARK H PARENT 7 11 11 13 9 15
REMARK Flexibility Score: inf
ROOT
ATOM      1  C   UNL     1      13.956  16.607  11.182  1.00  0.00     0.005 A 
ATOM      2  C   UNL     1      13.953  16.961   9.823  1.00  0.00     0.060 A 
ATOM      3  C   UNL     1      12.751  16.658  11.902  1.00  0.00     0.060 A 
ATOM      4  C   UNL     1      12.771  17.359   9.190  1.00  0.00     0.162 A 
ATOM      5  C   UNL     1      11.561  17.056  11.276  1.00  0.00     0.162 A 
ATOM      6  C   UNL     1      11.568  17.408   9.916  1.00  0.00     0.200 A 
ENDROOT
BRANCH   1   7
ATOM      7  C   UNL     1      15.213  16.187  11.842  1.00  0.00     0.072 C 
ATOM      8  O   UNL     1      16.306  16.217  11.216  1.00  0.00    -0.545 OA
ATOM      9  O   UNL     1      15.204  15.752  13.162  1.00  0.00    -0.545 OA
ENDBRANCH   1   7
BRANCH   4  10
ATOM     10  O   UNL     1      12.811  17.702   7.839  1.00  0.00    -0.504 OA
ATOM     11  H   UNL     1      13.197  18.582   7.517  1.00  0.00     0.293 HD
ENDBRANCH   4  10
BRANCH   5  12
ATOM     12  O   UNL     1      10.371  17.102  12.002  1.00  0.00    -0.504 OA
ATOM     13  H   UNL     1       9.521  16.671  11.658  1.00  0.00     0.293 HD
ENDBRANCH   5  12
BRANCH   6  14
ATOM     14  O   UNL     1      10.394  17.805   9.277  1.00  0.00    -0.502 OA
ATOM     15  H   UNL     1      10.203  17.580   8.307  1.00  0.00     0.293 HD
ENDBRANCH   6  14
TORSDOF 4
ENDMDL
MODEL 4
REMARK VINA RESULT:    -4.654      1.921      3.128
REMARK INTER + INTRA:          -5.387
REMARK INTER:                  -5.335
REMARK INTRA:                  -0.053
REMARK UNBOUND:                -0.053
REMARK SMILES O=C([O-])c1cc(O)c(O)c(O)c1
REMARK SMILES IDX 4 1 5 2 12 3 6 4 10 5 8 6 2 7 1 8 3 9 7 10 11 12 9 14
REMARK H PARENT 7 11 11 13 9 15
REMARK Flexibility Score: inf
ROOT
ATOM      1  C   UNL     1      13.952  16.616  11.211  1.00  0.00     0.005 A 
ATOM      2  C   UNL     1      12.733  16.673  11.904  1.00  0.00     0.060 A 
ATOM      3  C   UNL     1      13.978  16.957   9.847  1.00  0.00     0.060 A 
ATOM      4  C   UNL     1      11.557  17.061  11.253  1.00  0.00     0.162 A 
ATOM      5  C   UNL     1      12.805  17.347   9.187  1.00  0.00     0.162 A 
ATOM      6  C   UNL     1      11.589  17.401   9.890  1.00  0.00     0.200 A 
ENDROOT
BRANCH   1   7
ATOM      7  C   UNL     1      15.191  16.204  11.909  1.00  0.00     0.072 C 
ATOM      8  O   UNL     1      16.289  16.160  11.294  1.00  0.00    -0.545 OA
ATOM      9  O   UNL     1      15.158  15.858  13.255  1.00  0.00    -0.545 OA
ENDBRANCH   1   7
BRANCH   4  10
ATOM     10  O   UNL     1      10.366  17.104  11.978  1.00  0.00    -0.504 OA
ATOM     11  H   UNL     1      10.221  17.757  12.738  1.00  0.00     0.293 HD
ENDBRANCH   4  10
BRANCH   5  12
ATOM     12  O   UNL     1      12.844  17.683   7.834  1.00  0.00    -0.504 OA
ATOM     13  H   UNL     1      13.630  17.433   7.247  1.00  0.00     0.293 HD
ENDBRANCH   5  12
BRANCH   6  14
ATOM     14  O   UNL     1      10.412  17.787   9.248  1.00  0.00    -0.502 OA
ATOM     15  H   UNL     1      10.320  17.780   8.239  1.00  0.00     0.293 HD
ENDBRANCH   6  14
TORSDOF 4
ENDMDL
MODEL 5
REMARK VINA RESULT:    -4.595      1.963      2.048
REMARK INTER + INTRA:          -5.319
REMARK INTER:                  -5.267
REMARK INTRA:                  -0.052
REMARK UNBOUND:                -0.053
REMARK SMILES O=C([O-])c1cc(O)c(O)c(O)c1
REMARK SMILES IDX 4 1 5 2 12 3 6 4 10 5 8 6 2 7 1 8 3 9 7 10 11 12 9 14
REMARK H PARENT 7 11 11 13 9 15
REMARK Flexibility Score: inf
ROOT
ATOM      1  C   UNL     1      14.056  16.997   9.643  1.00  0.00     0.005 A 
ATOM      2  C   UNL     1      12.761  17.009   9.100  1.00  0.00     0.060 A 
ATOM      3  C   UNL     1      14.237  17.367  10.986  1.00  0.00     0.060 A 
ATOM      4  C   UNL     1      11.663  17.383   9.881  1.00  0.00     0.162 A 
ATOM      5  C   UNL     1      13.141  17.744  11.776  1.00  0.00     0.162 A 
ATOM      6  C   UNL     1      11.849  17.753  11.224  1.00  0.00     0.200 A 
ENDROOT
BRANCH   1   7
ATOM      7  C   UNL     1      15.212  16.598   8.808  1.00  0.00     0.072 C 
ATOM      8  O   UNL     1      16.291  16.228   9.342  1.00  0.00    -0.545 OA
ATOM      9  O   UNL     1      15.123  16.628   7.421  1.00  0.00    -0.545 OA
ENDBRANCH   1   7
BRANCH   4  10
ATOM     10  O   UNL     1      10.393  17.383   9.304  1.00  0.00    -0.504 OA
ATOM     11  H   UNL     1      10.246  17.587   8.323  1.00  0.00     0.293 HD
ENDBRANCH   4  10
BRANCH   5  12
ATOM     12  O   UNL     1      13.333  18.109  13.108  1.00  0.00    -0.504 OA
ATOM     13  H   UNL     1      13.363  19.080  13.394  1.00  0.00     0.293 HD
ENDBRANCH   5  12
BRANCH   6  14
ATOM     14  O   UNL     1      10.748  18.125  11.995  1.00  0.00    -0.502 OA
ATOM     15  H   UNL     1      10.809  18.833  12.718  1.00  0.00     0.293 HD
ENDBRANCH   6  14
TORSDOF 4
ENDMDL
MODEL 6
REMARK VINA RESULT:    -4.585      1.496      2.871
REMARK INTER + INTRA:          -5.308
REMARK INTER:                  -5.263
REMARK INTRA:                  -0.045
REMARK UNBOUND:                -0.053
REMARK SMILES O=C([O-])c1cc(O)c(O)c(O)c1
REMARK SMILES IDX 4 1 5 2 12 3 6 4 10 5 8 6 2 7 1 8 3 9 7 10 11 12 9 14
REMARK H PARENT 7 11 11 13 9 15
REMARK Flexibility Score: inf
ROOT
ATOM      1  C   UNL     1      13.619  15.437  10.504  1.00  0.00     0.005 A 
ATOM      2  C   UNL     1      12.429  15.486  11.249  1.00  0.00     0.060 A 
ATOM      3  C   UNL     1      13.733  16.227   9.348  1.00  0.00     0.060 A 
ATOM      4  C   UNL     1      11.370  16.308  10.850  1.00  0.00     0.162 A 
ATOM      5  C   UNL     1      12.676  17.053   8.941  1.00  0.00     0.162 A 
ATOM      6  C   UNL     1      11.489  17.096   9.693  1.00  0.00     0.200 A 
ENDROOT
BRANCH   1   7
ATOM      7  C   UNL     1      14.734  14.564  10.935  1.00  0.00     0.072 C 
ATOM      8  O   UNL     1      14.778  13.357  10.577  1.00  0.00    -0.545 OA
ATOM      9  O   UNL     1      15.748  15.065  11.743  1.00  0.00    -0.545 OA
ENDBRANCH   1   7
BRANCH   4  10
ATOM     10  O   UNL     1      10.205  16.327  11.617  1.00  0.00    -0.504 OA
ATOM     11  H   UNL     1       9.518  15.584  11.574  1.00  0.00     0.293 HD
ENDBRANCH   4  10
BRANCH   5  12
ATOM     12  O   UNL     1      12.801  17.833   7.792  1.00  0.00    -0.504 OA
ATOM     13  H   UNL     1      12.845  17.417   6.869  1.00  0.00     0.293 HD
ENDBRANCH   5  12
BRANCH   6  14
ATOM     14  O   UNL     1      10.428  17.912   9.303  1.00  0.00    -0.502 OA
ATOM     15  H   UNL     1       9.548  17.932   9.805  1.00  0.00     0.293 HD
ENDBRANCH   6  14
TORSDOF 4
ENDMDL
MODEL 7
REMARK VINA RESULT:    -4.552      1.501      2.448
REMARK INTER + INTRA:          -5.270
REMARK INTER:                  -5.222
REMARK INTRA:                  -0.048
REMARK UNBOUND:                -0.053
REMARK SMILES O=C([O-])c1cc(O)c(O)c(O)c1
REMARK SMILES IDX 4 1 5 2 12 3 6 4 10 5 8 6 2 7 1 8 3 9 7 10 11 12 9 14
REMARK H PARENT 7 11 11 13 9 15
REMARK Flexibility Score: inf
ROOT
ATOM      1  C   UNL     1      13.078  14.858  10.158  1.00  0.00     0.005 A 
ATOM      2  C   UNL     1      13.304  15.720   9.073  1.00  0.00     0.060 A 
ATOM      3  C   UNL     1      11.982  15.099  11.004  1.00  0.00     0.060 A 
ATOM      4  C   UNL     1      12.454  16.805   8.833  1.00  0.00     0.162 A 
ATOM      5  C   UNL     1      11.126  16.184  10.771  1.00  0.00     0.162 A 
ATOM      6  C   UNL     1      11.360  17.041   9.682  1.00  0.00     0.200 A 
ENDROOT
BRANCH   1   7
ATOM      7  C   UNL     1      13.984  13.712  10.402  1.00  0.00     0.072 C 
ATOM      8  O   UNL     1      15.233  13.870  10.393  1.00  0.00    -0.545 OA
ATOM      9  O   UNL     1      13.467  12.445  10.645  1.00  0.00    -0.545 OA
ENDBRANCH   1   7
BRANCH   4  10
ATOM     10  O   UNL     1      12.714  17.638   7.745  1.00  0.00    -0.504 OA
ATOM     11  H   UNL     1      13.530  18.236   7.706  1.00  0.00     0.293 HD
ENDBRANCH   4  10
BRANCH   5  12
ATOM     12  O   UNL     1      10.042  16.412  11.618  1.00  0.00    -0.504 OA
ATOM     13  H   UNL     1      10.164  16.803  12.544  1.00  0.00     0.293 HD
ENDBRANCH   5  12
BRANCH   6  14
ATOM     14  O   UNL     1      10.518  18.125   9.436  1.00  0.00    -0.502 OA
ATOM     15  H   UNL     1      10.562  18.659   8.575  1.00  0.00     0.293 HD
ENDBRANCH   6  14
TORSDOF 4
ENDMDL
MODEL 8
REMARK VINA RESULT:    -4.251      1.966      2.565
REMARK INTER + INTRA:          -4.926
REMARK INTER:                  -4.874
REMARK INTRA:                  -0.052
REMARK UNBOUND:                -0.053
REMARK SMILES O=C([O-])c1cc(O)c(O)c(O)c1
REMARK SMILES IDX 4 1 5 2 12 3 6 4 10 5 8 6 2 7 1 8 3 9 7 10 11 12 9 14
REMARK H PARENT 7 11 11 13 9 15
REMARK Flexibility Score: inf
ROOT
ATOM      1  C   UNL     1      14.047  17.010   9.598  1.00  0.00     0.005 A 
ATOM      2  C   UNL     1      14.234  17.319  10.955  1.00  0.00     0.060 A 
ATOM      3  C   UNL     1      12.752  17.078   9.055  1.00  0.00     0.060 A 
ATOM      4  C   UNL     1      13.152  17.689  11.760  1.00  0.00     0.162 A 
ATOM      5  C   UNL     1      11.662  17.448   9.855  1.00  0.00     0.162 A 
ATOM      6  C   UNL     1      11.859  17.755  11.212  1.00  0.00     0.200 A 
ENDROOT
BRANCH   1   7
ATOM      7  C   UNL     1      15.200  16.620   8.755  1.00  0.00     0.072 C 
ATOM      8  O   UNL     1      16.249  16.160   9.278  1.00  0.00    -0.545 OA
ATOM      9  O   UNL     1      15.140  16.757   7.373  1.00  0.00    -0.545 OA
ENDBRANCH   1   7
BRANCH   4  10
ATOM     10  O   UNL     1      13.379  17.988  13.103  1.00  0.00    -0.504 OA
ATOM     11  H   UNL     1      13.494  18.939  13.432  1.00  0.00     0.293 HD
ENDBRANCH   4  10
BRANCH   5  12
ATOM     12  O   UNL     1      10.382  17.511   9.304  1.00  0.00    -0.504 OA
ATOM     13  H   UNL     1       9.639  16.897   9.614  1.00  0.00     0.293 HD
ENDBRANCH   5  12
BRANCH   6  14
ATOM     14  O   UNL     1      10.785  18.125  12.021  1.00  0.00    -0.502 OA
ATOM     15  H   UNL     1      10.167  18.891  11.781  1.00  0.00     0.293 HD
ENDBRANCH   6  14
TORSDOF 4
ENDMDL
MODEL 9
REMARK VINA RESULT:    -3.988      2.659      3.681
REMARK INTER + INTRA:          -4.624
REMARK INTER:                  -4.571
REMARK INTRA:                  -0.053
REMARK UNBOUND:                -0.053
REMARK SMILES O=C([O-])c1cc(O)c(O)c(O)c1
REMARK SMILES IDX 4 1 5 2 12 3 6 4 10 5 8 6 2 7 1 8 3 9 7 10 11 12 9 14
REMARK H PARENT 7 11 11 13 9 15
REMARK Flexibility Score: inf
ROOT
ATOM      1  C   UNL     1      16.297  16.593   9.826  1.00  0.00     0.005 A 
ATOM      2  C   UNL     1      16.160  16.558   8.429  1.00  0.00     0.060 A 
ATOM      3  C   UNL     1      15.203  17.001  10.608  1.00  0.00     0.060 A 
ATOM      4  C   UNL     1      14.956  16.923   7.819  1.00  0.00     0.162 A 
ATOM      5  C   UNL     1      13.992  17.369  10.005  1.00  0.00     0.162 A 
ATOM      6  C   UNL     1      13.865  17.331   8.606  1.00  0.00     0.200 A 
ENDROOT
BRANCH   1   7
ATOM      7  C   UNL     1      17.576  16.203  10.462  1.00  0.00     0.072 C 
ATOM      8  O   UNL     1      17.771  16.413  11.688  1.00  0.00    -0.545 OA
ATOM      9  O   UNL     1      18.580  15.602   9.712  1.00  0.00    -0.545 OA
ENDBRANCH   1   7
BRANCH   4  10
ATOM     10  O   UNL     1      14.861  16.875   6.428  1.00  0.00    -0.504 OA
ATOM     11  H   UNL     1      14.822  17.714   5.861  1.00  0.00     0.293 HD
ENDBRANCH   4  10
BRANCH   5  12
ATOM     12  O   UNL     1      12.914  17.773  10.792  1.00  0.00    -0.504 OA
ATOM     13  H   UNL     1      12.427  18.644  10.620  1.00  0.00     0.293 HD
ENDBRANCH   5  12
BRANCH   6  14
ATOM     14  O   UNL     1      12.668  17.694   7.990  1.00  0.00    -0.502 OA
ATOM     15  H   UNL     1      12.629  18.007   7.027  1.00  0.00     0.293 HD
ENDBRANCH   6  14
TORSDOF 4
ENDMDL
