MODEL 1
REMARK VINA RESULT:    -4.400      0.000      0.000
REMARK INTER + INTRA:          -4.958
REMARK INTER:                  -4.914
REMARK INTRA:                  -0.044
REMARK UNBOUND:                -0.044
REMARK SMILES O=C([O-])c1ccc(O)c(O)c1
REMARK SMILES IDX 4 1 11 2 5 3 9 4 6 5 7 6 2 7 1 8 3 9 10 10 8 12
REMARK H PARENT 10 11 8 13
REMARK Flexibility Score: inf
ROOT
ATOM      1  C   UNL     1      -5.200   1.045  -8.923  1.00  0.00     0.001 A 
ATOM      2  C   UNL     1      -6.307   0.366  -8.385  1.00  0.00     0.060 A 
ATOM      3  C   UNL     1      -5.420   2.162  -9.748  1.00  0.00     0.014 A 
ATOM      4  C   UNL     1      -7.614   0.795  -8.664  1.00  0.00     0.158 A 
ATOM      5  C   UNL     1      -6.720   2.590 -10.027  1.00  0.00     0.051 A 
ATOM      6  C   UNL     1      -7.819   1.913  -9.490  1.00  0.00     0.157 A 
ENDROOT
BRANCH   1   7
ATOM      7  C   UNL     1      -3.821   0.594  -8.631  1.00  0.00     0.072 C 
ATOM      8  O   UNL     1      -2.846   1.049  -9.286  1.00  0.00    -0.545 OA
ATOM      9  O   UNL     1      -3.583  -0.340  -7.629  1.00  0.00    -0.545 OA
ENDBRANCH   1   7
BRANCH   4  10
ATOM     10  O   UNL     1      -8.705   0.115  -8.126  1.00  0.00    -0.504 OA
ATOM     11  H   UNL     1      -8.863  -0.869  -8.313  1.00  0.00     0.293 HD
ENDBRANCH   4  10
BRANCH   6  12
ATOM     12  O   UNL     1      -9.105   2.364  -9.787  1.00  0.00    -0.504 OA
ATOM     13  H   UNL     1      -9.776   1.789 -10.282  1.00  0.00     0.293 HD
ENDBRANCH   6  12
TORSDOF 3
ENDMDL
MODEL 2
REMARK VINA RESULT:    -4.261      1.006      4.189
REMARK INTER + INTRA:          -4.803
REMARK INTER:                  -4.759
REMARK INTRA:                  -0.044
REMARK UNBOUND:                -0.044
REMARK SMILES O=C([O-])c1ccc(O)c(O)c1
REMARK SMILES IDX 4 1 11 2 5 3 9 4 6 5 7 6 2 7 1 8 3 9 10 10 8 12
REMARK H PARENT 10 11 8 13
REMARK Flexibility Score: inf
ROOT
ATOM      1  C   UNL     1      -7.865   1.235  -8.907  1.00  0.00     0.001 A 
ATOM      2  C   UNL     1      -6.943   0.380  -8.277  1.00  0.00     0.060 A 
ATOM      3  C   UNL     1      -7.388   2.230  -9.777  1.00  0.00     0.014 A 
ATOM      4  C   UNL     1      -5.566   0.516  -8.513  1.00  0.00     0.158 A 
ATOM      5  C   UNL     1      -6.018   2.365 -10.013  1.00  0.00     0.051 A 
ATOM      6  C   UNL     1      -5.103   1.514  -9.386  1.00  0.00     0.157 A 
ENDROOT
BRANCH   1   7
ATOM      7  C   UNL     1      -9.317   1.094  -8.659  1.00  0.00     0.072 C 
ATOM      8  O   UNL     1     -10.125   1.966  -9.075  1.00  0.00    -0.545 OA
ATOM      9  O   UNL     1      -9.809  -0.003  -7.961  1.00  0.00    -0.545 OA
ENDBRANCH   1   7
BRANCH   4  10
ATOM     10  O   UNL     1      -4.659  -0.336  -7.884  1.00  0.00    -0.504 OA
ATOM     11  H   UNL     1      -4.038  -0.936  -8.414  1.00  0.00     0.293 HD
ENDBRANCH   4  10
BRANCH   6  12
ATOM     12  O   UNL     1      -3.742   1.675  -9.641  1.00  0.00    -0.504 OA
ATOM     13  H   UNL     1      -3.381   1.801 -10.579  1.00  0.00     0.293 HD
ENDBRANCH   6  12
TORSDOF 3
ENDMDL
MODEL 3
REMARK VINA RESULT:    -4.022     10.523     11.862
REMARK INTER + INTRA:          -4.536
REMARK INTER:                  -4.498
REMARK INTRA:                  -0.038
REMARK UNBOUND:                -0.044
REMARK SMILES O=C([O-])c1ccc(O)c(O)c1
REMARK SMILES IDX 4 1 11 2 5 3 9 4 6 5 7 6 2 7 1 8 3 9 10 10 8 12
REMARK H PARENT 10 11 8 13
REMARK Flexibility Score: inf
ROOT
ATOM      1  C   UNL     1      -0.439   0.379   0.247  1.00  0.00     0.001 A 
ATOM      2  C   UNL     1       0.578   0.650  -0.686  1.00  0.00     0.060 A 
ATOM      3  C   UNL     1      -0.468  -0.877   0.877  1.00  0.00     0.014 A 
ATOM      4  C   UNL     1       1.551  -0.316  -0.984  1.00  0.00     0.158 A 
ATOM      5  C   UNL     1       0.499  -1.840   0.580  1.00  0.00     0.051 A 
ATOM      6  C   UNL     1       1.509  -1.567  -0.347  1.00  0.00     0.157 A 
ENDROOT
BRANCH   1   7
ATOM      7  C   UNL     1      -1.466   1.396   0.562  1.00  0.00     0.072 C 
ATOM      8  O   UNL     1      -1.132   2.522   1.019  1.00  0.00    -0.545 OA
ATOM      9  O   UNL     1      -2.814   1.124   0.360  1.00  0.00    -0.545 OA
ENDBRANCH   1   7
BRANCH   4  10
ATOM     10  O   UNL     1       2.555  -0.037  -1.910  1.00  0.00    -0.504 OA
ATOM     11  H   UNL     1       2.908  -0.748  -2.540  1.00  0.00     0.293 HD
ENDBRANCH   4  10
BRANCH   6  12
ATOM     12  O   UNL     1       2.461  -2.549  -0.622  1.00  0.00    -0.504 OA
ATOM     13  H   UNL     1       2.212  -3.437  -1.040  1.00  0.00     0.293 HD
ENDBRANCH   6  12
TORSDOF 3
ENDMDL
MODEL 4
REMARK VINA RESULT:    -3.942      2.360      4.513
REMARK INTER + INTRA:          -4.447
REMARK INTER:                  -4.407
REMARK INTRA:                  -0.040
REMARK UNBOUND:                -0.044
REMARK SMILES O=C([O-])c1ccc(O)c(O)c1
REMARK SMILES IDX 4 1 11 2 5 3 9 4 6 5 7 6 2 7 1 8 3 9 10 10 8 12
REMARK H PARENT 10 11 8 13
REMARK Flexibility Score: inf
ROOT
ATOM      1  C   UNL     1      -5.096   0.451  -8.778  1.00  0.00     0.001 A 
ATOM      2  C   UNL     1      -5.593  -0.717  -9.386  1.00  0.00     0.060 A 
ATOM      3  C   UNL     1      -3.797   0.441  -8.243  1.00  0.00     0.014 A 
ATOM      4  C   UNL     1      -4.804  -1.876  -9.458  1.00  0.00     0.158 A 
ATOM      5  C   UNL     1      -3.011  -0.712  -8.314  1.00  0.00     0.051 A 
ATOM      6  C   UNL     1      -3.507  -1.871  -8.919  1.00  0.00     0.157 A 
ENDROOT
BRANCH   1   7
ATOM      7  C   UNL     1      -5.926   1.673  -8.701  1.00  0.00     0.072 C 
ATOM      8  O   UNL     1      -7.130   1.608  -8.336  1.00  0.00    -0.545 OA
ATOM      9  O   UNL     1      -5.388   2.912  -9.031  1.00  0.00    -0.545 OA
ENDBRANCH   1   7
BRANCH   4  10
ATOM     10  O   UNL     1      -5.305  -3.028 -10.062  1.00  0.00    -0.504 OA
ATOM     11  H   UNL     1      -5.921  -2.981 -10.865  1.00  0.00     0.293 HD
ENDBRANCH   4  10
BRANCH   6  12
ATOM     12  O   UNL     1      -2.699  -3.006  -8.974  1.00  0.00    -0.504 OA
ATOM     13  H   UNL     1      -2.144  -3.232  -9.790  1.00  0.00     0.293 HD
ENDBRANCH   6  12
TORSDOF 3
ENDMDL
MODEL 5
REMARK VINA RESULT:    -3.872     10.388     11.281
REMARK INTER + INTRA:          -4.369
REMARK INTER:                  -4.332
REMARK INTRA:                  -0.037
REMARK UNBOUND:                -0.044
REMARK SMILES O=C([O-])c1ccc(O)c(O)c1
REMARK SMILES IDX 4 1 11 2 5 3 9 4 6 5 7 6 2 7 1 8 3 9 10 10 8 12
REMARK H PARENT 10 11 8 13
REMARK Flexibility Score: inf
ROOT
ATOM      1  C   UNL     1      -0.678  -1.563   0.525  1.00  0.00     0.001 A 
ATOM      2  C   UNL     1      -1.957  -0.990   0.408  1.00  0.00     0.060 A 
ATOM      3  C   UNL     1       0.427  -0.723   0.748  1.00  0.00     0.014 A 
ATOM      4  C   UNL     1      -2.131   0.399   0.513  1.00  0.00     0.158 A 
ATOM      5  C   UNL     1       0.255   0.659   0.853  1.00  0.00     0.051 A 
ATOM      6  C   UNL     1      -1.017   1.226   0.737  1.00  0.00     0.157 A 
ENDROOT
BRANCH   1   7
ATOM      7  C   UNL     1      -0.493  -3.026   0.414  1.00  0.00     0.072 C 
ATOM      8  O   UNL     1      -0.990  -3.801   1.274  1.00  0.00    -0.545 OA
ATOM      9  O   UNL     1       0.233  -3.567  -0.641  1.00  0.00    -0.545 OA
ENDBRANCH   1   7
BRANCH   4  10
ATOM     10  O   UNL     1      -3.402   0.958   0.395  1.00  0.00    -0.504 OA
ATOM     11  H   UNL     1      -3.624   1.624  -0.335  1.00  0.00     0.293 HD
ENDBRANCH   4  10
BRANCH   6  12
ATOM     12  O   UNL     1      -1.156   2.609   0.845  1.00  0.00    -0.504 OA
ATOM     13  H   UNL     1      -0.790   3.126   1.635  1.00  0.00     0.293 HD
ENDBRANCH   6  12
TORSDOF 3
ENDMDL
MODEL 6
REMARK VINA RESULT:    -3.838      1.366      2.152
REMARK INTER + INTRA:          -4.331
REMARK INTER:                  -4.295
REMARK INTRA:                  -0.036
REMARK UNBOUND:                -0.044
REMARK SMILES O=C([O-])c1ccc(O)c(O)c1
REMARK SMILES IDX 4 1 11 2 5 3 9 4 6 5 7 6 2 7 1 8 3 9 10 10 8 12
REMARK H PARENT 10 11 8 13
REMARK Flexibility Score: inf
ROOT
ATOM      1  C   UNL     1      -4.920   0.127  -9.018  1.00  0.00     0.001 A 
ATOM      2  C   UNL     1      -5.846   1.063  -8.525  1.00  0.00     0.060 A 
ATOM      3  C   UNL     1      -5.388  -0.952  -9.789  1.00  0.00     0.014 A 
ATOM      4  C   UNL     1      -7.216   0.927  -8.796  1.00  0.00     0.158 A 
ATOM      5  C   UNL     1      -6.751  -1.089 -10.060  1.00  0.00     0.051 A 
ATOM      6  C   UNL     1      -7.669  -0.156  -9.568  1.00  0.00     0.157 A 
ENDROOT
BRANCH   1   7
ATOM      7  C   UNL     1      -3.476   0.269  -8.733  1.00  0.00     0.072 C 
ATOM      8  O   UNL     1      -2.951  -0.346  -7.766  1.00  0.00    -0.545 OA
ATOM      9  O   UNL     1      -2.677   1.084  -9.527  1.00  0.00    -0.545 OA
ENDBRANCH   1   7
BRANCH   4  10
ATOM     10  O   UNL     1      -8.125   1.861  -8.302  1.00  0.00    -0.504 OA
ATOM     11  H   UNL     1      -8.109   2.156  -7.333  1.00  0.00     0.293 HD
ENDBRANCH   4  10
BRANCH   6  12
ATOM     12  O   UNL     1      -9.024  -0.320  -9.855  1.00  0.00    -0.504 OA
ATOM     13  H   UNL     1      -9.742   0.225  -9.394  1.00  0.00     0.293 HD
ENDBRANCH   6  12
TORSDOF 3
ENDMDL
MODEL 7
REMARK VINA RESULT:    -3.831     10.118     11.493
REMARK INTER + INTRA:          -4.323
REMARK INTER:                  -4.279
REMARK INTRA:                  -0.044
REMARK UNBOUND:                -0.044
REMARK SMILES O=C([O-])c1ccc(O)c(O)c1
REMARK SMILES IDX 4 1 11 2 5 3 9 4 6 5 7 6 2 7 1 8 3 9 10 10 8 12
REMARK H PARENT 10 11 8 13
REMARK Flexibility Score: inf
ROOT
ATOM      1  C   UNL     1      -1.617  -0.033   0.307  1.00  0.00     0.001 A 
ATOM      2  C   UNL     1      -1.531  -1.426   0.481  1.00  0.00     0.060 A 
ATOM      3  C   UNL     1      -0.447   0.691   0.018  1.00  0.00     0.014 A 
ATOM      4  C   UNL     1      -0.297  -2.086   0.367  1.00  0.00     0.158 A 
ATOM      5  C   UNL     1       0.780   0.036  -0.096  1.00  0.00     0.051 A 
ATOM      6  C   UNL     1       0.863  -1.349   0.077  1.00  0.00     0.157 A 
ENDROOT
BRANCH   1   7
ATOM      7  C   UNL     1      -2.916   0.665   0.427  1.00  0.00     0.072 C 
ATOM      8  O   UNL     1      -2.963   1.921   0.506  1.00  0.00    -0.545 OA
ATOM      9  O   UNL     1      -4.104  -0.057   0.456  1.00  0.00    -0.545 OA
ENDBRANCH   1   7
BRANCH   4  10
ATOM     10  O   UNL     1      -0.223  -3.467   0.541  1.00  0.00    -0.504 OA
ATOM     11  H   UNL     1       0.657  -3.931   0.731  1.00  0.00     0.293 HD
ENDBRANCH   4  10
BRANCH   6  12
ATOM     12  O   UNL     1       2.104  -1.975  -0.042  1.00  0.00    -0.504 OA
ATOM     13  H   UNL     1       2.690  -2.164   0.761  1.00  0.00     0.293 HD
ENDBRANCH   6  12
TORSDOF 3
ENDMDL
MODEL 8
REMARK VINA RESULT:    -3.761      1.894      4.803
REMARK INTER + INTRA:          -4.245
REMARK INTER:                  -4.201
REMARK INTRA:                  -0.044
REMARK UNBOUND:                -0.044
REMARK SMILES O=C([O-])c1ccc(O)c(O)c1
REMARK SMILES IDX 4 1 11 2 5 3 9 4 6 5 7 6 2 7 1 8 3 9 10 10 8 12
REMARK H PARENT 10 11 8 13
REMARK Flexibility Score: inf
ROOT
ATOM      1  C   UNL     1      -6.237  -0.165  -9.104  1.00  0.00     0.001 A 
ATOM      2  C   UNL     1      -5.141   0.244  -8.323  1.00  0.00     0.060 A 
ATOM      3  C   UNL     1      -6.148  -1.367  -9.827  1.00  0.00     0.014 A 
ATOM      4  C   UNL     1      -3.975  -0.535  -8.264  1.00  0.00     0.158 A 
ATOM      5  C   UNL     1      -4.988  -2.142  -9.770  1.00  0.00     0.051 A 
ATOM      6  C   UNL     1      -3.900  -1.734  -8.992  1.00  0.00     0.157 A 
ENDROOT
BRANCH   1   7
ATOM      7  C   UNL     1      -7.467   0.655  -9.168  1.00  0.00     0.072 C 
ATOM      8  O   UNL     1      -7.648   1.603  -8.357  1.00  0.00    -0.545 OA
ATOM      9  O   UNL     1      -8.442   0.391 -10.123  1.00  0.00    -0.545 OA
ENDBRANCH   1   7
BRANCH   4  10
ATOM     10  O   UNL     1      -2.895  -0.121  -7.487  1.00  0.00    -0.504 OA
ATOM     11  H   UNL     1      -2.047   0.242  -7.907  1.00  0.00     0.293 HD
ENDBRANCH   4  10
BRANCH   6  12
ATOM     12  O   UNL     1      -2.756  -2.530  -8.955  1.00  0.00    -0.504 OA
ATOM     13  H   UNL     1      -1.870  -2.216  -9.331  1.00  0.00     0.293 HD
ENDBRANCH   6  12
TORSDOF 3
ENDMDL
MODEL 9
REMARK VINA RESULT:    -2.572     22.235     24.187
REMARK INTER + INTRA:          -2.917
REMARK INTER:                  -2.880
REMARK INTRA:                  -0.037
REMARK UNBOUND:                -0.044
REMARK SMILES O=C([O-])c1ccc(O)c(O)c1
REMARK SMILES IDX 4 1 11 2 5 3 9 4 6 5 7 6 2 7 1 8 3 9 10 10 8 12
REMARK H PARENT 10 11 8 13
REMARK Flexibility Score: inf
ROOT
ATOM      1  C   UNL     1       8.258  -7.499   9.303  1.00  0.00     0.001 A 
ATOM      2  C   UNL     1       7.838  -7.331   7.972  1.00  0.00     0.060 A 
ATOM      3  C   UNL     1       8.388  -6.366  10.125  1.00  0.00     0.014 A 
ATOM      4  C   UNL     1       7.551  -6.053   7.468  1.00  0.00     0.158 A 
ATOM      5  C   UNL     1       8.102  -5.093   9.625  1.00  0.00     0.051 A 
ATOM      6  C   UNL     1       7.685  -4.929   8.301  1.00  0.00     0.157 A 
ENDROOT
BRANCH   1   7
ATOM      7  C   UNL     1       8.562  -8.845   9.836  1.00  0.00     0.072 C 
ATOM      8  O   UNL     1       9.748  -9.176  10.103  1.00  0.00    -0.545 OA
ATOM      9  O   UNL     1       7.542  -9.766  10.048  1.00  0.00    -0.545 OA
ENDBRANCH   1   7
BRANCH   4  10
ATOM     10  O   UNL     1       7.136  -5.897   6.147  1.00  0.00    -0.504 OA
ATOM     11  H   UNL     1       6.154  -5.845   5.902  1.00  0.00     0.293 HD
ENDBRANCH   4  10
BRANCH   6  12
ATOM     12  O   UNL     1       7.407  -3.646   7.831  1.00  0.00    -0.504 OA
ATOM     13  H   UNL     1       6.505  -3.206   7.967  1.00  0.00     0.293 HD
ENDBRANCH   6  12
TORSDOF 3
ENDMDL
