MODEL 1
REMARK VINA RESULT:    -5.605      0.000      0.000
REMARK INTER + INTRA:          -8.564
REMARK INTER:                  -8.227
REMARK INTRA:                  -0.337
REMARK UNBOUND:                -0.337
REMARK SMILES O=C([O-])CCCCCCCC(=O)[O-]
REMARK SMILES IDX 7 1 6 2 5 3 4 4 2 5 1 6 3 7 8 8 9 9 10 10 11 11 12 12 13 13
REMARK H PARENT
REMARK Flexibility Score: inf
ROOT
ATOM      1  C   UNL     1      93.096 122.529 121.190  1.00  0.00     0.000 C 
ENDROOT
BRANCH   1   2
ATOM      2  C   UNL     1      94.400 122.107 120.493  1.00  0.00     0.000 C 
BRANCH   2   3
ATOM      3  C   UNL     1      94.388 122.400 118.984  1.00  0.00     0.006 C 
BRANCH   3   4
ATOM      4  C   UNL     1      93.986 121.155 118.189  1.00  0.00     0.053 C 
BRANCH   4   5
ATOM      5  C   UNL     1      92.708 121.395 117.449  1.00  0.00     0.041 C 
ATOM      6  O   UNL     1      91.657 121.684 118.077  1.00  0.00    -0.550 OA
ATOM      7  O   UNL     1      92.689 121.348 116.061  1.00  0.00    -0.550 OA
ENDBRANCH   4   5
ENDBRANCH   3   4
ENDBRANCH   2   3
ENDBRANCH   1   2
BRANCH   1   8
ATOM      8  C   UNL     1      93.101 122.216 122.696  1.00  0.00     0.000 C 
BRANCH   8   9
ATOM      9  C   UNL     1      93.520 123.431 123.549  1.00  0.00     0.006 C 
BRANCH   9  10
ATOM     10  C   UNL     1      94.215 123.048 124.864  1.00  0.00     0.053 C 
BRANCH  10  11
ATOM     11  C   UNL     1      95.638 123.510 124.911  1.00  0.00     0.041 C 
ATOM     12  O   UNL     1      96.104 124.025 125.961  1.00  0.00    -0.550 OA
ATOM     13  O   UNL     1      96.458 123.349 123.800  1.00  0.00    -0.550 OA
ENDBRANCH  10  11
ENDBRANCH   9  10
ENDBRANCH   8   9
ENDBRANCH   1   8
TORSDOF 8
ENDMDL
MODEL 2
REMARK VINA RESULT:    -5.590      0.736      6.927
REMARK INTER + INTRA:          -8.541
REMARK INTER:                  -8.151
REMARK INTRA:                  -0.390
REMARK UNBOUND:                -0.337
REMARK SMILES O=C([O-])CCCCCCCC(=O)[O-]
REMARK SMILES IDX 7 1 6 2 5 3 4 4 2 5 1 6 3 7 8 8 9 9 10 10 11 11 12 12 13 13
REMARK H PARENT
REMARK Flexibility Score: inf
ROOT
ATOM      1  C   UNL     1      93.153 122.534 121.135  1.00  0.00     0.000 C 
ENDROOT
BRANCH   1   2
ATOM      2  C   UNL     1      93.070 122.244 122.643  1.00  0.00     0.000 C 
BRANCH   2   3
ATOM      3  C   UNL     1      93.484 123.449 123.502  1.00  0.00     0.006 C 
BRANCH   3   4
ATOM      4  C   UNL     1      94.134 122.989 124.811  1.00  0.00     0.053 C 
BRANCH   4   5
ATOM      5  C   UNL     1      95.571 123.402 124.855  1.00  0.00     0.041 C 
ATOM      6  O   UNL     1      96.273 123.366 123.811  1.00  0.00    -0.550 OA
ATOM      7  O   UNL     1      96.122 123.875 126.039  1.00  0.00    -0.550 OA
ENDBRANCH   4   5
ENDBRANCH   3   4
ENDBRANCH   2   3
ENDBRANCH   1   2
BRANCH   1   8
ATOM      8  C   UNL     1      94.525 122.177 120.537  1.00  0.00     0.000 C 
BRANCH   8   9
ATOM      9  C   UNL     1      94.562 122.349 119.005  1.00  0.00     0.006 C 
BRANCH   9  10
ATOM     10  C   UNL     1      93.315 123.042 118.435  1.00  0.00     0.053 C 
BRANCH  10  11
ATOM     11  C   UNL     1      92.579 122.178 117.459  1.00  0.00     0.041 C 
ATOM     12  O   UNL     1      92.453 120.944 117.674  1.00  0.00    -0.550 OA
ATOM     13  O   UNL     1      92.011 122.741 116.322  1.00  0.00    -0.550 OA
ENDBRANCH  10  11
ENDBRANCH   9  10
ENDBRANCH   8   9
ENDBRANCH   1   8
TORSDOF 8
ENDMDL
MODEL 3
REMARK VINA RESULT:    -5.517      1.083      1.610
REMARK INTER + INTRA:          -8.434
REMARK INTER:                  -8.141
REMARK INTRA:                  -0.293
REMARK UNBOUND:                -0.337
REMARK SMILES O=C([O-])CCCCCCCC(=O)[O-]
REMARK SMILES IDX 7 1 6 2 5 3 4 4 2 5 1 6 3 7 8 8 9 9 10 10 11 11 12 12 13 13
REMARK H PARENT
REMARK Flexibility Score: inf
ROOT
ATOM      1  C   UNL     1      94.609 122.278 120.790  1.00  0.00     0.000 C 
ENDROOT
BRANCH   1   2
ATOM      2  C   UNL     1      94.733 122.465 119.269  1.00  0.00     0.000 C 
BRANCH   2   3
ATOM      3  C   UNL     1      93.369 122.531 118.566  1.00  0.00     0.006 C 
BRANCH   3   4
ATOM      4  C   UNL     1      93.088 121.238 117.794  1.00  0.00     0.053 C 
BRANCH   4   5
ATOM      5  C   UNL     1      92.607 121.547 116.412  1.00  0.00     0.041 C 
ATOM      6  O   UNL     1      91.903 122.568 116.200  1.00  0.00    -0.550 OA
ATOM      7  O   UNL     1      92.978 120.734 115.349  1.00  0.00    -0.550 OA
ENDBRANCH   4   5
ENDBRANCH   3   4
ENDBRANCH   2   3
ENDBRANCH   1   2
BRANCH   1   8
ATOM      8  C   UNL     1      93.145 122.216 121.263  1.00  0.00     0.000 C 
BRANCH   8   9
ATOM      9  C   UNL     1      93.020 122.276 122.799  1.00  0.00     0.006 C 
BRANCH   9  10
ATOM     10  C   UNL     1      93.479 123.613 123.401  1.00  0.00     0.053 C 
BRANCH  10  11
ATOM     11  C   UNL     1      94.382 123.426 124.579  1.00  0.00     0.041 C 
ATOM     12  O   UNL     1      95.461 124.071 124.661  1.00  0.00    -0.550 OA
ATOM     13  O   UNL     1      94.020 122.556 125.601  1.00  0.00    -0.550 OA
ENDBRANCH  10  11
ENDBRANCH   9  10
ENDBRANCH   8   9
ENDBRANCH   1   8
TORSDOF 8
ENDMDL
MODEL 4
REMARK VINA RESULT:    -5.508      1.341      7.096
REMARK INTER + INTRA:          -8.422
REMARK INTER:                  -8.153
REMARK INTRA:                  -0.269
REMARK UNBOUND:                -0.337
REMARK SMILES O=C([O-])CCCCCCCC(=O)[O-]
REMARK SMILES IDX 7 1 6 2 5 3 4 4 2 5 1 6 3 7 8 8 9 9 10 10 11 11 12 12 13 13
REMARK H PARENT
REMARK Flexibility Score: inf
ROOT
ATOM      1  C   UNL     1      93.400 123.277 123.034  1.00  0.00     0.000 C 
ENDROOT
BRANCH   1   2
ATOM      2  C   UNL     1      93.278 122.942 124.529  1.00  0.00     0.000 C 
BRANCH   2   3
ATOM      3  C   UNL     1      94.635 122.943 125.250  1.00  0.00     0.006 C 
BRANCH   3   4
ATOM      4  C   UNL     1      95.643 123.834 124.518  1.00  0.00     0.053 C 
BRANCH   4   5
ATOM      5  C   UNL     1      96.836 124.096 125.382  1.00  0.00     0.041 C 
ATOM      6  O   UNL     1      97.197 125.276 125.623  1.00  0.00    -0.550 OA
ATOM      7  O   UNL     1      97.520 123.035 125.962  1.00  0.00    -0.550 OA
ENDBRANCH   4   5
ENDBRANCH   3   4
ENDBRANCH   2   3
ENDBRANCH   1   2
BRANCH   1   8
ATOM      8  C   UNL     1      93.071 122.076 122.129  1.00  0.00     0.000 C 
BRANCH   8   9
ATOM      9  C   UNL     1      93.670 122.223 120.715  1.00  0.00     0.006 C 
BRANCH   9  10
ATOM     10  C   UNL     1      92.664 122.731 119.671  1.00  0.00     0.053 C 
BRANCH  10  11
ATOM     11  C   UNL     1      92.595 121.844 118.468  1.00  0.00     0.041 C 
ATOM     12  O   UNL     1      91.495 121.644 117.889  1.00  0.00    -0.550 OA
ATOM     13  O   UNL     1      93.752 121.257 117.970  1.00  0.00    -0.550 OA
ENDBRANCH  10  11
ENDBRANCH   9  10
ENDBRANCH   8   9
ENDBRANCH   1   8
TORSDOF 8
ENDMDL
MODEL 5
REMARK VINA RESULT:    -5.478      1.470      2.195
REMARK INTER + INTRA:          -8.377
REMARK INTER:                  -8.135
REMARK INTRA:                  -0.242
REMARK UNBOUND:                -0.337
REMARK SMILES O=C([O-])CCCCCCCC(=O)[O-]
REMARK SMILES IDX 7 1 6 2 5 3 4 4 2 5 1 6 3 7 8 8 9 9 10 10 11 11 12 12 13 13
REMARK H PARENT
REMARK Flexibility Score: inf
ROOT
ATOM      1  C   UNL     1      93.121 122.600 123.304  1.00  0.00     0.000 C 
ENDROOT
BRANCH   1   2
ATOM      2  C   UNL     1      93.668 122.633 121.868  1.00  0.00     0.000 C 
BRANCH   2   3
ATOM      3  C   UNL     1      92.760 121.899 120.870  1.00  0.00     0.006 C 
BRANCH   3   4
ATOM      4  C   UNL     1      92.791 122.580 119.498  1.00  0.00     0.053 C 
BRANCH   4   5
ATOM      5  C   UNL     1      93.270 121.626 118.450  1.00  0.00     0.041 C 
ATOM      6  O   UNL     1      92.503 121.274 117.517  1.00  0.00    -0.550 OA
ATOM      7  O   UNL     1      94.580 121.164 118.477  1.00  0.00    -0.550 OA
ENDBRANCH   4   5
ENDBRANCH   3   4
ENDBRANCH   2   3
ENDBRANCH   1   2
BRANCH   1   8
ATOM      8  C   UNL     1      93.766 123.664 124.210  1.00  0.00     0.000 C 
BRANCH   8   9
ATOM      9  C   UNL     1      94.925 123.095 125.053  1.00  0.00     0.006 C 
BRANCH   9  10
ATOM     10  C   UNL     1      96.312 123.559 124.583  1.00  0.00     0.053 C 
BRANCH  10  11
ATOM     11  C   UNL     1      97.225 123.870 125.727  1.00  0.00     0.041 C 
ATOM     12  O   UNL     1      97.972 122.976 126.205  1.00  0.00    -0.550 OA
ATOM     13  O   UNL     1      97.270 125.157 126.250  1.00  0.00    -0.550 OA
ENDBRANCH  10  11
ENDBRANCH   9  10
ENDBRANCH   8   9
ENDBRANCH   1   8
TORSDOF 8
ENDMDL
MODEL 6
REMARK VINA RESULT:    -5.473      1.280      6.736
REMARK INTER + INTRA:          -8.370
REMARK INTER:                  -7.912
REMARK INTRA:                  -0.458
REMARK UNBOUND:                -0.337
REMARK SMILES O=C([O-])CCCCCCCC(=O)[O-]
REMARK SMILES IDX 7 1 6 2 5 3 4 4 2 5 1 6 3 7 8 8 9 9 10 10 11 11 12 12 13 13
REMARK H PARENT
REMARK Flexibility Score: inf
ROOT
ATOM      1  C   UNL     1      94.438 122.515 120.487  1.00  0.00     0.000 C 
ENDROOT
BRANCH   1   2
ATOM      2  C   UNL     1      93.148 121.821 120.954  1.00  0.00     0.000 C 
BRANCH   2   3
ATOM      3  C   UNL     1      92.943 121.912 122.474  1.00  0.00     0.006 C 
BRANCH   3   4
ATOM      4  C   UNL     1      93.274 123.316 122.988  1.00  0.00     0.053 C 
BRANCH   4   5
ATOM      5  C   UNL     1      93.740 123.259 124.408  1.00  0.00     0.041 C 
ATOM      6  O   UNL     1      93.074 122.627 125.268  1.00  0.00    -0.550 OA
ATOM      7  O   UNL     1      94.938 123.862 124.771  1.00  0.00    -0.550 OA
ENDBRANCH   4   5
ENDBRANCH   3   4
ENDBRANCH   2   3
ENDBRANCH   1   2
BRANCH   1   8
ATOM      8  C   UNL     1      94.706 122.321 118.984  1.00  0.00     0.000 C 
BRANCH   8   9
ATOM      9  C   UNL     1      94.229 120.946 118.474  1.00  0.00     0.006 C 
BRANCH   9  10
ATOM     10  C   UNL     1      93.433 121.020 117.161  1.00  0.00     0.053 C 
BRANCH  10  11
ATOM     11  C   UNL     1      92.236 121.911 117.271  1.00  0.00     0.041 C 
ATOM     12  O   UNL     1      91.308 121.631 118.075  1.00  0.00    -0.550 OA
ATOM     13  O   UNL     1      92.156 123.066 116.502  1.00  0.00    -0.550 OA
ENDBRANCH  10  11
ENDBRANCH   9  10
ENDBRANCH   8   9
ENDBRANCH   1   8
TORSDOF 8
ENDMDL
MODEL 7
REMARK VINA RESULT:    -5.033      1.575      7.022
REMARK INTER + INTRA:          -7.723
REMARK INTER:                  -7.483
REMARK INTRA:                  -0.240
REMARK UNBOUND:                -0.337
REMARK SMILES O=C([O-])CCCCCCCC(=O)[O-]
REMARK SMILES IDX 7 1 6 2 5 3 4 4 2 5 1 6 3 7 8 8 9 9 10 10 11 11 12 12 13 13
REMARK H PARENT
REMARK Flexibility Score: inf
ROOT
ATOM      1  C   UNL     1      93.487 122.607 120.190  1.00  0.00     0.000 C 
ENDROOT
BRANCH   1   2
ATOM      2  C   UNL     1      93.213 121.504 121.226  1.00  0.00     0.000 C 
BRANCH   2   3
ATOM      3  C   UNL     1      92.800 122.065 122.595  1.00  0.00     0.006 C 
BRANCH   3   4
ATOM      4  C   UNL     1      93.739 123.195 123.028  1.00  0.00     0.053 C 
BRANCH   4   5
ATOM      5  C   UNL     1      93.906 123.196 124.515  1.00  0.00     0.041 C 
ATOM      6  O   UNL     1      93.055 122.630 125.248  1.00  0.00    -0.550 OA
ATOM      7  O   UNL     1      95.028 123.782 125.088  1.00  0.00    -0.550 OA
ENDBRANCH   4   5
ENDBRANCH   3   4
ENDBRANCH   2   3
ENDBRANCH   1   2
BRANCH   1   8
ATOM      8  C   UNL     1      92.302 122.833 119.235  1.00  0.00     0.000 C 
BRANCH   8   9
ATOM      9  C   UNL     1      92.757 123.218 117.813  1.00  0.00     0.006 C 
BRANCH   9  10
ATOM     10  C   UNL     1      92.131 122.348 116.712  1.00  0.00     0.053 C 
BRANCH  10  11
ATOM     11  C   UNL     1      92.981 121.165 116.369  1.00  0.00     0.041 C 
ATOM     12  O   UNL     1      93.878 120.777 117.163  1.00  0.00    -0.550 OA
ATOM     13  O   UNL     1      92.766 120.475 115.182  1.00  0.00    -0.550 OA
ENDBRANCH  10  11
ENDBRANCH   9  10
ENDBRANCH   8   9
ENDBRANCH   1   8
TORSDOF 8
ENDMDL
MODEL 8
REMARK VINA RESULT:    -4.076     10.982     13.021
REMARK INTER + INTRA:          -6.319
REMARK INTER:                  -5.694
REMARK INTRA:                  -0.625
REMARK UNBOUND:                -0.337
REMARK SMILES O=C([O-])CCCCCCCC(=O)[O-]
REMARK SMILES IDX 7 1 6 2 5 3 4 4 2 5 1 6 3 7 8 8 9 9 10 10 11 11 12 12 13 13
REMARK H PARENT
REMARK Flexibility Score: inf
ROOT
ATOM      1  C   UNL     1      84.952 126.701 130.290  1.00  0.00     0.000 C 
ENDROOT
BRANCH   1   2
ATOM      2  C   UNL     1      85.258 125.639 131.359  1.00  0.00     0.000 C 
BRANCH   2   3
ATOM      3  C   UNL     1      86.612 124.948 131.138  1.00  0.00     0.006 C 
BRANCH   3   4
ATOM      4  C   UNL     1      86.443 123.428 131.053  1.00  0.00     0.053 C 
BRANCH   4   5
ATOM      5  C   UNL     1      87.313 122.864 129.975  1.00  0.00     0.041 C 
ATOM      6  O   UNL     1      87.489 123.500 128.904  1.00  0.00    -0.550 OA
ATOM      7  O   UNL     1      87.969 121.655 130.173  1.00  0.00    -0.550 OA
ENDBRANCH   4   5
ENDBRANCH   3   4
ENDBRANCH   2   3
ENDBRANCH   1   2
BRANCH   1   8
ATOM      8  C   UNL     1      85.205 126.193 128.860  1.00  0.00     0.000 C 
BRANCH   8   9
ATOM      9  C   UNL     1      84.127 125.195 128.390  1.00  0.00     0.006 C 
BRANCH   9  10
ATOM     10  C   UNL     1      84.549 124.365 127.168  1.00  0.00     0.053 C 
BRANCH  10  11
ATOM     11  C   UNL     1      83.487 124.323 126.115  1.00  0.00     0.041 C 
ATOM     12  O   UNL     1      82.296 124.614 126.402  1.00  0.00    -0.550 OA
ATOM     13  O   UNL     1      83.817 123.987 124.807  1.00  0.00    -0.550 OA
ENDBRANCH  10  11
ENDBRANCH   9  10
ENDBRANCH   8   9
ENDBRANCH   1   8
TORSDOF 8
ENDMDL
MODEL 9
REMARK VINA RESULT:    -4.064     11.296     12.110
REMARK INTER + INTRA:          -6.302
REMARK INTER:                  -5.697
REMARK INTRA:                  -0.606
REMARK UNBOUND:                -0.337
REMARK SMILES O=C([O-])CCCCCCCC(=O)[O-]
REMARK SMILES IDX 7 1 6 2 5 3 4 4 2 5 1 6 3 7 8 8 9 9 10 10 11 11 12 12 13 13
REMARK H PARENT
REMARK Flexibility Score: inf
ROOT
ATOM      1  C   UNL     1      84.898 125.524 130.741  1.00  0.00     0.000 C 
ENDROOT
BRANCH   1   2
ATOM      2  C   UNL     1      85.248 126.592 129.692  1.00  0.00     0.000 C 
BRANCH   2   3
ATOM      3  C   UNL     1      85.219 126.045 128.256  1.00  0.00     0.006 C 
BRANCH   3   4
ATOM      4  C   UNL     1      84.143 124.965 128.105  1.00  0.00     0.053 C 
BRANCH   4   5
ATOM      5  C   UNL     1      84.370 124.172 126.857  1.00  0.00     0.041 C 
ATOM      6  O   UNL     1      85.012 123.091 126.902  1.00  0.00    -0.550 OA
ATOM      7  O   UNL     1      83.830 124.602 125.652  1.00  0.00    -0.550 OA
ENDBRANCH   4   5
ENDBRANCH   3   4
ENDBRANCH   2   3
ENDBRANCH   1   2
BRANCH   1   8
ATOM      8  C   UNL     1      86.050 125.260 131.727  1.00  0.00     0.000 C 
BRANCH   8   9
ATOM      9  C   UNL     1      87.147 124.360 131.121  1.00  0.00     0.006 C 
BRANCH   9  10
ATOM     10  C   UNL     1      86.594 123.174 130.317  1.00  0.00     0.053 C 
BRANCH  10  11
ATOM     11  C   UNL     1      87.091 121.858 130.829  1.00  0.00     0.041 C 
ATOM     12  O   UNL     1      86.357 121.145 131.564  1.00  0.00    -0.550 OA
ATOM     13  O   UNL     1      88.356 121.407 130.475  1.00  0.00    -0.550 OA
ENDBRANCH  10  11
ENDBRANCH   9  10
ENDBRANCH   8   9
ENDBRANCH   1   8
TORSDOF 8
ENDMDL
