MODEL 1
REMARK VINA RESULT:    -3.031      0.000      0.000
REMARK INTER + INTRA:          -3.845
REMARK INTER:                  -3.740
REMARK INTRA:                  -0.105
REMARK UNBOUND:                -0.105
REMARK SMILES CCCCCC(=O)[O-]
REMARK SMILES IDX 4 1 5 2 6 3 7 4 8 5 3 6 2 7 1 8
REMARK H PARENT
REMARK Flexibility Score: inf
ROOT
ATOM      1  C   UNL     1       8.227 -21.689 -16.193  1.00  0.00     0.006 C 
ENDROOT
BRANCH   1   2
ATOM      2  C   UNL     1       7.226 -22.821 -15.930  1.00  0.00     0.053 C 
BRANCH   2   3
ATOM      3  C   UNL     1       5.968 -22.647 -16.724  1.00  0.00     0.041 C 
ATOM      4  O   UNL     1       4.979 -22.047 -16.225  1.00  0.00    -0.550 OA
ATOM      5  O   UNL     1       5.898 -23.120 -18.028  1.00  0.00    -0.550 OA
ENDBRANCH   2   3
ENDBRANCH   1   2
BRANCH   1   6
ATOM      6  C   UNL     1       8.127 -20.569 -15.141  1.00  0.00     0.000 C 
BRANCH   6   7
ATOM      7  C   UNL     1       9.301 -20.585 -14.151  1.00  0.00    -0.003 C 
ATOM      8  C   UNL     1      10.644 -20.290 -14.820  1.00  0.00     0.004 C 
ENDBRANCH   6   7
ENDBRANCH   1   6
TORSDOF 4
ENDMDL
MODEL 2
REMARK VINA RESULT:    -2.993      1.140      1.721
REMARK INTER + INTRA:          -3.798
REMARK INTER:                  -3.676
REMARK INTRA:                  -0.122
REMARK UNBOUND:                -0.105
REMARK SMILES CCCCCC(=O)[O-]
REMARK SMILES IDX 4 1 5 2 6 3 7 4 8 5 3 6 2 7 1 8
REMARK H PARENT
REMARK Flexibility Score: inf
ROOT
ATOM      1  C   UNL     1       7.366 -21.225 -16.961  1.00  0.00     0.006 C 
ENDROOT
BRANCH   1   2
ATOM      2  C   UNL     1       6.167 -21.008 -16.028  1.00  0.00     0.053 C 
BRANCH   2   3
ATOM      3  C   UNL     1       5.071 -21.995 -16.291  1.00  0.00     0.041 C 
ATOM      4  O   UNL     1       5.300 -23.032 -16.968  1.00  0.00    -0.550 OA
ATOM      5  O   UNL     1       3.804 -21.784 -15.764  1.00  0.00    -0.550 OA
ENDBRANCH   2   3
ENDBRANCH   1   2
BRANCH   1   6
ATOM      6  C   UNL     1       8.674 -21.453 -16.182  1.00  0.00     0.000 C 
BRANCH   6   7
ATOM      7  C   UNL     1       8.722 -20.658 -14.868  1.00  0.00    -0.003 C 
ATOM      8  C   UNL     1      10.141 -20.247 -14.476  1.00  0.00     0.004 C 
ENDBRANCH   6   7
ENDBRANCH   1   6
TORSDOF 4
ENDMDL
MODEL 3
REMARK VINA RESULT:    -2.905      0.448      1.228
REMARK INTER + INTRA:          -3.688
REMARK INTER:                  -3.568
REMARK INTRA:                  -0.120
REMARK UNBOUND:                -0.105
REMARK SMILES CCCCCC(=O)[O-]
REMARK SMILES IDX 4 1 5 2 6 3 7 4 8 5 3 6 2 7 1 8
REMARK H PARENT
REMARK Flexibility Score: inf
ROOT
ATOM      1  C   UNL     1       8.430 -21.544 -16.092  1.00  0.00     0.006 C 
ENDROOT
BRANCH   1   2
ATOM      2  C   UNL     1       7.407 -22.667 -15.876  1.00  0.00     0.053 C 
BRANCH   2   3
ATOM      3  C   UNL     1       6.110 -22.379 -16.568  1.00  0.00     0.041 C 
ATOM      4  O   UNL     1       5.891 -22.833 -17.722  1.00  0.00    -0.550 OA
ATOM      5  O   UNL     1       5.131 -21.632 -15.925  1.00  0.00    -0.550 OA
ENDBRANCH   2   3
ENDBRANCH   1   2
BRANCH   1   6
ATOM      6  C   UNL     1       8.407 -20.510 -14.952  1.00  0.00     0.000 C 
BRANCH   6   7
ATOM      7  C   UNL     1       9.797 -20.279 -14.339  1.00  0.00    -0.003 C 
ATOM      8  C   UNL     1      10.932 -20.535 -15.331  1.00  0.00     0.004 C 
ENDBRANCH   6   7
ENDBRANCH   1   6
TORSDOF 4
ENDMDL
MODEL 4
REMARK VINA RESULT:    -2.843      2.317      2.579
REMARK INTER + INTRA:          -3.612
REMARK INTER:                  -3.432
REMARK INTRA:                  -0.181
REMARK UNBOUND:                -0.105
REMARK SMILES CCCCCC(=O)[O-]
REMARK SMILES IDX 4 1 5 2 6 3 7 4 8 5 3 6 2 7 1 8
REMARK H PARENT
REMARK Flexibility Score: inf
ROOT
ATOM      1  C   UNL     1       7.465 -21.780 -15.968  1.00  0.00     0.006 C 
ENDROOT
BRANCH   1   2
ATOM      2  C   UNL     1       7.436 -21.589 -17.491  1.00  0.00     0.053 C 
BRANCH   2   3
ATOM      3  C   UNL     1       8.759 -21.911 -18.117  1.00  0.00     0.041 C 
ATOM      4  O   UNL     1       9.583 -22.649 -17.515  1.00  0.00    -0.550 OA
ATOM      5  O   UNL     1       9.069 -21.419 -19.378  1.00  0.00    -0.550 OA
ENDBRANCH   2   3
ENDBRANCH   1   2
BRANCH   1   6
ATOM      6  C   UNL     1       7.958 -20.520 -15.235  1.00  0.00     0.000 C 
BRANCH   6   7
ATOM      7  C   UNL     1       9.047 -20.831 -14.197  1.00  0.00    -0.003 C 
ATOM      8  C   UNL     1      10.401 -20.222 -14.558  1.00  0.00     0.004 C 
ENDBRANCH   6   7
ENDBRANCH   1   6
TORSDOF 4
ENDMDL
MODEL 5
REMARK VINA RESULT:    -2.592     15.395     16.236
REMARK INTER + INTRA:          -3.303
REMARK INTER:                  -3.140
REMARK INTRA:                  -0.163
REMARK UNBOUND:                -0.105
REMARK SMILES CCCCCC(=O)[O-]
REMARK SMILES IDX 4 1 5 2 6 3 7 4 8 5 3 6 2 7 1 8
REMARK H PARENT
REMARK Flexibility Score: inf
ROOT
ATOM      1  C   UNL     1      -8.837 -19.622 -14.095  1.00  0.00     0.006 C 
ENDROOT
BRANCH   1   2
ATOM      2  C   UNL     1      -8.988 -21.083 -14.539  1.00  0.00     0.053 C 
BRANCH   2   3
ATOM      3  C   UNL     1      -7.875 -21.506 -15.448  1.00  0.00     0.041 C 
ATOM      4  O   UNL     1      -6.803 -21.962 -14.970  1.00  0.00    -0.550 OA
ATOM      5  O   UNL     1      -8.033 -21.425 -16.826  1.00  0.00    -0.550 OA
ENDBRANCH   2   3
ENDBRANCH   1   2
BRANCH   1   6
ATOM      6  C   UNL     1      -8.853 -19.477 -12.563  1.00  0.00     0.000 C 
BRANCH   6   7
ATOM      7  C   UNL     1      -8.194 -20.669 -11.852  1.00  0.00    -0.003 C 
ATOM      8  C   UNL     1      -8.888 -21.032 -10.539  1.00  0.00     0.004 C 
ENDBRANCH   6   7
ENDBRANCH   1   6
TORSDOF 4
ENDMDL
MODEL 6
REMARK VINA RESULT:    -2.477     13.935     15.104
REMARK INTER + INTRA:          -3.161
REMARK INTER:                  -3.010
REMARK INTRA:                  -0.151
REMARK UNBOUND:                -0.105
REMARK SMILES CCCCCC(=O)[O-]
REMARK SMILES IDX 4 1 5 2 6 3 7 4 8 5 3 6 2 7 1 8
REMARK H PARENT
REMARK Flexibility Score: inf
ROOT
ATOM      1  C   UNL     1      -7.985 -22.620 -14.486  1.00  0.00     0.006 C 
ENDROOT
BRANCH   1   2
ATOM      2  C   UNL     1      -7.320 -21.950 -13.276  1.00  0.00     0.053 C 
BRANCH   2   3
ATOM      3  C   UNL     1      -6.077 -22.672 -12.854  1.00  0.00     0.041 C 
ATOM      4  O   UNL     1      -5.139 -22.855 -13.675  1.00  0.00    -0.550 OA
ATOM      5  O   UNL     1      -5.941 -23.117 -11.545  1.00  0.00    -0.550 OA
ENDBRANCH   2   3
ENDBRANCH   1   2
BRANCH   1   6
ATOM      6  C   UNL     1      -8.602 -21.593 -15.452  1.00  0.00     0.000 C 
BRANCH   6   7
ATOM      7  C   UNL     1      -7.989 -21.666 -16.858  1.00  0.00    -0.003 C 
ATOM      8  C   UNL     1      -6.491 -21.362 -16.868  1.00  0.00     0.004 C 
ENDBRANCH   6   7
ENDBRANCH   1   6
TORSDOF 4
ENDMDL
MODEL 7
REMARK VINA RESULT:    -2.349      2.840      4.420
REMARK INTER + INTRA:          -3.003
REMARK INTER:                  -2.901
REMARK INTRA:                  -0.103
REMARK UNBOUND:                -0.105
REMARK SMILES CCCCCC(=O)[O-]
REMARK SMILES IDX 4 1 5 2 6 3 7 4 8 5 3 6 2 7 1 8
REMARK H PARENT
REMARK Flexibility Score: inf
ROOT
ATOM      1  C   UNL     1       7.631 -22.045 -17.927  1.00  0.00     0.006 C 
ENDROOT
BRANCH   1   2
ATOM      2  C   UNL     1       7.793 -22.241 -16.414  1.00  0.00     0.053 C 
BRANCH   2   3
ATOM      3  C   UNL     1       7.700 -20.943 -15.672  1.00  0.00     0.041 C 
ATOM      4  O   UNL     1       6.650 -20.249 -15.736  1.00  0.00    -0.550 OA
ATOM      5  O   UNL     1       8.762 -20.513 -14.887  1.00  0.00    -0.550 OA
ENDBRANCH   2   3
ENDBRANCH   1   2
BRANCH   1   6
ATOM      6  C   UNL     1       6.597 -23.012 -18.531  1.00  0.00     0.000 C 
BRANCH   6   7
ATOM      7  C   UNL     1       6.713 -23.120 -20.059  1.00  0.00    -0.003 C 
ATOM      8  C   UNL     1       8.133 -22.863 -20.564  1.00  0.00     0.004 C 
ENDBRANCH   6   7
ENDBRANCH   1   6
TORSDOF 4
ENDMDL
MODEL 8
REMARK VINA RESULT:    -2.308      2.441      3.236
REMARK INTER + INTRA:          -2.953
REMARK INTER:                  -2.690
REMARK INTRA:                  -0.262
REMARK UNBOUND:                -0.105
REMARK SMILES CCCCCC(=O)[O-]
REMARK SMILES IDX 4 1 5 2 6 3 7 4 8 5 3 6 2 7 1 8
REMARK H PARENT
REMARK Flexibility Score: inf
ROOT
ATOM      1  C   UNL     1       7.110 -22.399 -17.466  1.00  0.00     0.006 C 
ENDROOT
BRANCH   1   2
ATOM      2  C   UNL     1       7.306 -22.331 -15.945  1.00  0.00     0.053 C 
BRANCH   2   3
ATOM      3  C   UNL     1       7.561 -20.930 -15.479  1.00  0.00     0.041 C 
ATOM      4  O   UNL     1       6.656 -20.058 -15.563  1.00  0.00    -0.550 OA
ATOM      5  O   UNL     1       8.790 -20.595 -14.925  1.00  0.00    -0.550 OA
ENDBRANCH   2   3
ENDBRANCH   1   2
BRANCH   1   6
ATOM      6  C   UNL     1       8.354 -21.916 -18.233  1.00  0.00     0.000 C 
BRANCH   6   7
ATOM      7  C   UNL     1       9.594 -22.776 -17.944  1.00  0.00    -0.003 C 
ATOM      8  C   UNL     1      10.843 -21.939 -17.665  1.00  0.00     0.004 C 
ENDBRANCH   6   7
ENDBRANCH   1   6
TORSDOF 4
ENDMDL
