MODEL 1
REMARK VINA RESULT:    -5.104      0.000      0.000
REMARK INTER + INTRA:         -11.821
REMARK INTER:                  -9.282
REMARK INTRA:                  -2.539
REMARK UNBOUND:                -2.539
REMARK SMILES CCCCCC=CCC=CCCCCCCCC(=O)[O-]
REMARK SMILES IDX 11 1 12 2 13 3 14 4 15 5 16 6 17 7 18 8 19 9 20 10 10 11
REMARK SMILES IDX 9 12 8 13 7 14 6 15 5 16 4 17 3 18 2 19 1 20
REMARK H PARENT
REMARK Flexibility Score: inf
ROOT
ATOM      1  C   UNL     1      20.416  -5.585 -17.610  1.00  0.00     0.027 C 
ENDROOT
BRANCH   1   2
ATOM      2  C   UNL     1      19.233  -6.545 -17.378  1.00  0.00     0.004 C 
BRANCH   2   3
ATOM      3  C   UNL     1      19.471  -7.565 -16.251  1.00  0.00     0.000 C 
BRANCH   3   4
ATOM      4  C   UNL     1      18.350  -7.571 -15.204  1.00  0.00     0.000 C 
BRANCH   4   5
ATOM      5  C   UNL     1      18.744  -6.747 -13.969  1.00  0.00     0.000 C 
BRANCH   5   6
ATOM      6  C   UNL     1      20.187  -7.016 -13.514  1.00  0.00     0.006 C 
BRANCH   6   7
ATOM      7  C   UNL     1      20.256  -7.774 -12.182  1.00  0.00     0.053 C 
BRANCH   7   8
ATOM      8  C   UNL     1      20.296  -9.250 -12.423  1.00  0.00     0.041 C 
ATOM      9  O   UNL     1      21.370  -9.806 -12.770  1.00  0.00    -0.550 OA
ATOM     10  O   UNL     1      19.157 -10.020 -12.215  1.00  0.00    -0.550 OA
ENDBRANCH   7   8
ENDBRANCH   6   7
ENDBRANCH   5   6
ENDBRANCH   4   5
ENDBRANCH   3   4
ENDBRANCH   2   3
ENDBRANCH   1   2
BRANCH   1  11
ATOM     11  C   UNL     1      21.040  -5.117 -16.317  1.00  0.00    -0.031 C 
ATOM     12  C   UNL     1      20.664  -4.011 -15.648  1.00  0.00    -0.027 C 
BRANCH  12  13
ATOM     13  C   UNL     1      19.608  -3.045 -16.124  1.00  0.00     0.054 C 
BRANCH  13  14
ATOM     14  C   UNL     1      18.268  -3.369 -15.523  1.00  0.00    -0.027 C 
ATOM     15  C   UNL     1      17.225  -3.676 -16.306  1.00  0.00    -0.031 C 
BRANCH  15  16
ATOM     16  C   UNL     1      15.870  -3.992 -15.730  1.00  0.00     0.027 C 
BRANCH  16  17
ATOM     17  C   UNL     1      15.944  -4.398 -14.250  1.00  0.00     0.004 C 
BRANCH  17  18
ATOM     18  C   UNL     1      14.676  -5.140 -13.791  1.00  0.00     0.000 C 
BRANCH  18  19
ATOM     19  C   UNL     1      14.791  -5.669 -12.353  1.00  0.00    -0.003 C 
ATOM     20  C   UNL     1      16.241  -5.817 -11.890  1.00  0.00     0.004 C 
ENDBRANCH  18  19
ENDBRANCH  17  18
ENDBRANCH  16  17
ENDBRANCH  15  16
ENDBRANCH  13  14
ENDBRANCH  12  13
ENDBRANCH   1  11
TORSDOF 14
ENDMDL
MODEL 2
REMARK VINA RESULT:    -5.043      3.710      5.707
REMARK INTER + INTRA:         -11.709
REMARK INTER:                  -9.925
REMARK INTRA:                  -1.784
REMARK UNBOUND:                -2.539
REMARK SMILES CCCCCC=CCC=CCCCCCCCC(=O)[O-]
REMARK SMILES IDX 11 1 12 2 13 3 14 4 15 5 16 6 17 7 18 8 19 9 20 10 10 11
REMARK SMILES IDX 9 12 8 13 7 14 6 15 5 16 4 17 3 18 2 19 1 20
REMARK H PARENT
REMARK Flexibility Score: inf
ROOT
ATOM      1  C   UNL     1      16.095  -6.798 -13.986  1.00  0.00     0.027 C 
ENDROOT
BRANCH   1   2
ATOM      2  C   UNL     1      17.283  -6.777 -13.004  1.00  0.00     0.004 C 
BRANCH   2   3
ATOM      3  C   UNL     1      18.635  -7.112 -13.658  1.00  0.00     0.000 C 
BRANCH   3   4
ATOM      4  C   UNL     1      18.527  -7.330 -15.173  1.00  0.00     0.000 C 
BRANCH   4   5
ATOM      5  C   UNL     1      19.687  -6.646 -15.912  1.00  0.00     0.000 C 
BRANCH   5   6
ATOM      6  C   UNL     1      19.934  -5.209 -15.427  1.00  0.00     0.006 C 
BRANCH   6   7
ATOM      7  C   UNL     1      19.992  -4.197 -16.578  1.00  0.00     0.053 C 
BRANCH   7   8
ATOM      8  C   UNL     1      20.215  -2.816 -16.048  1.00  0.00     0.041 C 
ATOM      9  O   UNL     1      21.378  -2.342 -15.985  1.00  0.00    -0.550 OA
ATOM     10  O   UNL     1      19.130  -2.033 -15.670  1.00  0.00    -0.550 OA
ENDBRANCH   7   8
ENDBRANCH   6   7
ENDBRANCH   5   6
ENDBRANCH   4   5
ENDBRANCH   3   4
ENDBRANCH   2   3
ENDBRANCH   1   2
BRANCH   1  11
ATOM     11  C   UNL     1      15.162  -5.627 -13.784  1.00  0.00    -0.031 C 
ATOM     12  C   UNL     1      15.266  -4.453 -14.434  1.00  0.00    -0.027 C 
BRANCH  12  13
ATOM     13  C   UNL     1      16.363  -4.113 -15.411  1.00  0.00     0.054 C 
BRANCH  13  14
ATOM     14  C   UNL     1      15.822  -3.351 -16.589  1.00  0.00    -0.027 C 
ATOM     15  C   UNL     1      16.308  -3.560 -17.820  1.00  0.00    -0.031 C 
BRANCH  15  16
ATOM     16  C   UNL     1      15.793  -2.802 -19.013  1.00  0.00     0.027 C 
BRANCH  16  17
ATOM     17  C   UNL     1      14.265  -2.639 -18.988  1.00  0.00     0.004 C 
BRANCH  17  18
ATOM     18  C   UNL     1      13.822  -1.258 -19.501  1.00  0.00     0.000 C 
BRANCH  18  19
ATOM     19  C   UNL     1      13.582  -0.256 -18.361  1.00  0.00    -0.003 C 
ATOM     20  C   UNL     1      12.184   0.361 -18.400  1.00  0.00     0.004 C 
ENDBRANCH  18  19
ENDBRANCH  17  18
ENDBRANCH  16  17
ENDBRANCH  15  16
ENDBRANCH  13  14
ENDBRANCH  12  13
ENDBRANCH   1  11
TORSDOF 14
ENDMDL
MODEL 3
REMARK VINA RESULT:    -5.035      4.105      6.159
REMARK INTER + INTRA:         -11.694
REMARK INTER:                  -9.339
REMARK INTRA:                  -2.355
REMARK UNBOUND:                -2.539
REMARK SMILES CCCCCC=CCC=CCCCCCCCC(=O)[O-]
REMARK SMILES IDX 11 1 12 2 13 3 14 4 15 5 16 6 17 7 18 8 19 9 20 10 10 11
REMARK SMILES IDX 9 12 8 13 7 14 6 15 5 16 4 17 3 18 2 19 1 20
REMARK H PARENT
REMARK Flexibility Score: inf
ROOT
ATOM      1  C   UNL     1      20.118  -3.236 -16.073  1.00  0.00     0.027 C 
ENDROOT
BRANCH   1   2
ATOM      2  C   UNL     1      18.703  -2.643 -16.217  1.00  0.00     0.004 C 
BRANCH   2   3
ATOM      3  C   UNL     1      17.624  -3.409 -15.432  1.00  0.00     0.000 C 
BRANCH   3   4
ATOM      4  C   UNL     1      16.558  -4.037 -16.340  1.00  0.00     0.000 C 
BRANCH   4   5
ATOM      5  C   UNL     1      16.869  -3.770 -17.820  1.00  0.00     0.000 C 
BRANCH   5   6
ATOM      6  C   UNL     1      15.659  -3.218 -18.590  1.00  0.00     0.006 C 
BRANCH   6   7
ATOM      7  C   UNL     1      15.762  -1.709 -18.849  1.00  0.00     0.053 C 
BRANCH   7   8
ATOM      8  C   UNL     1      14.832  -0.960 -17.947  1.00  0.00     0.041 C 
ATOM      9  O   UNL     1      15.143  -0.758 -16.744  1.00  0.00    -0.550 OA
ATOM     10  O   UNL     1      13.644  -0.442 -18.448  1.00  0.00    -0.550 OA
ENDBRANCH   7   8
ENDBRANCH   6   7
ENDBRANCH   5   6
ENDBRANCH   4   5
ENDBRANCH   3   4
ENDBRANCH   2   3
ENDBRANCH   1   2
BRANCH   1  11
ATOM     11  C   UNL     1      20.320  -4.459 -16.936  1.00  0.00    -0.031 C 
ATOM     12  C   UNL     1      20.635  -5.679 -16.463  1.00  0.00    -0.027 C 
BRANCH  12  13
ATOM     13  C   UNL     1      20.893  -5.990 -15.010  1.00  0.00     0.054 C 
BRANCH  13  14
ATOM     14  C   UNL     1      19.607  -6.245 -14.274  1.00  0.00    -0.027 C 
ATOM     15  C   UNL     1      18.557  -6.790 -14.901  1.00  0.00    -0.031 C 
BRANCH  15  16
ATOM     16  C   UNL     1      17.254  -7.044 -14.189  1.00  0.00     0.027 C 
BRANCH  16  17
ATOM     17  C   UNL     1      17.344  -6.753 -12.683  1.00  0.00     0.004 C 
BRANCH  17  18
ATOM     18  C   UNL     1      16.054  -6.116 -12.139  1.00  0.00     0.000 C 
BRANCH  18  19
ATOM     19  C   UNL     1      15.617  -4.886 -12.951  1.00  0.00    -0.003 C 
ATOM     20  C   UNL     1      14.233  -5.052 -13.579  1.00  0.00     0.004 C 
ENDBRANCH  18  19
ENDBRANCH  17  18
ENDBRANCH  16  17
ENDBRANCH  15  16
ENDBRANCH  13  14
ENDBRANCH  12  13
ENDBRANCH   1  11
TORSDOF 14
ENDMDL
MODEL 4
REMARK VINA RESULT:    -5.025      3.941      6.959
REMARK INTER + INTRA:         -11.676
REMARK INTER:                  -9.205
REMARK INTRA:                  -2.471
REMARK UNBOUND:                -2.539
REMARK SMILES CCCCCC=CCC=CCCCCCCCC(=O)[O-]
REMARK SMILES IDX 11 1 12 2 13 3 14 4 15 5 16 6 17 7 18 8 19 9 20 10 10 11
REMARK SMILES IDX 9 12 8 13 7 14 6 15 5 16 4 17 3 18 2 19 1 20
REMARK H PARENT
REMARK Flexibility Score: inf
ROOT
ATOM      1  C   UNL     1      15.974  -6.626 -13.902  1.00  0.00     0.027 C 
ENDROOT
BRANCH   1   2
ATOM      2  C   UNL     1      15.688  -5.172 -14.328  1.00  0.00     0.004 C 
BRANCH   2   3
ATOM      3  C   UNL     1      16.797  -4.180 -13.938  1.00  0.00     0.000 C 
BRANCH   3   4
ATOM      4  C   UNL     1      17.606  -3.685 -15.145  1.00  0.00     0.000 C 
BRANCH   4   5
ATOM      5  C   UNL     1      17.342  -4.558 -16.381  1.00  0.00     0.000 C 
BRANCH   5   6
ATOM      6  C   UNL     1      16.925  -3.736 -17.609  1.00  0.00     0.006 C 
BRANCH   6   7
ATOM      7  C   UNL     1      15.531  -3.113 -17.458  1.00  0.00     0.053 C 
BRANCH   7   8
ATOM      8  C   UNL     1      15.564  -1.664 -17.828  1.00  0.00     0.041 C 
ATOM      9  O   UNL     1      16.007  -1.306 -18.950  1.00  0.00    -0.550 OA
ATOM     10  O   UNL     1      15.059  -0.711 -16.952  1.00  0.00    -0.550 OA
ENDBRANCH   7   8
ENDBRANCH   6   7
ENDBRANCH   5   6
ENDBRANCH   4   5
ENDBRANCH   3   4
ENDBRANCH   2   3
ENDBRANCH   1   2
BRANCH   1  11
ATOM     11  C   UNL     1      17.042  -6.713 -12.838  1.00  0.00    -0.031 C 
ATOM     12  C   UNL     1      18.313  -7.091 -13.067  1.00  0.00    -0.027 C 
BRANCH  12  13
ATOM     13  C   UNL     1      18.841  -7.541 -14.406  1.00  0.00     0.054 C 
BRANCH  13  14
ATOM     14  C   UNL     1      20.228  -7.011 -14.647  1.00  0.00    -0.027 C 
ATOM     15  C   UNL     1      20.466  -5.693 -14.647  1.00  0.00    -0.031 C 
BRANCH  15  16
ATOM     16  C   UNL     1      21.843  -5.138 -14.899  1.00  0.00     0.027 C 
BRANCH  16  17
ATOM     17  C   UNL     1      21.814  -3.650 -15.279  1.00  0.00     0.004 C 
BRANCH  17  18
ATOM     18  C   UNL     1      21.017  -3.400 -16.572  1.00  0.00     0.000 C 
BRANCH  18  19
ATOM     19  C   UNL     1      21.553  -4.213 -17.761  1.00  0.00    -0.003 C 
ATOM     20  C   UNL     1      20.498  -5.133 -18.373  1.00  0.00     0.004 C 
ENDBRANCH  18  19
ENDBRANCH  17  18
ENDBRANCH  16  17
ENDBRANCH  15  16
ENDBRANCH  13  14
ENDBRANCH  12  13
ENDBRANCH   1  11
TORSDOF 14
ENDMDL
MODEL 5
REMARK VINA RESULT:    -5.017      2.339      3.389
REMARK INTER + INTRA:         -11.662
REMARK INTER:                  -8.917
REMARK INTRA:                  -2.745
REMARK UNBOUND:                -2.539
REMARK SMILES CCCCCC=CCC=CCCCCCCCC(=O)[O-]
REMARK SMILES IDX 11 1 12 2 13 3 14 4 15 5 16 6 17 7 18 8 19 9 20 10 10 11
REMARK SMILES IDX 9 12 8 13 7 14 6 15 5 16 4 17 3 18 2 19 1 20
REMARK H PARENT
REMARK Flexibility Score: inf
ROOT
ATOM      1  C   UNL     1      21.521  -5.289 -14.271  1.00  0.00     0.027 C 
ENDROOT
BRANCH   1   2
ATOM      2  C   UNL     1      21.789  -6.702 -13.718  1.00  0.00     0.004 C 
BRANCH   2   3
ATOM      3  C   UNL     1      20.570  -7.638 -13.787  1.00  0.00     0.000 C 
BRANCH   3   4
ATOM      4  C   UNL     1      19.235  -6.880 -13.771  1.00  0.00     0.000 C 
BRANCH   4   5
ATOM      5  C   UNL     1      18.291  -7.406 -14.862  1.00  0.00     0.000 C 
BRANCH   5   6
ATOM      6  C   UNL     1      19.044  -7.967 -16.079  1.00  0.00     0.006 C 
BRANCH   6   7
ATOM      7  C   UNL     1      18.910  -7.075 -17.320  1.00  0.00     0.053 C 
BRANCH   7   8
ATOM      8  C   UNL     1      19.845  -7.534 -18.395  1.00  0.00     0.041 C 
ATOM      9  O   UNL     1      20.803  -6.802 -18.756  1.00  0.00    -0.550 OA
ATOM     10  O   UNL     1      19.686  -8.792 -18.964  1.00  0.00    -0.550 OA
ENDBRANCH   7   8
ENDBRANCH   6   7
ENDBRANCH   5   6
ENDBRANCH   4   5
ENDBRANCH   3   4
ENDBRANCH   2   3
ENDBRANCH   1   2
BRANCH   1  11
ATOM     11  C   UNL     1      21.734  -5.206 -15.764  1.00  0.00    -0.031 C 
ATOM     12  C   UNL     1      21.271  -4.210 -16.543  1.00  0.00    -0.027 C 
BRANCH  12  13
ATOM     13  C   UNL     1      20.420  -3.067 -16.051  1.00  0.00     0.054 C 
BRANCH  13  14
ATOM     14  C   UNL     1      18.973  -3.280 -16.398  1.00  0.00    -0.027 C 
ATOM     15  C   UNL     1      18.162  -3.949 -15.569  1.00  0.00    -0.031 C 
BRANCH  15  16
ATOM     16  C   UNL     1      16.713  -4.187 -15.900  1.00  0.00     0.027 C 
BRANCH  16  17
ATOM     17  C   UNL     1      15.810  -4.121 -14.658  1.00  0.00     0.004 C 
BRANCH  17  18
ATOM     18  C   UNL     1      16.598  -4.355 -13.358  1.00  0.00     0.000 C 
BRANCH  18  19
ATOM     19  C   UNL     1      15.891  -5.336 -12.410  1.00  0.00    -0.003 C 
ATOM     20  C   UNL     1      14.373  -5.341 -12.586  1.00  0.00     0.004 C 
ENDBRANCH  18  19
ENDBRANCH  17  18
ENDBRANCH  16  17
ENDBRANCH  15  16
ENDBRANCH  13  14
ENDBRANCH  12  13
ENDBRANCH   1  11
TORSDOF 14
ENDMDL
MODEL 6
REMARK VINA RESULT:    -5.010      3.331      5.444
REMARK INTER + INTRA:         -11.650
REMARK INTER:                  -9.943
REMARK INTRA:                  -1.707
REMARK UNBOUND:                -2.539
REMARK SMILES CCCCCC=CCC=CCCCCCCCC(=O)[O-]
REMARK SMILES IDX 11 1 12 2 13 3 14 4 15 5 16 6 17 7 18 8 19 9 20 10 10 11
REMARK SMILES IDX 9 12 8 13 7 14 6 15 5 16 4 17 3 18 2 19 1 20
REMARK H PARENT
REMARK Flexibility Score: inf
ROOT
ATOM      1  C   UNL     1      15.944  -6.460 -13.866  1.00  0.00     0.027 C 
ENDROOT
BRANCH   1   2
ATOM      2  C   UNL     1      16.840  -6.381 -12.614  1.00  0.00     0.004 C 
BRANCH   2   3
ATOM      3  C   UNL     1      18.046  -7.335 -12.652  1.00  0.00     0.000 C 
BRANCH   3   4
ATOM      4  C   UNL     1      19.094  -6.931 -13.698  1.00  0.00     0.000 C 
BRANCH   4   5
ATOM      5  C   UNL     1      19.549  -8.145 -14.520  1.00  0.00     0.000 C 
BRANCH   5   6
ATOM      6  C   UNL     1      18.842  -8.238 -15.881  1.00  0.00     0.006 C 
BRANCH   6   7
ATOM      7  C   UNL     1      19.156  -7.046 -16.794  1.00  0.00     0.053 C 
BRANCH   7   8
ATOM      8  C   UNL     1      19.043  -7.445 -18.232  1.00  0.00     0.041 C 
ATOM      9  O   UNL     1      18.419  -6.716 -19.044  1.00  0.00    -0.550 OA
ATOM     10  O   UNL     1      19.671  -8.600 -18.684  1.00  0.00    -0.550 OA
ENDBRANCH   7   8
ENDBRANCH   6   7
ENDBRANCH   5   6
ENDBRANCH   4   5
ENDBRANCH   3   4
ENDBRANCH   2   3
ENDBRANCH   1   2
BRANCH   1  11
ATOM     11  C   UNL     1      15.227  -5.160 -14.143  1.00  0.00    -0.031 C 
ATOM     12  C   UNL     1      15.737  -4.151 -14.873  1.00  0.00    -0.027 C 
BRANCH  12  13
ATOM     13  C   UNL     1      17.122  -4.146 -15.470  1.00  0.00     0.054 C 
BRANCH  13  14
ATOM     14  C   UNL     1      17.064  -4.106 -16.972  1.00  0.00    -0.027 C 
ATOM     15  C   UNL     1      16.082  -3.447 -17.601  1.00  0.00    -0.031 C 
BRANCH  15  16
ATOM     16  C   UNL     1      15.996  -3.403 -19.104  1.00  0.00     0.027 C 
BRANCH  16  17
ATOM     17  C   UNL     1      15.491  -2.047 -19.621  1.00  0.00     0.004 C 
BRANCH  17  18
ATOM     18  C   UNL     1      15.082  -1.106 -18.474  1.00  0.00     0.000 C 
BRANCH  18  19
ATOM     19  C   UNL     1      13.630  -0.621 -18.599  1.00  0.00    -0.003 C 
ATOM     20  C   UNL     1      13.313  -0.049 -19.981  1.00  0.00     0.004 C 
ENDBRANCH  18  19
ENDBRANCH  17  18
ENDBRANCH  16  17
ENDBRANCH  15  16
ENDBRANCH  13  14
ENDBRANCH  12  13
ENDBRANCH   1  11
TORSDOF 14
ENDMDL
MODEL 7
REMARK VINA RESULT:    -4.996      3.531      6.326
REMARK INTER + INTRA:         -11.624
REMARK INTER:                  -9.276
REMARK INTRA:                  -2.348
REMARK UNBOUND:                -2.539
REMARK SMILES CCCCCC=CCC=CCCCCCCCC(=O)[O-]
REMARK SMILES IDX 11 1 12 2 13 3 14 4 15 5 16 6 17 7 18 8 19 9 20 10 10 11
REMARK SMILES IDX 9 12 8 13 7 14 6 15 5 16 4 17 3 18 2 19 1 20
REMARK H PARENT
REMARK Flexibility Score: inf
ROOT
ATOM      1  C   UNL     1      18.628  -7.442 -12.372  1.00  0.00     0.027 C 
ENDROOT
BRANCH   1   2
ATOM      2  C   UNL     1      17.469  -6.907 -13.236  1.00  0.00     0.004 C 
BRANCH   2   3
ATOM      3  C   UNL     1      16.386  -6.166 -12.432  1.00  0.00     0.000 C 
BRANCH   3   4
ATOM      4  C   UNL     1      16.267  -4.685 -12.816  1.00  0.00     0.000 C 
BRANCH   4   5
ATOM      5  C   UNL     1      16.943  -4.410 -14.167  1.00  0.00     0.000 C 
BRANCH   5   6
ATOM      6  C   UNL     1      15.937  -4.049 -15.271  1.00  0.00     0.006 C 
BRANCH   6   7
ATOM      7  C   UNL     1      16.567  -3.217 -16.396  1.00  0.00     0.053 C 
BRANCH   7   8
ATOM      8  C   UNL     1      15.508  -2.479 -17.154  1.00  0.00     0.041 C 
ATOM      9  O   UNL     1      14.833  -3.070 -18.035  1.00  0.00    -0.550 OA
ATOM     10  O   UNL     1      15.235  -1.150 -16.851  1.00  0.00    -0.550 OA
ENDBRANCH   7   8
ENDBRANCH   6   7
ENDBRANCH   5   6
ENDBRANCH   4   5
ENDBRANCH   3   4
ENDBRANCH   2   3
ENDBRANCH   1   2
BRANCH   1  11
ATOM     11  C   UNL     1      19.499  -8.421 -13.122  1.00  0.00    -0.031 C 
ATOM     12  C   UNL     1      20.761  -8.168 -13.516  1.00  0.00    -0.027 C 
BRANCH  12  13
ATOM     13  C   UNL     1      21.467  -6.850 -13.322  1.00  0.00     0.054 C 
BRANCH  13  14
ATOM     14  C   UNL     1      21.451  -6.036 -14.586  1.00  0.00    -0.027 C 
ATOM     15  C   UNL     1      20.332  -5.418 -14.987  1.00  0.00    -0.031 C 
BRANCH  15  16
ATOM     16  C   UNL     1      20.287  -4.608 -16.256  1.00  0.00     0.027 C 
BRANCH  16  17
ATOM     17  C   UNL     1      19.564  -5.343 -17.395  1.00  0.00     0.004 C 
BRANCH  17  18
ATOM     18  C   UNL     1      18.694  -6.501 -16.875  1.00  0.00     0.000 C 
BRANCH  18  19
ATOM     19  C   UNL     1      19.165  -7.869 -17.390  1.00  0.00    -0.003 C 
ATOM     20  C   UNL     1      19.474  -7.865 -18.887  1.00  0.00     0.004 C 
ENDBRANCH  18  19
ENDBRANCH  17  18
ENDBRANCH  16  17
ENDBRANCH  15  16
ENDBRANCH  13  14
ENDBRANCH  12  13
ENDBRANCH   1  11
TORSDOF 14
ENDMDL
MODEL 8
REMARK VINA RESULT:    -4.993      3.266      6.803
REMARK INTER + INTRA:         -11.618
REMARK INTER:                 -10.282
REMARK INTRA:                  -1.336
REMARK UNBOUND:                -2.539
REMARK SMILES CCCCCC=CCC=CCCCCCCCC(=O)[O-]
REMARK SMILES IDX 11 1 12 2 13 3 14 4 15 5 16 6 17 7 18 8 19 9 20 10 10 11
REMARK SMILES IDX 9 12 8 13 7 14 6 15 5 16 4 17 3 18 2 19 1 20
REMARK H PARENT
REMARK Flexibility Score: inf
ROOT
ATOM      1  C   UNL     1      18.839  -7.521 -14.914  1.00  0.00     0.027 C 
ENDROOT
BRANCH   1   2
ATOM      2  C   UNL     1      18.448  -6.327 -15.807  1.00  0.00     0.004 C 
BRANCH   2   3
ATOM      3  C   UNL     1      19.184  -5.022 -15.458  1.00  0.00     0.000 C 
BRANCH   3   4
ATOM      4  C   UNL     1      18.236  -3.826 -15.303  1.00  0.00     0.000 C 
BRANCH   4   5
ATOM      5  C   UNL     1      16.895  -4.091 -16.002  1.00  0.00     0.000 C 
BRANCH   5   6
ATOM      6  C   UNL     1      15.725  -4.212 -15.013  1.00  0.00     0.006 C 
BRANCH   6   7
ATOM      7  C   UNL     1      16.189  -4.485 -13.577  1.00  0.00     0.053 C 
BRANCH   7   8
ATOM      8  C   UNL     1      15.651  -5.795 -13.094  1.00  0.00     0.041 C 
ATOM      9  O   UNL     1      15.402  -6.717 -13.913  1.00  0.00    -0.550 OA
ATOM     10  O   UNL     1      15.470  -6.014 -11.734  1.00  0.00    -0.550 OA
ENDBRANCH   7   8
ENDBRANCH   6   7
ENDBRANCH   5   6
ENDBRANCH   4   5
ENDBRANCH   3   4
ENDBRANCH   2   3
ENDBRANCH   1   2
BRANCH   1  11
ATOM     11  C   UNL     1      19.139  -7.104 -13.494  1.00  0.00    -0.031 C 
ATOM     12  C   UNL     1      20.000  -7.743 -12.680  1.00  0.00    -0.027 C 
BRANCH  12  13
ATOM     13  C   UNL     1      20.743  -9.004 -13.045  1.00  0.00     0.054 C 
BRANCH  13  14
ATOM     14  C   UNL     1      21.106  -9.793 -11.817  1.00  0.00    -0.027 C 
ATOM     15  C   UNL     1      20.164 -10.437 -11.116  1.00  0.00    -0.031 C 
BRANCH  15  16
ATOM     16  C   UNL     1      20.500 -11.223  -9.876  1.00  0.00     0.027 C 
BRANCH  16  17
ATOM     17  C   UNL     1      21.007 -10.327  -8.735  1.00  0.00     0.004 C 
BRANCH  17  18
ATOM     18  C   UNL     1      20.549 -10.835  -7.356  1.00  0.00     0.000 C 
BRANCH  18  19
ATOM     19  C   UNL     1      20.357  -9.696  -6.343  1.00  0.00    -0.003 C 
ATOM     20  C   UNL     1      21.577  -9.490  -5.445  1.00  0.00     0.004 C 
ENDBRANCH  18  19
ENDBRANCH  17  18
ENDBRANCH  16  17
ENDBRANCH  15  16
ENDBRANCH  13  14
ENDBRANCH  12  13
ENDBRANCH   1  11
TORSDOF 14
ENDMDL
MODEL 9
REMARK VINA RESULT:    -4.963      3.235      5.067
REMARK INTER + INTRA:         -11.563
REMARK INTER:                  -8.730
REMARK INTRA:                  -2.833
REMARK UNBOUND:                -2.539
REMARK SMILES CCCCCC=CCC=CCCCCCCCC(=O)[O-]
REMARK SMILES IDX 11 1 12 2 13 3 14 4 15 5 16 6 17 7 18 8 19 9 20 10 10 11
REMARK SMILES IDX 9 12 8 13 7 14 6 15 5 16 4 17 3 18 2 19 1 20
REMARK H PARENT
REMARK Flexibility Score: inf
ROOT
ATOM      1  C   UNL     1      20.998  -5.683 -18.852  1.00  0.00     0.027 C 
ENDROOT
BRANCH   1   2
ATOM      2  C   UNL     1      21.586  -4.633 -17.889  1.00  0.00     0.004 C 
BRANCH   2   3
ATOM      3  C   UNL     1      21.852  -5.169 -16.472  1.00  0.00     0.000 C 
BRANCH   3   4
ATOM      4  C   UNL     1      20.857  -4.631 -15.435  1.00  0.00     0.000 C 
BRANCH   4   5
ATOM      5  C   UNL     1      20.032  -3.471 -16.012  1.00  0.00     0.000 C 
BRANCH   5   6
ATOM      6  C   UNL     1      18.521  -3.662 -15.811  1.00  0.00     0.006 C 
BRANCH   6   7
ATOM      7  C   UNL     1      17.685  -2.675 -16.637  1.00  0.00     0.053 C 
BRANCH   7   8
ATOM      8  C   UNL     1      16.385  -3.299 -17.036  1.00  0.00     0.041 C 
ATOM      9  O   UNL     1      15.359  -3.135 -16.327  1.00  0.00    -0.550 OA
ATOM     10  O   UNL     1      16.296  -4.023 -18.220  1.00  0.00    -0.550 OA
ENDBRANCH   7   8
ENDBRANCH   6   7
ENDBRANCH   5   6
ENDBRANCH   4   5
ENDBRANCH   3   4
ENDBRANCH   2   3
ENDBRANCH   1   2
BRANCH   1  11
ATOM     11  C   UNL     1      19.492  -5.614 -18.928  1.00  0.00    -0.031 C 
ATOM     12  C   UNL     1      18.670  -6.649 -18.670  1.00  0.00    -0.027 C 
BRANCH  12  13
ATOM     13  C   UNL     1      19.134  -8.042 -18.328  1.00  0.00     0.054 C 
BRANCH  13  14
ATOM     14  C   UNL     1      19.166  -8.253 -16.840  1.00  0.00    -0.027 C 
ATOM     15  C   UNL     1      18.594  -7.369 -16.012  1.00  0.00    -0.031 C 
BRANCH  15  16
ATOM     16  C   UNL     1      18.624  -7.551 -14.518  1.00  0.00     0.027 C 
BRANCH  16  17
ATOM     17  C   UNL     1      17.751  -6.521 -13.785  1.00  0.00     0.004 C 
BRANCH  17  18
ATOM     18  C   UNL     1      16.253  -6.726 -14.070  1.00  0.00     0.000 C 
BRANCH  18  19
ATOM     19  C   UNL     1      15.419  -5.471 -13.770  1.00  0.00    -0.003 C 
ATOM     20  C   UNL     1      16.203  -4.407 -13.003  1.00  0.00     0.004 C 
ENDBRANCH  18  19
ENDBRANCH  17  18
ENDBRANCH  16  17
ENDBRANCH  15  16
ENDBRANCH  13  14
ENDBRANCH  12  13
ENDBRANCH   1  11
TORSDOF 14
ENDMDL
