MODEL 1
REMARK VINA RESULT:     1.155      0.000      0.000
REMARK INTER + INTRA:           1.313
REMARK INTER:                   2.100
REMARK INTRA:                  -0.787
REMARK UNBOUND:                -0.787
REMARK SMILES CCCCCCCCCCCCCCCC(=O)[O-]
REMARK SMILES IDX 9 1 10 2 11 3 12 4 13 5 14 6 15 7 16 8 17 9 18 10 8 11 7 12
REMARK SMILES IDX 6 13 5 14 4 15 3 16 2 17 1 18
REMARK H PARENT
REMARK Flexibility Score: inf
ROOT
ATOM      1  C   UNL     1      -3.099   5.810   8.996  1.00  0.00     0.000 C 
ENDROOT
BRANCH   1   2
ATOM      2  C   UNL     1      -2.266   5.366   7.780  1.00  0.00     0.000 C 
BRANCH   2   3
ATOM      3  C   UNL     1      -3.117   4.745   6.659  1.00  0.00     0.000 C 
BRANCH   3   4
ATOM      4  C   UNL     1      -3.605   3.303   6.921  1.00  0.00     0.000 C 
BRANCH   4   5
ATOM      5  C   UNL     1      -5.028   3.185   7.497  1.00  0.00     0.000 C 
BRANCH   5   6
ATOM      6  C   UNL     1      -5.052   2.583   8.913  1.00  0.00     0.006 C 
BRANCH   6   7
ATOM      7  C   UNL     1      -5.477   3.610   9.971  1.00  0.00     0.053 C 
BRANCH   7   8
ATOM      8  C   UNL     1      -6.878   4.094   9.754  1.00  0.00     0.041 C 
ATOM      9  O   UNL     1      -7.804   3.271   9.526  1.00  0.00    -0.550 OA
ATOM     10  O   UNL     1      -7.159   5.453   9.792  1.00  0.00    -0.550 OA
ENDBRANCH   7   8
ENDBRANCH   6   7
ENDBRANCH   5   6
ENDBRANCH   4   5
ENDBRANCH   3   4
ENDBRANCH   2   3
ENDBRANCH   1   2
BRANCH   1  11
ATOM     11  C   UNL     1      -3.027   7.327   9.222  1.00  0.00     0.000 C 
BRANCH  11  12
ATOM     12  C   UNL     1      -1.819   7.751  10.077  1.00  0.00    -0.000 C 
BRANCH  12  13
ATOM     13  C   UNL     1      -1.364   9.190   9.756  1.00  0.00    -0.000 C 
BRANCH  13  14
ATOM     14  C   UNL     1       0.168   9.353   9.693  1.00  0.00    -0.000 C 
BRANCH  14  15
ATOM     15  C   UNL     1       0.962   8.039   9.799  1.00  0.00    -0.000 C 
BRANCH  15  16
ATOM     16  C   UNL     1       2.482   8.264   9.851  1.00  0.00    -0.000 C 
BRANCH  16  17
ATOM     17  C   UNL     1       3.259   6.967  10.125  1.00  0.00    -0.003 C 
ATOM     18  C   UNL     1       4.775   7.155  10.050  1.00  0.00     0.004 C 
ENDBRANCH  16  17
ENDBRANCH  15  16
ENDBRANCH  14  15
ENDBRANCH  13  14
ENDBRANCH  12  13
ENDBRANCH  11  12
ENDBRANCH   1  11
TORSDOF 14
ENDMDL
MODEL 2
REMARK VINA RESULT:     2.744      3.988      7.526
REMARK INTER + INTRA:           4.203
REMARK INTER:                   4.704
REMARK INTRA:                  -0.501
REMARK UNBOUND:                -0.787
REMARK SMILES CCCCCCCCCCCCCCCC(=O)[O-]
REMARK SMILES IDX 9 1 10 2 11 3 12 4 13 5 14 6 15 7 16 8 17 9 18 10 8 11 7 12
REMARK SMILES IDX 6 13 5 14 4 15 3 16 2 17 1 18
REMARK H PARENT
REMARK Flexibility Score: inf
ROOT
ATOM      1  C   UNL     1      -5.933   2.944   8.407  1.00  0.00     0.000 C 
ENDROOT
BRANCH   1   2
ATOM      2  C   UNL     1      -5.448   3.408   9.792  1.00  0.00     0.000 C 
BRANCH   2   3
ATOM      3  C   UNL     1      -5.709   4.901  10.055  1.00  0.00     0.000 C 
BRANCH   3   4
ATOM      4  C   UNL     1      -4.814   5.878   9.262  1.00  0.00     0.000 C 
BRANCH   4   5
ATOM      5  C   UNL     1      -3.644   6.490  10.055  1.00  0.00     0.000 C 
BRANCH   5   6
ATOM      6  C   UNL     1      -2.302   6.398   9.308  1.00  0.00     0.006 C 
BRANCH   6   7
ATOM      7  C   UNL     1      -1.145   6.988  10.124  1.00  0.00     0.053 C 
BRANCH   7   8
ATOM      8  C   UNL     1      -1.097   8.483  10.032  1.00  0.00     0.041 C 
ATOM      9  O   UNL     1      -2.164   9.151  10.026  1.00  0.00    -0.550 OA
ATOM     10  O   UNL     1       0.125   9.136   9.940  1.00  0.00    -0.550 OA
ENDBRANCH   7   8
ENDBRANCH   6   7
ENDBRANCH   5   6
ENDBRANCH   4   5
ENDBRANCH   3   4
ENDBRANCH   2   3
ENDBRANCH   1   2
BRANCH   1  11
ATOM     11  C   UNL     1      -4.794   2.354   7.563  1.00  0.00     0.000 C 
BRANCH  11  12
ATOM     12  C   UNL     1      -3.418   2.950   7.909  1.00  0.00    -0.000 C 
BRANCH  12  13
ATOM     13  C   UNL     1      -2.573   1.987   8.769  1.00  0.00    -0.000 C 
BRANCH  13  14
ATOM     14  C   UNL     1      -2.120   0.721   8.015  1.00  0.00    -0.000 C 
BRANCH  14  15
ATOM     15  C   UNL     1      -1.547  -0.393   8.910  1.00  0.00    -0.000 C 
BRANCH  15  16
ATOM     16  C   UNL     1      -1.656  -1.787   8.269  1.00  0.00    -0.000 C 
BRANCH  16  17
ATOM     17  C   UNL     1      -1.654  -2.914   9.312  1.00  0.00    -0.003 C 
ATOM     18  C   UNL     1      -1.785  -4.303   8.687  1.00  0.00     0.004 C 
ENDBRANCH  16  17
ENDBRANCH  15  16
ENDBRANCH  14  15
ENDBRANCH  13  14
ENDBRANCH  12  13
ENDBRANCH  11  12
ENDBRANCH   1  11
TORSDOF 14
ENDMDL
MODEL 3
REMARK VINA RESULT:     3.165      4.305      5.934
REMARK INTER + INTRA:           4.969
REMARK INTER:                   5.767
REMARK INTRA:                  -0.798
REMARK UNBOUND:                -0.787
REMARK SMILES CCCCCCCCCCCCCCCC(=O)[O-]
REMARK SMILES IDX 9 1 10 2 11 3 12 4 13 5 14 6 15 7 16 8 17 9 18 10 8 11 7 12
REMARK SMILES IDX 6 13 5 14 4 15 3 16 2 17 1 18
REMARK H PARENT
REMARK Flexibility Score: inf
ROOT
ATOM      1  C   UNL     1      -5.769   3.006   8.333  1.00  0.00     0.000 C 
ENDROOT
BRANCH   1   2
ATOM      2  C   UNL     1      -4.484   2.561   7.613  1.00  0.00     0.000 C 
BRANCH   2   3
ATOM      3  C   UNL     1      -3.237   2.618   8.512  1.00  0.00     0.000 C 
BRANCH   3   4
ATOM      4  C   UNL     1      -2.820   1.275   9.149  1.00  0.00     0.000 C 
BRANCH   4   5
ATOM      5  C   UNL     1      -1.962   0.360   8.256  1.00  0.00     0.000 C 
BRANCH   5   6
ATOM      6  C   UNL     1      -1.458  -0.893   8.992  1.00  0.00     0.006 C 
BRANCH   6   7
ATOM      7  C   UNL     1      -2.194  -2.163   8.542  1.00  0.00     0.053 C 
BRANCH   7   8
ATOM      8  C   UNL     1      -1.474  -3.408   8.962  1.00  0.00     0.041 C 
ATOM      9  O   UNL     1      -1.565  -4.456   8.270  1.00  0.00    -0.550 OA
ATOM     10  O   UNL     1      -0.714  -3.414  10.124  1.00  0.00    -0.550 OA
ENDBRANCH   7   8
ENDBRANCH   6   7
ENDBRANCH   5   6
ENDBRANCH   4   5
ENDBRANCH   3   4
ENDBRANCH   2   3
ENDBRANCH   1   2
BRANCH   1  11
ATOM     11  C   UNL     1      -5.497   3.454   9.776  1.00  0.00     0.000 C 
BRANCH  11  12
ATOM     12  C   UNL     1      -5.877   4.923  10.032  1.00  0.00    -0.000 C 
BRANCH  12  13
ATOM     13  C   UNL     1      -4.639   5.844  10.044  1.00  0.00    -0.000 C 
BRANCH  13  14
ATOM     14  C   UNL     1      -3.930   5.944   8.678  1.00  0.00    -0.000 C 
BRANCH  14  15
ATOM     15  C   UNL     1      -2.401   6.106   8.754  1.00  0.00    -0.000 C 
BRANCH  15  16
ATOM     16  C   UNL     1      -1.938   6.767  10.063  1.00  0.00    -0.000 C 
BRANCH  16  17
ATOM     17  C   UNL     1      -1.829   8.294   9.942  1.00  0.00    -0.003 C 
ATOM     18  C   UNL     1      -0.388   8.798  10.044  1.00  0.00     0.004 C 
ENDBRANCH  16  17
ENDBRANCH  15  16
ENDBRANCH  14  15
ENDBRANCH  13  14
ENDBRANCH  12  13
ENDBRANCH  11  12
ENDBRANCH   1  11
TORSDOF 14
ENDMDL
MODEL 4
REMARK VINA RESULT:     3.807      4.773      6.490
REMARK INTER + INTRA:           6.137
REMARK INTER:                   7.022
REMARK INTRA:                  -0.886
REMARK UNBOUND:                -0.787
REMARK SMILES CCCCCCCCCCCCCCCC(=O)[O-]
REMARK SMILES IDX 9 1 10 2 11 3 12 4 13 5 14 6 15 7 16 8 17 9 18 10 8 11 7 12
REMARK SMILES IDX 6 13 5 14 4 15 3 16 2 17 1 18
REMARK H PARENT
REMARK Flexibility Score: inf
ROOT
ATOM      1  C   UNL     1      -5.515   2.526   9.037  1.00  0.00     0.000 C 
ENDROOT
BRANCH   1   2
ATOM      2  C   UNL     1      -4.990   2.348   7.602  1.00  0.00     0.000 C 
BRANCH   2   3
ATOM      3  C   UNL     1      -3.463   2.172   7.533  1.00  0.00     0.000 C 
BRANCH   3   4
ATOM      4  C   UNL     1      -2.861   1.211   8.581  1.00  0.00     0.000 C 
BRANCH   4   5
ATOM      5  C   UNL     1      -2.048   0.037   8.007  1.00  0.00     0.000 C 
BRANCH   5   6
ATOM      6  C   UNL     1      -1.431  -0.854   9.099  1.00  0.00     0.006 C 
BRANCH   6   7
ATOM      7  C   UNL     1      -2.270  -2.112   9.363  1.00  0.00     0.053 C 
BRANCH   7   8
ATOM      8  C   UNL     1      -1.478  -3.368   9.165  1.00  0.00     0.041 C 
ATOM      9  O   UNL     1      -0.506  -3.630   9.923  1.00  0.00    -0.550 OA
ATOM     10  O   UNL     1      -1.804  -4.242   8.137  1.00  0.00    -0.550 OA
ENDBRANCH   7   8
ENDBRANCH   6   7
ENDBRANCH   5   6
ENDBRANCH   4   5
ENDBRANCH   3   4
ENDBRANCH   2   3
ENDBRANCH   1   2
BRANCH   1  11
ATOM     11  C   UNL     1      -6.737   3.454   9.095  1.00  0.00     0.000 C 
BRANCH  11  12
ATOM     12  C   UNL     1      -6.467   4.757   9.868  1.00  0.00    -0.000 C 
BRANCH  12  13
ATOM     13  C   UNL     1      -4.960   4.973  10.125  1.00  0.00    -0.000 C 
BRANCH  13  14
ATOM     14  C   UNL     1      -4.529   6.452  10.063  1.00  0.00    -0.000 C 
BRANCH  14  15
ATOM     15  C   UNL     1      -3.113   6.687   9.506  1.00  0.00    -0.000 C 
BRANCH  15  16
ATOM     16  C   UNL     1      -2.655   5.571   8.553  1.00  0.00    -0.000 C 
BRANCH  16  17
ATOM     17  C   UNL     1      -3.519   5.489   7.286  1.00  0.00    -0.003 C 
ATOM     18  C   UNL     1      -3.368   6.714   6.383  1.00  0.00     0.004 C 
ENDBRANCH  16  17
ENDBRANCH  15  16
ENDBRANCH  14  15
ENDBRANCH  13  14
ENDBRANCH  12  13
ENDBRANCH  11  12
ENDBRANCH   1  11
TORSDOF 14
ENDMDL
MODEL 5
REMARK VINA RESULT:     3.825      4.215      7.779
REMARK INTER + INTRA:           6.169
REMARK INTER:                   6.755
REMARK INTRA:                  -0.586
REMARK UNBOUND:                -0.787
REMARK SMILES CCCCCCCCCCCCCCCC(=O)[O-]
REMARK SMILES IDX 9 1 10 2 11 3 12 4 13 5 14 6 15 7 16 8 17 9 18 10 8 11 7 12
REMARK SMILES IDX 6 13 5 14 4 15 3 16 2 17 1 18
REMARK H PARENT
REMARK Flexibility Score: inf
ROOT
ATOM      1  C   UNL     1      -3.157   5.759   7.309  1.00  0.00     0.000 C 
ENDROOT
BRANCH   1   2
ATOM      2  C   UNL     1      -4.389   5.958   8.209  1.00  0.00     0.000 C 
BRANCH   2   3
ATOM      3  C   UNL     1      -4.050   5.947   9.710  1.00  0.00     0.000 C 
BRANCH   3   4
ATOM      4  C   UNL     1      -2.775   6.725  10.105  1.00  0.00     0.000 C 
BRANCH   4   5
ATOM      5  C   UNL     1      -2.696   8.170   9.579  1.00  0.00     0.000 C 
BRANCH   5   6
ATOM      6  C   UNL     1      -1.252   8.688   9.470  1.00  0.00     0.006 C 
BRANCH   6   7
ATOM      7  C   UNL     1      -0.243   7.732  10.120  1.00  0.00     0.053 C 
BRANCH   7   8
ATOM      8  C   UNL     1       1.157   8.261  10.052  1.00  0.00     0.041 C 
ATOM      9  O   UNL     1       2.129   7.468   9.939  1.00  0.00    -0.550 OA
ATOM     10  O   UNL     1       1.389   9.628  10.125  1.00  0.00    -0.550 OA
ENDBRANCH   7   8
ENDBRANCH   6   7
ENDBRANCH   5   6
ENDBRANCH   4   5
ENDBRANCH   3   4
ENDBRANCH   2   3
ENDBRANCH   1   2
BRANCH   1  11
ATOM     11  C   UNL     1      -3.024   4.307   6.826  1.00  0.00     0.000 C 
BRANCH  11  12
ATOM     12  C   UNL     1      -4.112   3.380   7.398  1.00  0.00    -0.000 C 
BRANCH  12  13
ATOM     13  C   UNL     1      -3.739   1.891   7.240  1.00  0.00    -0.000 C 
BRANCH  13  14
ATOM     14  C   UNL     1      -2.728   1.393   8.292  1.00  0.00    -0.000 C 
BRANCH  14  15
ATOM     15  C   UNL     1      -1.981   0.103   7.907  1.00  0.00    -0.000 C 
BRANCH  15  16
ATOM     16  C   UNL     1      -1.874  -0.894   9.074  1.00  0.00    -0.000 C 
BRANCH  16  17
ATOM     17  C   UNL     1      -1.297  -2.248   8.638  1.00  0.00    -0.003 C 
ATOM     18  C   UNL     1      -1.795  -3.411   9.499  1.00  0.00     0.004 C 
ENDBRANCH  16  17
ENDBRANCH  15  16
ENDBRANCH  14  15
ENDBRANCH  13  14
ENDBRANCH  12  13
ENDBRANCH  11  12
ENDBRANCH   1  11
TORSDOF 14
ENDMDL
MODEL 6
REMARK VINA RESULT:     4.004     10.418     11.945
REMARK INTER + INTRA:           6.495
REMARK INTER:                   6.918
REMARK INTRA:                  -0.423
REMARK UNBOUND:                -0.787
REMARK SMILES CCCCCCCCCCCCCCCC(=O)[O-]
REMARK SMILES IDX 9 1 10 2 11 3 12 4 13 5 14 6 15 7 16 8 17 9 18 10 8 11 7 12
REMARK SMILES IDX 6 13 5 14 4 15 3 16 2 17 1 18
REMARK H PARENT
REMARK Flexibility Score: inf
ROOT
ATOM      1  C   UNL     1       2.502   6.611  -1.443  1.00  0.00     0.000 C 
ENDROOT
BRANCH   1   2
ATOM      2  C   UNL     1       1.349   7.587  -1.151  1.00  0.00     0.000 C 
BRANCH   2   3
ATOM      3  C   UNL     1       0.018   7.159  -1.794  1.00  0.00     0.000 C 
BRANCH   3   4
ATOM      4  C   UNL     1      -1.098   8.227  -1.776  1.00  0.00     0.000 C 
BRANCH   4   5
ATOM      5  C   UNL     1      -1.654   8.575  -0.383  1.00  0.00     0.000 C 
BRANCH   5   6
ATOM      6  C   UNL     1      -3.113   8.124  -0.193  1.00  0.00     0.006 C 
BRANCH   6   7
ATOM      7  C   UNL     1      -4.100   9.292  -0.318  1.00  0.00     0.053 C 
BRANCH   7   8
ATOM      8  C   UNL     1      -4.860   9.251  -1.608  1.00  0.00     0.041 C 
ATOM      9  O   UNL     1      -6.101   9.462  -1.620  1.00  0.00    -0.550 OA
ATOM     10  O   UNL     1      -4.199   8.966  -2.796  1.00  0.00    -0.550 OA
ENDBRANCH   7   8
ENDBRANCH   6   7
ENDBRANCH   5   6
ENDBRANCH   4   5
ENDBRANCH   3   4
ENDBRANCH   2   3
ENDBRANCH   1   2
BRANCH   1  11
ATOM     11  C   UNL     1       2.325   5.272  -0.714  1.00  0.00     0.000 C 
BRANCH  11  12
ATOM     12  C   UNL     1       3.414   4.243  -1.068  1.00  0.00    -0.000 C 
BRANCH  12  13
ATOM     13  C   UNL     1       3.001   2.809  -0.674  1.00  0.00    -0.000 C 
BRANCH  13  14
ATOM     14  C   UNL     1       4.086   1.753  -0.965  1.00  0.00    -0.000 C 
BRANCH  14  15
ATOM     15  C   UNL     1       4.425   0.833   0.222  1.00  0.00    -0.000 C 
BRANCH  15  16
ATOM     16  C   UNL     1       5.933   0.559   0.351  1.00  0.00    -0.000 C 
BRANCH  16  17
ATOM     17  C   UNL     1       6.247  -0.514   1.404  1.00  0.00    -0.003 C 
ATOM     18  C   UNL     1       5.621  -1.870   1.075  1.00  0.00     0.004 C 
ENDBRANCH  16  17
ENDBRANCH  15  16
ENDBRANCH  14  15
ENDBRANCH  13  14
ENDBRANCH  12  13
ENDBRANCH  11  12
ENDBRANCH   1  11
TORSDOF 14
ENDMDL
MODEL 7
REMARK VINA RESULT:     4.133      3.839      7.112
REMARK INTER + INTRA:           6.729
REMARK INTER:                   6.836
REMARK INTRA:                  -0.107
REMARK UNBOUND:                -0.787
REMARK SMILES CCCCCCCCCCCCCCCC(=O)[O-]
REMARK SMILES IDX 9 1 10 2 11 3 12 4 13 5 14 6 15 7 16 8 17 9 18 10 8 11 7 12
REMARK SMILES IDX 6 13 5 14 4 15 3 16 2 17 1 18
REMARK H PARENT
REMARK Flexibility Score: inf
ROOT
ATOM      1  C   UNL     1      -5.981   2.893   8.674  1.00  0.00     0.000 C 
ENDROOT
BRANCH   1   2
ATOM      2  C   UNL     1      -5.089   3.674   9.655  1.00  0.00     0.000 C 
BRANCH   2   3
ATOM      3  C   UNL     1      -5.720   4.996  10.125  1.00  0.00     0.000 C 
BRANCH   3   4
ATOM      4  C   UNL     1      -4.885   6.264   9.843  1.00  0.00     0.000 C 
BRANCH   4   5
ATOM      5  C   UNL     1      -3.367   6.112  10.048  1.00  0.00     0.000 C 
BRANCH   5   6
ATOM      6  C   UNL     1      -2.637   5.645   8.777  1.00  0.00     0.006 C 
BRANCH   6   7
ATOM      7  C   UNL     1      -2.713   6.685   7.651  1.00  0.00     0.053 C 
BRANCH   7   8
ATOM      8  C   UNL     1      -3.326   6.120   6.406  1.00  0.00     0.041 C 
ATOM      9  O   UNL     1      -3.000   4.972   6.003  1.00  0.00    -0.550 OA
ATOM     10  O   UNL     1      -4.248   6.867   5.684  1.00  0.00    -0.550 OA
ENDBRANCH   7   8
ENDBRANCH   6   7
ENDBRANCH   5   6
ENDBRANCH   4   5
ENDBRANCH   3   4
ENDBRANCH   2   3
ENDBRANCH   1   2
BRANCH   1  11
ATOM     11  C   UNL     1      -5.177   2.307   7.504  1.00  0.00     0.000 C 
BRANCH  11  12
ATOM     12  C   UNL     1      -3.659   2.509   7.656  1.00  0.00    -0.000 C 
BRANCH  12  13
ATOM     13  C   UNL     1      -3.079   1.665   8.810  1.00  0.00    -0.000 C 
BRANCH  13  14
ATOM     14  C   UNL     1      -1.738   0.987   8.466  1.00  0.00    -0.000 C 
BRANCH  14  15
ATOM     15  C   UNL     1      -1.464  -0.324   9.226  1.00  0.00    -0.000 C 
BRANCH  15  16
ATOM     16  C   UNL     1      -1.834  -1.574   8.409  1.00  0.00    -0.000 C 
BRANCH  16  17
ATOM     17  C   UNL     1      -1.407  -2.876   9.102  1.00  0.00    -0.003 C 
ATOM     18  C   UNL     1      -1.828  -4.127   8.329  1.00  0.00     0.004 C 
ENDBRANCH  16  17
ENDBRANCH  15  16
ENDBRANCH  14  15
ENDBRANCH  13  14
ENDBRANCH  12  13
ENDBRANCH  11  12
ENDBRANCH   1  11
TORSDOF 14
ENDMDL
