MODEL 1
REMARK VINA RESULT:    -4.439      0.000      0.000
REMARK INTER + INTRA:          -8.609
REMARK INTER:                  -7.553
REMARK INTRA:                  -1.056
REMARK UNBOUND:                -1.056
REMARK SMILES CC(=O)CCC[C@H](C)CCC[C@@H](C)CCCC(C)C
REMARK SMILES IDX 10 1 11 2 12 3 13 4 14 5 15 6 16 7 17 8 18 9 19 10 9 11 7 12
REMARK SMILES IDX 8 13 6 14 5 15 4 16 2 17 3 18 1 19
REMARK H PARENT
REMARK Flexibility Score: inf
ROOT
ATOM      1  C   UNL     1     165.450 166.376 167.730  1.00  0.00     0.001 C 
ENDROOT
BRANCH   1   2
ATOM      2  C   UNL     1     164.139 165.649 167.372  1.00  0.00     0.003 C 
BRANCH   2   3
ATOM      3  C   UNL     1     163.763 164.564 168.413  1.00  0.00    -0.014 C 
ATOM      4  C   UNL     1     164.759 164.544 169.583  1.00  0.00     0.007 C 
BRANCH   3   5
ATOM      5  C   UNL     1     162.280 164.639 168.883  1.00  0.00     0.003 C 
BRANCH   5   6
ATOM      6  C   UNL     1     161.179 164.481 167.810  1.00  0.00     0.001 C 
BRANCH   6   7
ATOM      7  C   UNL     1     160.043 163.528 168.220  1.00  0.00     0.003 C 
BRANCH   7   8
ATOM      8  C   UNL     1     158.665 164.227 168.264  1.00  0.00    -0.017 C 
ATOM      9  C   UNL     1     158.495 165.229 167.111  1.00  0.00     0.007 C 
ATOM     10  C   UNL     1     158.480 164.950 169.605  1.00  0.00     0.007 C 
ENDBRANCH   7   8
ENDBRANCH   6   7
ENDBRANCH   5   6
ENDBRANCH   3   5
ENDBRANCH   2   3
ENDBRANCH   1   2
BRANCH   1  11
ATOM     11  C   UNL     1     165.282 167.905 167.827  1.00  0.00     0.003 C 
BRANCH  11  12
ATOM     12  C   UNL     1     164.526 168.416 169.081  1.00  0.00    -0.014 C 
ATOM     13  C   UNL     1     165.228 167.970 170.377  1.00  0.00     0.007 C 
BRANCH  12  14
ATOM     14  C   UNL     1     164.407 169.958 169.009  1.00  0.00     0.004 C 
BRANCH  14  15
ATOM     15  C   UNL     1     164.161 170.483 167.582  1.00  0.00     0.008 C 
BRANCH  15  16
ATOM     16  C   UNL     1     164.793 171.864 167.353  1.00  0.00     0.075 C 
BRANCH  16  17
ATOM     17  C   UNL     1     164.554 172.792 168.516  1.00  0.00     0.129 C 
ATOM     18  O   UNL     1     165.496 173.161 169.198  1.00  0.00    -0.300 OA
ATOM     19  C   UNL     1     163.170 173.244 168.870  1.00  0.00     0.087 C 
ENDBRANCH  16  17
ENDBRANCH  15  16
ENDBRANCH  14  15
ENDBRANCH  12  14
ENDBRANCH  11  12
ENDBRANCH   1  11
TORSDOF 12
ENDMDL
MODEL 2
REMARK VINA RESULT:    -4.436      4.181      7.158
REMARK INTER + INTRA:          -8.604
REMARK INTER:                  -7.263
REMARK INTRA:                  -1.341
REMARK UNBOUND:                -1.056
REMARK SMILES CC(=O)CCC[C@H](C)CCC[C@@H](C)CCCC(C)C
REMARK SMILES IDX 10 1 11 2 12 3 13 4 14 5 15 6 16 7 17 8 18 9 19 10 9 11 7 12
REMARK SMILES IDX 8 13 6 14 5 15 4 16 2 17 3 18 1 19
REMARK H PARENT
REMARK Flexibility Score: inf
ROOT
ATOM      1  C   UNL     1     164.155 165.632 167.630  1.00  0.00     0.001 C 
ENDROOT
BRANCH   1   2
ATOM      2  C   UNL     1     165.140 164.711 166.885  1.00  0.00     0.003 C 
BRANCH   2   3
ATOM      3  C   UNL     1     166.411 164.409 167.719  1.00  0.00    -0.014 C 
ATOM      4  C   UNL     1     166.772 165.589 168.634  1.00  0.00     0.007 C 
BRANCH   3   5
ATOM      5  C   UNL     1     166.349 163.051 168.479  1.00  0.00     0.003 C 
BRANCH   5   6
ATOM      6  C   UNL     1     166.582 161.760 167.662  1.00  0.00     0.001 C 
BRANCH   6   7
ATOM      7  C   UNL     1     167.063 160.568 168.507  1.00  0.00     0.003 C 
BRANCH   7   8
ATOM      8  C   UNL     1     166.109 159.354 168.422  1.00  0.00    -0.017 C 
ATOM      9  C   UNL     1     166.367 158.345 169.553  1.00  0.00     0.007 C 
ATOM     10  C   UNL     1     166.263 158.654 167.065  1.00  0.00     0.007 C 
ENDBRANCH   7   8
ENDBRANCH   6   7
ENDBRANCH   5   6
ENDBRANCH   3   5
ENDBRANCH   2   3
ENDBRANCH   1   2
BRANCH   1  11
ATOM     11  C   UNL     1     162.985 164.864 168.276  1.00  0.00     0.003 C 
BRANCH  11  12
ATOM     12  C   UNL     1     163.013 164.780 169.824  1.00  0.00    -0.014 C 
ATOM     13  C   UNL     1     163.586 166.068 170.443  1.00  0.00     0.007 C 
BRANCH  12  14
ATOM     14  C   UNL     1     161.583 164.496 170.344  1.00  0.00     0.004 C 
BRANCH  14  15
ATOM     15  C   UNL     1     160.859 163.387 169.556  1.00  0.00     0.008 C 
BRANCH  15  16
ATOM     16  C   UNL     1     159.345 163.629 169.468  1.00  0.00     0.075 C 
BRANCH  16  17
ATOM     17  C   UNL     1     159.003 164.696 168.459  1.00  0.00     0.129 C 
ATOM     18  O   UNL     1     158.220 165.582 168.759  1.00  0.00    -0.300 OA
ATOM     19  C   UNL     1     159.584 164.667 167.078  1.00  0.00     0.087 C 
ENDBRANCH  16  17
ENDBRANCH  15  16
ENDBRANCH  14  15
ENDBRANCH  12  14
ENDBRANCH  11  12
ENDBRANCH   1  11
TORSDOF 12
ENDMDL
MODEL 3
REMARK VINA RESULT:    -4.320      3.276      6.850
REMARK INTER + INTRA:          -8.407
REMARK INTER:                  -6.858
REMARK INTRA:                  -1.549
REMARK UNBOUND:                -1.056
REMARK SMILES CC(=O)CCC[C@H](C)CCC[C@@H](C)CCCC(C)C
REMARK SMILES IDX 10 1 11 2 12 3 13 4 14 5 15 6 16 7 17 8 18 9 19 10 9 11 7 12
REMARK SMILES IDX 8 13 6 14 5 15 4 16 2 17 3 18 1 19
REMARK H PARENT
REMARK Flexibility Score: inf
ROOT
ATOM      1  C   UNL     1     164.813 168.712 168.091  1.00  0.00     0.001 C 
ENDROOT
BRANCH   1   2
ATOM      2  C   UNL     1     164.470 169.967 167.266  1.00  0.00     0.003 C 
BRANCH   2   3
ATOM      3  C   UNL     1     164.463 171.256 168.128  1.00  0.00    -0.014 C 
ATOM      4  C   UNL     1     165.045 172.448 167.353  1.00  0.00     0.007 C 
BRANCH   3   5
ATOM      5  C   UNL     1     163.079 171.569 168.770  1.00  0.00     0.003 C 
BRANCH   5   6
ATOM      6  C   UNL     1     162.865 171.162 170.245  1.00  0.00     0.001 C 
BRANCH   6   7
ATOM      7  C   UNL     1     164.132 171.271 171.111  1.00  0.00     0.003 C 
BRANCH   7   8
ATOM      8  C   UNL     1     164.432 169.971 171.893  1.00  0.00    -0.017 C 
ATOM      9  C   UNL     1     165.853 169.455 171.617  1.00  0.00     0.007 C 
ATOM     10  C   UNL     1     163.411 168.885 171.528  1.00  0.00     0.007 C 
ENDBRANCH   7   8
ENDBRANCH   6   7
ENDBRANCH   5   6
ENDBRANCH   3   5
ENDBRANCH   2   3
ENDBRANCH   1   2
BRANCH   1  11
ATOM     11  C   UNL     1     165.215 167.508 167.216  1.00  0.00     0.003 C 
BRANCH  11  12
ATOM     12  C   UNL     1     165.279 166.142 167.947  1.00  0.00    -0.014 C 
ATOM     13  C   UNL     1     163.931 165.402 167.867  1.00  0.00     0.007 C 
BRANCH  12  14
ATOM     14  C   UNL     1     166.422 165.293 167.338  1.00  0.00     0.004 C 
BRANCH  14  15
ATOM     15  C   UNL     1     167.711 166.099 167.089  1.00  0.00     0.008 C 
BRANCH  15  16
ATOM     16  C   UNL     1     168.472 166.395 168.389  1.00  0.00     0.075 C 
BRANCH  16  17
ATOM     17  C   UNL     1     169.890 166.832 168.125  1.00  0.00     0.129 C 
ATOM     18  O   UNL     1     170.569 167.268 169.040  1.00  0.00    -0.300 OA
ATOM     19  C   UNL     1     170.472 166.771 166.745  1.00  0.00     0.087 C 
ENDBRANCH  16  17
ENDBRANCH  15  16
ENDBRANCH  14  15
ENDBRANCH  12  14
ENDBRANCH  11  12
ENDBRANCH   1  11
TORSDOF 12
ENDMDL
MODEL 4
REMARK VINA RESULT:    -4.311      4.157      6.819
REMARK INTER + INTRA:          -8.391
REMARK INTER:                  -6.473
REMARK INTRA:                  -1.919
REMARK UNBOUND:                -1.056
REMARK SMILES CC(=O)CCC[C@H](C)CCC[C@@H](C)CCCC(C)C
REMARK SMILES IDX 10 1 11 2 12 3 13 4 14 5 15 6 16 7 17 8 18 9 19 10 9 11 7 12
REMARK SMILES IDX 8 13 6 14 5 15 4 16 2 17 3 18 1 19
REMARK H PARENT
REMARK Flexibility Score: inf
ROOT
ATOM      1  C   UNL     1     167.439 165.528 168.445  1.00  0.00     0.001 C 
ENDROOT
BRANCH   1   2
ATOM      2  C   UNL     1     167.227 165.587 169.970  1.00  0.00     0.003 C 
BRANCH   2   3
ATOM      3  C   UNL     1     166.606 164.281 170.530  1.00  0.00    -0.014 C 
ATOM      4  C   UNL     1     165.361 164.576 171.381  1.00  0.00     0.007 C 
BRANCH   3   5
ATOM      5  C   UNL     1     166.354 163.195 169.443  1.00  0.00     0.003 C 
BRANCH   5   6
ATOM      6  C   UNL     1     166.519 161.715 169.854  1.00  0.00     0.001 C 
BRANCH   6   7
ATOM      7  C   UNL     1     167.320 160.875 168.845  1.00  0.00     0.003 C 
BRANCH   7   8
ATOM      8  C   UNL     1     166.416 160.154 167.819  1.00  0.00    -0.017 C 
ATOM      9  C   UNL     1     166.613 158.630 167.855  1.00  0.00     0.007 C 
ATOM     10  C   UNL     1     166.700 160.676 166.404  1.00  0.00     0.007 C 
ENDBRANCH   7   8
ENDBRANCH   6   7
ENDBRANCH   5   6
ENDBRANCH   3   5
ENDBRANCH   2   3
ENDBRANCH   1   2
BRANCH   1  11
ATOM     11  C   UNL     1     166.674 166.631 167.688  1.00  0.00     0.003 C 
BRANCH  11  12
ATOM     12  C   UNL     1     165.430 166.156 166.894  1.00  0.00    -0.014 C 
ATOM     13  C   UNL     1     165.672 164.780 166.247  1.00  0.00     0.007 C 
BRANCH  12  14
ATOM     14  C   UNL     1     164.205 166.123 167.840  1.00  0.00     0.004 C 
BRANCH  14  15
ATOM     15  C   UNL     1     163.388 164.821 167.732  1.00  0.00     0.008 C 
BRANCH  15  16
ATOM     16  C   UNL     1     162.439 164.629 168.923  1.00  0.00     0.075 C 
BRANCH  16  17
ATOM     17  C   UNL     1     161.073 164.167 168.485  1.00  0.00     0.129 C 
ATOM     18  O   UNL     1     160.417 163.442 169.216  1.00  0.00    -0.300 OA
ATOM     19  C   UNL     1     160.518 164.556 167.149  1.00  0.00     0.087 C 
ENDBRANCH  16  17
ENDBRANCH  15  16
ENDBRANCH  14  15
ENDBRANCH  12  14
ENDBRANCH  11  12
ENDBRANCH   1  11
TORSDOF 12
ENDMDL
MODEL 5
REMARK VINA RESULT:    -4.304      5.327      7.478
REMARK INTER + INTRA:          -8.379
REMARK INTER:                  -6.493
REMARK INTRA:                  -1.887
REMARK UNBOUND:                -1.056
REMARK SMILES CC(=O)CCC[C@H](C)CCC[C@@H](C)CCCC(C)C
REMARK SMILES IDX 10 1 11 2 12 3 13 4 14 5 15 6 16 7 17 8 18 9 19 10 9 11 7 12
REMARK SMILES IDX 8 13 6 14 5 15 4 16 2 17 3 18 1 19
REMARK H PARENT
REMARK Flexibility Score: inf
ROOT
ATOM      1  C   UNL     1     169.131 166.780 170.094  1.00  0.00     0.001 C 
ENDROOT
BRANCH   1   2
ATOM      2  C   UNL     1     167.932 166.062 170.742  1.00  0.00     0.003 C 
BRANCH   2   3
ATOM      3  C   UNL     1     166.772 165.830 169.741  1.00  0.00    -0.014 C 
ATOM      4  C   UNL     1     166.273 164.377 169.792  1.00  0.00     0.007 C 
BRANCH   3   5
ATOM      5  C   UNL     1     165.620 166.870 169.869  1.00  0.00     0.003 C 
BRANCH   5   6
ATOM      6  C   UNL     1     164.621 166.982 168.695  1.00  0.00     0.001 C 
BRANCH   6   7
ATOM      7  C   UNL     1     165.252 167.493 167.388  1.00  0.00     0.003 C 
BRANCH   7   8
ATOM      8  C   UNL     1     165.238 166.431 166.265  1.00  0.00    -0.017 C 
ATOM      9  C   UNL     1     164.328 165.243 166.612  1.00  0.00     0.007 C 
ATOM     10  C   UNL     1     166.662 165.927 165.995  1.00  0.00     0.007 C 
ENDBRANCH   7   8
ENDBRANCH   6   7
ENDBRANCH   5   6
ENDBRANCH   3   5
ENDBRANCH   2   3
ENDBRANCH   1   2
BRANCH   1  11
ATOM     11  C   UNL     1     169.158 166.639 168.559  1.00  0.00     0.003 C 
BRANCH  11  12
ATOM     12  C   UNL     1     170.568 166.642 167.913  1.00  0.00    -0.014 C 
ATOM     13  C   UNL     1     170.480 166.773 166.381  1.00  0.00     0.007 C 
BRANCH  12  14
ATOM     14  C   UNL     1     171.406 167.790 168.527  1.00  0.00     0.004 C 
BRANCH  14  15
ATOM     15  C   UNL     1     172.867 167.391 168.813  1.00  0.00     0.008 C 
BRANCH  15  16
ATOM     16  C   UNL     1     173.247 167.594 170.286  1.00  0.00     0.075 C 
BRANCH  16  17
ATOM     17  C   UNL     1     173.384 166.283 171.018  1.00  0.00     0.129 C 
ATOM     18  O   UNL     1     174.483 165.919 171.406  1.00  0.00    -0.300 OA
ATOM     19  C   UNL     1     172.196 165.399 171.247  1.00  0.00     0.087 C 
ENDBRANCH  16  17
ENDBRANCH  15  16
ENDBRANCH  14  15
ENDBRANCH  12  14
ENDBRANCH  11  12
ENDBRANCH   1  11
TORSDOF 12
ENDMDL
MODEL 6
REMARK VINA RESULT:    -4.277      2.999      7.144
REMARK INTER + INTRA:          -8.334
REMARK INTER:                  -6.382
REMARK INTRA:                  -1.952
REMARK UNBOUND:                -1.056
REMARK SMILES CC(=O)CCC[C@H](C)CCC[C@@H](C)CCCC(C)C
REMARK SMILES IDX 10 1 11 2 12 3 13 4 14 5 15 6 16 7 17 8 18 9 19 10 9 11 7 12
REMARK SMILES IDX 8 13 6 14 5 15 4 16 2 17 3 18 1 19
REMARK H PARENT
REMARK Flexibility Score: inf
ROOT
ATOM      1  C   UNL     1     165.018 166.529 171.291  1.00  0.00     0.001 C 
ENDROOT
BRANCH   1   2
ATOM      2  C   UNL     1     165.647 167.616 170.399  1.00  0.00     0.003 C 
BRANCH   2   3
ATOM      3  C   UNL     1     164.605 168.298 169.476  1.00  0.00    -0.014 C 
ATOM      4  C   UNL     1     164.366 169.758 169.889  1.00  0.00     0.007 C 
BRANCH   3   5
ATOM      5  C   UNL     1     164.919 168.141 167.959  1.00  0.00     0.003 C 
BRANCH   5   6
ATOM      6  C   UNL     1     164.907 166.713 167.368  1.00  0.00     0.001 C 
BRANCH   6   7
ATOM      7  C   UNL     1     166.158 166.373 166.540  1.00  0.00     0.003 C 
BRANCH   7   8
ATOM      8  C   UNL     1     167.161 165.486 167.313  1.00  0.00    -0.017 C 
ATOM      9  C   UNL     1     166.454 164.577 168.331  1.00  0.00     0.007 C 
ATOM     10  C   UNL     1     168.194 166.362 168.035  1.00  0.00     0.007 C 
ENDBRANCH   7   8
ENDBRANCH   6   7
ENDBRANCH   5   6
ENDBRANCH   3   5
ENDBRANCH   2   3
ENDBRANCH   1   2
BRANCH   1  11
ATOM     11  C   UNL     1     163.602 166.123 170.837  1.00  0.00     0.003 C 
BRANCH  11  12
ATOM     12  C   UNL     1     163.464 164.678 170.291  1.00  0.00    -0.014 C 
ATOM     13  C   UNL     1     163.031 163.701 171.400  1.00  0.00     0.007 C 
BRANCH  12  14
ATOM     14  C   UNL     1     162.457 164.674 169.115  1.00  0.00     0.004 C 
BRANCH  14  15
ATOM     15  C   UNL     1     161.007 164.399 169.557  1.00  0.00     0.008 C 
BRANCH  15  16
ATOM     16  C   UNL     1     160.087 164.079 168.370  1.00  0.00     0.075 C 
BRANCH  16  17
ATOM     17  C   UNL     1     158.637 164.327 168.699  1.00  0.00     0.129 C 
ATOM     18  O   UNL     1     158.184 165.458 168.621  1.00  0.00    -0.300 OA
ATOM     19  C   UNL     1     157.747 163.210 169.153  1.00  0.00     0.087 C 
ENDBRANCH  16  17
ENDBRANCH  15  16
ENDBRANCH  14  15
ENDBRANCH  12  14
ENDBRANCH  11  12
ENDBRANCH   1  11
TORSDOF 12
ENDMDL
MODEL 7
REMARK VINA RESULT:    -4.271      5.971      9.794
REMARK INTER + INTRA:          -8.324
REMARK INTER:                  -6.988
REMARK INTRA:                  -1.335
REMARK UNBOUND:                -1.056
REMARK SMILES CC(=O)CCC[C@H](C)CCC[C@@H](C)CCCC(C)C
REMARK SMILES IDX 10 1 11 2 12 3 13 4 14 5 15 6 16 7 17 8 18 9 19 10 9 11 7 12
REMARK SMILES IDX 8 13 6 14 5 15 4 16 2 17 3 18 1 19
REMARK H PARENT
REMARK Flexibility Score: inf
ROOT
ATOM      1  C   UNL     1     169.161 166.361 166.574  1.00  0.00     0.001 C 
ENDROOT
BRANCH   1   2
ATOM      2  C   UNL     1     170.494 167.128 166.660  1.00  0.00     0.003 C 
BRANCH   2   3
ATOM      3  C   UNL     1     171.281 166.802 167.955  1.00  0.00    -0.014 C 
ATOM      4  C   UNL     1     172.585 166.053 167.642  1.00  0.00     0.007 C 
BRANCH   3   5
ATOM      5  C   UNL     1     171.499 168.036 168.879  1.00  0.00     0.003 C 
BRANCH   5   6
ATOM      6  C   UNL     1     171.463 167.804 170.407  1.00  0.00     0.001 C 
BRANCH   6   7
ATOM      7  C   UNL     1     170.646 166.571 170.829  1.00  0.00     0.003 C 
BRANCH   7   8
ATOM      8  C   UNL     1     171.537 165.355 171.172  1.00  0.00    -0.017 C 
ATOM      9  C   UNL     1     170.826 164.374 172.118  1.00  0.00     0.007 C 
ATOM     10  C   UNL     1     172.851 165.824 171.811  1.00  0.00     0.007 C 
ENDBRANCH   7   8
ENDBRANCH   6   7
ENDBRANCH   5   6
ENDBRANCH   3   5
ENDBRANCH   2   3
ENDBRANCH   1   2
BRANCH   1  11
ATOM     11  C   UNL     1     168.422 166.287 167.924  1.00  0.00     0.003 C 
BRANCH  11  12
ATOM     12  C   UNL     1     166.901 165.997 167.838  1.00  0.00    -0.014 C 
ATOM     13  C   UNL     1     166.432 165.903 166.374  1.00  0.00     0.007 C 
BRANCH  12  14
ATOM     14  C   UNL     1     166.588 164.693 168.612  1.00  0.00     0.004 C 
BRANCH  14  15
ATOM     15  C   UNL     1     166.173 163.526 167.694  1.00  0.00     0.008 C 
BRANCH  15  16
ATOM     16  C   UNL     1     166.602 162.163 168.257  1.00  0.00     0.075 C 
BRANCH  16  17
ATOM     17  C   UNL     1     166.629 161.098 167.192  1.00  0.00     0.129 C 
ATOM     18  O   UNL     1     166.639 161.420 166.015  1.00  0.00    -0.300 OA
ATOM     19  C   UNL     1     166.610 159.644 167.554  1.00  0.00     0.087 C 
ENDBRANCH  16  17
ENDBRANCH  15  16
ENDBRANCH  14  15
ENDBRANCH  12  14
ENDBRANCH  11  12
ENDBRANCH   1  11
TORSDOF 12
ENDMDL
MODEL 8
REMARK VINA RESULT:    -4.256      5.487      8.696
REMARK INTER + INTRA:          -8.299
REMARK INTER:                  -7.160
REMARK INTRA:                  -1.138
REMARK UNBOUND:                -1.056
REMARK SMILES CC(=O)CCC[C@H](C)CCC[C@@H](C)CCCC(C)C
REMARK SMILES IDX 10 1 11 2 12 3 13 4 14 5 15 6 16 7 17 8 18 9 19 10 9 11 7 12
REMARK SMILES IDX 8 13 6 14 5 15 4 16 2 17 3 18 1 19
REMARK H PARENT
REMARK Flexibility Score: inf
ROOT
ATOM      1  C   UNL     1     166.341 162.615 167.756  1.00  0.00     0.001 C 
ENDROOT
BRANCH   1   2
ATOM      2  C   UNL     1     166.279 163.731 166.696  1.00  0.00     0.003 C 
BRANCH   2   3
ATOM      3  C   UNL     1     165.321 164.880 167.104  1.00  0.00    -0.014 C 
ATOM      4  C   UNL     1     164.635 165.497 165.875  1.00  0.00     0.007 C 
BRANCH   3   5
ATOM      5  C   UNL     1     164.315 164.484 168.224  1.00  0.00     0.003 C 
BRANCH   5   6
ATOM      6  C   UNL     1     162.949 165.207 168.251  1.00  0.00     0.001 C 
BRANCH   6   7
ATOM      7  C   UNL     1     161.848 164.430 168.993  1.00  0.00     0.003 C 
BRANCH   7   8
ATOM      8  C   UNL     1     160.652 164.073 168.081  1.00  0.00    -0.017 C 
ATOM      9  C   UNL     1     160.872 164.553 166.637  1.00  0.00     0.007 C 
ATOM     10  C   UNL     1     159.361 164.689 168.636  1.00  0.00     0.007 C 
ENDBRANCH   7   8
ENDBRANCH   6   7
ENDBRANCH   5   6
ENDBRANCH   3   5
ENDBRANCH   2   3
ENDBRANCH   1   2
BRANCH   1  11
ATOM     11  C   UNL     1     166.774 161.255 167.173  1.00  0.00     0.003 C 
BRANCH  11  12
ATOM     12  C   UNL     1     166.625 160.042 168.127  1.00  0.00    -0.014 C 
ATOM     13  C   UNL     1     166.114 158.799 167.375  1.00  0.00     0.007 C 
BRANCH  12  14
ATOM     14  C   UNL     1     167.987 159.763 168.810  1.00  0.00     0.004 C 
BRANCH  14  15
ATOM     15  C   UNL     1     167.908 159.768 170.349  1.00  0.00     0.008 C 
BRANCH  15  16
ATOM     16  C   UNL     1     167.656 158.366 170.923  1.00  0.00     0.075 C 
BRANCH  16  17
ATOM     17  C   UNL     1     166.198 158.137 171.229  1.00  0.00     0.129 C 
ATOM     18  O   UNL     1     165.755 157.000 171.243  1.00  0.00    -0.300 OA
ATOM     19  C   UNL     1     165.273 159.288 171.485  1.00  0.00     0.087 C 
ENDBRANCH  16  17
ENDBRANCH  15  16
ENDBRANCH  14  15
ENDBRANCH  12  14
ENDBRANCH  11  12
ENDBRANCH   1  11
TORSDOF 12
ENDMDL
MODEL 9
REMARK VINA RESULT:    -4.247      2.575      7.160
REMARK INTER + INTRA:          -8.283
REMARK INTER:                  -7.202
REMARK INTRA:                  -1.081
REMARK UNBOUND:                -1.056
REMARK SMILES CC(=O)CCC[C@H](C)CCC[C@@H](C)CCCC(C)C
REMARK SMILES IDX 10 1 11 2 12 3 13 4 14 5 15 6 16 7 17 8 18 9 19 10 9 11 7 12
REMARK SMILES IDX 8 13 6 14 5 15 4 16 2 17 3 18 1 19
REMARK H PARENT
REMARK Flexibility Score: inf
ROOT
ATOM      1  C   UNL     1     162.731 164.857 168.087  1.00  0.00     0.001 C 
ENDROOT
BRANCH   1   2
ATOM      2  C   UNL     1     163.910 165.207 167.160  1.00  0.00     0.003 C 
BRANCH   2   3
ATOM      3  C   UNL     1     165.152 165.699 167.946  1.00  0.00    -0.014 C 
ATOM      4  C   UNL     1     166.253 164.628 167.977  1.00  0.00     0.007 C 
BRANCH   3   5
ATOM      5  C   UNL     1     165.674 167.091 167.479  1.00  0.00     0.003 C 
BRANCH   5   6
ATOM      6  C   UNL     1     164.899 168.342 167.948  1.00  0.00     0.001 C 
BRANCH   6   7
ATOM      7  C   UNL     1     164.627 169.361 166.828  1.00  0.00     0.003 C 
BRANCH   7   8
ATOM      8  C   UNL     1     164.105 170.714 167.367  1.00  0.00    -0.017 C 
ATOM      9  C   UNL     1     165.086 171.860 167.077  1.00  0.00     0.007 C 
ATOM     10  C   UNL     1     163.855 170.621 168.878  1.00  0.00     0.007 C 
ENDBRANCH   7   8
ENDBRANCH   6   7
ENDBRANCH   5   6
ENDBRANCH   3   5
ENDBRANCH   2   3
ENDBRANCH   1   2
BRANCH   1  11
ATOM     11  C   UNL     1     161.441 164.512 167.315  1.00  0.00     0.003 C 
BRANCH  11  12
ATOM     12  C   UNL     1     160.129 164.593 168.137  1.00  0.00    -0.014 C 
ATOM     13  C   UNL     1     158.927 164.936 167.238  1.00  0.00     0.007 C 
BRANCH  12  14
ATOM     14  C   UNL     1     159.910 163.251 168.878  1.00  0.00     0.004 C 
BRANCH  14  15
ATOM     15  C   UNL     1     159.818 163.409 170.408  1.00  0.00     0.008 C 
BRANCH  15  16
ATOM     16  C   UNL     1     160.274 164.798 170.877  1.00  0.00     0.075 C 
BRANCH  16  17
ATOM     17  C   UNL     1     159.177 165.535 171.602  1.00  0.00     0.129 C 
ATOM     18  O   UNL     1     159.464 166.381 172.434  1.00  0.00    -0.300 OA
ATOM     19  C   UNL     1     157.734 165.221 171.343  1.00  0.00     0.087 C 
ENDBRANCH  16  17
ENDBRANCH  15  16
ENDBRANCH  14  15
ENDBRANCH  12  14
ENDBRANCH  11  12
ENDBRANCH   1  11
TORSDOF 12
ENDMDL
