MODEL 1
REMARK VINA RESULT:    -5.701      0.000      0.000
REMARK INTER + INTRA:          -6.628
REMARK INTER:                  -6.534
REMARK INTRA:                  -0.094
REMARK UNBOUND:                -0.094
REMARK SMILES COc1cc(C(=O)[O-])ccc1O
REMARK SMILES IDX 5 1 9 2 4 3 10 4 3 5 11 6 6 7 7 8 8 9 2 10 1 11 12 12
REMARK H PARENT 12 13
REMARK Flexibility Score: inf
ROOT
ATOM      1  C   UNL     1     -13.368   2.241  -9.215  1.00  0.00     0.001 A 
ATOM      2  C   UNL     1     -14.718   1.938  -9.457  1.00  0.00     0.014 A 
ATOM      3  C   UNL     1     -12.389   1.270  -9.496  1.00  0.00     0.060 A 
ATOM      4  C   UNL     1     -15.083   0.691  -9.970  1.00  0.00     0.051 A 
ATOM      5  C   UNL     1     -12.753   0.010 -10.012  1.00  0.00     0.161 A 
ATOM      6  C   UNL     1     -14.105  -0.272 -10.248  1.00  0.00     0.157 A 
ENDROOT
BRANCH   1   7
ATOM      7  C   UNL     1     -12.978   3.561  -8.671  1.00  0.00     0.072 C 
ATOM      8  O   UNL     1     -11.770   3.822  -8.427  1.00  0.00    -0.545 OA
ATOM      9  O   UNL     1     -13.941   4.532  -8.420  1.00  0.00    -0.545 OA
ENDBRANCH   1   7
BRANCH   5  10
ATOM     10  O   UNL     1     -11.804  -0.982 -10.304  1.00  0.00    -0.493 OA
ATOM     11  C   UNL     1     -10.820  -1.453  -9.388  1.00  0.00     0.278 C 
ENDBRANCH   5  10
BRANCH   6  12
ATOM     12  O   UNL     1     -14.472  -1.516 -10.759  1.00  0.00    -0.504 OA
ATOM     13  H   UNL     1     -14.895  -1.610 -11.675  1.00  0.00     0.293 HD
ENDBRANCH   6  12
TORSDOF 3
ENDMDL
MODEL 2
REMARK VINA RESULT:    -4.705      5.842      8.449
REMARK INTER + INTRA:          -5.487
REMARK INTER:                  -5.432
REMARK INTRA:                  -0.055
REMARK UNBOUND:                -0.094
REMARK SMILES COc1cc(C(=O)[O-])ccc1O
REMARK SMILES IDX 5 1 9 2 4 3 10 4 3 5 11 6 6 7 7 8 8 9 2 10 1 11 12 12
REMARK H PARENT 12 13
REMARK Flexibility Score: inf
ROOT
ATOM      1  C   UNL     1     -13.099  -6.441  -6.722  1.00  0.00     0.001 A 
ATOM      2  C   UNL     1     -12.264  -6.337  -5.597  1.00  0.00     0.014 A 
ATOM      3  C   UNL     1     -12.691  -5.854  -7.933  1.00  0.00     0.060 A 
ATOM      4  C   UNL     1     -11.045  -5.660  -5.683  1.00  0.00     0.051 A 
ATOM      5  C   UNL     1     -11.463  -5.170  -8.023  1.00  0.00     0.161 A 
ATOM      6  C   UNL     1     -10.642  -5.078  -6.891  1.00  0.00     0.157 A 
ENDROOT
BRANCH   1   7
ATOM      7  C   UNL     1     -14.392  -7.157  -6.635  1.00  0.00     0.072 C 
ATOM      8  O   UNL     1     -14.846  -7.782  -7.630  1.00  0.00    -0.545 OA
ATOM      9  O   UNL     1     -15.125  -7.147  -5.454  1.00  0.00    -0.545 OA
ENDBRANCH   1   7
BRANCH   5  10
ATOM     10  O   UNL     1     -11.024  -4.573  -9.215  1.00  0.00    -0.493 OA
ATOM     11  C   UNL     1     -11.238  -3.209  -9.562  1.00  0.00     0.278 C 
ENDBRANCH   5  10
BRANCH   6  12
ATOM     12  O   UNL     1      -9.426  -4.402  -6.973  1.00  0.00    -0.504 OA
ATOM     13  H   UNL     1      -9.104  -3.796  -6.227  1.00  0.00     0.293 HD
ENDBRANCH   6  12
TORSDOF 3
ENDMDL
MODEL 3
REMARK VINA RESULT:    -4.654      5.653      7.640
REMARK INTER + INTRA:          -5.428
REMARK INTER:                  -5.326
REMARK INTRA:                  -0.102
REMARK UNBOUND:                -0.094
REMARK SMILES COc1cc(C(=O)[O-])ccc1O
REMARK SMILES IDX 5 1 9 2 4 3 10 4 3 5 11 6 6 7 7 8 8 9 2 10 1 11 12 12
REMARK H PARENT 12 13
REMARK Flexibility Score: inf
ROOT
ATOM      1  C   UNL     1     -10.639  -4.487  -8.071  1.00  0.00     0.001 A 
ATOM      2  C   UNL     1     -10.693  -4.570  -6.670  1.00  0.00     0.014 A 
ATOM      3  C   UNL     1     -10.962  -5.623  -8.836  1.00  0.00     0.060 A 
ATOM      4  C   UNL     1     -11.065  -5.763  -6.046  1.00  0.00     0.051 A 
ATOM      5  C   UNL     1     -11.337  -6.829  -8.210  1.00  0.00     0.161 A 
ATOM      6  C   UNL     1     -11.387  -6.891  -6.810  1.00  0.00     0.157 A 
ENDROOT
BRANCH   1   7
ATOM      7  C   UNL     1     -10.246  -3.225  -8.736  1.00  0.00     0.072 C 
ATOM      8  O   UNL     1     -10.266  -2.135  -8.104  1.00  0.00    -0.545 OA
ATOM      9  O   UNL     1      -9.850  -3.223 -10.068  1.00  0.00    -0.545 OA
ENDBRANCH   1   7
BRANCH   5  10
ATOM     10  O   UNL     1     -11.666  -7.981  -8.941  1.00  0.00    -0.493 OA
ATOM     11  C   UNL     1     -12.838  -8.125  -9.737  1.00  0.00     0.278 C 
ENDBRANCH   5  10
BRANCH   6  12
ATOM     12  O   UNL     1     -11.756  -8.080  -6.185  1.00  0.00    -0.504 OA
ATOM     13  H   UNL     1     -12.678  -8.206  -5.785  1.00  0.00     0.293 HD
ENDBRANCH   6  12
TORSDOF 3
ENDMDL
MODEL 4
REMARK VINA RESULT:    -4.619     15.503     17.039
REMARK INTER + INTRA:          -5.389
REMARK INTER:                  -5.305
REMARK INTRA:                  -0.084
REMARK UNBOUND:                -0.094
REMARK SMILES COc1cc(C(=O)[O-])ccc1O
REMARK SMILES IDX 5 1 9 2 4 3 10 4 3 5 11 6 6 7 7 8 8 9 2 10 1 11 12 12
REMARK H PARENT 12 13
REMARK Flexibility Score: inf
ROOT
ATOM      1  C   UNL     1      -9.875   6.251   6.649  1.00  0.00     0.001 A 
ATOM      2  C   UNL     1      -9.789   5.657   7.919  1.00  0.00     0.014 A 
ATOM      3  C   UNL     1     -10.883   5.829   5.763  1.00  0.00     0.060 A 
ATOM      4  C   UNL     1     -10.694   4.661   8.296  1.00  0.00     0.051 A 
ATOM      5  C   UNL     1     -11.797   4.825   6.140  1.00  0.00     0.161 A 
ATOM      6  C   UNL     1     -11.696   4.244   7.412  1.00  0.00     0.157 A 
ENDROOT
BRANCH   1   7
ATOM      7  C   UNL     1      -8.918   7.306   6.246  1.00  0.00     0.072 C 
ATOM      8  O   UNL     1      -8.199   7.882   7.106  1.00  0.00    -0.545 OA
ATOM      9  O   UNL     1      -8.801   7.679   4.912  1.00  0.00    -0.545 OA
ENDBRANCH   1   7
BRANCH   5  10
ATOM     10  O   UNL     1     -12.815   4.379   5.283  1.00  0.00    -0.493 OA
ATOM     11  C   UNL     1     -13.386   5.156   4.234  1.00  0.00     0.278 C 
ENDBRANCH   5  10
BRANCH   6  12
ATOM     12  O   UNL     1     -12.596   3.250   7.790  1.00  0.00    -0.504 OA
ATOM     13  H   UNL     1     -13.474   3.474   8.244  1.00  0.00     0.293 HD
ENDBRANCH   6  12
TORSDOF 3
ENDMDL
MODEL 5
REMARK VINA RESULT:    -4.600      5.954      8.719
REMARK INTER + INTRA:          -5.367
REMARK INTER:                  -5.320
REMARK INTRA:                  -0.047
REMARK UNBOUND:                -0.094
REMARK SMILES COc1cc(C(=O)[O-])ccc1O
REMARK SMILES IDX 5 1 9 2 4 3 10 4 3 5 11 6 6 7 7 8 8 9 2 10 1 11 12 12
REMARK H PARENT 12 13
REMARK Flexibility Score: inf
ROOT
ATOM      1  C   UNL     1     -12.012  -6.777  -6.617  1.00  0.00     0.001 A 
ATOM      2  C   UNL     1     -11.709  -7.628  -7.693  1.00  0.00     0.014 A 
ATOM      3  C   UNL     1     -11.414  -5.505  -6.562  1.00  0.00     0.060 A 
ATOM      4  C   UNL     1     -10.828  -7.215  -8.695  1.00  0.00     0.051 A 
ATOM      5  C   UNL     1     -10.524  -5.084  -7.571  1.00  0.00     0.161 A 
ATOM      6  C   UNL     1     -10.236  -5.947  -8.637  1.00  0.00     0.157 A 
ENDROOT
BRANCH   1   7
ATOM      7  C   UNL     1     -12.945  -7.212  -5.553  1.00  0.00     0.072 C 
ATOM      8  O   UNL     1     -14.134  -6.795  -5.534  1.00  0.00    -0.545 OA
ATOM      9  O   UNL     1     -12.521  -8.084  -4.557  1.00  0.00    -0.545 OA
ENDBRANCH   1   7
BRANCH   5  10
ATOM     10  O   UNL     1      -9.910  -3.823  -7.549  1.00  0.00    -0.493 OA
ATOM     11  C   UNL     1     -10.414  -2.667  -8.211  1.00  0.00     0.278 C 
ENDBRANCH   5  10
BRANCH   6  12
ATOM     12  O   UNL     1      -9.356  -5.538  -9.637  1.00  0.00    -0.504 OA
ATOM     13  H   UNL     1      -9.612  -4.825 -10.311  1.00  0.00     0.293 HD
ENDBRANCH   6  12
TORSDOF 3
ENDMDL
MODEL 6
REMARK VINA RESULT:    -4.583      4.282      7.396
REMARK INTER + INTRA:          -5.347
REMARK INTER:                  -5.245
REMARK INTRA:                  -0.102
REMARK UNBOUND:                -0.094
REMARK SMILES COc1cc(C(=O)[O-])ccc1O
REMARK SMILES IDX 5 1 9 2 4 3 10 4 3 5 11 6 6 7 7 8 8 9 2 10 1 11 12 12
REMARK H PARENT 12 13
REMARK Flexibility Score: inf
ROOT
ATOM      1  C   UNL     1     -11.841  -5.282  -8.466  1.00  0.00     0.001 A 
ATOM      2  C   UNL     1     -10.746  -5.709  -7.697  1.00  0.00     0.014 A 
ATOM      3  C   UNL     1     -11.743  -4.077  -9.185  1.00  0.00     0.060 A 
ATOM      4  C   UNL     1      -9.575  -4.949  -7.651  1.00  0.00     0.051 A 
ATOM      5  C   UNL     1     -10.564  -3.307  -9.140  1.00  0.00     0.161 A 
ATOM      6  C   UNL     1      -9.481  -3.751  -8.370  1.00  0.00     0.157 A 
ENDROOT
BRANCH   1   7
ATOM      7  C   UNL     1     -13.084  -6.085  -8.517  1.00  0.00     0.072 C 
ATOM      8  O   UNL     1     -13.065  -7.313  -8.237  1.00  0.00    -0.545 OA
ATOM      9  O   UNL     1     -14.290  -5.495  -8.877  1.00  0.00    -0.545 OA
ENDBRANCH   1   7
BRANCH   5  10
ATOM     10  O   UNL     1     -10.431  -2.101  -9.846  1.00  0.00    -0.493 OA
ATOM     11  C   UNL     1     -11.000  -0.860  -9.441  1.00  0.00     0.278 C 
ENDBRANCH   5  10
BRANCH   6  12
ATOM     12  O   UNL     1      -8.312  -2.993  -8.321  1.00  0.00    -0.504 OA
ATOM     13  H   UNL     1      -7.689  -3.030  -7.523  1.00  0.00     0.293 HD
ENDBRANCH   6  12
TORSDOF 3
ENDMDL
MODEL 7
REMARK VINA RESULT:    -4.515     15.317     17.037
REMARK INTER + INTRA:          -5.268
REMARK INTER:                  -5.192
REMARK INTRA:                  -0.076
REMARK UNBOUND:                -0.094
REMARK SMILES COc1cc(C(=O)[O-])ccc1O
REMARK SMILES IDX 5 1 9 2 4 3 10 4 3 5 11 6 6 7 7 8 8 9 2 10 1 11 12 12
REMARK H PARENT 12 13
REMARK Flexibility Score: inf
ROOT
ATOM      1  C   UNL     1     -12.445   5.387   5.839  1.00  0.00     0.001 A 
ATOM      2  C   UNL     1     -12.719   4.612   6.978  1.00  0.00     0.014 A 
ATOM      3  C   UNL     1     -11.233   6.097   5.769  1.00  0.00     0.060 A 
ATOM      4  C   UNL     1     -11.798   4.547   8.026  1.00  0.00     0.051 A 
ATOM      5  C   UNL     1     -10.302   6.034   6.825  1.00  0.00     0.161 A 
ATOM      6  C   UNL     1     -10.592   5.255   7.953  1.00  0.00     0.157 A 
ENDROOT
BRANCH   1   7
ATOM      7  C   UNL     1     -13.419   5.459   4.726  1.00  0.00     0.072 C 
ATOM      8  O   UNL     1     -13.228   4.807   3.665  1.00  0.00    -0.545 OA
ATOM      9  O   UNL     1     -14.557   6.249   4.835  1.00  0.00    -0.545 OA
ENDBRANCH   1   7
BRANCH   5  10
ATOM     10  O   UNL     1      -9.082   6.729   6.790  1.00  0.00    -0.493 OA
ATOM     11  C   UNL     1      -8.837   7.891   6.006  1.00  0.00     0.278 C 
ENDBRANCH   5  10
BRANCH   6  12
ATOM     12  O   UNL     1      -9.676   5.189   9.001  1.00  0.00    -0.504 OA
ATOM     13  H   UNL     1      -8.724   5.521   8.896  1.00  0.00     0.293 HD
ENDBRANCH   6  12
TORSDOF 3
ENDMDL
MODEL 8
REMARK VINA RESULT:    -4.274      3.780      7.213
REMARK INTER + INTRA:          -4.993
REMARK INTER:                  -5.207
REMARK INTRA:                   0.214
REMARK UNBOUND:                -0.094
REMARK SMILES COc1cc(C(=O)[O-])ccc1O
REMARK SMILES IDX 5 1 9 2 4 3 10 4 3 5 11 6 6 7 7 8 8 9 2 10 1 11 12 12
REMARK H PARENT 12 13
REMARK Flexibility Score: inf
ROOT
ATOM      1  C   UNL     1     -10.727  -4.849  -8.040  1.00  0.00     0.001 A 
ATOM      2  C   UNL     1      -9.366  -4.731  -8.366  1.00  0.00     0.014 A 
ATOM      3  C   UNL     1     -11.651  -3.972  -8.636  1.00  0.00     0.060 A 
ATOM      4  C   UNL     1      -8.937  -3.758  -9.271  1.00  0.00     0.051 A 
ATOM      5  C   UNL     1     -11.223  -2.988  -9.549  1.00  0.00     0.161 A 
ATOM      6  C   UNL     1      -9.861  -2.888  -9.863  1.00  0.00     0.157 A 
ENDROOT
BRANCH   1   7
ATOM      7  C   UNL     1     -11.185  -5.879  -7.080  1.00  0.00     0.072 C 
ATOM      8  O   UNL     1     -12.388  -5.920  -6.709  1.00  0.00    -0.545 OA
ATOM      9  O   UNL     1     -10.292  -6.816  -6.573  1.00  0.00    -0.545 OA
ENDBRANCH   1   7
BRANCH   5  10
ATOM     10  O   UNL     1     -12.117  -2.097 -10.163  1.00  0.00    -0.493 OA
ATOM     11  C   UNL     1     -12.072  -0.681 -10.021  1.00  0.00     0.278 C 
ENDBRANCH   5  10
BRANCH   6  12
ATOM     12  O   UNL     1      -9.431  -1.916 -10.765  1.00  0.00    -0.504 OA
ATOM     13  H   UNL     1      -9.321  -2.120 -11.752  1.00  0.00     0.293 HD
ENDBRANCH   6  12
TORSDOF 3
ENDMDL
MODEL 9
REMARK VINA RESULT:    -4.225      5.955      7.522
REMARK INTER + INTRA:          -4.937
REMARK INTER:                  -5.006
REMARK INTRA:                   0.069
REMARK UNBOUND:                -0.094
REMARK SMILES COc1cc(C(=O)[O-])ccc1O
REMARK SMILES IDX 5 1 9 2 4 3 10 4 3 5 11 6 6 7 7 8 8 9 2 10 1 11 12 12
REMARK H PARENT 12 13
REMARK Flexibility Score: inf
ROOT
ATOM      1  C   UNL     1     -11.027  -4.501  -7.797  1.00  0.00     0.001 A 
ATOM      2  C   UNL     1     -11.957  -4.856  -8.789  1.00  0.00     0.014 A 
ATOM      3  C   UNL     1     -11.115  -5.106  -6.530  1.00  0.00     0.060 A 
ATOM      4  C   UNL     1     -12.952  -5.798  -8.521  1.00  0.00     0.051 A 
ATOM      5  C   UNL     1     -12.118  -6.057  -6.255  1.00  0.00     0.161 A 
ATOM      6  C   UNL     1     -13.035  -6.399  -7.259  1.00  0.00     0.157 A 
ENDROOT
BRANCH   1   7
ATOM      7  C   UNL     1      -9.971  -3.502  -8.078  1.00  0.00     0.072 C 
ATOM      8  O   UNL     1     -10.220  -2.270  -8.008  1.00  0.00    -0.545 OA
ATOM      9  O   UNL     1      -8.689  -3.912  -8.425  1.00  0.00    -0.545 OA
ENDBRANCH   1   7
BRANCH   5  10
ATOM     10  O   UNL     1     -12.235  -6.681  -5.004  1.00  0.00    -0.493 OA
ATOM     11  C   UNL     1     -11.893  -8.039  -4.743  1.00  0.00     0.278 C 
ENDBRANCH   5  10
BRANCH   6  12
ATOM     12  O   UNL     1     -14.030  -7.337  -6.993  1.00  0.00    -0.504 OA
ATOM     13  H   UNL     1     -15.013  -7.110  -7.086  1.00  0.00     0.293 HD
ENDBRANCH   6  12
TORSDOF 3
ENDMDL
