MODEL 1
REMARK VINA RESULT:    -6.300      0.000      0.000
REMARK INTER + INTRA:          -9.061
REMARK INTER:                  -8.510
REMARK INTRA:                  -0.552
REMARK UNBOUND:                -0.552
REMARK SMILES O=c1c(-c2ccc(O)cc2)coc2c([C@@H]3O[C@H](CO)[C@H](O)[C@H](O)[C@@H]3O)c(O)ccc12
REMARK SMILES IDX 3 1 11 2 12 3 13 4 30 5 2 6 1 7 29 8 28 9 26 10 14 11 4 12
REMARK SMILES IDX 5 13 6 14 7 15 10 16 9 17 8 18 15 20 24 21 16 22 22 23 17 24
REMARK SMILES IDX 20 25 25 26 23 28 18 30 19 31 21 33 27 35
REMARK H PARENT 8 19 25 27 23 29 19 32 21 34 27 36
REMARK Flexibility Score: inf
ROOT
ATOM      1  C   UNL     1      12.476  11.904  44.189  1.00  0.00     0.065 A 
ATOM      2  C   UNL     1      11.324  12.700  44.257  1.00  0.00     0.208 A 
ATOM      3  O   UNL     1      11.403  13.985  44.577  1.00  0.00    -0.463 OA
ATOM      4  C   UNL     1      12.549  14.603  44.852  1.00  0.00     0.147 A 
ATOM      5  C   UNL     1      13.761  13.875  44.800  1.00  0.00     0.066 A 
ATOM      6  C   UNL     1      13.713  12.506  44.475  1.00  0.00     0.200 A 
ATOM      7  O   UNL     1      14.773  11.819  44.456  1.00  0.00    -0.288 OA
ATOM      8  C   UNL     1      14.972  14.524  45.071  1.00  0.00     0.020 A 
ATOM      9  C   UNL     1      14.989  15.887  45.354  1.00  0.00     0.047 A 
ATOM     10  C   UNL     1      13.805  16.628  45.390  1.00  0.00     0.125 A 
ATOM     11  C   UNL     1      12.554  15.983  45.190  1.00  0.00     0.069 A 
ENDROOT
BRANCH   1  12
ATOM     12  C   UNL     1      12.362  10.469  43.825  1.00  0.00    -0.011 A 
ATOM     13  C   UNL     1      12.611   9.472  44.784  1.00  0.00     0.013 A 
ATOM     14  C   UNL     1      12.496   8.121  44.447  1.00  0.00     0.047 A 
ATOM     15  C   UNL     1      12.128   7.748  43.151  1.00  0.00     0.115 A 
ATOM     16  C   UNL     1      11.986  10.087  42.525  1.00  0.00     0.013 A 
ATOM     17  C   UNL     1      11.871   8.735  42.190  1.00  0.00     0.047 A 
BRANCH  15  18
ATOM     18  O   UNL     1      12.019   6.397  42.828  1.00  0.00    -0.508 OA
ATOM     19  H   UNL     1      11.302   6.060  42.196  1.00  0.00     0.293 HD
ENDBRANCH  15  18
ENDBRANCH   1  12
BRANCH  11  20
ATOM     20  C   UNL     1      11.246  16.766  45.284  1.00  0.00     0.188 C 
ATOM     21  C   UNL     1      10.836  17.298  43.890  1.00  0.00     0.179 C 
ATOM     22  O   UNL     1      10.219  15.955  45.840  1.00  0.00    -0.362 OA
ATOM     23  C   UNL     1       9.503  18.067  44.014  1.00  0.00     0.177 C 
ATOM     24  C   UNL     1       9.042  16.711  46.077  1.00  0.00     0.176 C 
ATOM     25  C   UNL     1       8.438  17.223  44.747  1.00  0.00     0.177 C 
BRANCH  21  26
ATOM     26  O   UNL     1      10.707  16.224  42.990  1.00  0.00    -0.387 OA
ATOM     27  H   UNL     1      10.437  15.429  43.519  1.00  0.00     0.211 HD
ENDBRANCH  21  26
BRANCH  23  28
ATOM     28  O   UNL     1       9.043  18.526  42.765  1.00  0.00    -0.387 OA
ATOM     29  H   UNL     1       9.017  19.517  42.786  1.00  0.00     0.211 HD
ENDBRANCH  23  28
BRANCH  24  30
ATOM     30  C   UNL     1       8.046  15.857  46.874  1.00  0.00     0.191 C 
BRANCH  30  31
ATOM     31  O   UNL     1       8.052  14.533  46.416  1.00  0.00    -0.394 OA
ATOM     32  H   UNL     1       8.146  13.963  47.222  1.00  0.00     0.210 HD
ENDBRANCH  30  31
ENDBRANCH  24  30
BRANCH  25  33
ATOM     33  O   UNL     1       8.042  16.142  43.939  1.00  0.00    -0.388 OA
ATOM     34  H   UNL     1       8.750  16.012  43.254  1.00  0.00     0.211 HD
ENDBRANCH  25  33
ENDBRANCH  11  20
BRANCH  10  35
ATOM     35  O   UNL     1      13.923  18.004  45.614  1.00  0.00    -0.507 OA
ATOM     36  H   UNL     1      13.192  18.581  46.004  1.00  0.00     0.293 HD
ENDBRANCH  10  35
TORSDOF 9
ENDMDL
MODEL 2
REMARK VINA RESULT:    -6.283      2.551      7.947
REMARK INTER + INTRA:          -9.038
REMARK INTER:                  -8.025
REMARK INTRA:                  -1.014
REMARK UNBOUND:                -0.552
REMARK SMILES O=c1c(-c2ccc(O)cc2)coc2c([C@@H]3O[C@H](CO)[C@H](O)[C@H](O)[C@@H]3O)c(O)ccc12
REMARK SMILES IDX 3 1 11 2 12 3 13 4 30 5 2 6 1 7 29 8 28 9 26 10 14 11 4 12
REMARK SMILES IDX 5 13 6 14 7 15 10 16 9 17 8 18 15 20 24 21 16 22 22 23 17 24
REMARK SMILES IDX 20 25 25 26 23 28 18 30 19 31 21 33 27 35
REMARK H PARENT 8 19 25 27 23 29 19 32 21 34 27 36
REMARK Flexibility Score: inf
ROOT
ATOM      1  C   UNL     1      11.145  18.147  43.609  1.00  0.00     0.065 A 
ATOM      2  C   UNL     1      10.364  16.985  43.668  1.00  0.00     0.208 A 
ATOM      3  O   UNL     1      10.920  15.785  43.565  1.00  0.00    -0.463 OA
ATOM      4  C   UNL     1      12.227  15.595  43.400  1.00  0.00     0.147 A 
ATOM      5  C   UNL     1      13.089  16.715  43.337  1.00  0.00     0.066 A 
ATOM      6  C   UNL     1      12.532  18.004  43.432  1.00  0.00     0.200 A 
ATOM      7  O   UNL     1      13.270  19.025  43.343  1.00  0.00    -0.288 OA
ATOM      8  C   UNL     1      14.468  16.521  43.183  1.00  0.00     0.020 A 
ATOM      9  C   UNL     1      14.993  15.232  43.129  1.00  0.00     0.047 A 
ATOM     10  C   UNL     1      14.160  14.113  43.210  1.00  0.00     0.125 A 
ATOM     11  C   UNL     1      12.751  14.279  43.294  1.00  0.00     0.069 A 
ENDROOT
BRANCH   1  12
ATOM     12  C   UNL     1      10.499  19.479  43.731  1.00  0.00    -0.011 A 
ATOM     13  C   UNL     1      10.481  20.362  42.637  1.00  0.00     0.013 A 
ATOM     14  C   UNL     1       9.867  21.612  42.746  1.00  0.00     0.047 A 
ATOM     15  C   UNL     1       9.259  21.995  43.945  1.00  0.00     0.115 A 
ATOM     16  C   UNL     1       9.880  19.868  44.933  1.00  0.00     0.013 A 
ATOM     17  C   UNL     1       9.266  21.119  45.039  1.00  0.00     0.047 A 
BRANCH  15  18
ATOM     18  O   UNL     1       8.651  23.245  44.040  1.00  0.00    -0.508 OA
ATOM     19  H   UNL     1       8.953  24.025  43.467  1.00  0.00     0.293 HD
ENDBRANCH  15  18
ENDBRANCH   1  12
BRANCH  11  20
ATOM     20  C   UNL     1      11.821  13.067  43.325  1.00  0.00     0.188 C 
ATOM     21  C   UNL     1      11.387  12.685  41.890  1.00  0.00     0.179 C 
ATOM     22  O   UNL     1      12.452  11.971  43.974  1.00  0.00    -0.362 OA
ATOM     23  C   UNL     1      10.465  11.448  41.953  1.00  0.00     0.177 C 
ATOM     24  C   UNL     1      11.549  10.890  44.148  1.00  0.00     0.176 C 
ATOM     25  C   UNL     1      11.108  10.315  42.781  1.00  0.00     0.177 C 
BRANCH  21  26
ATOM     26  O   UNL     1      12.524  12.416  41.105  1.00  0.00    -0.387 OA
ATOM     27  H   UNL     1      12.793  11.479  41.290  1.00  0.00     0.211 HD
ENDBRANCH  21  26
BRANCH  23  28
ATOM     28  O   UNL     1      10.085  11.011  40.670  1.00  0.00    -0.387 OA
ATOM     29  H   UNL     1      10.471  10.111  40.518  1.00  0.00     0.211 HD
ENDBRANCH  23  28
BRANCH  24  30
ATOM     30  C   UNL     1      12.203   9.826  45.041  1.00  0.00     0.191 C 
BRANCH  30  31
ATOM     31  O   UNL     1      13.583   9.765  44.808  1.00  0.00    -0.394 OA
ATOM     32  H   UNL     1      13.758  10.355  44.030  1.00  0.00     0.210 HD
ENDBRANCH  30  31
ENDBRANCH  24  30
BRANCH  25  33
ATOM     33  O   UNL     1      12.213   9.783  42.092  1.00  0.00    -0.388 OA
ATOM     34  H   UNL     1      12.649   9.127  42.698  1.00  0.00     0.211 HD
ENDBRANCH  25  33
ENDBRANCH  11  20
BRANCH  10  35
ATOM     35  O   UNL     1      14.779  12.859  43.217  1.00  0.00    -0.507 OA
ATOM     36  H   UNL     1      15.380  12.525  43.957  1.00  0.00     0.293 HD
ENDBRANCH  10  35
TORSDOF 9
ENDMDL
MODEL 3
REMARK VINA RESULT:    -6.104      2.141      3.371
REMARK INTER + INTRA:          -8.796
REMARK INTER:                  -7.607
REMARK INTRA:                  -1.190
REMARK UNBOUND:                -0.552
REMARK SMILES O=c1c(-c2ccc(O)cc2)coc2c([C@@H]3O[C@H](CO)[C@H](O)[C@H](O)[C@@H]3O)c(O)ccc12
REMARK SMILES IDX 3 1 11 2 12 3 13 4 30 5 2 6 1 7 29 8 28 9 26 10 14 11 4 12
REMARK SMILES IDX 5 13 6 14 7 15 10 16 9 17 8 18 15 20 24 21 16 22 22 23 17 24
REMARK SMILES IDX 20 25 25 26 23 28 18 30 19 31 21 33 27 35
REMARK H PARENT 8 19 25 27 23 29 19 32 21 34 27 36
REMARK Flexibility Score: inf
ROOT
ATOM      1  C   UNL     1      12.145  12.043  43.574  1.00  0.00     0.065 A 
ATOM      2  C   UNL     1      11.149  13.012  43.402  1.00  0.00     0.208 A 
ATOM      3  O   UNL     1      11.460  14.297  43.293  1.00  0.00    -0.463 OA
ATOM      4  C   UNL     1      12.709  14.754  43.339  1.00  0.00     0.147 A 
ATOM      5  C   UNL     1      13.777  13.842  43.504  1.00  0.00     0.066 A 
ATOM      6  C   UNL     1      13.482  12.472  43.634  1.00  0.00     0.200 A 
ATOM      7  O   UNL     1      14.410  11.635  43.819  1.00  0.00    -0.288 OA
ATOM      8  C   UNL     1      15.095  14.316  43.534  1.00  0.00     0.020 A 
ATOM      9  C   UNL     1      15.357  15.673  43.366  1.00  0.00     0.047 A 
ATOM     10  C   UNL     1      14.317  16.587  43.182  1.00  0.00     0.125 A 
ATOM     11  C   UNL     1      12.966  16.147  43.218  1.00  0.00     0.069 A 
ENDROOT
BRANCH   1  12
ATOM     12  C   UNL     1      11.772  10.610  43.690  1.00  0.00    -0.011 A 
ATOM     13  C   UNL     1      11.775   9.782  42.554  1.00  0.00     0.013 A 
ATOM     14  C   UNL     1      11.432   8.432  42.661  1.00  0.00     0.047 A 
ATOM     15  C   UNL     1      11.087   7.890  43.903  1.00  0.00     0.115 A 
ATOM     16  C   UNL     1      11.430  10.057  44.937  1.00  0.00     0.013 A 
ATOM     17  C   UNL     1      11.088   8.706  45.042  1.00  0.00     0.047 A 
BRANCH  15  18
ATOM     18  O   UNL     1      10.746   6.542  43.995  1.00  0.00    -0.508 OA
ATOM     19  H   UNL     1      11.375   5.864  44.411  1.00  0.00     0.293 HD
ENDBRANCH  15  18
ENDBRANCH   1  12
BRANCH  11  20
ATOM     20  C   UNL     1      11.814  17.140  43.076  1.00  0.00     0.188 C 
ATOM     21  C   UNL     1      11.489  17.787  44.444  1.00  0.00     0.179 C 
ATOM     22  O   UNL     1      12.129  18.133  42.108  1.00  0.00    -0.362 OA
ATOM     23  C   UNL     1      10.337  18.798  44.265  1.00  0.00     0.177 C 
ATOM     24  C   UNL     1      11.012  18.970  41.852  1.00  0.00     0.176 C 
ATOM     25  C   UNL     1      10.633  19.783  43.114  1.00  0.00     0.177 C 
BRANCH  21  26
ATOM     26  O   UNL     1      12.635  18.426  44.952  1.00  0.00    -0.387 OA
ATOM     27  H   UNL     1      13.423  18.006  44.517  1.00  0.00     0.211 HD
ENDBRANCH  21  26
BRANCH  23  28
ATOM     28  O   UNL     1      10.034  19.467  45.466  1.00  0.00    -0.387 OA
ATOM     29  H   UNL     1      10.667  20.223  45.571  1.00  0.00     0.211 HD
ENDBRANCH  23  28
BRANCH  24  30
ATOM     30  C   UNL     1      11.325  19.876  40.653  1.00  0.00     0.191 C 
BRANCH  30  31
ATOM     31  O   UNL     1      12.690  20.189  40.613  1.00  0.00    -0.394 OA
ATOM     32  H   UNL     1      12.744  21.173  40.500  1.00  0.00     0.210 HD
ENDBRANCH  30  31
ENDBRANCH  24  30
BRANCH  25  33
ATOM     33  O   UNL     1      11.683  20.645  43.477  1.00  0.00    -0.388 OA
ATOM     34  H   UNL     1      12.409  20.522  42.810  1.00  0.00     0.211 HD
ENDBRANCH  25  33
ENDBRANCH  11  20
BRANCH  10  35
ATOM     35  O   UNL     1      14.675  17.919  42.952  1.00  0.00    -0.507 OA
ATOM     36  H   UNL     1      14.025  18.646  42.688  1.00  0.00     0.293 HD
ENDBRANCH  10  35
TORSDOF 9
ENDMDL
MODEL 4
REMARK VINA RESULT:    -6.075      3.212      6.742
REMARK INTER + INTRA:          -8.758
REMARK INTER:                  -8.081
REMARK INTRA:                  -0.677
REMARK UNBOUND:                -0.552
REMARK SMILES O=c1c(-c2ccc(O)cc2)coc2c([C@@H]3O[C@H](CO)[C@H](O)[C@H](O)[C@@H]3O)c(O)ccc12
REMARK SMILES IDX 3 1 11 2 12 3 13 4 30 5 2 6 1 7 29 8 28 9 26 10 14 11 4 12
REMARK SMILES IDX 5 13 6 14 7 15 10 16 9 17 8 18 15 20 24 21 16 22 22 23 17 24
REMARK SMILES IDX 20 25 25 26 23 28 18 30 19 31 21 33 27 35
REMARK H PARENT 8 19 25 27 23 29 19 32 21 34 27 36
REMARK Flexibility Score: inf
ROOT
ATOM      1  C   UNL     1      15.503  15.549  42.971  1.00  0.00     0.065 A 
ATOM      2  C   UNL     1      14.954  14.260  42.930  1.00  0.00     0.208 A 
ATOM      3  O   UNL     1      13.656  14.066  43.116  1.00  0.00    -0.463 OA
ATOM      4  C   UNL     1      12.794  15.053  43.351  1.00  0.00     0.147 A 
ATOM      5  C   UNL     1      13.263  16.387  43.403  1.00  0.00     0.066 A 
ATOM      6  C   UNL     1      14.637  16.628  43.221  1.00  0.00     0.200 A 
ATOM      7  O   UNL     1      15.093  17.804  43.298  1.00  0.00    -0.288 OA
ATOM      8  C   UNL     1      12.358  17.431  43.632  1.00  0.00     0.020 A 
ATOM      9  C   UNL     1      10.999  17.163  43.772  1.00  0.00     0.047 A 
ATOM     10  C   UNL     1      10.514  15.855  43.704  1.00  0.00     0.125 A 
ATOM     11  C   UNL     1      11.415  14.768  43.544  1.00  0.00     0.069 A 
ENDROOT
BRANCH   1  12
ATOM     12  C   UNL     1      16.959  15.741  42.756  1.00  0.00    -0.011 A 
ATOM     13  C   UNL     1      17.449  16.092  41.486  1.00  0.00     0.013 A 
ATOM     14  C   UNL     1      18.818  16.281  41.282  1.00  0.00     0.047 A 
ATOM     15  C   UNL     1      19.715  16.128  42.343  1.00  0.00     0.115 A 
ATOM     16  C   UNL     1      17.867  15.594  43.821  1.00  0.00     0.013 A 
ATOM     17  C   UNL     1      19.236  15.785  43.615  1.00  0.00     0.047 A 
BRANCH  15  18
ATOM     18  O   UNL     1      21.078  16.319  42.126  1.00  0.00    -0.508 OA
ATOM     19  H   UNL     1      21.771  15.999  42.793  1.00  0.00     0.293 HD
ENDBRANCH  15  18
ENDBRANCH   1  12
BRANCH  11  20
ATOM     20  C   UNL     1      10.909  13.326  43.525  1.00  0.00     0.188 C 
ATOM     21  C   UNL     1      10.624  12.875  42.074  1.00  0.00     0.179 C 
ATOM     22  O   UNL     1      11.848  12.461  44.151  1.00  0.00    -0.362 OA
ATOM     23  C   UNL     1      10.133  11.411  42.087  1.00  0.00     0.177 C 
ATOM     24  C   UNL     1      11.326  11.148  44.281  1.00  0.00     0.176 C 
ATOM     25  C   UNL     1      11.092  10.508  42.891  1.00  0.00     0.177 C 
BRANCH  21  26
ATOM     26  O   UNL     1      11.791  12.999  41.298  1.00  0.00    -0.387 OA
ATOM     27  H   UNL     1      12.378  12.232  41.526  1.00  0.00     0.211 HD
ENDBRANCH  21  26
BRANCH  23  28
ATOM     28  O   UNL     1       9.913  10.919  40.786  1.00  0.00    -0.387 OA
ATOM     29  H   UNL     1       9.965  11.679  40.151  1.00  0.00     0.211 HD
ENDBRANCH  23  28
BRANCH  24  30
ATOM     30  C   UNL     1      12.275  10.312  45.151  1.00  0.00     0.191 C 
BRANCH  30  31
ATOM     31  O   UNL     1      13.608  10.530  44.779  1.00  0.00    -0.394 OA
ATOM     32  H   UNL     1      13.585  11.205  44.053  1.00  0.00     0.210 HD
ENDBRANCH  30  31
ENDBRANCH  24  30
BRANCH  25  33
ATOM     33  O   UNL     1      12.311  10.369  42.203  1.00  0.00    -0.388 OA
ATOM     34  H   UNL     1      12.705  11.277  42.115  1.00  0.00     0.211 HD
ENDBRANCH  25  33
ENDBRANCH  11  20
BRANCH  10  35
ATOM     35  O   UNL     1       9.128  15.685  43.785  1.00  0.00    -0.507 OA
ATOM     36  H   UNL     1       8.674  14.817  44.032  1.00  0.00     0.293 HD
ENDBRANCH  10  35
TORSDOF 9
ENDMDL
MODEL 5
REMARK VINA RESULT:    -5.941      3.035      6.087
REMARK INTER + INTRA:          -8.577
REMARK INTER:                  -7.386
REMARK INTRA:                  -1.191
REMARK UNBOUND:                -0.552
REMARK SMILES O=c1c(-c2ccc(O)cc2)coc2c([C@@H]3O[C@H](CO)[C@H](O)[C@H](O)[C@@H]3O)c(O)ccc12
REMARK SMILES IDX 3 1 11 2 12 3 13 4 30 5 2 6 1 7 29 8 28 9 26 10 14 11 4 12
REMARK SMILES IDX 5 13 6 14 7 15 10 16 9 17 8 18 15 20 24 21 16 22 22 23 17 24
REMARK SMILES IDX 20 25 25 26 23 28 18 30 19 31 21 33 27 35
REMARK H PARENT 8 19 25 27 23 29 19 32 21 34 27 36
REMARK Flexibility Score: inf
ROOT
ATOM      1  C   UNL     1      14.351  15.526  43.553  1.00  0.00     0.065 A 
ATOM      2  C   UNL     1      13.660  14.320  43.377  1.00  0.00     0.208 A 
ATOM      3  O   UNL     1      12.350  14.250  43.573  1.00  0.00    -0.463 OA
ATOM      4  C   UNL     1      11.608  15.291  43.944  1.00  0.00     0.147 A 
ATOM      5  C   UNL     1      12.225  16.549  44.138  1.00  0.00     0.066 A 
ATOM      6  C   UNL     1      13.616  16.657  43.950  1.00  0.00     0.200 A 
ATOM      7  O   UNL     1      14.202  17.758  44.151  1.00  0.00    -0.288 OA
ATOM      8  C   UNL     1      11.447  17.653  44.510  1.00  0.00     0.020 A 
ATOM      9  C   UNL     1      10.068  17.522  44.654  1.00  0.00     0.047 A 
ATOM     10  C   UNL     1       9.438  16.293  44.447  1.00  0.00     0.125 A 
ATOM     11  C   UNL     1      10.209  15.139  44.138  1.00  0.00     0.069 A 
ENDROOT
BRANCH   1  12
ATOM     12  C   UNL     1      15.817  15.580  43.324  1.00  0.00    -0.011 A 
ATOM     13  C   UNL     1      16.325  15.818  42.035  1.00  0.00     0.013 A 
ATOM     14  C   UNL     1      17.704  15.878  41.818  1.00  0.00     0.047 A 
ATOM     15  C   UNL     1      18.593  15.706  42.883  1.00  0.00     0.115 A 
ATOM     16  C   UNL     1      16.716  15.414  44.393  1.00  0.00     0.013 A 
ATOM     17  C   UNL     1      18.095  15.475  44.173  1.00  0.00     0.047 A 
BRANCH  15  18
ATOM     18  O   UNL     1      19.965  15.767  42.652  1.00  0.00    -0.508 OA
ATOM     19  H   UNL     1      20.594  15.055  43.006  1.00  0.00     0.293 HD
ENDBRANCH  15  18
ENDBRANCH   1  12
BRANCH  11  20
ATOM     20  C   UNL     1       9.543  13.775  43.965  1.00  0.00     0.188 C 
ATOM     21  C   UNL     1       9.436  13.052  45.329  1.00  0.00     0.179 C 
ATOM     22  O   UNL     1       8.263  13.918  43.364  1.00  0.00    -0.362 OA
ATOM     23  C   UNL     1       8.743  11.688  45.125  1.00  0.00     0.177 C 
ATOM     24  C   UNL     1       7.699  12.654  43.055  1.00  0.00     0.176 C 
ATOM     25  C   UNL     1       7.420  11.845  44.345  1.00  0.00     0.177 C 
BRANCH  21  26
ATOM     26  O   UNL     1       8.707  13.848  46.233  1.00  0.00    -0.387 OA
ATOM     27  H   UNL     1       7.869  13.359  46.444  1.00  0.00     0.211 HD
ENDBRANCH  21  26
BRANCH  23  28
ATOM     28  O   UNL     1       8.559  11.005  46.342  1.00  0.00    -0.387 OA
ATOM     29  H   UNL     1       7.653  10.602  46.341  1.00  0.00     0.211 HD
ENDBRANCH  23  28
BRANCH  24  30
ATOM     30  C   UNL     1       6.430  12.859  42.216  1.00  0.00     0.191 C 
BRANCH  30  31
ATOM     31  O   UNL     1       5.726  13.989  42.651  1.00  0.00    -0.394 OA
ATOM     32  H   UNL     1       5.374  13.765  43.551  1.00  0.00     0.210 HD
ENDBRANCH  30  31
ENDBRANCH  24  30
BRANCH  25  33
ATOM     33  O   UNL     1       6.467  12.505  45.142  1.00  0.00    -0.388 OA
ATOM     34  H   UNL     1       6.652  13.479  45.076  1.00  0.00     0.211 HD
ENDBRANCH  25  33
ENDBRANCH  11  20
BRANCH  10  35
ATOM     35  O   UNL     1       8.043  16.269  44.544  1.00  0.00    -0.507 OA
ATOM     36  H   UNL     1       7.444  17.053  44.328  1.00  0.00     0.293 HD
ENDBRANCH  10  35
TORSDOF 9
ENDMDL
MODEL 6
REMARK VINA RESULT:    -5.932      2.213      4.791
REMARK INTER + INTRA:          -8.564
REMARK INTER:                  -7.414
REMARK INTRA:                  -1.150
REMARK UNBOUND:                -0.552
REMARK SMILES O=c1c(-c2ccc(O)cc2)coc2c([C@@H]3O[C@H](CO)[C@H](O)[C@H](O)[C@@H]3O)c(O)ccc12
REMARK SMILES IDX 3 1 11 2 12 3 13 4 30 5 2 6 1 7 29 8 28 9 26 10 14 11 4 12
REMARK SMILES IDX 5 13 6 14 7 15 10 16 9 17 8 18 15 20 24 21 16 22 22 23 17 24
REMARK SMILES IDX 20 25 25 26 23 28 18 30 19 31 21 33 27 35
REMARK H PARENT 8 19 25 27 23 29 19 32 21 34 27 36
REMARK Flexibility Score: inf
ROOT
ATOM      1  C   UNL     1      12.731  11.557  43.980  1.00  0.00     0.065 A 
ATOM      2  C   UNL     1      14.022  12.083  43.839  1.00  0.00     0.208 A 
ATOM      3  O   UNL     1      14.261  13.370  44.054  1.00  0.00    -0.463 OA
ATOM      4  C   UNL     1      13.318  14.240  44.410  1.00  0.00     0.147 A 
ATOM      5  C   UNL     1      11.988  13.791  44.581  1.00  0.00     0.066 A 
ATOM      6  C   UNL     1      11.697  12.434  44.350  1.00  0.00     0.200 A 
ATOM      7  O   UNL     1      10.512  12.009  44.458  1.00  0.00    -0.288 OA
ATOM      8  C   UNL     1      10.995  14.699  44.972  1.00  0.00     0.020 A 
ATOM      9  C   UNL     1      11.322  16.028  45.228  1.00  0.00     0.047 A 
ATOM     10  C   UNL     1      12.634  16.486  45.085  1.00  0.00     0.125 A 
ATOM     11  C   UNL     1      13.649  15.606  44.620  1.00  0.00     0.069 A 
ENDROOT
BRANCH   1  12
ATOM     12  C   UNL     1      12.491  10.112  43.738  1.00  0.00    -0.011 A 
ATOM     13  C   UNL     1      12.081   9.664  42.469  1.00  0.00     0.013 A 
ATOM     14  C   UNL     1      11.862   8.304  42.236  1.00  0.00     0.047 A 
ATOM     15  C   UNL     1      12.054   7.373  43.262  1.00  0.00     0.115 A 
ATOM     16  C   UNL     1      12.688   9.170  44.763  1.00  0.00     0.013 A 
ATOM     17  C   UNL     1      12.469   7.810  44.527  1.00  0.00     0.047 A 
BRANCH  15  18
ATOM     18  O   UNL     1      11.831   6.021  43.015  1.00  0.00    -0.508 OA
ATOM     19  H   UNL     1      12.559   5.329  43.159  1.00  0.00     0.293 HD
ENDBRANCH  15  18
ENDBRANCH   1  12
BRANCH  11  20
ATOM     20  C   UNL     1      15.077  16.103  44.401  1.00  0.00     0.188 C 
ATOM     21  C   UNL     1      15.219  16.731  42.995  1.00  0.00     0.179 C 
ATOM     22  O   UNL     1      15.440  17.034  45.412  1.00  0.00    -0.362 OA
ATOM     23  C   UNL     1      16.665  17.241  42.812  1.00  0.00     0.177 C 
ATOM     24  C   UNL     1      16.811  17.387  45.315  1.00  0.00     0.176 C 
ATOM     25  C   UNL     1      17.093  18.139  43.991  1.00  0.00     0.177 C 
BRANCH  21  26
ATOM     26  O   UNL     1      14.299  17.787  42.850  1.00  0.00    -0.387 OA
ATOM     27  H   UNL     1      14.601  18.334  42.078  1.00  0.00     0.211 HD
ENDBRANCH  21  26
BRANCH  23  28
ATOM     28  O   UNL     1      16.843  17.881  41.571  1.00  0.00    -0.387 OA
ATOM     29  H   UNL     1      16.454  17.305  40.863  1.00  0.00     0.211 HD
ENDBRANCH  23  28
BRANCH  24  30
ATOM     30  C   UNL     1      17.208  18.213  46.546  1.00  0.00     0.191 C 
BRANCH  30  31
ATOM     31  O   UNL     1      16.086  18.841  47.104  1.00  0.00    -0.394 OA
ATOM     32  H   UNL     1      16.236  19.816  47.000  1.00  0.00     0.210 HD
ENDBRANCH  30  31
ENDBRANCH  24  30
BRANCH  25  33
ATOM     33  O   UNL     1      16.382  19.352  43.955  1.00  0.00    -0.388 OA
ATOM     34  H   UNL     1      16.094  19.496  43.015  1.00  0.00     0.211 HD
ENDBRANCH  25  33
ENDBRANCH  11  20
BRANCH  10  35
ATOM     35  O   UNL     1      12.884  17.818  45.430  1.00  0.00    -0.507 OA
ATOM     36  H   UNL     1      12.682  18.608  44.834  1.00  0.00     0.293 HD
ENDBRANCH  10  35
TORSDOF 9
ENDMDL
MODEL 7
REMARK VINA RESULT:    -5.825      9.302     11.607
REMARK INTER + INTRA:          -8.420
REMARK INTER:                  -7.419
REMARK INTRA:                  -1.001
REMARK UNBOUND:                -0.552
REMARK SMILES O=c1c(-c2ccc(O)cc2)coc2c([C@@H]3O[C@H](CO)[C@H](O)[C@H](O)[C@@H]3O)c(O)ccc12
REMARK SMILES IDX 3 1 11 2 12 3 13 4 30 5 2 6 1 7 29 8 28 9 26 10 14 11 4 12
REMARK SMILES IDX 5 13 6 14 7 15 10 16 9 17 8 18 15 20 24 21 16 22 22 23 17 24
REMARK SMILES IDX 20 25 25 26 23 28 18 30 19 31 21 33 27 35
REMARK H PARENT 8 19 25 27 23 29 19 32 21 34 27 36
REMARK Flexibility Score: inf
ROOT
ATOM      1  C   UNL     1       5.645   9.658  35.165  1.00  0.00     0.065 A 
ATOM      2  C   UNL     1       6.380   9.707  36.357  1.00  0.00     0.208 A 
ATOM      3  O   UNL     1       5.770   9.836  37.528  1.00  0.00    -0.463 OA
ATOM      4  C   UNL     1       4.448   9.928  37.659  1.00  0.00     0.147 A 
ATOM      5  C   UNL     1       3.631   9.881  36.506  1.00  0.00     0.066 A 
ATOM      6  C   UNL     1       4.245   9.756  35.246  1.00  0.00     0.200 A 
ATOM      7  O   UNL     1       3.546   9.748  34.194  1.00  0.00    -0.288 OA
ATOM      8  C   UNL     1       2.238   9.959  36.640  1.00  0.00     0.020 A 
ATOM      9  C   UNL     1       1.659  10.045  37.903  1.00  0.00     0.047 A 
ATOM     10  C   UNL     1       2.449  10.073  39.055  1.00  0.00     0.125 A 
ATOM     11  C   UNL     1       3.866  10.067  38.948  1.00  0.00     0.069 A 
ENDROOT
BRANCH   1  12
ATOM     12  C   UNL     1       6.351   9.510  33.867  1.00  0.00    -0.011 A 
ATOM     13  C   UNL     1       7.297  10.467  33.460  1.00  0.00     0.013 A 
ATOM     14  C   UNL     1       7.969  10.325  32.243  1.00  0.00     0.047 A 
ATOM     15  C   UNL     1       7.709   9.225  31.420  1.00  0.00     0.115 A 
ATOM     16  C   UNL     1       6.099   8.403  33.037  1.00  0.00     0.013 A 
ATOM     17  C   UNL     1       6.773   8.263  31.820  1.00  0.00     0.047 A 
BRANCH  15  18
ATOM     18  O   UNL     1       8.386   9.098  30.209  1.00  0.00    -0.508 OA
ATOM     19  H   UNL     1       9.042   9.803  29.892  1.00  0.00     0.293 HD
ENDBRANCH  15  18
ENDBRANCH   1  12
BRANCH  11  20
ATOM     20  C   UNL     1       4.746  10.156  40.194  1.00  0.00     0.188 C 
ATOM     21  C   UNL     1       4.998  11.635  40.571  1.00  0.00     0.179 C 
ATOM     22  O   UNL     1       4.151   9.451  41.275  1.00  0.00    -0.362 OA
ATOM     23  C   UNL     1       5.873  11.691  41.842  1.00  0.00     0.177 C 
ATOM     24  C   UNL     1       5.025   9.391  42.391  1.00  0.00     0.176 C 
ATOM     25  C   UNL     1       5.285  10.806  42.962  1.00  0.00     0.177 C 
BRANCH  21  26
ATOM     26  O   UNL     1       3.770  12.287  40.785  1.00  0.00    -0.387 OA
ATOM     27  H   UNL     1       3.473  12.648  39.909  1.00  0.00     0.211 HD
ENDBRANCH  21  26
BRANCH  23  28
ATOM     28  O   UNL     1       6.087  13.013  42.274  1.00  0.00    -0.387 OA
ATOM     29  H   UNL     1       6.227  13.584  41.475  1.00  0.00     0.211 HD
ENDBRANCH  23  28
BRANCH  24  30
ATOM     30  C   UNL     1       4.437   8.441  43.443  1.00  0.00     0.191 C 
BRANCH  30  31
ATOM     31  O   UNL     1       3.048   8.603  43.535  1.00  0.00    -0.394 OA
ATOM     32  H   UNL     1       2.706   7.796  43.998  1.00  0.00     0.210 HD
ENDBRANCH  30  31
ENDBRANCH  24  30
BRANCH  25  33
ATOM     33  O   UNL     1       4.089  11.369  43.443  1.00  0.00    -0.388 OA
ATOM     34  H   UNL     1       4.297  11.803  44.312  1.00  0.00     0.211 HD
ENDBRANCH  25  33
ENDBRANCH  11  20
BRANCH  10  35
ATOM     35  O   UNL     1       1.781  10.090  40.284  1.00  0.00    -0.507 OA
ATOM     36  H   UNL     1       1.399  10.922  40.712  1.00  0.00     0.293 HD
ENDBRANCH  10  35
TORSDOF 9
ENDMDL
MODEL 8
REMARK VINA RESULT:    -5.772      2.140      5.073
REMARK INTER + INTRA:          -8.348
REMARK INTER:                  -7.755
REMARK INTRA:                  -0.594
REMARK UNBOUND:                -0.552
REMARK SMILES O=c1c(-c2ccc(O)cc2)coc2c([C@@H]3O[C@H](CO)[C@H](O)[C@H](O)[C@@H]3O)c(O)ccc12
REMARK SMILES IDX 3 1 11 2 12 3 13 4 30 5 2 6 1 7 29 8 28 9 26 10 14 11 4 12
REMARK SMILES IDX 5 13 6 14 7 15 10 16 9 17 8 18 15 20 24 21 16 22 22 23 17 24
REMARK SMILES IDX 20 25 25 26 23 28 18 30 19 31 21 33 27 35
REMARK H PARENT 8 19 25 27 23 29 19 32 21 34 27 36
REMARK Flexibility Score: inf
ROOT
ATOM      1  C   UNL     1      12.269  12.381  43.585  1.00  0.00     0.065 A 
ATOM      2  C   UNL     1      13.515  13.021  43.601  1.00  0.00     0.208 A 
ATOM      3  O   UNL     1      13.602  14.341  43.706  1.00  0.00    -0.463 OA
ATOM      4  C   UNL     1      12.541  15.139  43.801  1.00  0.00     0.147 A 
ATOM      5  C   UNL     1      11.244  14.575  43.799  1.00  0.00     0.066 A 
ATOM      6  C   UNL     1      11.115  13.178  43.677  1.00  0.00     0.200 A 
ATOM      7  O   UNL     1       9.970  12.646  43.635  1.00  0.00    -0.288 OA
ATOM      8  C   UNL     1      10.125  15.409  43.917  1.00  0.00     0.020 A 
ATOM      9  C   UNL     1      10.288  16.783  44.071  1.00  0.00     0.047 A 
ATOM     10  C   UNL     1      11.561  17.357  44.096  1.00  0.00     0.125 A 
ATOM     11  C   UNL     1      12.713  16.546  43.907  1.00  0.00     0.069 A 
ENDROOT
BRANCH   1  12
ATOM     12  C   UNL     1      12.198  10.903  43.470  1.00  0.00    -0.011 A 
ATOM     13  C   UNL     1      11.776  10.303  42.271  1.00  0.00     0.013 A 
ATOM     14  C   UNL     1      11.717   8.912  42.157  1.00  0.00     0.047 A 
ATOM     15  C   UNL     1      12.083   8.101  43.236  1.00  0.00     0.115 A 
ATOM     16  C   UNL     1      12.572  10.081  44.549  1.00  0.00     0.013 A 
ATOM     17  C   UNL     1      12.512   8.690  44.433  1.00  0.00     0.047 A 
BRANCH  15  18
ATOM     18  O   UNL     1      12.018   6.716  43.108  1.00  0.00    -0.508 OA
ATOM     19  H   UNL     1      11.692   6.128  43.868  1.00  0.00     0.293 HD
ENDBRANCH  15  18
ENDBRANCH   1  12
BRANCH  11  20
ATOM     20  C   UNL     1      14.109  17.164  43.873  1.00  0.00     0.188 C 
ATOM     21  C   UNL     1      14.696  17.248  45.302  1.00  0.00     0.179 C 
ATOM     22  O   UNL     1      14.964  16.418  43.016  1.00  0.00    -0.362 OA
ATOM     23  C   UNL     1      16.113  17.859  45.232  1.00  0.00     0.177 C 
ATOM     24  C   UNL     1      16.215  17.065  42.852  1.00  0.00     0.176 C 
ATOM     25  C   UNL     1      16.986  17.124  44.193  1.00  0.00     0.177 C 
BRANCH  21  26
ATOM     26  O   UNL     1      14.738  15.964  45.876  1.00  0.00    -0.387 OA
ATOM     27  H   UNL     1      15.336  16.015  46.666  1.00  0.00     0.211 HD
ENDBRANCH  21  26
BRANCH  23  28
ATOM     28  O   UNL     1      16.727  17.905  46.498  1.00  0.00    -0.387 OA
ATOM     29  H   UNL     1      16.054  17.655  47.182  1.00  0.00     0.211 HD
ENDBRANCH  23  28
BRANCH  24  30
ATOM     30  C   UNL     1      17.015  16.346  41.756  1.00  0.00     0.191 C 
BRANCH  30  31
ATOM     31  O   UNL     1      16.811  14.961  41.823  1.00  0.00    -0.394 OA
ATOM     32  H   UNL     1      16.078  14.759  41.187  1.00  0.00     0.210 HD
ENDBRANCH  30  31
ENDBRANCH  24  30
BRANCH  25  33
ATOM     33  O   UNL     1      17.283  15.826  44.646  1.00  0.00    -0.388 OA
ATOM     34  H   UNL     1      18.242  15.816  44.905  1.00  0.00     0.211 HD
ENDBRANCH  25  33
ENDBRANCH  11  20
BRANCH  10  35
ATOM     35  O   UNL     1      11.632  18.735  44.325  1.00  0.00    -0.507 OA
ATOM     36  H   UNL     1      11.190  19.206  45.102  1.00  0.00     0.293 HD
ENDBRANCH  10  35
TORSDOF 9
ENDMDL
MODEL 9
REMARK VINA RESULT:    -5.701      2.476      5.204
REMARK INTER + INTRA:          -8.252
REMARK INTER:                  -7.254
REMARK INTRA:                  -0.998
REMARK UNBOUND:                -0.552
REMARK SMILES O=c1c(-c2ccc(O)cc2)coc2c([C@@H]3O[C@H](CO)[C@H](O)[C@H](O)[C@@H]3O)c(O)ccc12
REMARK SMILES IDX 3 1 11 2 12 3 13 4 30 5 2 6 1 7 29 8 28 9 26 10 14 11 4 12
REMARK SMILES IDX 5 13 6 14 7 15 10 16 9 17 8 18 15 20 24 21 16 22 22 23 17 24
REMARK SMILES IDX 20 25 25 26 23 28 18 30 19 31 21 33 27 35
REMARK H PARENT 8 19 25 27 23 29 19 32 21 34 27 36
REMARK Flexibility Score: inf
ROOT
ATOM      1  C   UNL     1      11.141  12.665  43.013  1.00  0.00     0.065 A 
ATOM      2  C   UNL     1      12.521  12.824  42.832  1.00  0.00     0.208 A 
ATOM      3  O   UNL     1      13.158  13.874  43.336  1.00  0.00    -0.463 OA
ATOM      4  C   UNL     1      12.552  14.832  44.032  1.00  0.00     0.147 A 
ATOM      5  C   UNL     1      11.160  14.747  44.267  1.00  0.00     0.066 A 
ATOM      6  C   UNL     1      10.451  13.652  43.737  1.00  0.00     0.200 A 
ATOM      7  O   UNL     1       9.201  13.565  43.898  1.00  0.00    -0.288 OA
ATOM      8  C   UNL     1      10.520  15.743  45.015  1.00  0.00     0.020 A 
ATOM      9  C   UNL     1      11.256  16.794  45.557  1.00  0.00     0.047 A 
ATOM     10  C   UNL     1      12.635  16.886  45.353  1.00  0.00     0.125 A 
ATOM     11  C   UNL     1      13.300  15.929  44.539  1.00  0.00     0.069 A 
ENDROOT
BRANCH   1  12
ATOM     12  C   UNL     1      10.452  11.480  42.442  1.00  0.00    -0.011 A 
ATOM     13  C   UNL     1       9.571  11.626  41.356  1.00  0.00     0.013 A 
ATOM     14  C   UNL     1       8.928  10.511  40.812  1.00  0.00     0.047 A 
ATOM     15  C   UNL     1       9.159   9.237  41.340  1.00  0.00     0.115 A 
ATOM     16  C   UNL     1      10.685  10.195  42.964  1.00  0.00     0.013 A 
ATOM     17  C   UNL     1      10.041   9.082  42.417  1.00  0.00     0.047 A 
BRANCH  15  18
ATOM     18  O   UNL     1       8.511   8.135  40.787  1.00  0.00    -0.508 OA
ATOM     19  H   UNL     1       8.629   7.886  39.811  1.00  0.00     0.293 HD
ENDBRANCH  15  18
ENDBRANCH   1  12
BRANCH  11  20
ATOM     20  C   UNL     1      14.797  16.046  44.257  1.00  0.00     0.188 C 
ATOM     21  C   UNL     1      15.038  16.808  42.933  1.00  0.00     0.179 C 
ATOM     22  O   UNL     1      15.458  16.688  45.340  1.00  0.00    -0.362 OA
ATOM     23  C   UNL     1      16.557  16.926  42.686  1.00  0.00     0.177 C 
ATOM     24  C   UNL     1      16.866  16.666  45.165  1.00  0.00     0.176 C 
ATOM     25  C   UNL     1      17.281  17.495  43.925  1.00  0.00     0.177 C 
BRANCH  21  26
ATOM     26  O   UNL     1      14.446  18.083  43.002  1.00  0.00    -0.387 OA
ATOM     27  H   UNL     1      13.993  18.243  42.134  1.00  0.00     0.211 HD
ENDBRANCH  21  26
BRANCH  23  28
ATOM     28  O   UNL     1      16.844  17.665  41.523  1.00  0.00    -0.387 OA
ATOM     29  H   UNL     1      17.159  18.566  41.794  1.00  0.00     0.211 HD
ENDBRANCH  23  28
BRANCH  24  30
ATOM     30  C   UNL     1      17.542  17.167  46.449  1.00  0.00     0.191 C 
BRANCH  30  31
ATOM     31  O   UNL     1      16.738  18.117  47.093  1.00  0.00    -0.394 OA
ATOM     32  H   UNL     1      16.517  17.734  47.981  1.00  0.00     0.210 HD
ENDBRANCH  30  31
ENDBRANCH  24  30
BRANCH  25  33
ATOM     33  O   UNL     1      16.938  18.848  44.103  1.00  0.00    -0.388 OA
ATOM     34  H   UNL     1      16.087  19.003  43.615  1.00  0.00     0.211 HD
ENDBRANCH  25  33
ENDBRANCH  11  20
BRANCH  10  35
ATOM     35  O   UNL     1      13.303  17.936  45.991  1.00  0.00    -0.507 OA
ATOM     36  H   UNL     1      14.284  18.144  45.868  1.00  0.00     0.293 HD
ENDBRANCH  10  35
TORSDOF 9
ENDMDL
