MODEL 1
REMARK VINA RESULT:    -3.202      0.000      0.000
REMARK INTER + INTRA:          -5.243
REMARK INTER:                  -4.887
REMARK INTRA:                  -0.356
REMARK UNBOUND:                -0.356
REMARK SMILES CC1=CCC[C@@H](C)C(=O)C[C@H](C(C)C)C(=O)C1
REMARK SMILES IDX 8 1 9 2 6 3 7 4 5 5 4 6 3 7 2 8 1 9 10 11 11 12 15 13 16 14
REMARK SMILES IDX 17 15 12 17 13 18 14 19
REMARK H PARENT
REMARK Flexibility Score: 70.00
ROOT
ATOM      1  C   UNL     1      -0.421  -3.264   4.741  1.00  0.00     0.136 C 
ATOM      2  O   UNL     1       0.001  -3.931   5.675  1.00  0.00    -0.299 OA
ENDROOT
BRANCH   1   3
ATOM      3  C   UNL     1      -0.683  -1.784   4.927  1.00  0.00     0.053 C 
ATOM      4  C   UNL     1       0.567  -1.116   5.507  1.00  0.00     0.016 C 
BRANCH   3   5
ATOM      5  C   UNL     1      -1.902  -1.526   5.843  1.00  0.00     0.015 C 
BRANCH   5   6
ATOM      6  C   UNL     1      -3.226  -1.402   5.073  1.00  0.00     0.028 C 
BRANCH   6   7
ATOM      7  C   UNL     1      -3.022  -0.731   3.736  1.00  0.00    -0.028 C 
ATOM      8  C   UNL     1      -3.315  -1.266   2.529  1.00  0.00    -0.070 CG0
ATOM      9  C   UNL     1      -3.032  -0.438   1.301  1.00  0.00     0.039 C 
ATOM     10  G   UNL     1      -3.876  -2.665   2.351  1.00  0.00     0.000 G0
ENDBRANCH   6   7
ENDBRANCH   5   6
ENDBRANCH   3   5
ENDBRANCH   1   3
BRANCH   1  11
ATOM     11  C   UNL     1      -0.630  -3.929   3.405  1.00  0.00     0.087 C 
BRANCH  11  12
ATOM     12  C   UNL     1      -2.090  -4.422   3.228  1.00  0.00     0.066 C 
BRANCH  12  13
ATOM     13  C   UNL     1      -2.738  -3.661   2.081  1.00  0.00     0.140 C 
ATOM     14  O   UNL     1      -2.396  -3.904   0.931  1.00  0.00    -0.299 OA
BRANCH  13  15
ATOM     15  C   UNL     1      -3.859  -2.682   2.319  1.00  0.00     0.106 CG0
ATOM     16  G   UNL     1      -3.321  -1.281   2.535  1.00  0.00     0.000 G0
ENDBRANCH  13  15
ENDBRANCH  12  13
BRANCH  12  17
ATOM     17  C   UNL     1      -2.171  -5.964   2.973  1.00  0.00    -0.006 C 
ATOM     18  C   UNL     1      -1.310  -6.764   3.970  1.00  0.00     0.008 C 
ATOM     19  C   UNL     1      -3.623  -6.475   3.064  1.00  0.00     0.008 C 
ENDBRANCH  12  17
ENDBRANCH  11  12
ENDBRANCH   1  11
TORSDOF 1
ENDMDL
MODEL 2
REMARK VINA RESULT:    -3.190      4.258      5.157
REMARK INTER + INTRA:          -5.224
REMARK INTER:                  -4.963
REMARK INTRA:                  -0.261
REMARK UNBOUND:                -0.356
REMARK SMILES CC1=CCC[C@@H](C)C(=O)C[C@H](C(C)C)C(=O)C1
REMARK SMILES IDX 8 1 9 2 6 3 7 4 5 5 4 6 3 7 2 8 1 9 10 11 11 12 15 13 16 14
REMARK SMILES IDX 17 15 12 17 13 18 14 19
REMARK H PARENT
REMARK Flexibility Score: 70.00
ROOT
ATOM      1  C   UNL     1       2.335  -0.609   6.857  1.00  0.00     0.136 C 
ATOM      2  O   UNL     1       3.496  -0.850   7.160  1.00  0.00    -0.299 OA
ENDROOT
BRANCH   1   3
ATOM      3  C   UNL     1       1.706   0.706   7.264  1.00  0.00     0.053 C 
ATOM      4  C   UNL     1       2.588   1.862   6.780  1.00  0.00     0.016 C 
BRANCH   3   5
ATOM      5  C   UNL     1       1.497   0.797   8.793  1.00  0.00     0.015 C 
BRANCH   5   6
ATOM      6  C   UNL     1       0.107   0.322   9.246  1.00  0.00     0.028 C 
BRANCH   6   7
ATOM      7  C   UNL     1      -0.975   0.837   8.327  1.00  0.00    -0.028 C 
ATOM      8  C   UNL     1      -1.836   0.076   7.615  1.00  0.00    -0.070 CG0
ATOM      9  C   UNL     1      -2.846   0.780   6.744  1.00  0.00     0.039 C 
ATOM     10  G   UNL     1      -1.810  -1.440   7.619  1.00  0.00     0.000 G0
ENDBRANCH   6   7
ENDBRANCH   5   6
ENDBRANCH   3   5
ENDBRANCH   1   3
BRANCH   1  11
ATOM     11  C   UNL     1       1.569  -1.619   6.042  1.00  0.00     0.087 C 
BRANCH  11  12
ATOM     12  C   UNL     1       0.558  -2.414   6.910  1.00  0.00     0.066 C 
BRANCH  12  13
ATOM     13  C   UNL     1      -0.855  -1.976   6.555  1.00  0.00     0.140 C 
ATOM     14  O   UNL     1      -1.259  -2.124   5.409  1.00  0.00    -0.299 OA
BRANCH  13  15
ATOM     15  C   UNL     1      -1.803  -1.451   7.603  1.00  0.00     0.106 CG0
ATOM     16  G   UNL     1      -1.828   0.066   7.604  1.00  0.00     0.000 G0
ENDBRANCH  13  15
ENDBRANCH  12  13
BRANCH  12  17
ATOM     17  C   UNL     1       0.709  -3.961   6.733  1.00  0.00    -0.006 C 
ATOM     18  C   UNL     1       1.927  -4.330   5.863  1.00  0.00     0.008 C 
ATOM     19  C   UNL     1       0.848  -4.673   8.094  1.00  0.00     0.008 C 
ENDBRANCH  12  17
ENDBRANCH  11  12
ENDBRANCH   1  11
TORSDOF 1
ENDMDL
MODEL 3
REMARK VINA RESULT:    -2.996      1.758      2.185
REMARK INTER + INTRA:          -4.928
REMARK INTER:                  -4.661
REMARK INTRA:                  -0.267
REMARK UNBOUND:                -0.356
REMARK SMILES CC1=CCC[C@@H](C)C(=O)C[C@H](C(C)C)C(=O)C1
REMARK SMILES IDX 8 1 9 2 6 3 7 4 5 5 4 6 3 7 2 8 1 9 10 11 11 12 15 13 16 14
REMARK SMILES IDX 17 15 12 17 13 18 14 19
REMARK H PARENT
REMARK Flexibility Score: 70.00
ROOT
ATOM      1  C   UNL     1       0.312  -4.891   5.619  1.00  0.00     0.136 C 
ATOM      2  O   UNL     1       0.218  -5.817   6.414  1.00  0.00    -0.299 OA
ENDROOT
BRANCH   1   3
ATOM      3  C   UNL     1       0.700  -3.512   6.109  1.00  0.00     0.053 C 
ATOM      4  C   UNL     1       2.038  -3.594   6.850  1.00  0.00     0.016 C 
BRANCH   3   5
ATOM      5  C   UNL     1      -0.383  -2.900   7.027  1.00  0.00     0.015 C 
BRANCH   5   6
ATOM      6  C   UNL     1      -1.317  -1.923   6.297  1.00  0.00     0.028 C 
BRANCH   6   7
ATOM      7  C   UNL     1      -0.598  -1.208   5.179  1.00  0.00    -0.028 C 
ATOM      8  C   UNL     1      -0.871  -1.326   3.860  1.00  0.00    -0.070 CG0
ATOM      9  C   UNL     1      -0.032  -0.532   2.891  1.00  0.00     0.039 C 
ATOM     10  G   UNL     1      -1.948  -2.242   3.309  1.00  0.00     0.000 G0
ENDBRANCH   6   7
ENDBRANCH   5   6
ENDBRANCH   3   5
ENDBRANCH   1   3
BRANCH   1  11
ATOM     11  C   UNL     1       0.079  -5.160   4.155  1.00  0.00     0.087 C 
BRANCH  11  12
ATOM     12  C   UNL     1      -1.368  -4.803   3.725  1.00  0.00     0.066 C 
BRANCH  12  13
ATOM     13  C   UNL     1      -1.336  -3.563   2.845  1.00  0.00     0.140 C 
ATOM     14  O   UNL     1      -0.885  -3.645   1.710  1.00  0.00    -0.299 OA
BRANCH  13  15
ATOM     15  C   UNL     1      -1.932  -2.256   3.302  1.00  0.00     0.106 CG0
ATOM     16  G   UNL     1      -0.865  -1.338   3.866  1.00  0.00     0.000 G0
ENDBRANCH  13  15
ENDBRANCH  12  13
BRANCH  12  17
ATOM     17  C   UNL     1      -2.076  -5.982   2.980  1.00  0.00    -0.006 C 
ATOM     18  C   UNL     1      -1.825  -7.339   3.667  1.00  0.00     0.008 C 
ATOM     19  C   UNL     1      -3.598  -5.758   2.886  1.00  0.00     0.008 C 
ENDBRANCH  12  17
ENDBRANCH  11  12
ENDBRANCH   1  11
TORSDOF 1
ENDMDL
MODEL 4
REMARK VINA RESULT:    -2.923      4.914      7.328
REMARK INTER + INTRA:          -4.818
REMARK INTER:                  -4.535
REMARK INTRA:                  -0.283
REMARK UNBOUND:                -0.356
REMARK SMILES CC1=CCC[C@@H](C)C(=O)C[C@H](C(C)C)C(=O)C1
REMARK SMILES IDX 8 1 9 2 6 3 7 4 5 5 4 6 3 7 2 8 1 9 10 11 11 12 15 13 16 14
REMARK SMILES IDX 17 15 12 17 13 18 14 19
REMARK H PARENT
REMARK Flexibility Score: 70.00
ROOT
ATOM      1  C   UNL     1      -3.837   4.292   5.330  1.00  0.00     0.136 C 
ATOM      2  O   UNL     1      -3.638   5.370   5.873  1.00  0.00    -0.299 OA
ENDROOT
BRANCH   1   3
ATOM      3  C   UNL     1      -4.255   3.095   6.159  1.00  0.00     0.053 C 
ATOM      4  C   UNL     1      -5.491   3.458   6.987  1.00  0.00     0.016 C 
BRANCH   3   5
ATOM      5  C   UNL     1      -3.115   2.608   7.084  1.00  0.00     0.015 C 
BRANCH   5   6
ATOM      6  C   UNL     1      -2.305   1.446   6.489  1.00  0.00     0.028 C 
BRANCH   6   7
ATOM      7  C   UNL     1      -3.128   0.648   5.507  1.00  0.00    -0.028 C 
ATOM      8  C   UNL     1      -2.893   0.544   4.179  1.00  0.00    -0.070 CG0
ATOM      9  C   UNL     1      -3.838  -0.298   3.359  1.00  0.00     0.039 C 
ATOM     10  G   UNL     1      -1.756   1.258   3.474  1.00  0.00     0.000 G0
ENDBRANCH   6   7
ENDBRANCH   5   6
ENDBRANCH   3   5
ENDBRANCH   1   3
BRANCH   1  11
ATOM     11  C   UNL     1      -3.699   4.191   3.833  1.00  0.00     0.087 C 
BRANCH  11  12
ATOM     12  C   UNL     1      -2.245   3.863   3.407  1.00  0.00     0.066 C 
BRANCH  12  13
ATOM     13  C   UNL     1      -2.218   2.497   2.739  1.00  0.00     0.140 C 
ATOM     14  O   UNL     1      -2.510   2.402   1.554  1.00  0.00    -0.299 OA
BRANCH  13  15
ATOM     15  C   UNL     1      -1.746   1.269   3.475  1.00  0.00     0.106 CG0
ATOM     16  G   UNL     1      -2.902   0.572   4.168  1.00  0.00     0.000 G0
ENDBRANCH  13  15
ENDBRANCH  12  13
BRANCH  12  17
ATOM     17  C   UNL     1      -1.644   4.948   2.454  1.00  0.00    -0.006 C 
ATOM     18  C   UNL     1      -1.984   6.379   2.914  1.00  0.00     0.008 C 
ATOM     19  C   UNL     1      -0.111   4.820   2.348  1.00  0.00     0.008 C 
ENDBRANCH  12  17
ENDBRANCH  11  12
ENDBRANCH   1  11
TORSDOF 1
ENDMDL
MODEL 5
REMARK VINA RESULT:    -2.909     14.105     16.757
REMARK INTER + INTRA:          -4.795
REMARK INTER:                  -4.521
REMARK INTRA:                  -0.274
REMARK UNBOUND:                -0.356
REMARK SMILES CC1=CCC[C@@H](C)C(=O)C[C@H](C(C)C)C(=O)C1
REMARK SMILES IDX 8 1 9 2 6 3 7 4 5 5 4 6 3 7 2 8 1 9 10 11 11 12 15 13 16 14
REMARK SMILES IDX 17 15 12 17 13 18 14 19
REMARK H PARENT
REMARK Flexibility Score: 70.00
ROOT
ATOM      1  C   UNL     1       2.745   2.982  16.780  1.00  0.00     0.136 C 
ATOM      2  O   UNL     1       3.133   3.755  15.915  1.00  0.00    -0.299 OA
ENDROOT
BRANCH   1   3
ATOM      3  C   UNL     1       2.243   1.606  16.394  1.00  0.00     0.053 C 
ATOM      4  C   UNL     1       3.332   0.872  15.606  1.00  0.00     0.016 C 
BRANCH   3   5
ATOM      5  C   UNL     1       0.940   1.679  15.565  1.00  0.00     0.015 C 
BRANCH   5   6
ATOM      6  C   UNL     1      -0.330   1.499  16.413  1.00  0.00     0.028 C 
BRANCH   6   7
ATOM      7  C   UNL     1      -0.115   0.489  17.515  1.00  0.00    -0.028 C 
ATOM      8  C   UNL     1      -0.169   0.745  18.842  1.00  0.00    -0.070 CG0
ATOM      9  C   UNL     1       0.082  -0.399  19.792  1.00  0.00     0.039 C 
ATOM     10  G   UNL     1      -0.431   2.124  19.417  1.00  0.00     0.000 G0
ENDBRANCH   6   7
ENDBRANCH   5   6
ENDBRANCH   3   5
ENDBRANCH   1   3
BRANCH   1  11
ATOM     11  C   UNL     1       2.815   3.407  18.224  1.00  0.00     0.087 C 
BRANCH  11  12
ATOM     12  C   UNL     1       1.439   3.890  18.752  1.00  0.00     0.066 C 
BRANCH  12  13
ATOM     13  C   UNL     1       0.878   2.848  19.707  1.00  0.00     0.140 C 
ATOM     14  O   UNL     1       1.447   2.641  20.770  1.00  0.00    -0.299 OA
BRANCH  13  15
ATOM     15  C   UNL     1      -0.416   2.132  19.419  1.00  0.00     0.106 CG0
ATOM     16  G   UNL     1      -0.159   0.750  18.849  1.00  0.00     0.000 G0
ENDBRANCH  13  15
ENDBRANCH  12  13
BRANCH  12  17
ATOM     17  C   UNL     1       1.529   5.284  19.457  1.00  0.00    -0.006 C 
ATOM     18  C   UNL     1       2.538   6.222  18.766  1.00  0.00     0.008 C 
ATOM     19  C   UNL     1       0.157   5.986  19.494  1.00  0.00     0.008 C 
ENDBRANCH  12  17
ENDBRANCH  11  12
ENDBRANCH   1  11
TORSDOF 1
ENDMDL
MODEL 6
REMARK VINA RESULT:    -2.812      3.288      5.112
REMARK INTER + INTRA:          -4.647
REMARK INTER:                  -4.482
REMARK INTRA:                  -0.165
REMARK UNBOUND:                -0.356
REMARK SMILES CC1=CCC[C@@H](C)C(=O)C[C@H](C(C)C)C(=O)C1
REMARK SMILES IDX 8 1 9 2 6 3 7 4 5 5 4 6 3 7 2 8 1 9 10 11 11 12 15 13 16 14
REMARK SMILES IDX 17 15 12 17 13 18 14 19
REMARK H PARENT
REMARK Flexibility Score: 70.00
ROOT
ATOM      1  C   UNL     1      -0.011   1.138   7.890  1.00  0.00     0.136 C 
ATOM      2  O   UNL     1       0.596   1.680   8.804  1.00  0.00    -0.299 OA
ENDROOT
BRANCH   1   3
ATOM      3  C   UNL     1      -1.508   0.937   7.992  1.00  0.00     0.053 C 
ATOM      4  C   UNL     1      -2.159   2.225   8.507  1.00  0.00     0.016 C 
BRANCH   3   5
ATOM      5  C   UNL     1      -1.869  -0.251   8.915  1.00  0.00     0.015 C 
BRANCH   5   6
ATOM      6  C   UNL     1      -2.577  -1.398   8.178  1.00  0.00     0.028 C 
BRANCH   6   7
ATOM      7  C   UNL     1      -3.175  -0.928   6.874  1.00  0.00    -0.028 C 
ATOM      8  C   UNL     1      -2.690  -1.192   5.640  1.00  0.00    -0.070 CG0
ATOM      9  C   UNL     1      -3.428  -0.624   4.454  1.00  0.00     0.039 C 
ATOM     10  G   UNL     1      -1.427  -1.995   5.394  1.00  0.00     0.000 G0
ENDBRANCH   6   7
ENDBRANCH   5   6
ENDBRANCH   3   5
ENDBRANCH   1   3
BRANCH   1  11
ATOM     11  C   UNL     1       0.748   0.720   6.657  1.00  0.00     0.087 C 
BRANCH  11  12
ATOM     12  C   UNL     1       0.679  -0.812   6.428  1.00  0.00     0.066 C 
BRANCH  12  13
ATOM     13  C   UNL     1      -0.228  -1.099   5.241  1.00  0.00     0.140 C 
ATOM     14  O   UNL     1       0.066  -0.653   4.140  1.00  0.00    -0.299 OA
BRANCH  13  15
ATOM     15  C   UNL     1      -1.430  -1.999   5.367  1.00  0.00     0.106 CG0
ATOM     16  G   UNL     1      -2.687  -1.195   5.643  1.00  0.00     0.000 G0
ENDBRANCH  13  15
ENDBRANCH  12  13
BRANCH  12  17
ATOM     17  C   UNL     1       2.092  -1.444   6.199  1.00  0.00    -0.006 C 
ATOM     18  C   UNL     1       3.191  -0.716   6.997  1.00  0.00     0.008 C 
ATOM     19  C   UNL     1       2.113  -2.935   6.589  1.00  0.00     0.008 C 
ENDBRANCH  12  17
ENDBRANCH  11  12
ENDBRANCH   1  11
TORSDOF 1
ENDMDL
MODEL 7
REMARK VINA RESULT:    -2.780     13.640     15.702
REMARK INTER + INTRA:          -4.599
REMARK INTER:                  -4.293
REMARK INTRA:                  -0.306
REMARK UNBOUND:                -0.356
REMARK SMILES CC1=CCC[C@@H](C)C(=O)C[C@H](C(C)C)C(=O)C1
REMARK SMILES IDX 8 1 9 2 6 3 7 4 5 5 4 6 3 7 2 8 1 9 10 11 11 12 15 13 16 14
REMARK SMILES IDX 17 15 12 17 13 18 14 19
REMARK H PARENT
REMARK Flexibility Score: 70.00
ROOT
ATOM      1  C   UNL     1       1.967  -3.219  18.795  1.00  0.00     0.136 C 
ATOM      2  O   UNL     1       2.189  -4.344  18.368  1.00  0.00    -0.299 OA
ENDROOT
BRANCH   1   3
ATOM      3  C   UNL     1       1.695  -3.011  20.270  1.00  0.00     0.053 C 
ATOM      4  C   UNL     1       2.938  -3.404  21.076  1.00  0.00     0.016 C 
BRANCH   3   5
ATOM      5  C   UNL     1       0.468  -3.819  20.750  1.00  0.00     0.015 C 
BRANCH   5   6
ATOM      6  C   UNL     1      -0.873  -3.170  20.373  1.00  0.00     0.028 C 
BRANCH   6   7
ATOM      7  C   UNL     1      -0.930  -1.729  20.822  1.00  0.00    -0.028 C 
ATOM      8  C   UNL     1      -1.146  -0.660  20.022  1.00  0.00    -0.070 CG0
ATOM      9  C   UNL     1      -1.160   0.707  20.659  1.00  0.00     0.039 C 
ATOM     10  G   UNL     1      -1.336  -0.765  18.521  1.00  0.00     0.000 G0
ENDBRANCH   6   7
ENDBRANCH   5   6
ENDBRANCH   3   5
ENDBRANCH   1   3
BRANCH   1  11
ATOM     11  C   UNL     1       2.013  -2.054  17.841  1.00  0.00     0.087 C 
BRANCH  11  12
ATOM     12  C   UNL     1       0.646  -1.822  17.146  1.00  0.00     0.066 C 
BRANCH  12  13
ATOM     13  C   UNL     1      -0.034  -0.616  17.774  1.00  0.00     0.140 C 
ATOM     14  O   UNL     1       0.447   0.498  17.612  1.00  0.00    -0.299 OA
BRANCH  13  15
ATOM     15  C   UNL     1      -1.342  -0.745  18.513  1.00  0.00     0.106 CG0
ATOM     16  G   UNL     1      -1.131  -0.658  20.013  1.00  0.00     0.000 G0
ENDBRANCH  13  15
ENDBRANCH  12  13
BRANCH  12  17
ATOM     17  C   UNL     1       0.790  -1.623  15.601  1.00  0.00    -0.006 C 
ATOM     18  C   UNL     1       1.740  -2.658  14.967  1.00  0.00     0.008 C 
ATOM     19  C   UNL     1      -0.575  -1.714  14.890  1.00  0.00     0.008 C 
ENDBRANCH  12  17
ENDBRANCH  11  12
ENDBRANCH   1  11
TORSDOF 1
ENDMDL
MODEL 8
REMARK VINA RESULT:    -2.773     13.080     15.312
REMARK INTER + INTRA:          -4.588
REMARK INTER:                  -4.504
REMARK INTRA:                  -0.084
REMARK UNBOUND:                -0.356
REMARK SMILES CC1=CCC[C@@H](C)C(=O)C[C@H](C(C)C)C(=O)C1
REMARK SMILES IDX 8 1 9 2 6 3 7 4 5 5 4 6 3 7 2 8 1 9 10 11 11 12 15 13 16 14
REMARK SMILES IDX 17 15 12 17 13 18 14 19
REMARK H PARENT
REMARK Flexibility Score: 70.00
ROOT
ATOM      1  C   UNL     1       1.716   1.782  18.810  1.00  0.00     0.136 C 
ATOM      2  O   UNL     1       2.421   2.518  19.486  1.00  0.00    -0.299 OA
ENDROOT
BRANCH   1   3
ATOM      3  C   UNL     1       1.019   0.602  19.455  1.00  0.00     0.053 C 
ATOM      4  C   UNL     1       0.195   1.092  20.650  1.00  0.00     0.016 C 
BRANCH   3   5
ATOM      5  C   UNL     1       2.023  -0.484  19.907  1.00  0.00     0.015 C 
BRANCH   5   6
ATOM      6  C   UNL     1       1.913  -1.787  19.099  1.00  0.00     0.028 C 
BRANCH   6   7
ATOM      7  C   UNL     1       0.747  -1.741  18.140  1.00  0.00    -0.028 C 
ATOM      8  C   UNL     1       0.817  -1.441  16.823  1.00  0.00    -0.070 CG0
ATOM      9  C   UNL     1      -0.466  -1.441  16.030  1.00  0.00     0.039 C 
ATOM     10  G   UNL     1       2.108  -1.072  16.119  1.00  0.00     0.000 G0
ENDBRANCH   6   7
ENDBRANCH   5   6
ENDBRANCH   3   5
ENDBRANCH   1   3
BRANCH   1  11
ATOM     11  C   UNL     1       1.523   2.094  17.349  1.00  0.00     0.087 C 
BRANCH  11  12
ATOM     12  C   UNL     1       2.650   1.485  16.474  1.00  0.00     0.066 C 
BRANCH  12  13
ATOM     13  C   UNL     1       2.072   0.360  15.629  1.00  0.00     0.140 C 
ATOM     14  O   UNL     1       1.644   0.608  14.510  1.00  0.00    -0.299 OA
BRANCH  13  15
ATOM     15  C   UNL     1       2.099  -1.072  16.100  1.00  0.00     0.106 CG0
ATOM     16  G   UNL     1       0.819  -1.430  16.831  1.00  0.00     0.000 G0
ENDBRANCH  13  15
ENDBRANCH  12  13
BRANCH  12  17
ATOM     17  C   UNL     1       3.338   2.553  15.561  1.00  0.00    -0.006 C 
ATOM     18  C   UNL     1       3.446   3.926  16.252  1.00  0.00     0.008 C 
ATOM     19  C   UNL     1       4.753   2.107  15.140  1.00  0.00     0.008 C 
ENDBRANCH  12  17
ENDBRANCH  11  12
ENDBRANCH   1  11
TORSDOF 1
ENDMDL
MODEL 9
REMARK VINA RESULT:    -2.768      2.076      4.021
REMARK INTER + INTRA:          -4.581
REMARK INTER:                  -4.813
REMARK INTRA:                   0.233
REMARK UNBOUND:                -0.356
REMARK SMILES CC1=CCC[C@@H](C)C(=O)C[C@H](C(C)C)C(=O)C1
REMARK SMILES IDX 8 1 9 2 6 3 7 4 5 5 4 6 3 7 2 8 1 9 10 11 11 12 15 13 16 14
REMARK SMILES IDX 17 15 12 17 13 18 14 19
REMARK H PARENT
REMARK Flexibility Score: 70.00
ROOT
ATOM      1  C   UNL     1      -5.386  -3.922   3.573  1.00  0.00     0.136 C 
ATOM      2  O   UNL     1      -5.750  -3.315   4.571  1.00  0.00    -0.299 OA
ENDROOT
BRANCH   1   3
ATOM      3  C   UNL     1      -6.250  -3.921   2.330  1.00  0.00     0.053 C 
ATOM      4  C   UNL     1      -6.527  -5.365   1.902  1.00  0.00     0.016 C 
BRANCH   3   5
ATOM      5  C   UNL     1      -5.593  -3.135   1.171  1.00  0.00     0.015 C 
BRANCH   5   6
ATOM      6  C   UNL     1      -5.531  -1.621   1.422  1.00  0.00     0.028 C 
BRANCH   6   7
ATOM      7  C   UNL     1      -4.182  -1.056   1.045  1.00  0.00    -0.028 C 
ATOM      8  C   UNL     1      -3.126  -0.910   1.877  1.00  0.00    -0.070 CG0
ATOM      9  C   UNL     1      -1.860  -0.317   1.313  1.00  0.00     0.039 C 
ATOM     10  G   UNL     1      -3.166  -1.274   3.349  1.00  0.00     0.000 G0
ENDBRANCH   6   7
ENDBRANCH   5   6
ENDBRANCH   3   5
ENDBRANCH   1   3
BRANCH   1  11
ATOM     11  C   UNL     1      -4.055  -4.628   3.594  1.00  0.00     0.087 C 
BRANCH  11  12
ATOM     12  C   UNL     1      -2.971  -3.842   2.810  1.00  0.00     0.066 C 
BRANCH  12  13
ATOM     13  C   UNL     1      -2.558  -2.622   3.619  1.00  0.00     0.140 C 
ATOM     14  O   UNL     1      -1.666  -2.726   4.450  1.00  0.00    -0.299 OA
BRANCH  13  15
ATOM     15  C   UNL     1      -3.156  -1.263   3.355  1.00  0.00     0.106 CG0
ATOM     16  G   UNL     1      -3.109  -0.925   1.877  1.00  0.00     0.000 G0
ENDBRANCH  13  15
ENDBRANCH  12  13
BRANCH  12  17
ATOM     17  C   UNL     1      -1.722  -4.723   2.476  1.00  0.00    -0.006 C 
ATOM     18  C   UNL     1      -1.895  -6.180   2.947  1.00  0.00     0.008 C 
ATOM     19  C   UNL     1      -1.426  -4.731   0.963  1.00  0.00     0.008 C 
ENDBRANCH  12  17
ENDBRANCH  11  12
ENDBRANCH   1  11
TORSDOF 1
ENDMDL
