MODEL 1
REMARK VINA RESULT:    -3.690      0.000      0.000
REMARK INTER + INTRA:          -6.080
REMARK INTER:                  -5.200
REMARK INTRA:                  -0.880
REMARK UNBOUND:                -0.880
REMARK SMILES CCCCCCCCC(=O)[O-]
REMARK SMILES IDX 6 1 7 2 8 3 9 4 10 5 11 6 5 7 4 8 3 9 2 10 1 11
REMARK H PARENT
REMARK Flexibility Score: inf
ROOT
ATOM      1  C   UNL     1      57.672  -2.630  30.990  1.00  0.00     0.000 C 
ENDROOT
BRANCH   1   2
ATOM      2  C   UNL     1      56.325  -3.180  30.501  1.00  0.00     0.006 C 
BRANCH   2   3
ATOM      3  C   UNL     1      55.182  -2.223  30.852  1.00  0.00     0.053 C 
BRANCH   3   4
ATOM      4  C   UNL     1      54.575  -1.652  29.610  1.00  0.00     0.041 C 
ATOM      5  O   UNL     1      53.407  -1.180  29.634  1.00  0.00    -0.550 OA
ATOM      6  O   UNL     1      55.278  -1.688  28.412  1.00  0.00    -0.550 OA
ENDBRANCH   3   4
ENDBRANCH   2   3
ENDBRANCH   1   2
BRANCH   1   7
ATOM      7  C   UNL     1      58.633  -2.301  29.836  1.00  0.00     0.000 C 
BRANCH   7   8
ATOM      8  C   UNL     1      58.650  -0.805  29.488  1.00  0.00    -0.000 C 
BRANCH   8   9
ATOM      9  C   UNL     1      58.234   0.043  30.696  1.00  0.00    -0.000 C 
BRANCH   9  10
ATOM     10  C   UNL     1      57.134   1.041  30.316  1.00  0.00    -0.003 C 
ATOM     11  C   UNL     1      57.145   1.328  28.817  1.00  0.00     0.004 C 
ENDBRANCH   9  10
ENDBRANCH   8   9
ENDBRANCH   7   8
ENDBRANCH   1   7
TORSDOF 7
ENDMDL
MODEL 2
REMARK VINA RESULT:    -3.601      1.116      1.548
REMARK INTER + INTRA:          -5.955
REMARK INTER:                  -5.180
REMARK INTRA:                  -0.775
REMARK UNBOUND:                -0.880
REMARK SMILES CCCCCCCCC(=O)[O-]
REMARK SMILES IDX 6 1 7 2 8 3 9 4 10 5 11 6 5 7 4 8 3 9 2 10 1 11
REMARK H PARENT
REMARK Flexibility Score: inf
ROOT
ATOM      1  C   UNL     1      57.807  -3.676  30.965  1.00  0.00     0.000 C 
ENDROOT
BRANCH   1   2
ATOM      2  C   UNL     1      56.358  -3.874  30.496  1.00  0.00     0.006 C 
BRANCH   2   3
ATOM      3  C   UNL     1      56.102  -3.129  29.182  1.00  0.00     0.053 C 
BRANCH   3   4
ATOM      4  C   UNL     1      55.164  -1.985  29.401  1.00  0.00     0.041 C 
ATOM      5  O   UNL     1      54.755  -1.305  28.423  1.00  0.00    -0.550 OA
ATOM      6  O   UNL     1      54.781  -1.636  30.690  1.00  0.00    -0.550 OA
ENDBRANCH   3   4
ENDBRANCH   2   3
ENDBRANCH   1   2
BRANCH   1   7
ATOM      7  C   UNL     1      57.971  -2.452  31.882  1.00  0.00     0.000 C 
BRANCH   7   8
ATOM      8  C   UNL     1      58.902  -1.386  31.285  1.00  0.00    -0.000 C 
BRANCH   8   9
ATOM      9  C   UNL     1      58.123  -0.114  30.933  1.00  0.00    -0.000 C 
BRANCH   9  10
ATOM     10  C   UNL     1      58.147   0.145  29.422  1.00  0.00    -0.003 C 
ATOM     11  C   UNL     1      57.189   1.269  29.040  1.00  0.00     0.004 C 
ENDBRANCH   9  10
ENDBRANCH   8   9
ENDBRANCH   7   8
ENDBRANCH   1   7
TORSDOF 7
ENDMDL
MODEL 3
REMARK VINA RESULT:    -3.592      1.280      2.681
REMARK INTER + INTRA:          -5.942
REMARK INTER:                  -5.136
REMARK INTRA:                  -0.807
REMARK UNBOUND:                -0.880
REMARK SMILES CCCCCCCCC(=O)[O-]
REMARK SMILES IDX 6 1 7 2 8 3 9 4 10 5 11 6 5 7 4 8 3 9 2 10 1 11
REMARK H PARENT
REMARK Flexibility Score: inf
ROOT
ATOM      1  C   UNL     1      55.280  -4.234  31.771  1.00  0.00     0.000 C 
ENDROOT
BRANCH   1   2
ATOM      2  C   UNL     1      54.281  -3.073  31.871  1.00  0.00     0.006 C 
BRANCH   2   3
ATOM      3  C   UNL     1      54.863  -1.795  31.259  1.00  0.00     0.053 C 
BRANCH   3   4
ATOM      4  C   UNL     1      54.439  -1.655  29.832  1.00  0.00     0.041 C 
ATOM      5  O   UNL     1      55.268  -1.844  28.903  1.00  0.00    -0.550 OA
ATOM      6  O   UNL     1      53.140  -1.266  29.527  1.00  0.00    -0.550 OA
ENDBRANCH   3   4
ENDBRANCH   2   3
ENDBRANCH   1   2
BRANCH   1   7
ATOM      7  C   UNL     1      56.742  -3.758  31.758  1.00  0.00     0.000 C 
BRANCH   7   8
ATOM      8  C   UNL     1      57.517  -4.258  30.529  1.00  0.00    -0.000 C 
BRANCH   8   9
ATOM      9  C   UNL     1      58.381  -3.141  29.933  1.00  0.00    -0.000 C 
BRANCH   9  10
ATOM     10  C   UNL     1      58.522  -1.971  30.914  1.00  0.00    -0.003 C 
ATOM     11  C   UNL     1      58.417  -0.631  30.193  1.00  0.00     0.004 C 
ENDBRANCH   9  10
ENDBRANCH   8   9
ENDBRANCH   7   8
ENDBRANCH   1   7
TORSDOF 7
ENDMDL
MODEL 4
REMARK VINA RESULT:    -3.582      1.010      1.506
REMARK INTER + INTRA:          -5.929
REMARK INTER:                  -5.182
REMARK INTRA:                  -0.747
REMARK UNBOUND:                -0.880
REMARK SMILES CCCCCCCCC(=O)[O-]
REMARK SMILES IDX 6 1 7 2 8 3 9 4 10 5 11 6 5 7 4 8 3 9 2 10 1 11
REMARK H PARENT
REMARK Flexibility Score: inf
ROOT
ATOM      1  C   UNL     1      58.719  -3.310  29.731  1.00  0.00     0.000 C 
ENDROOT
BRANCH   1   2
ATOM      2  C   UNL     1      57.673  -3.601  30.816  1.00  0.00     0.006 C 
BRANCH   2   3
ATOM      3  C   UNL     1      56.288  -3.812  30.198  1.00  0.00     0.053 C 
BRANCH   3   4
ATOM      4  C   UNL     1      55.602  -2.500  29.986  1.00  0.00     0.041 C 
ATOM      5  O   UNL     1      55.433  -2.055  28.820  1.00  0.00    -0.550 OA
ATOM      6  O   UNL     1      55.193  -1.743  31.077  1.00  0.00    -0.550 OA
ENDBRANCH   3   4
ENDBRANCH   2   3
ENDBRANCH   1   2
BRANCH   1   7
ATOM      7  C   UNL     1      59.522  -2.029  30.010  1.00  0.00     0.000 C 
BRANCH   7   8
ATOM      8  C   UNL     1      58.800  -0.762  29.528  1.00  0.00    -0.000 C 
BRANCH   8   9
ATOM      9  C   UNL     1      58.315   0.078  30.716  1.00  0.00    -0.000 C 
BRANCH   9  10
ATOM     10  C   UNL     1      57.177   1.016  30.299  1.00  0.00    -0.003 C 
ATOM     11  C   UNL     1      57.085   1.130  28.780  1.00  0.00     0.004 C 
ENDBRANCH   9  10
ENDBRANCH   8   9
ENDBRANCH   7   8
ENDBRANCH   1   7
TORSDOF 7
ENDMDL
MODEL 5
REMARK VINA RESULT:    -3.581      1.483      3.570
REMARK INTER + INTRA:          -5.926
REMARK INTER:                  -5.170
REMARK INTRA:                  -0.756
REMARK UNBOUND:                -0.880
REMARK SMILES CCCCCCCCC(=O)[O-]
REMARK SMILES IDX 6 1 7 2 8 3 9 4 10 5 11 6 5 7 4 8 3 9 2 10 1 11
REMARK H PARENT
REMARK Flexibility Score: inf
ROOT
ATOM      1  C   UNL     1      59.281  -0.611  29.598  1.00  0.00     0.000 C 
ENDROOT
BRANCH   1   2
ATOM      2  C   UNL     1      58.461  -0.146  30.810  1.00  0.00     0.006 C 
BRANCH   2   3
ATOM      3  C   UNL     1      57.132   0.473  30.367  1.00  0.00     0.053 C 
BRANCH   3   4
ATOM      4  C   UNL     1      56.023  -0.524  30.487  1.00  0.00     0.041 C 
ATOM      5  O   UNL     1      55.339  -0.588  31.543  1.00  0.00    -0.550 OA
ATOM      6  O   UNL     1      55.776  -1.419  29.453  1.00  0.00    -0.550 OA
ENDBRANCH   3   4
ENDBRANCH   2   3
ENDBRANCH   1   2
BRANCH   1   7
ATOM      7  C   UNL     1      59.373  -2.143  29.498  1.00  0.00     0.000 C 
BRANCH   7   8
ATOM      8  C   UNL     1      59.049  -2.843  30.826  1.00  0.00    -0.000 C 
BRANCH   8   9
ATOM      9  C   UNL     1      57.971  -3.917  30.631  1.00  0.00    -0.000 C 
BRANCH   9  10
ATOM     10  C   UNL     1      56.979  -3.920  31.799  1.00  0.00    -0.003 C 
ATOM     11  C   UNL     1      55.662  -4.580  31.402  1.00  0.00     0.004 C 
ENDBRANCH   9  10
ENDBRANCH   8   9
ENDBRANCH   7   8
ENDBRANCH   1   7
TORSDOF 7
ENDMDL
MODEL 6
REMARK VINA RESULT:    -3.491      2.466      4.701
REMARK INTER + INTRA:          -5.800
REMARK INTER:                  -5.250
REMARK INTRA:                  -0.550
REMARK UNBOUND:                -0.880
REMARK SMILES CCCCCCCCC(=O)[O-]
REMARK SMILES IDX 6 1 7 2 8 3 9 4 10 5 11 6 5 7 4 8 3 9 2 10 1 11
REMARK H PARENT
REMARK Flexibility Score: inf
ROOT
ATOM      1  C   UNL     1      55.799  -0.879  29.040  1.00  0.00     0.000 C 
ENDROOT
BRANCH   1   2
ATOM      2  C   UNL     1      56.703   0.350  28.872  1.00  0.00     0.006 C 
BRANCH   2   3
ATOM      3  C   UNL     1      57.385   0.713  30.195  1.00  0.00     0.053 C 
BRANCH   3   4
ATOM      4  C   UNL     1      58.633  -0.090  30.380  1.00  0.00     0.041 C 
ATOM      5  O   UNL     1      59.011  -0.416  31.537  1.00  0.00    -0.550 OA
ATOM      6  O   UNL     1      59.407  -0.438  29.280  1.00  0.00    -0.550 OA
ENDBRANCH   3   4
ENDBRANCH   2   3
ENDBRANCH   1   2
BRANCH   1   7
ATOM      7  C   UNL     1      55.142  -0.946  30.429  1.00  0.00     0.000 C 
BRANCH   7   8
ATOM      8  C   UNL     1      55.268  -2.334  31.076  1.00  0.00    -0.000 C 
BRANCH   8   9
ATOM      9  C   UNL     1      56.396  -3.143  30.424  1.00  0.00    -0.000 C 
BRANCH   9  10
ATOM     10  C   UNL     1      56.190  -4.647  30.640  1.00  0.00    -0.003 C 
ATOM     11  C   UNL     1      55.226  -4.912  31.792  1.00  0.00     0.004 C 
ENDBRANCH   9  10
ENDBRANCH   8   9
ENDBRANCH   7   8
ENDBRANCH   1   7
TORSDOF 7
ENDMDL
MODEL 7
REMARK VINA RESULT:    -3.485      1.321      3.287
REMARK INTER + INTRA:          -5.792
REMARK INTER:                  -4.974
REMARK INTRA:                  -0.817
REMARK UNBOUND:                -0.880
REMARK SMILES CCCCCCCCC(=O)[O-]
REMARK SMILES IDX 6 1 7 2 8 3 9 4 10 5 11 6 5 7 4 8 3 9 2 10 1 11
REMARK H PARENT
REMARK Flexibility Score: inf
ROOT
ATOM      1  C   UNL     1      58.610  -0.116  29.930  1.00  0.00     0.000 C 
ENDROOT
BRANCH   1   2
ATOM      2  C   UNL     1      57.322   0.696  29.734  1.00  0.00     0.006 C 
BRANCH   2   3
ATOM      3  C   UNL     1      56.386   0.006  28.737  1.00  0.00     0.053 C 
BRANCH   3   4
ATOM      4  C   UNL     1      55.612  -1.082  29.411  1.00  0.00     0.041 C 
ATOM      5  O   UNL     1      55.223  -0.940  30.601  1.00  0.00    -0.550 OA
ATOM      6  O   UNL     1      55.361  -2.274  28.743  1.00  0.00    -0.550 OA
ENDBRANCH   3   4
ENDBRANCH   2   3
ENDBRANCH   1   2
BRANCH   1   7
ATOM      7  C   UNL     1      58.858  -0.488  31.402  1.00  0.00     0.000 C 
BRANCH   7   8
ATOM      8  C   UNL     1      59.159  -1.982  31.591  1.00  0.00    -0.000 C 
BRANCH   8   9
ATOM      9  C   UNL     1      57.909  -2.739  32.055  1.00  0.00    -0.000 C 
BRANCH   9  10
ATOM     10  C   UNL     1      57.557  -3.870  31.082  1.00  0.00    -0.003 C 
ATOM     11  C   UNL     1      58.523  -3.901  29.901  1.00  0.00     0.004 C 
ENDBRANCH   9  10
ENDBRANCH   8   9
ENDBRANCH   7   8
ENDBRANCH   1   7
TORSDOF 7
ENDMDL
MODEL 8
REMARK VINA RESULT:    -3.435      2.455      4.045
REMARK INTER + INTRA:          -5.721
REMARK INTER:                  -5.014
REMARK INTRA:                  -0.707
REMARK UNBOUND:                -0.880
REMARK SMILES CCCCCCCCC(=O)[O-]
REMARK SMILES IDX 6 1 7 2 8 3 9 4 10 5 11 6 5 7 4 8 3 9 2 10 1 11
REMARK H PARENT
REMARK Flexibility Score: inf
ROOT
ATOM      1  C   UNL     1      55.996  -4.370  30.620  1.00  0.00     0.000 C 
ENDROOT
BRANCH   1   2
ATOM      2  C   UNL     1      57.523  -4.212  30.623  1.00  0.00     0.006 C 
BRANCH   2   3
ATOM      3  C   UNL     1      57.959  -3.131  31.618  1.00  0.00     0.053 C 
BRANCH   3   4
ATOM      4  C   UNL     1      58.409  -1.902  30.894  1.00  0.00     0.041 C 
ATOM      5  O   UNL     1      57.792  -1.509  29.868  1.00  0.00    -0.550 OA
ATOM      6  O   UNL     1      59.540  -1.218  31.320  1.00  0.00    -0.550 OA
ENDBRANCH   3   4
ENDBRANCH   2   3
ENDBRANCH   1   2
BRANCH   1   7
ATOM      7  C   UNL     1      55.362  -4.029  31.979  1.00  0.00     0.000 C 
BRANCH   7   8
ATOM      8  C   UNL     1      54.140  -3.107  31.847  1.00  0.00    -0.000 C 
BRANCH   8   9
ATOM      9  C   UNL     1      54.548  -1.731  31.309  1.00  0.00    -0.000 C 
BRANCH   9  10
ATOM     10  C   UNL     1      53.683  -1.331  30.108  1.00  0.00    -0.003 C 
ATOM     11  C   UNL     1      54.433  -1.540  28.795  1.00  0.00     0.004 C 
ENDBRANCH   9  10
ENDBRANCH   8   9
ENDBRANCH   7   8
ENDBRANCH   1   7
TORSDOF 7
ENDMDL
MODEL 9
REMARK VINA RESULT:    -3.388      1.356      3.113
REMARK INTER + INTRA:          -5.655
REMARK INTER:                  -4.721
REMARK INTRA:                  -0.934
REMARK UNBOUND:                -0.880
REMARK SMILES CCCCCCCCC(=O)[O-]
REMARK SMILES IDX 6 1 7 2 8 3 9 4 10 5 11 6 5 7 4 8 3 9 2 10 1 11
REMARK H PARENT
REMARK Flexibility Score: inf
ROOT
ATOM      1  C   UNL     1      56.717   0.250  28.447  1.00  0.00     0.000 C 
ENDROOT
BRANCH   1   2
ATOM      2  C   UNL     1      55.312  -0.362  28.534  1.00  0.00     0.006 C 
BRANCH   2   3
ATOM      3  C   UNL     1      55.385  -1.851  28.886  1.00  0.00     0.053 C 
BRANCH   3   4
ATOM      4  C   UNL     1      55.121  -2.059  30.343  1.00  0.00     0.041 C 
ATOM      5  O   UNL     1      55.448  -3.142  30.898  1.00  0.00    -0.550 OA
ATOM      6  O   UNL     1      54.467  -1.079  31.079  1.00  0.00    -0.550 OA
ENDBRANCH   3   4
ENDBRANCH   2   3
ENDBRANCH   1   2
BRANCH   1   7
ATOM      7  C   UNL     1      57.087   1.064  29.697  1.00  0.00     0.000 C 
BRANCH   7   8
ATOM      8  C   UNL     1      58.037   0.306  30.637  1.00  0.00    -0.000 C 
BRANCH   8   9
ATOM      9  C   UNL     1      58.869  -0.723  29.862  1.00  0.00    -0.000 C 
BRANCH   9  10
ATOM     10  C   UNL     1      58.889  -2.074  30.586  1.00  0.00    -0.003 C 
ATOM     11  C   UNL     1      58.776  -3.230  29.598  1.00  0.00     0.004 C 
ENDBRANCH   9  10
ENDBRANCH   8   9
ENDBRANCH   7   8
ENDBRANCH   1   7
TORSDOF 7
ENDMDL
