MODEL 1
REMARK VINA RESULT:    -4.625      0.000      0.000
REMARK INTER + INTRA:          -5.634
REMARK INTER:                  -5.301
REMARK INTRA:                  -0.333
REMARK UNBOUND:                -0.333
REMARK SMILES COc1ccc(C(C)=O)c(O)c1
REMARK SMILES IDX 6 1 10 2 12 3 3 4 4 5 5 6 7 7 8 8 9 9 11 10 2 12 1 13
REMARK H PARENT 11 11
REMARK Flexibility Score: inf
ROOT
ATOM      1  C   UNL     1     -22.480  32.421  -1.683  1.00  0.00     0.059 A 
ATOM      2  C   UNL     1     -22.084  31.069  -1.561  1.00  0.00     0.130 A 
ATOM      3  C   UNL     1     -20.795  30.675  -1.952  1.00  0.00     0.093 A 
ATOM      4  C   UNL     1     -19.885  31.603  -2.462  1.00  0.00     0.122 A 
ATOM      5  C   UNL     1     -20.273  32.948  -2.582  1.00  0.00     0.047 A 
ATOM      6  C   UNL     1     -21.554  33.350  -2.197  1.00  0.00     0.019 A 
ENDROOT
BRANCH   1   7
ATOM      7  C   UNL     1     -23.847  32.864  -1.284  1.00  0.00     0.163 C 
ATOM      8  C   UNL     1     -24.059  33.974  -0.297  1.00  0.00     0.093 C 
ATOM      9  O   UNL     1     -24.864  32.326  -1.800  1.00  0.00    -0.294 OA
ENDBRANCH   1   7
BRANCH   2  10
ATOM     10  O   UNL     1     -22.960  30.114  -1.042  1.00  0.00    -0.507 OA
ATOM     11  H   UNL     1     -23.256  29.311  -1.585  1.00  0.00     0.293 HD
ENDBRANCH   2  10
BRANCH   4  12
ATOM     12  O   UNL     1     -18.610  31.152  -2.836  1.00  0.00    -0.497 OA
ATOM     13  C   UNL     1     -17.417  31.414  -2.104  1.00  0.00     0.278 C 
ENDBRANCH   4  12
TORSDOF 3
ENDMDL
MODEL 2
REMARK VINA RESULT:    -4.551      2.102      3.017
REMARK INTER + INTRA:          -5.549
REMARK INTER:                  -5.213
REMARK INTRA:                  -0.336
REMARK UNBOUND:                -0.333
REMARK SMILES COc1ccc(C(C)=O)c(O)c1
REMARK SMILES IDX 6 1 10 2 12 3 3 4 4 5 5 6 7 7 8 8 9 9 11 10 2 12 1 13
REMARK H PARENT 11 11
REMARK Flexibility Score: inf
ROOT
ATOM      1  C   UNL     1     -20.848  31.942  -2.492  1.00  0.00     0.059 A 
ATOM      2  C   UNL     1     -20.762  32.781  -3.627  1.00  0.00     0.130 A 
ATOM      3  C   UNL     1     -19.525  32.984  -4.259  1.00  0.00     0.093 A 
ATOM      4  C   UNL     1     -18.367  32.363  -3.786  1.00  0.00     0.122 A 
ATOM      5  C   UNL     1     -18.450  31.526  -2.661  1.00  0.00     0.047 A 
ATOM      6  C   UNL     1     -19.674  31.319  -2.024  1.00  0.00     0.019 A 
ENDROOT
BRANCH   1   7
ATOM      7  C   UNL     1     -22.148  31.716  -1.796  1.00  0.00     0.163 C 
ATOM      8  C   UNL     1     -22.646  30.336  -1.484  1.00  0.00     0.093 C 
ATOM      9  O   UNL     1     -22.847  32.698  -1.425  1.00  0.00    -0.294 OA
ENDBRANCH   1   7
BRANCH   2  10
ATOM     10  O   UNL     1     -21.899  33.407  -4.139  1.00  0.00    -0.507 OA
ATOM     11  H   UNL     1     -22.196  33.272  -5.099  1.00  0.00     0.293 HD
ENDBRANCH   2  10
BRANCH   4  12
ATOM     12  O   UNL     1     -17.159  32.603  -4.459  1.00  0.00    -0.497 OA
ATOM     13  C   UNL     1     -16.718  31.879  -5.603  1.00  0.00     0.278 C 
ENDBRANCH   4  12
TORSDOF 3
ENDMDL
MODEL 3
REMARK VINA RESULT:    -4.495      2.197      3.554
REMARK INTER + INTRA:          -5.484
REMARK INTER:                  -5.156
REMARK INTRA:                  -0.328
REMARK UNBOUND:                -0.333
REMARK SMILES COc1ccc(C(C)=O)c(O)c1
REMARK SMILES IDX 6 1 10 2 12 3 3 4 4 5 5 6 7 7 8 8 9 9 11 10 2 12 1 13
REMARK H PARENT 11 11
REMARK Flexibility Score: inf
ROOT
ATOM      1  C   UNL     1     -19.986  32.340  -3.053  1.00  0.00     0.059 A 
ATOM      2  C   UNL     1     -19.129  32.741  -4.104  1.00  0.00     0.130 A 
ATOM      3  C   UNL     1     -17.823  32.233  -4.179  1.00  0.00     0.093 A 
ATOM      4  C   UNL     1     -17.350  31.326  -3.228  1.00  0.00     0.122 A 
ATOM      5  C   UNL     1     -18.200  30.922  -2.185  1.00  0.00     0.047 A 
ATOM      6  C   UNL     1     -19.500  31.424  -2.100  1.00  0.00     0.019 A 
ENDROOT
BRANCH   1   7
ATOM      7  C   UNL     1     -21.375  32.872  -2.945  1.00  0.00     0.163 C 
ATOM      8  C   UNL     1     -21.801  33.737  -1.795  1.00  0.00     0.093 C 
ATOM      9  O   UNL     1     -22.221  32.624  -3.846  1.00  0.00    -0.294 OA
ENDBRANCH   1   7
BRANCH   2  10
ATOM     10  O   UNL     1     -19.570  33.633  -5.083  1.00  0.00    -0.507 OA
ATOM     11  H   UNL     1     -19.384  34.628  -5.020  1.00  0.00     0.293 HD
ENDBRANCH   2  10
BRANCH   4  12
ATOM     12  O   UNL     1     -16.035  30.851  -3.354  1.00  0.00    -0.497 OA
ATOM     13  C   UNL     1     -15.349  30.703  -4.592  1.00  0.00     0.278 C 
ENDBRANCH   4  12
TORSDOF 3
ENDMDL
MODEL 4
REMARK VINA RESULT:    -4.493      1.805      5.357
REMARK INTER + INTRA:          -5.483
REMARK INTER:                  -5.154
REMARK INTRA:                  -0.328
REMARK UNBOUND:                -0.333
REMARK SMILES COc1ccc(C(C)=O)c(O)c1
REMARK SMILES IDX 6 1 10 2 12 3 3 4 4 5 5 6 7 7 8 8 9 9 11 10 2 12 1 13
REMARK H PARENT 11 11
REMARK Flexibility Score: inf
ROOT
ATOM      1  C   UNL     1     -19.231  32.002  -3.430  1.00  0.00     0.059 A 
ATOM      2  C   UNL     1     -20.084  32.968  -4.012  1.00  0.00     0.130 A 
ATOM      3  C   UNL     1     -21.399  33.117  -3.545  1.00  0.00     0.093 A 
ATOM      4  C   UNL     1     -21.885  32.326  -2.502  1.00  0.00     0.122 A 
ATOM      5  C   UNL     1     -21.039  31.367  -1.919  1.00  0.00     0.047 A 
ATOM      6  C   UNL     1     -19.730  31.209  -2.378  1.00  0.00     0.019 A 
ENDROOT
BRANCH   1   7
ATOM      7  C   UNL     1     -17.833  31.815  -3.914  1.00  0.00     0.163 C 
ATOM      8  C   UNL     1     -17.252  30.451  -4.139  1.00  0.00     0.093 C 
ATOM      9  O   UNL     1     -17.113  32.817  -4.174  1.00  0.00    -0.294 OA
ENDBRANCH   1   7
BRANCH   2  10
ATOM     10  O   UNL     1     -19.631  33.789  -5.046  1.00  0.00    -0.507 OA
ATOM     11  H   UNL     1     -19.297  34.730  -4.872  1.00  0.00     0.293 HD
ENDBRANCH   2  10
BRANCH   4  12
ATOM     12  O   UNL     1     -23.208  32.520  -2.077  1.00  0.00    -0.497 OA
ATOM     13  C   UNL     1     -23.638  33.598  -1.252  1.00  0.00     0.278 C 
ENDBRANCH   4  12
TORSDOF 3
ENDMDL
MODEL 5
REMARK VINA RESULT:    -4.490      0.980      4.502
REMARK INTER + INTRA:          -5.479
REMARK INTER:                  -5.142
REMARK INTRA:                  -0.337
REMARK UNBOUND:                -0.333
REMARK SMILES COc1ccc(C(C)=O)c(O)c1
REMARK SMILES IDX 6 1 10 2 12 3 3 4 4 5 5 6 7 7 8 8 9 9 11 10 2 12 1 13
REMARK H PARENT 11 11
REMARK Flexibility Score: inf
ROOT
ATOM      1  C   UNL     1     -20.379  31.561  -2.302  1.00  0.00     0.059 A 
ATOM      2  C   UNL     1     -21.474  30.848  -1.760  1.00  0.00     0.130 A 
ATOM      3  C   UNL     1     -22.646  31.528  -1.396  1.00  0.00     0.093 A 
ATOM      4  C   UNL     1     -22.756  32.910  -1.565  1.00  0.00     0.122 A 
ATOM      5  C   UNL     1     -21.672  33.622  -2.107  1.00  0.00     0.047 A 
ATOM      6  C   UNL     1     -20.501  32.955  -2.470  1.00  0.00     0.019 A 
ENDROOT
BRANCH   1   7
ATOM      7  C   UNL     1     -19.119  30.864  -2.688  1.00  0.00     0.163 C 
ATOM      8  C   UNL     1     -17.789  31.272  -2.126  1.00  0.00     0.093 C 
ATOM      9  O   UNL     1     -19.152  29.886  -3.483  1.00  0.00    -0.294 OA
ENDBRANCH   1   7
BRANCH   2  10
ATOM     10  O   UNL     1     -21.409  29.464  -1.590  1.00  0.00    -0.507 OA
ATOM     11  H   UNL     1     -22.068  28.968  -1.002  1.00  0.00     0.293 HD
ENDBRANCH   2  10
BRANCH   4  12
ATOM     12  O   UNL     1     -23.952  33.537  -1.184  1.00  0.00    -0.497 OA
ATOM     13  C   UNL     1     -24.248  33.970   0.139  1.00  0.00     0.278 C 
ENDBRANCH   4  12
TORSDOF 3
ENDMDL
MODEL 6
REMARK VINA RESULT:    -4.363      1.542      2.190
REMARK INTER + INTRA:          -5.333
REMARK INTER:                  -5.172
REMARK INTRA:                  -0.160
REMARK UNBOUND:                -0.333
REMARK SMILES COc1ccc(C(C)=O)c(O)c1
REMARK SMILES IDX 6 1 10 2 12 3 3 4 4 5 5 6 7 7 8 8 9 9 11 10 2 12 1 13
REMARK H PARENT 11 11
REMARK Flexibility Score: inf
ROOT
ATOM      1  C   UNL     1     -21.760  31.855  -2.313  1.00  0.00     0.059 A 
ATOM      2  C   UNL     1     -21.116  32.558  -3.357  1.00  0.00     0.130 A 
ATOM      3  C   UNL     1     -19.759  32.325  -3.628  1.00  0.00     0.093 A 
ATOM      4  C   UNL     1     -19.026  31.399  -2.883  1.00  0.00     0.122 A 
ATOM      5  C   UNL     1     -19.664  30.696  -1.847  1.00  0.00     0.047 A 
ATOM      6  C   UNL     1     -21.013  30.922  -1.567  1.00  0.00     0.019 A 
ENDROOT
BRANCH   1   7
ATOM      7  C   UNL     1     -23.198  32.090  -1.996  1.00  0.00     0.163 C 
ATOM      8  C   UNL     1     -23.642  33.258  -1.166  1.00  0.00     0.093 C 
ATOM      9  O   UNL     1     -24.083  31.316  -2.452  1.00  0.00    -0.294 OA
ENDBRANCH   1   7
BRANCH   2  10
ATOM     10  O   UNL     1     -21.817  33.480  -4.135  1.00  0.00    -0.507 OA
ATOM     11  H   UNL     1     -21.776  34.475  -3.949  1.00  0.00     0.293 HD
ENDBRANCH   2  10
BRANCH   4  12
ATOM     12  O   UNL     1     -17.673  31.207  -3.200  1.00  0.00    -0.497 OA
ATOM     13  C   UNL     1     -16.775  30.400  -2.445  1.00  0.00     0.278 C 
ENDBRANCH   4  12
TORSDOF 3
ENDMDL
MODEL 7
REMARK VINA RESULT:    -4.163      2.726      6.455
REMARK INTER + INTRA:          -5.104
REMARK INTER:                  -4.762
REMARK INTRA:                  -0.341
REMARK UNBOUND:                -0.333
REMARK SMILES COc1ccc(C(C)=O)c(O)c1
REMARK SMILES IDX 6 1 10 2 12 3 3 4 4 5 5 6 7 7 8 8 9 9 11 10 2 12 1 13
REMARK H PARENT 11 11
REMARK Flexibility Score: inf
ROOT
ATOM      1  C   UNL     1     -16.702  31.091  -4.066  1.00  0.00     0.059 A 
ATOM      2  C   UNL     1     -17.035  30.855  -2.712  1.00  0.00     0.130 A 
ATOM      3  C   UNL     1     -18.203  31.409  -2.168  1.00  0.00     0.093 A 
ATOM      4  C   UNL     1     -19.057  32.193  -2.947  1.00  0.00     0.122 A 
ATOM      5  C   UNL     1     -18.732  32.427  -4.294  1.00  0.00     0.047 A 
ATOM      6  C   UNL     1     -17.571  31.882  -4.844  1.00  0.00     0.019 A 
ENDROOT
BRANCH   1   7
ATOM      7  C   UNL     1     -15.462  30.523  -4.668  1.00  0.00     0.163 C 
ATOM      8  C   UNL     1     -14.501  31.374  -5.445  1.00  0.00     0.093 C 
ATOM      9  O   UNL     1     -15.179  29.305  -4.506  1.00  0.00    -0.294 OA
ENDBRANCH   1   7
BRANCH   2  10
ATOM     10  O   UNL     1     -16.216  30.064  -1.905  1.00  0.00    -0.507 OA
ATOM     11  H   UNL     1     -16.082  29.075  -2.088  1.00  0.00     0.293 HD
ENDBRANCH   2  10
BRANCH   4  12
ATOM     12  O   UNL     1     -20.211  32.720  -2.349  1.00  0.00    -0.497 OA
ATOM     13  C   UNL     1     -21.384  33.100  -3.060  1.00  0.00     0.278 C 
ENDBRANCH   4  12
TORSDOF 3
ENDMDL
MODEL 8
REMARK VINA RESULT:    -4.135      1.622      2.084
REMARK INTER + INTRA:          -5.072
REMARK INTER:                  -4.746
REMARK INTRA:                  -0.326
REMARK UNBOUND:                -0.333
REMARK SMILES COc1ccc(C(C)=O)c(O)c1
REMARK SMILES IDX 6 1 10 2 12 3 3 4 4 5 5 6 7 7 8 8 9 9 11 10 2 12 1 13
REMARK H PARENT 11 11
REMARK Flexibility Score: inf
ROOT
ATOM      1  C   UNL     1     -20.724  32.168  -2.571  1.00  0.00     0.059 A 
ATOM      2  C   UNL     1     -20.095  31.027  -2.020  1.00  0.00     0.130 A 
ATOM      3  C   UNL     1     -18.786  30.693  -2.401  1.00  0.00     0.093 A 
ATOM      4  C   UNL     1     -18.084  31.477  -3.319  1.00  0.00     0.122 A 
ATOM      5  C   UNL     1     -18.704  32.613  -3.865  1.00  0.00     0.047 A 
ATOM      6  C   UNL     1     -20.007  32.952  -3.495  1.00  0.00     0.019 A 
ENDROOT
BRANCH   1   7
ATOM      7  C   UNL     1     -22.118  32.539  -2.191  1.00  0.00     0.163 C 
ATOM      8  C   UNL     1     -22.432  33.849  -1.531  1.00  0.00     0.093 C 
ATOM      9  O   UNL     1     -23.074  31.760  -2.450  1.00  0.00    -0.294 OA
ENDBRANCH   1   7
BRANCH   2  10
ATOM     10  O   UNL     1     -20.758  30.227  -1.088  1.00  0.00    -0.507 OA
ATOM     11  H   UNL     1     -20.976  30.564  -0.157  1.00  0.00     0.293 HD
ENDBRANCH   2  10
BRANCH   4  12
ATOM     12  O   UNL     1     -16.778  31.095  -3.661  1.00  0.00    -0.497 OA
ATOM     13  C   UNL     1     -16.300  29.754  -3.644  1.00  0.00     0.278 C 
ENDBRANCH   4  12
TORSDOF 3
ENDMDL
MODEL 9
REMARK VINA RESULT:    -4.002      1.890      4.744
REMARK INTER + INTRA:          -4.919
REMARK INTER:                  -4.601
REMARK INTRA:                  -0.318
REMARK UNBOUND:                -0.333
REMARK SMILES COc1ccc(C(C)=O)c(O)c1
REMARK SMILES IDX 6 1 10 2 12 3 3 4 4 5 5 6 7 7 8 8 9 9 11 10 2 12 1 13
REMARK H PARENT 11 11
REMARK Flexibility Score: inf
ROOT
ATOM      1  C   UNL     1     -20.875  31.494  -2.410  1.00  0.00     0.059 A 
ATOM      2  C   UNL     1     -22.147  32.104  -2.512  1.00  0.00     0.130 A 
ATOM      3  C   UNL     1     -23.303  31.379  -2.182  1.00  0.00     0.093 A 
ATOM      4  C   UNL     1     -23.220  30.056  -1.744  1.00  0.00     0.122 A 
ATOM      5  C   UNL     1     -21.958  29.448  -1.638  1.00  0.00     0.047 A 
ATOM      6  C   UNL     1     -20.802  30.159  -1.966  1.00  0.00     0.019 A 
ENDROOT
BRANCH   1   7
ATOM      7  C   UNL     1     -19.632  32.237  -2.764  1.00  0.00     0.163 C 
ATOM      8  C   UNL     1     -18.337  31.997  -2.044  1.00  0.00     0.093 C 
ATOM      9  O   UNL     1     -19.639  33.072  -3.708  1.00  0.00    -0.294 OA
ENDBRANCH   1   7
BRANCH   2  10
ATOM     10  O   UNL     1     -22.270  33.429  -2.930  1.00  0.00    -0.507 OA
ATOM     11  H   UNL     1     -21.493  34.079  -2.881  1.00  0.00     0.293 HD
ENDBRANCH   2  10
BRANCH   4  12
ATOM     12  O   UNL     1     -24.409  29.381  -1.427  1.00  0.00    -0.497 OA
ATOM     13  C   UNL     1     -25.655  29.597  -2.081  1.00  0.00     0.278 C 
ENDBRANCH   4  12
TORSDOF 3
ENDMDL
