MODEL 1
REMARK VINA RESULT:    -2.300      0.000      0.000
REMARK INTER + INTRA:          -2.079
REMARK INTER:                  -2.838
REMARK INTRA:                   0.760
REMARK UNBOUND:                 0.760
REMARK SMILES CC1=CC=CC(C)(C)CC1=O
REMARK SMILES IDX 1 1 2 2 3 3 10 4 11 5 9 6 4 8 5 9 6 10 7 11 8 12
REMARK H PARENT
REMARK Flexibility Score: 80.00
ROOT
ATOM      1  C   UNL     1       7.374  24.580  21.178  1.00  0.00     0.048 C 
ATOM      2  C   UNL     1       8.454  23.928  22.009  1.00  0.00    -0.008 C 
ATOM      3  C   UNL     1       9.084  22.855  21.484  1.00  0.00     0.007 C 
ENDROOT
BRANCH   2   4
ATOM      4  C   UNL     1       8.683  24.475  23.370  1.00  0.00     0.159 C 
ATOM      5  O   UNL     1       7.842  25.285  23.848  1.00  0.00    -0.295 OA
BRANCH   4   6
ATOM      6  C   UNL     1       9.873  24.129  24.210  1.00  0.00     0.091 CG0
ATOM      7  G   UNL     1       9.974  22.620  24.531  1.00  0.00     0.000 G0
ENDBRANCH   4   6
ENDBRANCH   2   4
BRANCH   3   8
ATOM      8  C   UNL     1      10.150  22.001  22.061  1.00  0.00    -0.003 C 
ATOM      9  C   UNL     1      10.529  21.873  23.340  1.00  0.00    -0.020 C 
BRANCH   9  10
ATOM     10  C   UNL     1       9.956  22.614  24.525  1.00  0.00    -0.010 CG0
ATOM     11  C   UNL     1      10.917  22.431  25.721  1.00  0.00     0.016 C 
ATOM     12  C   UNL     1       8.587  22.010  24.914  1.00  0.00     0.016 C 
ATOM     13  G   UNL     1       9.872  24.124  24.204  1.00  0.00     0.000 G0
ENDBRANCH   9  10
ENDBRANCH   3   8
TORSDOF 0
ENDMDL
MODEL 2
REMARK VINA RESULT:    -2.294      1.664      3.127
REMARK INTER + INTRA:          -2.070
REMARK INTER:                  -2.808
REMARK INTRA:                   0.737
REMARK UNBOUND:                 0.760
REMARK SMILES CC1=CC=CC(C)(C)CC1=O
REMARK SMILES IDX 1 1 2 2 3 3 10 4 11 5 9 6 4 8 5 9 6 10 7 11 8 12
REMARK H PARENT
REMARK Flexibility Score: 80.00
ROOT
ATOM      1  C   UNL     1      11.116  21.332  21.821  1.00  0.00     0.048 C 
ATOM      2  C   UNL     1      10.056  22.253  22.378  1.00  0.00    -0.008 C 
ATOM      3  C   UNL     1       9.345  22.992  21.500  1.00  0.00     0.007 C 
ENDROOT
BRANCH   2   4
ATOM      4  C   UNL     1       9.934  22.328  23.856  1.00  0.00     0.159 C 
ATOM      5  O   UNL     1      10.816  21.774  24.567  1.00  0.00    -0.295 OA
BRANCH   4   6
ATOM      6  C   UNL     1       8.806  23.019  24.558  1.00  0.00     0.091 CG0
ATOM      7  G   UNL     1       8.681  24.514  24.186  1.00  0.00     0.000 G0
ENDBRANCH   4   6
ENDBRANCH   2   4
BRANCH   3   8
ATOM      8  C   UNL     1       8.275  23.989  21.741  1.00  0.00    -0.003 C 
ATOM      9  C   UNL     1       7.979  24.654  22.866  1.00  0.00    -0.020 C 
BRANCH   9  10
ATOM     10  C   UNL     1       8.673  24.515  24.200  1.00  0.00    -0.010 CG0
ATOM     11  C   UNL     1       7.784  25.172  25.280  1.00  0.00     0.016 C 
ATOM     12  C   UNL     1      10.024  25.266  24.172  1.00  0.00     0.016 C 
ATOM     13  G   UNL     1       8.831  23.019  24.552  1.00  0.00     0.000 G0
ENDBRANCH   9  10
ENDBRANCH   3   8
TORSDOF 0
ENDMDL
MODEL 3
REMARK VINA RESULT:    -2.040      1.807      3.532
REMARK INTER + INTRA:          -1.758
REMARK INTER:                  -2.514
REMARK INTRA:                   0.756
REMARK UNBOUND:                 0.760
REMARK SMILES CC1=CC=CC(C)(C)CC1=O
REMARK SMILES IDX 1 1 2 2 3 3 10 4 11 5 9 6 4 8 5 9 6 10 7 11 8 12
REMARK H PARENT
REMARK Flexibility Score: 80.00
ROOT
ATOM      1  C   UNL     1       8.986  22.178  24.886  1.00  0.00     0.048 C 
ATOM      2  C   UNL     1       9.108  22.761  23.497  1.00  0.00    -0.008 C 
ATOM      3  C   UNL     1       9.798  22.051  22.580  1.00  0.00     0.007 C 
ENDROOT
BRANCH   2   4
ATOM      4  C   UNL     1       8.524  24.108  23.276  1.00  0.00     0.159 C 
ATOM      5  O   UNL     1       8.153  24.781  24.276  1.00  0.00    -0.295 OA
BRANCH   4   6
ATOM      6  C   UNL     1       8.336  24.714  21.919  1.00  0.00     0.091 CG0
ATOM      7  G   UNL     1       9.659  24.881  21.138  1.00  0.00     0.000 G0
ENDBRANCH   4   6
ENDBRANCH   2   4
BRANCH   3   8
ATOM      8  C   UNL     1      10.107  22.369  21.165  1.00  0.00    -0.003 C 
ATOM      9  C   UNL     1      10.066  23.552  20.538  1.00  0.00    -0.020 C 
BRANCH   9  10
ATOM     10  C   UNL     1       9.654  24.874  21.141  1.00  0.00    -0.010 CG0
ATOM     11  C   UNL     1       9.405  25.875  19.991  1.00  0.00     0.016 C 
ATOM     12  C   UNL     1      10.797  25.432  22.020  1.00  0.00     0.016 C 
ATOM     13  G   UNL     1       8.331  24.701  21.922  1.00  0.00     0.000 G0
ENDBRANCH   9  10
ENDBRANCH   3   8
TORSDOF 0
ENDMDL
MODEL 4
REMARK VINA RESULT:    -1.909      1.425      2.458
REMARK INTER + INTRA:          -1.596
REMARK INTER:                  -2.602
REMARK INTRA:                   1.007
REMARK UNBOUND:                 0.760
REMARK SMILES CC1=CC=CC(C)(C)CC1=O
REMARK SMILES IDX 1 1 2 2 3 3 10 4 11 5 9 6 4 8 5 9 6 10 7 11 8 12
REMARK H PARENT
REMARK Flexibility Score: 80.00
ROOT
ATOM      1  C   UNL     1       7.301  24.538  21.362  1.00  0.00     0.048 C 
ATOM      2  C   UNL     1       8.128  24.295  22.604  1.00  0.00    -0.008 C 
ATOM      3  C   UNL     1       7.927  25.112  23.659  1.00  0.00     0.007 C 
ENDROOT
BRANCH   2   4
ATOM      4  C   UNL     1       9.152  23.222  22.534  1.00  0.00     0.159 C 
ATOM      5  O   UNL     1       9.097  22.390  21.587  1.00  0.00    -0.295 OA
BRANCH   4   6
ATOM      6  C   UNL     1      10.250  23.061  23.540  1.00  0.00     0.091 CG0
ATOM      7  G   UNL     1       9.730  22.867  24.983  1.00  0.00     0.000 G0
ENDBRANCH   4   6
ENDBRANCH   2   4
BRANCH   3   8
ATOM      8  C   UNL     1       8.594  25.139  24.982  1.00  0.00    -0.003 C 
ATOM      9  C   UNL     1       9.374  24.213  25.553  1.00  0.00    -0.020 C 
BRANCH   9  10
ATOM     10  C   UNL     1       9.745  22.869  24.972  1.00  0.00    -0.010 CG0
ATOM     11  C   UNL     1       8.478  21.984  24.949  1.00  0.00     0.016 C 
ATOM     12  C   UNL     1      10.795  22.176  25.870  1.00  0.00     0.016 C 
ATOM     13  G   UNL     1      10.231  23.048  23.516  1.00  0.00     0.000 G0
ENDBRANCH   9  10
ENDBRANCH   3   8
TORSDOF 0
ENDMDL
MODEL 5
REMARK VINA RESULT:    -1.863      2.197      3.362
REMARK INTER + INTRA:          -1.539
REMARK INTER:                  -2.279
REMARK INTRA:                   0.740
REMARK UNBOUND:                 0.760
REMARK SMILES CC1=CC=CC(C)(C)CC1=O
REMARK SMILES IDX 1 1 2 2 3 3 10 4 11 5 9 6 4 8 5 9 6 10 7 11 8 12
REMARK H PARENT
REMARK Flexibility Score: 80.00
ROOT
ATOM      1  C   UNL     1       6.662  25.994  18.569  1.00  0.00     0.048 C 
ATOM      2  C   UNL     1       7.478  25.745  19.816  1.00  0.00    -0.008 C 
ATOM      3  C   UNL     1       8.787  26.070  19.781  1.00  0.00     0.007 C 
ENDROOT
BRANCH   2   4
ATOM      4  C   UNL     1       6.787  25.090  20.956  1.00  0.00     0.159 C 
ATOM      5  O   UNL     1       5.638  24.603  20.772  1.00  0.00    -0.295 OA
BRANCH   4   6
ATOM      6  C   UNL     1       7.376  24.987  22.329  1.00  0.00     0.091 CG0
ATOM      7  G   UNL     1       8.717  24.220  22.361  1.00  0.00     0.000 G0
ENDBRANCH   4   6
ENDBRANCH   2   4
BRANCH   3   8
ATOM      8  C   UNL     1       9.833  25.920  20.822  1.00  0.00    -0.003 C 
ATOM      9  C   UNL     1       9.836  25.138  21.909  1.00  0.00    -0.020 C 
BRANCH   9  10
ATOM     10  C   UNL     1       8.725  24.218  22.356  1.00  0.00    -0.010 CG0
ATOM     11  C   UNL     1       8.990  23.814  23.824  1.00  0.00     0.016 C 
ATOM     12  C   UNL     1       8.728  22.931  21.499  1.00  0.00     0.016 C 
ATOM     13  G   UNL     1       7.374  24.967  22.301  1.00  0.00     0.000 G0
ENDBRANCH   9  10
ENDBRANCH   3   8
TORSDOF 0
ENDMDL
MODEL 6
REMARK VINA RESULT:    -1.838      1.595      2.425
REMARK INTER + INTRA:          -1.508
REMARK INTER:                  -2.270
REMARK INTRA:                   0.762
REMARK UNBOUND:                 0.760
REMARK SMILES CC1=CC=CC(C)(C)CC1=O
REMARK SMILES IDX 1 1 2 2 3 3 10 4 11 5 9 6 4 8 5 9 6 10 7 11 8 12
REMARK H PARENT
REMARK Flexibility Score: 80.00
ROOT
ATOM      1  C   UNL     1       9.406  22.122  21.135  1.00  0.00     0.048 C 
ATOM      2  C   UNL     1       9.788  22.758  22.451  1.00  0.00    -0.008 C 
ATOM      3  C   UNL     1      10.014  21.938  23.499  1.00  0.00     0.007 C 
ENDROOT
BRANCH   2   4
ATOM      4  C   UNL     1       9.810  24.242  22.504  1.00  0.00     0.159 C 
ATOM      5  O   UNL     1       9.319  24.891  21.541  1.00  0.00    -0.295 OA
BRANCH   4   6
ATOM      6  C   UNL     1      10.398  25.019  23.641  1.00  0.00     0.091 CG0
ATOM      7  G   UNL     1       9.714  24.730  24.996  1.00  0.00     0.000 G0
ENDBRANCH   4   6
ENDBRANCH   2   4
BRANCH   3   8
ATOM      8  C   UNL     1      10.372  22.261  24.901  1.00  0.00    -0.003 C 
ATOM      9  C   UNL     1      10.243  23.420  25.560  1.00  0.00    -0.020 C 
BRANCH   9  10
ATOM     10  C   UNL     1       9.708  24.716  24.999  1.00  0.00    -0.010 CG0
ATOM     11  C   UNL     1      10.064  25.854  25.982  1.00  0.00     0.016 C 
ATOM     12  C   UNL     1       8.167  24.647  24.886  1.00  0.00     0.016 C 
ATOM     13  G   UNL     1      10.391  25.020  23.646  1.00  0.00     0.000 G0
ENDBRANCH   9  10
ENDBRANCH   3   8
TORSDOF 0
ENDMDL
MODEL 7
REMARK VINA RESULT:    -1.828     20.182     21.469
REMARK INTER + INTRA:          -1.495
REMARK INTER:                  -2.245
REMARK INTRA:                   0.750
REMARK UNBOUND:                 0.760
REMARK SMILES CC1=CC=CC(C)(C)CC1=O
REMARK SMILES IDX 1 1 2 2 3 3 10 4 11 5 9 6 4 8 5 9 6 10 7 11 8 12
REMARK H PARENT
REMARK Flexibility Score: 80.00
ROOT
ATOM      1  C   UNL     1      -3.327  24.029   7.030  1.00  0.00     0.048 C 
ATOM      2  C   UNL     1      -4.680  23.906   7.692  1.00  0.00    -0.008 C 
ATOM      3  C   UNL     1      -5.739  23.627   6.902  1.00  0.00     0.007 C 
ENDROOT
BRANCH   2   4
ATOM      4  C   UNL     1      -4.746  24.180   9.149  1.00  0.00     0.159 C 
ATOM      5  O   UNL     1      -3.731  24.658   9.725  1.00  0.00    -0.295 OA
BRANCH   4   6
ATOM      6  C   UNL     1      -5.957  23.907   9.987  1.00  0.00     0.091 CG0
ATOM      7  G   UNL     1      -7.222  24.642   9.488  1.00  0.00     0.000 G0
ENDBRANCH   4   6
ENDBRANCH   2   4
BRANCH   3   8
ATOM      8  C   UNL     1      -7.172  23.475   7.251  1.00  0.00    -0.003 C 
ATOM      9  C   UNL     1      -7.826  23.903   8.339  1.00  0.00    -0.020 C 
BRANCH   9  10
ATOM     10  C   UNL     1      -7.228  24.641   9.513  1.00  0.00    -0.010 CG0
ATOM     11  C   UNL     1      -8.248  24.612  10.674  1.00  0.00     0.016 C 
ATOM     12  C   UNL     1      -6.976  26.118   9.136  1.00  0.00     0.016 C 
ATOM     13  G   UNL     1      -5.945  23.919   9.984  1.00  0.00     0.000 G0
ENDBRANCH   9  10
ENDBRANCH   3   8
TORSDOF 0
ENDMDL
MODEL 8
REMARK VINA RESULT:    -1.779      1.077      1.303
REMARK INTER + INTRA:          -1.435
REMARK INTER:                  -2.199
REMARK INTRA:                   0.764
REMARK UNBOUND:                 0.760
REMARK SMILES CC1=CC=CC(C)(C)CC1=O
REMARK SMILES IDX 1 1 2 2 3 3 10 4 11 5 9 6 4 8 5 9 6 10 7 11 8 12
REMARK H PARENT
REMARK Flexibility Score: 80.00
ROOT
ATOM      1  C   UNL     1       6.246  24.985  21.007  1.00  0.00     0.048 C 
ATOM      2  C   UNL     1       7.545  24.616  21.685  1.00  0.00    -0.008 C 
ATOM      3  C   UNL     1       8.309  23.671  21.098  1.00  0.00     0.007 C 
ENDROOT
BRANCH   2   4
ATOM      4  C   UNL     1       7.838  25.269  22.986  1.00  0.00     0.159 C 
ATOM      5  O   UNL     1       6.916  25.904  23.568  1.00  0.00    -0.295 OA
BRANCH   4   6
ATOM      6  C   UNL     1       9.181  25.229  23.646  1.00  0.00     0.091 CG0
ATOM      7  G   UNL     1       9.646  23.797  23.997  1.00  0.00     0.000 G0
ENDBRANCH   4   6
ENDBRANCH   2   4
BRANCH   3   8
ATOM      8  C   UNL     1       9.602  23.088  21.531  1.00  0.00    -0.003 C 
ATOM      9  C   UNL     1      10.177  23.115  22.741  1.00  0.00    -0.020 C 
BRANCH   9  10
ATOM     10  C   UNL     1       9.634  23.792  23.977  1.00  0.00    -0.010 CG0
ATOM     11  C   UNL     1      10.773  23.883  25.019  1.00  0.00     0.016 C 
ATOM     12  C   UNL     1       8.496  22.942  24.588  1.00  0.00     0.016 C 
ATOM     13  G   UNL     1       9.185  25.229  23.630  1.00  0.00     0.000 G0
ENDBRANCH   9  10
ENDBRANCH   3   8
TORSDOF 0
ENDMDL
MODEL 9
REMARK VINA RESULT:    -1.711      2.063      3.857
REMARK INTER + INTRA:          -1.352
REMARK INTER:                  -2.119
REMARK INTRA:                   0.768
REMARK UNBOUND:                 0.760
REMARK SMILES CC1=CC=CC(C)(C)CC1=O
REMARK SMILES IDX 1 1 2 2 3 3 10 4 11 5 9 6 4 8 5 9 6 10 7 11 8 12
REMARK H PARENT
REMARK Flexibility Score: 80.00
ROOT
ATOM      1  C   UNL     1       8.716  21.686  24.988  1.00  0.00     0.048 C 
ATOM      2  C   UNL     1       9.117  22.974  24.307  1.00  0.00    -0.008 C 
ATOM      3  C   UNL     1       8.520  24.112  24.721  1.00  0.00     0.007 C 
ENDROOT
BRANCH   2   4
ATOM      4  C   UNL     1      10.080  22.872  23.182  1.00  0.00     0.159 C 
ATOM      5  O   UNL     1      10.368  21.730  22.730  1.00  0.00    -0.295 OA
BRANCH   4   6
ATOM      6  C   UNL     1      10.748  24.057  22.556  1.00  0.00     0.091 CG0
ATOM      7  G   UNL     1       9.748  25.077  21.965  1.00  0.00     0.000 G0
ENDBRANCH   4   6
ENDBRANCH   2   4
BRANCH   3   8
ATOM      8  C   UNL     1       8.682  25.503  24.235  1.00  0.00    -0.003 C 
ATOM      9  C   UNL     1       9.189  25.937  23.073  1.00  0.00    -0.020 C 
BRANCH   9  10
ATOM     10  C   UNL     1       9.756  25.082  21.965  1.00  0.00    -0.010 CG0
ATOM     11  C   UNL     1      10.530  25.999  20.992  1.00  0.00     0.016 C 
ATOM     12  C   UNL     1       8.608  24.409  21.177  1.00  0.00     0.016 C 
ATOM     13  G   UNL     1      10.753  24.058  22.555  1.00  0.00     0.000 G0
ENDBRANCH   9  10
ENDBRANCH   3   8
TORSDOF 0
ENDMDL
