MODEL 1
REMARK VINA RESULT:    -4.688      0.000      0.000
REMARK INTER + INTRA:          -6.832
REMARK INTER:                  -5.784
REMARK INTRA:                  -1.048
REMARK UNBOUND:                -1.048
REMARK SMILES CC(C)=CCC[C@@H](C)c1ccc(C)cc1
REMARK SMILES IDX 6 1 7 2 8 3 9 4 13 5 12 6 11 7 14 8 10 9 15 10 5 11 4 12
REMARK SMILES IDX 2 13 1 14 3 15
REMARK H PARENT
REMARK Flexibility Score: inf
ROOT
ATOM      1  C   UNL     1      -2.893 -10.120  12.318  1.00  0.00     0.012 C 
ENDROOT
BRANCH   1   2
ATOM      2  C   UNL     1      -2.300  -9.370  11.104  1.00  0.00     0.016 C 
ATOM      3  C   UNL     1      -0.915  -9.903  10.709  1.00  0.00     0.013 C 
BRANCH   2   4
ATOM      4  C   UNL     1      -3.252  -9.443   9.922  1.00  0.00    -0.045 A 
ATOM      5  C   UNL     1      -5.929  -9.603   6.536  1.00  0.00     0.044 C 
ATOM      6  C   UNL     1      -5.002  -9.577   7.715  1.00  0.00    -0.051 A 
ATOM      7  C   UNL     1      -5.509  -9.388   9.009  1.00  0.00     0.004 A 
ATOM      8  C   UNL     1      -3.616  -9.673   7.527  1.00  0.00     0.004 A 
ATOM      9  C   UNL     1      -4.642  -9.326  10.104  1.00  0.00     0.004 A 
ATOM     10  C   UNL     1      -2.749  -9.612   8.620  1.00  0.00     0.004 A 
ENDBRANCH   2   4
ENDBRANCH   1   2
BRANCH   1  11
ATOM     11  C   UNL     1      -3.145  -9.194  13.519  1.00  0.00     0.028 C 
BRANCH  11  12
ATOM     12  C   UNL     1      -4.619  -9.108  13.826  1.00  0.00    -0.028 C 
ATOM     13  C   UNL     1      -5.398  -8.043  13.536  1.00  0.00    -0.080 C 
ATOM     14  C   UNL     1      -6.867  -8.117  13.865  1.00  0.00     0.039 C 
ATOM     15  C   UNL     1      -4.837  -6.786  12.912  1.00  0.00     0.039 C 
ENDBRANCH  11  12
ENDBRANCH   1  11
TORSDOF 4
ENDMDL
MODEL 2
REMARK VINA RESULT:    -4.576      1.322      4.966
REMARK INTER + INTRA:          -6.695
REMARK INTER:                  -5.375
REMARK INTRA:                  -1.320
REMARK UNBOUND:                -1.048
REMARK SMILES CC(C)=CCC[C@@H](C)c1ccc(C)cc1
REMARK SMILES IDX 6 1 7 2 8 3 9 4 13 5 12 6 11 7 14 8 10 9 15 10 5 11 4 12
REMARK SMILES IDX 2 13 1 14 3 15
REMARK H PARENT
REMARK Flexibility Score: inf
ROOT
ATOM      1  C   UNL     1      -3.012  -7.882   9.086  1.00  0.00     0.012 C 
ENDROOT
BRANCH   1   2
ATOM      2  C   UNL     1      -4.549  -7.769   9.198  1.00  0.00     0.016 C 
ATOM      3  C   UNL     1      -5.275  -8.655   8.174  1.00  0.00     0.013 C 
BRANCH   2   4
ATOM      4  C   UNL     1      -5.002  -8.108  10.607  1.00  0.00    -0.045 A 
ATOM      5  C   UNL     1      -6.349  -9.070  14.597  1.00  0.00     0.044 C 
ATOM      6  C   UNL     1      -5.857  -8.752  13.217  1.00  0.00    -0.051 A 
ATOM      7  C   UNL     1      -5.093  -7.599  12.987  1.00  0.00     0.004 A 
ATOM      8  C   UNL     1      -6.213  -9.567  12.133  1.00  0.00     0.004 A 
ATOM      9  C   UNL     1      -4.665  -7.281  11.695  1.00  0.00     0.004 A 
ATOM     10  C   UNL     1      -5.786  -9.252  10.841  1.00  0.00     0.004 A 
ENDBRANCH   2   4
ENDBRANCH   1   2
BRANCH   1  11
ATOM     11  C   UNL     1      -2.511  -9.326   9.243  1.00  0.00     0.028 C 
BRANCH  11  12
ATOM     12  C   UNL     1      -1.220  -9.361  10.022  1.00  0.00    -0.028 C 
ATOM     13  C   UNL     1      -1.119  -9.728  11.318  1.00  0.00    -0.080 C 
ATOM     14  C   UNL     1       0.247  -9.753  11.954  1.00  0.00     0.039 C 
ATOM     15  C   UNL     1      -2.332 -10.093  12.144  1.00  0.00     0.039 C 
ENDBRANCH  11  12
ENDBRANCH   1  11
TORSDOF 4
ENDMDL
MODEL 3
REMARK VINA RESULT:    -4.499      1.566      3.800
REMARK INTER + INTRA:          -6.600
REMARK INTER:                  -5.837
REMARK INTRA:                  -0.762
REMARK UNBOUND:                -1.048
REMARK SMILES CC(C)=CCC[C@@H](C)c1ccc(C)cc1
REMARK SMILES IDX 6 1 7 2 8 3 9 4 13 5 12 6 11 7 14 8 10 9 15 10 5 11 4 12
REMARK SMILES IDX 2 13 1 14 3 15
REMARK H PARENT
REMARK Flexibility Score: inf
ROOT
ATOM      1  C   UNL     1      -4.287  -9.952  13.309  1.00  0.00     0.012 C 
ENDROOT
BRANCH   1   2
ATOM      2  C   UNL     1      -5.233  -8.804  12.891  1.00  0.00     0.016 C 
ATOM      3  C   UNL     1      -4.784  -7.445  13.451  1.00  0.00     0.013 C 
BRANCH   2   4
ATOM      4  C   UNL     1      -5.351  -8.741  11.379  1.00  0.00    -0.045 A 
ATOM      5  C   UNL     1      -5.673  -8.621   7.073  1.00  0.00     0.044 C 
ATOM      6  C   UNL     1      -5.583  -8.643   8.570  1.00  0.00    -0.051 A 
ATOM      7  C   UNL     1      -4.699  -7.783   9.237  1.00  0.00     0.004 A 
ATOM      8  C   UNL     1      -6.332  -9.569   9.310  1.00  0.00     0.004 A 
ATOM      9  C   UNL     1      -4.586  -7.828  10.630  1.00  0.00     0.004 A 
ATOM     10  C   UNL     1      -6.221  -9.615  10.702  1.00  0.00     0.004 A 
ENDBRANCH   2   4
ENDBRANCH   1   2
BRANCH   1  11
ATOM     11  C   UNL     1      -2.892  -9.453  13.714  1.00  0.00     0.028 C 
BRANCH  11  12
ATOM     12  C   UNL     1      -1.914  -9.624  12.579  1.00  0.00    -0.028 C 
ATOM     13  C   UNL     1      -0.579  -9.756  12.734  1.00  0.00    -0.080 C 
ATOM     14  C   UNL     1       0.271  -9.961  11.506  1.00  0.00     0.039 C 
ATOM     15  C   UNL     1       0.080  -9.685  14.092  1.00  0.00     0.039 C 
ENDBRANCH  11  12
ENDBRANCH   1  11
TORSDOF 4
ENDMDL
MODEL 4
REMARK VINA RESULT:    -4.357     11.214     13.226
REMARK INTER + INTRA:          -6.424
REMARK INTER:                  -5.764
REMARK INTRA:                  -0.660
REMARK UNBOUND:                -1.048
REMARK SMILES CC(C)=CCC[C@@H](C)c1ccc(C)cc1
REMARK SMILES IDX 6 1 7 2 8 3 9 4 13 5 12 6 11 7 14 8 10 9 15 10 5 11 4 12
REMARK SMILES IDX 2 13 1 14 3 15
REMARK H PARENT
REMARK Flexibility Score: inf
ROOT
ATOM      1  C   UNL     1      -6.616  -5.647  23.326  1.00  0.00     0.012 C 
ENDROOT
BRANCH   1   2
ATOM      2  C   UNL     1      -6.660  -5.264  21.829  1.00  0.00     0.016 C 
ATOM      3  C   UNL     1      -7.399  -6.310  20.981  1.00  0.00     0.013 C 
BRANCH   2   4
ATOM      4  C   UNL     1      -7.291  -3.895  21.652  1.00  0.00    -0.045 A 
ATOM      5  C   UNL     1      -9.104   0.001  21.206  1.00  0.00     0.044 C 
ATOM      6  C   UNL     1      -8.454  -1.344  21.340  1.00  0.00    -0.051 A 
ATOM      7  C   UNL     1      -8.893  -2.422  20.558  1.00  0.00     0.004 A 
ATOM      8  C   UNL     1      -7.450  -1.553  22.296  1.00  0.00     0.004 A 
ATOM      9  C   UNL     1      -8.314  -3.685  20.709  1.00  0.00     0.004 A 
ATOM     10  C   UNL     1      -6.870  -2.815  22.448  1.00  0.00     0.004 A 
ENDBRANCH   2   4
ENDBRANCH   1   2
BRANCH   1  11
ATOM     11  C   UNL     1      -5.211  -6.060  23.791  1.00  0.00     0.028 C 
BRANCH  11  12
ATOM     12  C   UNL     1      -4.601  -7.047  22.828  1.00  0.00    -0.028 C 
ATOM     13  C   UNL     1      -4.893  -8.366  22.797  1.00  0.00    -0.080 C 
ATOM     14  C   UNL     1      -4.233  -9.224  21.750  1.00  0.00     0.039 C 
ATOM     15  C   UNL     1      -5.843  -8.998  23.789  1.00  0.00     0.039 C 
ENDBRANCH  11  12
ENDBRANCH   1  11
TORSDOF 4
ENDMDL
MODEL 5
REMARK VINA RESULT:    -4.289     15.626     17.075
REMARK INTER + INTRA:          -6.340
REMARK INTER:                  -5.583
REMARK INTRA:                  -0.758
REMARK UNBOUND:                -1.048
REMARK SMILES CC(C)=CCC[C@@H](C)c1ccc(C)cc1
REMARK SMILES IDX 6 1 7 2 8 3 9 4 13 5 12 6 11 7 14 8 10 9 15 10 5 11 4 12
REMARK SMILES IDX 2 13 1 14 3 15
REMARK H PARENT
REMARK Flexibility Score: inf
ROOT
ATOM      1  C   UNL     1       1.077   6.767   8.105  1.00  0.00     0.012 C 
ENDROOT
BRANCH   1   2
ATOM      2  C   UNL     1       0.239   6.720   9.403  1.00  0.00     0.016 C 
ATOM      3  C   UNL     1       0.811   7.629  10.501  1.00  0.00     0.013 C 
BRANCH   2   4
ATOM      4  C   UNL     1      -1.206   7.084   9.112  1.00  0.00    -0.045 A 
ATOM      5  C   UNL     1      -5.299   8.149   8.235  1.00  0.00     0.044 C 
ATOM      6  C   UNL     1      -3.888   7.754   8.552  1.00  0.00    -0.051 A 
ATOM      7  C   UNL     1      -3.293   8.161   9.755  1.00  0.00     0.004 A 
ATOM      8  C   UNL     1      -3.128   7.033   7.620  1.00  0.00     0.004 A 
ATOM      9  C   UNL     1      -1.966   7.826  10.036  1.00  0.00     0.004 A 
ATOM     10  C   UNL     1      -1.801   6.697   7.899  1.00  0.00     0.004 A 
ENDBRANCH   2   4
ENDBRANCH   1   2
BRANCH   1  11
ATOM     11  C   UNL     1       2.586   6.863   8.379  1.00  0.00     0.028 C 
BRANCH  11  12
ATOM     12  C   UNL     1       3.210   5.490   8.406  1.00  0.00    -0.028 C 
ATOM     13  C   UNL     1       3.847   4.962   9.474  1.00  0.00    -0.080 C 
ATOM     14  C   UNL     1       4.386   3.559   9.368  1.00  0.00     0.039 C 
ATOM     15  C   UNL     1       4.046   5.741  10.754  1.00  0.00     0.039 C 
ENDBRANCH  11  12
ENDBRANCH   1  11
TORSDOF 4
ENDMDL
MODEL 6
REMARK VINA RESULT:    -4.255     15.649     17.112
REMARK INTER + INTRA:          -6.299
REMARK INTER:                  -5.558
REMARK INTRA:                  -0.740
REMARK UNBOUND:                -1.048
REMARK SMILES CC(C)=CCC[C@@H](C)c1ccc(C)cc1
REMARK SMILES IDX 6 1 7 2 8 3 9 4 13 5 12 6 11 7 14 8 10 9 15 10 5 11 4 12
REMARK SMILES IDX 2 13 1 14 3 15
REMARK H PARENT
REMARK Flexibility Score: inf
ROOT
ATOM      1  C   UNL     1       1.002   6.754   8.124  1.00  0.00     0.012 C 
ENDROOT
BRANCH   1   2
ATOM      2  C   UNL     1       0.131   6.697   9.400  1.00  0.00     0.016 C 
ATOM      3  C   UNL     1       0.697   7.567  10.532  1.00  0.00     0.013 C 
BRANCH   2   4
ATOM      4  C   UNL     1      -1.297   7.104   9.082  1.00  0.00    -0.045 A 
ATOM      5  C   UNL     1      -5.378   8.234   8.228  1.00  0.00     0.044 C 
ATOM      6  C   UNL     1      -3.952   7.868   8.512  1.00  0.00    -0.051 A 
ATOM      7  C   UNL     1      -3.220   7.108   7.588  1.00  0.00     0.004 A 
ATOM      8  C   UNL     1      -3.359   8.222   9.732  1.00  0.00     0.004 A 
ATOM      9  C   UNL     1      -1.903   6.733   7.867  1.00  0.00     0.004 A 
ATOM     10  C   UNL     1      -2.043   7.848  10.013  1.00  0.00     0.004 A 
ENDBRANCH   2   4
ENDBRANCH   1   2
BRANCH   1  11
ATOM     11  C   UNL     1       2.502   6.874   8.437  1.00  0.00     0.028 C 
BRANCH  11  12
ATOM     12  C   UNL     1       3.169   5.522   8.374  1.00  0.00    -0.028 C 
ATOM     13  C   UNL     1       3.810   4.938   9.409  1.00  0.00    -0.080 C 
ATOM     14  C   UNL     1       4.395   3.563   9.209  1.00  0.00     0.039 C 
ATOM     15  C   UNL     1       3.969   5.627  10.745  1.00  0.00     0.039 C 
ENDBRANCH  11  12
ENDBRANCH   1  11
TORSDOF 4
ENDMDL
MODEL 7
REMARK VINA RESULT:    -4.251      1.708      5.294
REMARK INTER + INTRA:          -6.294
REMARK INTER:                  -5.258
REMARK INTRA:                  -1.036
REMARK UNBOUND:                -1.048
REMARK SMILES CC(C)=CCC[C@@H](C)c1ccc(C)cc1
REMARK SMILES IDX 6 1 7 2 8 3 9 4 13 5 12 6 11 7 14 8 10 9 15 10 5 11 4 12
REMARK SMILES IDX 2 13 1 14 3 15
REMARK H PARENT
REMARK Flexibility Score: inf
ROOT
ATOM      1  C   UNL     1      -4.170  -7.506  10.650  1.00  0.00     0.012 C 
ENDROOT
BRANCH   1   2
ATOM      2  C   UNL     1      -4.402  -8.926  11.214  1.00  0.00     0.016 C 
ATOM      3  C   UNL     1      -3.245  -9.395  12.108  1.00  0.00     0.013 C 
BRANCH   2   4
ATOM      4  C   UNL     1      -5.716  -8.985  11.973  1.00  0.00    -0.045 A 
ATOM      5  C   UNL     1      -9.482  -9.135  14.083  1.00  0.00     0.044 C 
ATOM      6  C   UNL     1      -8.164  -9.106  13.367  1.00  0.00    -0.051 A 
ATOM      7  C   UNL     1      -7.130  -8.276  13.824  1.00  0.00     0.004 A 
ATOM      8  C   UNL     1      -7.978  -9.854  12.196  1.00  0.00     0.004 A 
ATOM      9  C   UNL     1      -5.915  -8.219  13.137  1.00  0.00     0.004 A 
ATOM     10  C   UNL     1      -6.764  -9.799  11.508  1.00  0.00     0.004 A 
ENDBRANCH   2   4
ENDBRANCH   1   2
BRANCH   1  11
ATOM     11  C   UNL     1      -4.086  -7.484   9.116  1.00  0.00     0.028 C 
BRANCH  11  12
ATOM     12  C   UNL     1      -5.355  -8.025   8.505  1.00  0.00    -0.028 C 
ATOM     13  C   UNL     1      -5.454  -9.221   7.885  1.00  0.00    -0.080 C 
ATOM     14  C   UNL     1      -6.800  -9.647   7.358  1.00  0.00     0.039 C 
ATOM     15  C   UNL     1      -4.259 -10.125   7.691  1.00  0.00     0.039 C 
ENDBRANCH  11  12
ENDBRANCH   1  11
TORSDOF 4
ENDMDL
MODEL 8
REMARK VINA RESULT:    -4.209     11.367     14.686
REMARK INTER + INTRA:          -6.242
REMARK INTER:                  -5.647
REMARK INTRA:                  -0.594
REMARK UNBOUND:                -1.048
REMARK SMILES CC(C)=CCC[C@@H](C)c1ccc(C)cc1
REMARK SMILES IDX 6 1 7 2 8 3 9 4 13 5 12 6 11 7 14 8 10 9 15 10 5 11 4 12
REMARK SMILES IDX 2 13 1 14 3 15
REMARK H PARENT
REMARK Flexibility Score: inf
ROOT
ATOM      1  C   UNL     1      -6.453  -1.117  23.195  1.00  0.00     0.012 C 
ENDROOT
BRANCH   1   2
ATOM      2  C   UNL     1      -7.722  -1.491  22.395  1.00  0.00     0.016 C 
ATOM      3  C   UNL     1      -8.009  -0.499  21.259  1.00  0.00     0.013 C 
BRANCH   2   4
ATOM      4  C   UNL     1      -7.605  -2.903  21.849  1.00  0.00    -0.045 A 
ATOM      5  C   UNL     1      -7.331  -6.928  20.306  1.00  0.00     0.044 C 
ATOM      6  C   UNL     1      -7.405  -5.522  20.823  1.00  0.00    -0.051 A 
ATOM      7  C   UNL     1      -6.601  -5.121  21.899  1.00  0.00     0.004 A 
ATOM      8  C   UNL     1      -8.327  -4.617  20.279  1.00  0.00     0.004 A 
ATOM      9  C   UNL     1      -6.696  -3.822  22.405  1.00  0.00     0.004 A 
ATOM     10  C   UNL     1      -8.423  -3.318  20.784  1.00  0.00     0.004 A 
ENDBRANCH   2   4
ENDBRANCH   1   2
BRANCH   1  11
ATOM     11  C   UNL     1      -6.717  -1.000  24.704  1.00  0.00     0.028 C 
BRANCH  11  12
ATOM     12  C   UNL     1      -7.182   0.391  25.057  1.00  0.00    -0.028 C 
ATOM     13  C   UNL     1      -6.395   1.344  25.601  1.00  0.00    -0.080 C 
ATOM     14  C   UNL     1      -6.989   2.704  25.862  1.00  0.00     0.039 C 
ATOM     15  C   UNL     1      -4.953   1.080  25.966  1.00  0.00     0.039 C 
ENDBRANCH  11  12
ENDBRANCH   1  11
TORSDOF 4
ENDMDL
MODEL 9
REMARK VINA RESULT:    -4.086     15.607     16.776
REMARK INTER + INTRA:          -6.089
REMARK INTER:                  -5.345
REMARK INTRA:                  -0.744
REMARK UNBOUND:                -1.048
REMARK SMILES CC(C)=CCC[C@@H](C)c1ccc(C)cc1
REMARK SMILES IDX 6 1 7 2 8 3 9 4 13 5 12 6 11 7 14 8 10 9 15 10 5 11 4 12
REMARK SMILES IDX 2 13 1 14 3 15
REMARK H PARENT
REMARK Flexibility Score: inf
ROOT
ATOM      1  C   UNL     1       1.400   7.415   9.902  1.00  0.00     0.012 C 
ENDROOT
BRANCH   1   2
ATOM      2  C   UNL     1       1.881   6.755   8.590  1.00  0.00     0.016 C 
ATOM      3  C   UNL     1       2.452   7.779   7.597  1.00  0.00     0.013 C 
BRANCH   2   4
ATOM      4  C   UNL     1       2.907   5.676   8.887  1.00  0.00    -0.045 A 
ATOM      5  C   UNL     1       5.785   2.562   9.713  1.00  0.00     0.044 C 
ATOM      6  C   UNL     1       4.808   3.662   9.419  1.00  0.00    -0.051 A 
ATOM      7  C   UNL     1       4.381   4.520  10.443  1.00  0.00     0.004 A 
ATOM      8  C   UNL     1       4.261   3.798   8.135  1.00  0.00     0.004 A 
ATOM      9  C   UNL     1       3.443   5.521  10.179  1.00  0.00     0.004 A 
ATOM     10  C   UNL     1       3.323   4.799   7.870  1.00  0.00     0.004 A 
ENDBRANCH   2   4
ENDBRANCH   1   2
BRANCH   1  11
ATOM     11  C   UNL     1      -0.019   6.979  10.298  1.00  0.00     0.028 C 
BRANCH  11  12
ATOM     12  C   UNL     1      -0.880   6.791   9.073  1.00  0.00    -0.028 C 
ATOM     13  C   UNL     1      -2.091   7.363   8.896  1.00  0.00    -0.080 C 
ATOM     14  C   UNL     1      -2.819   7.116   7.600  1.00  0.00     0.039 C 
ATOM     15  C   UNL     1      -2.735   8.221   9.960  1.00  0.00     0.039 C 
ENDBRANCH  11  12
ENDBRANCH   1  11
TORSDOF 4
ENDMDL
