MODEL 1
REMARK VINA RESULT:    -5.424      0.000      0.000
REMARK INTER + INTRA:          -6.146
REMARK INTER:                  -5.900
REMARK INTRA:                  -0.246
REMARK UNBOUND:                -0.246
REMARK SMILES O=C([O-])c1ccccc1O
REMARK SMILES IDX 4 1 9 2 5 3 8 4 6 5 7 6 2 7 1 8 3 9 10 10
REMARK H PARENT 10 11
REMARK Flexibility Score: inf
ROOT
ATOM      1  C   UNL     1      44.217  58.324  47.886  1.00  0.00     0.039 A 
ATOM      2  C   UNL     1      43.746  59.619  47.546  1.00  0.00     0.124 A 
ATOM      3  C   UNL     1      43.564  57.200  47.347  1.00  0.00     0.014 A 
ATOM      4  C   UNL     1      42.610  59.753  46.737  1.00  0.00     0.047 A 
ATOM      5  C   UNL     1      42.445  57.351  46.524  1.00  0.00     0.001 A 
ATOM      6  C   UNL     1      41.963  58.626  46.227  1.00  0.00     0.004 A 
ENDROOT
BRANCH   1   7
ATOM      7  C   UNL     1      45.349  58.100  48.813  1.00  0.00     0.075 C 
ATOM      8  O   UNL     1      46.292  57.325  48.508  1.00  0.00    -0.545 OA
ATOM      9  O   UNL     1      45.416  58.806  50.010  1.00  0.00    -0.545 OA
ENDBRANCH   1   7
BRANCH   2  10
ATOM     10  O   UNL     1      44.389  60.788  47.958  1.00  0.00    -0.507 OA
ATOM     11  H   UNL     1      44.786  61.463  47.318  1.00  0.00     0.293 HD
ENDBRANCH   2  10
TORSDOF 2
ENDMDL
MODEL 2
REMARK VINA RESULT:    -5.417      1.783      2.963
REMARK INTER + INTRA:          -6.138
REMARK INTER:                  -5.916
REMARK INTRA:                  -0.223
REMARK UNBOUND:                -0.246
REMARK SMILES O=C([O-])c1ccccc1O
REMARK SMILES IDX 4 1 9 2 5 3 8 4 6 5 7 6 2 7 1 8 3 9 10 10
REMARK H PARENT 10 11
REMARK Flexibility Score: inf
ROOT
ATOM      1  C   UNL     1      43.491  59.424  49.023  1.00  0.00     0.039 A 
ATOM      2  C   UNL     1      44.452  58.455  48.633  1.00  0.00     0.124 A 
ATOM      3  C   UNL     1      42.134  59.055  49.071  1.00  0.00     0.014 A 
ATOM      4  C   UNL     1      44.028  57.178  48.244  1.00  0.00     0.047 A 
ATOM      5  C   UNL     1      41.731  57.770  48.700  1.00  0.00     0.001 A 
ATOM      6  C   UNL     1      42.676  56.836  48.278  1.00  0.00     0.004 A 
ENDROOT
BRANCH   1   7
ATOM      7  C   UNL     1      43.850  60.822  49.353  1.00  0.00     0.075 C 
ATOM      8  O   UNL     1      44.991  61.278  49.080  1.00  0.00    -0.545 OA
ATOM      9  O   UNL     1      42.899  61.671  49.908  1.00  0.00    -0.545 OA
ENDBRANCH   1   7
BRANCH   2  10
ATOM     10  O   UNL     1      45.826  58.706  48.649  1.00  0.00    -0.507 OA
ATOM     11  H   UNL     1      46.488  58.156  49.178  1.00  0.00     0.293 HD
ENDBRANCH   2  10
TORSDOF 2
ENDMDL
MODEL 3
REMARK VINA RESULT:    -5.396      1.741      3.131
REMARK INTER + INTRA:          -6.115
REMARK INTER:                  -5.902
REMARK INTRA:                  -0.213
REMARK UNBOUND:                -0.246
REMARK SMILES O=C([O-])c1ccccc1O
REMARK SMILES IDX 4 1 9 2 5 3 8 4 6 5 7 6 2 7 1 8 3 9 10 10
REMARK H PARENT 10 11
REMARK Flexibility Score: inf
ROOT
ATOM      1  C   UNL     1      42.880  59.421  48.832  1.00  0.00     0.039 A 
ATOM      2  C   UNL     1      43.283  58.139  49.292  1.00  0.00     0.124 A 
ATOM      3  C   UNL     1      41.857  59.508  47.870  1.00  0.00     0.014 A 
ATOM      4  C   UNL     1      42.704  56.991  48.736  1.00  0.00     0.047 A 
ATOM      5  C   UNL     1      41.275  58.353  47.342  1.00  0.00     0.001 A 
ATOM      6  C   UNL     1      41.704  57.097  47.767  1.00  0.00     0.004 A 
ENDROOT
BRANCH   1   7
ATOM      7  C   UNL     1      43.513  60.675  49.299  1.00  0.00     0.075 C 
ATOM      8  O   UNL     1      42.833  61.573  49.862  1.00  0.00    -0.545 OA
ATOM      9  O   UNL     1      44.889  60.843  49.183  1.00  0.00    -0.545 OA
ENDBRANCH   1   7
BRANCH   2  10
ATOM     10  O   UNL     1      44.221  57.963  50.311  1.00  0.00    -0.507 OA
ATOM     11  H   UNL     1      43.998  58.037  51.294  1.00  0.00     0.293 HD
ENDBRANCH   2  10
TORSDOF 2
ENDMDL
MODEL 4
REMARK VINA RESULT:    -5.374      3.304      3.994
REMARK INTER + INTRA:          -6.092
REMARK INTER:                  -5.849
REMARK INTRA:                  -0.243
REMARK UNBOUND:                -0.246
REMARK SMILES O=C([O-])c1ccccc1O
REMARK SMILES IDX 4 1 9 2 5 3 8 4 6 5 7 6 2 7 1 8 3 9 10 10
REMARK H PARENT 10 11
REMARK Flexibility Score: inf
ROOT
ATOM      1  C   UNL     1      42.141  57.734  46.954  1.00  0.00     0.039 A 
ATOM      2  C   UNL     1      40.728  57.598  46.910  1.00  0.00     0.124 A 
ATOM      3  C   UNL     1      42.764  57.957  48.195  1.00  0.00     0.014 A 
ATOM      4  C   UNL     1      39.981  57.752  48.085  1.00  0.00     0.047 A 
ATOM      5  C   UNL     1      42.006  58.086  49.361  1.00  0.00     0.001 A 
ATOM      6  C   UNL     1      40.616  57.993  49.305  1.00  0.00     0.004 A 
ENDROOT
BRANCH   1   7
ATOM      7  C   UNL     1      42.988  57.683  45.742  1.00  0.00     0.075 C 
ATOM      8  O   UNL     1      44.080  58.308  45.689  1.00  0.00    -0.545 OA
ATOM      9  O   UNL     1      42.617  56.881  44.668  1.00  0.00    -0.545 OA
ENDBRANCH   1   7
BRANCH   2  10
ATOM     10  O   UNL     1      40.036  57.282  45.739  1.00  0.00    -0.507 OA
ATOM     11  H   UNL     1      39.979  56.347  45.359  1.00  0.00     0.293 HD
ENDBRANCH   2  10
TORSDOF 2
ENDMDL
MODEL 5
REMARK VINA RESULT:    -5.352      3.463      4.242
REMARK INTER + INTRA:          -6.067
REMARK INTER:                  -5.851
REMARK INTRA:                  -0.216
REMARK UNBOUND:                -0.246
REMARK SMILES O=C([O-])c1ccccc1O
REMARK SMILES IDX 4 1 9 2 5 3 8 4 6 5 7 6 2 7 1 8 3 9 10 10
REMARK H PARENT 10 11
REMARK Flexibility Score: inf
ROOT
ATOM      1  C   UNL     1      41.438  58.022  47.269  1.00  0.00     0.039 A 
ATOM      2  C   UNL     1      42.382  57.710  46.256  1.00  0.00     0.124 A 
ATOM      3  C   UNL     1      41.654  59.157  48.072  1.00  0.00     0.014 A 
ATOM      4  C   UNL     1      43.534  58.494  46.117  1.00  0.00     0.047 A 
ATOM      5  C   UNL     1      42.798  59.942  47.906  1.00  0.00     0.001 A 
ATOM      6  C   UNL     1      43.741  59.605  46.936  1.00  0.00     0.004 A 
ENDROOT
BRANCH   1   7
ATOM      7  C   UNL     1      40.248  57.185  47.542  1.00  0.00     0.075 C 
ATOM      8  O   UNL     1      40.086  56.081  46.959  1.00  0.00    -0.545 OA
ATOM      9  O   UNL     1      39.326  57.581  48.504  1.00  0.00    -0.545 OA
ENDBRANCH   1   7
BRANCH   2  10
ATOM     10  O   UNL     1      42.200  56.660  45.352  1.00  0.00    -0.507 OA
ATOM     11  H   UNL     1      42.204  56.779  44.349  1.00  0.00     0.293 HD
ENDBRANCH   2  10
TORSDOF 2
ENDMDL
MODEL 6
REMARK VINA RESULT:    -5.345      3.372      4.308
REMARK INTER + INTRA:          -6.060
REMARK INTER:                  -5.833
REMARK INTRA:                  -0.227
REMARK UNBOUND:                -0.246
REMARK SMILES O=C([O-])c1ccccc1O
REMARK SMILES IDX 4 1 9 2 5 3 8 4 6 5 7 6 2 7 1 8 3 9 10 10
REMARK H PARENT 10 11
REMARK Flexibility Score: inf
ROOT
ATOM      1  C   UNL     1      42.099  57.568  46.814  1.00  0.00     0.039 A 
ATOM      2  C   UNL     1      41.120  57.833  47.808  1.00  0.00     0.124 A 
ATOM      3  C   UNL     1      43.442  57.421  47.205  1.00  0.00     0.014 A 
ATOM      4  C   UNL     1      41.516  58.006  49.140  1.00  0.00     0.047 A 
ATOM      5  C   UNL     1      43.817  57.575  48.542  1.00  0.00     0.001 A 
ATOM      6  C   UNL     1      42.857  57.876  49.507  1.00  0.00     0.004 A 
ENDROOT
BRANCH   1   7
ATOM      7  C   UNL     1      41.772  57.470  45.374  1.00  0.00     0.075 C 
ATOM      8  O   UNL     1      40.685  57.919  44.925  1.00  0.00    -0.545 OA
ATOM      9  O   UNL     1      42.702  56.941  44.485  1.00  0.00    -0.545 OA
ENDBRANCH   1   7
BRANCH   2  10
ATOM     10  O   UNL     1      39.755  57.899  47.524  1.00  0.00    -0.507 OA
ATOM     11  H   UNL     1      39.201  57.099  47.250  1.00  0.00     0.293 HD
ENDBRANCH   2  10
TORSDOF 2
ENDMDL
MODEL 7
REMARK VINA RESULT:    -5.338      3.219      4.085
REMARK INTER + INTRA:          -6.053
REMARK INTER:                  -5.850
REMARK INTRA:                  -0.202
REMARK UNBOUND:                -0.246
REMARK SMILES O=C([O-])c1ccccc1O
REMARK SMILES IDX 4 1 9 2 5 3 8 4 6 5 7 6 2 7 1 8 3 9 10 10
REMARK H PARENT 10 11
REMARK Flexibility Score: inf
ROOT
ATOM      1  C   UNL     1      41.742  57.949  47.866  1.00  0.00     0.039 A 
ATOM      2  C   UNL     1      42.337  58.801  46.899  1.00  0.00     0.124 A 
ATOM      3  C   UNL     1      42.454  57.657  49.044  1.00  0.00     0.014 A 
ATOM      4  C   UNL     1      43.637  59.280  47.103  1.00  0.00     0.047 A 
ATOM      5  C   UNL     1      43.742  58.161  49.243  1.00  0.00     0.001 A 
ATOM      6  C   UNL     1      44.336  58.963  48.269  1.00  0.00     0.004 A 
ENDROOT
BRANCH   1   7
ATOM      7  C   UNL     1      40.414  57.325  47.676  1.00  0.00     0.075 C 
ATOM      8  O   UNL     1      39.465  57.570  48.467  1.00  0.00    -0.545 OA
ATOM      9  O   UNL     1      40.180  56.513  46.573  1.00  0.00    -0.545 OA
ENDBRANCH   1   7
BRANCH   2  10
ATOM     10  O   UNL     1      41.666  59.219  45.747  1.00  0.00    -0.507 OA
ATOM     11  H   UNL     1      40.724  58.937  45.516  1.00  0.00     0.293 HD
ENDBRANCH   2  10
TORSDOF 2
ENDMDL
MODEL 8
REMARK VINA RESULT:    -5.296      1.701      2.441
REMARK INTER + INTRA:          -6.007
REMARK INTER:                  -5.795
REMARK INTRA:                  -0.212
REMARK UNBOUND:                -0.246
REMARK SMILES O=C([O-])c1ccccc1O
REMARK SMILES IDX 4 1 9 2 5 3 8 4 6 5 7 6 2 7 1 8 3 9 10 10
REMARK H PARENT 10 11
REMARK Flexibility Score: inf
ROOT
ATOM      1  C   UNL     1      43.997  58.892  48.535  1.00  0.00     0.039 A 
ATOM      2  C   UNL     1      44.356  59.998  49.350  1.00  0.00     0.124 A 
ATOM      3  C   UNL     1      42.731  58.883  47.920  1.00  0.00     0.014 A 
ATOM      4  C   UNL     1      43.426  61.021  49.577  1.00  0.00     0.047 A 
ATOM      5  C   UNL     1      41.823  59.922  48.141  1.00  0.00     0.001 A 
ATOM      6  C   UNL     1      42.167  60.985  48.976  1.00  0.00     0.004 A 
ENDROOT
BRANCH   1   7
ATOM      7  C   UNL     1      44.886  57.728  48.327  1.00  0.00     0.075 C 
ATOM      8  O   UNL     1      46.054  57.713  48.797  1.00  0.00    -0.545 OA
ATOM      9  O   UNL     1      44.412  56.601  47.665  1.00  0.00    -0.545 OA
ENDBRANCH   1   7
BRANCH   2  10
ATOM     10  O   UNL     1      45.623  60.135  49.919  1.00  0.00    -0.507 OA
ATOM     11  H   UNL     1      46.298  60.825  49.621  1.00  0.00     0.293 HD
ENDBRANCH   2  10
TORSDOF 2
ENDMDL
MODEL 9
REMARK VINA RESULT:    -5.223      2.395      2.945
REMARK INTER + INTRA:          -5.928
REMARK INTER:                  -5.677
REMARK INTRA:                  -0.250
REMARK UNBOUND:                -0.246
REMARK SMILES O=C([O-])c1ccccc1O
REMARK SMILES IDX 4 1 9 2 5 3 8 4 6 5 7 6 2 7 1 8 3 9 10 10
REMARK H PARENT 10 11
REMARK Flexibility Score: inf
ROOT
ATOM      1  C   UNL     1      42.723  57.731  48.264  1.00  0.00     0.039 A 
ATOM      2  C   UNL     1      42.060  57.296  47.087  1.00  0.00     0.124 A 
ATOM      3  C   UNL     1      41.952  58.114  49.377  1.00  0.00     0.014 A 
ATOM      4  C   UNL     1      40.660  57.316  47.033  1.00  0.00     0.047 A 
ATOM      5  C   UNL     1      40.556  58.107  49.314  1.00  0.00     0.001 A 
ATOM      6  C   UNL     1      39.911  57.717  48.140  1.00  0.00     0.004 A 
ENDROOT
BRANCH   1   7
ATOM      7  C   UNL     1      44.196  57.833  48.363  1.00  0.00     0.075 C 
ATOM      8  O   UNL     1      44.742  58.833  48.899  1.00  0.00    -0.545 OA
ATOM      9  O   UNL     1      44.995  56.782  47.926  1.00  0.00    -0.545 OA
ENDBRANCH   1   7
BRANCH   2  10
ATOM     10  O   UNL     1      42.745  56.809  45.971  1.00  0.00    -0.507 OA
ATOM     11  H   UNL     1      42.504  57.048  45.019  1.00  0.00     0.293 HD
ENDBRANCH   2  10
TORSDOF 2
ENDMDL
