MODEL 1
REMARK VINA RESULT:    -6.665      0.000      0.000
REMARK INTER + INTRA:         -11.001
REMARK INTER:                  -9.392
REMARK INTRA:                  -1.609
REMARK UNBOUND:                -1.609
REMARK SMILES OC[C@H]1O[C@@H](O[C@H]2OC=C[C@H]3[C@H](O)[C@H]4O[C@@]4(CO)[C@@H]23)[C@H](O)[C@@H](O)[C@H]1O
REMARK SMILES IDX 6 1 7 2 10 3 9 4 11 5 8 6 19 7 12 8 16 9 14 10 15 11 13 12
REMARK SMILES IDX 17 14 18 15 5 17 20 18 4 19 22 20 3 21 24 22 21 23 23 25
REMARK SMILES IDX 2 27 1 28 25 30
REMARK H PARENT 13 13 18 16 21 24 23 26 1 29 25 31
REMARK Flexibility Score: inf
ROOT
ATOM      1  O   UNL     1       3.104   7.181  18.332  1.00  0.00    -0.310 OA
ENDROOT
BRANCH   1   2
ATOM      2  C   UNL     1       2.175   8.010  17.660  1.00  0.00     0.315 C 
ATOM      3  C   UNL     1      -0.056   8.642  16.021  1.00  0.00     0.018 C 
ATOM      4  C   UNL     1       1.052   8.132  15.480  1.00  0.00     0.186 C 
ATOM      5  C   UNL     1      -0.317   8.616  17.516  1.00  0.00     0.059 C 
ATOM      6  O   UNL     1       2.075   7.633  16.288  1.00  0.00    -0.472 OA
ATOM      7  C   UNL     1       0.794   7.910  18.332  1.00  0.00     0.105 C 
ATOM      8  C   UNL     1      -1.593   7.803  17.805  1.00  0.00     0.154 C 
ATOM      9  C   UNL     1       0.313   6.468  18.524  1.00  0.00     0.130 C 
ATOM     10  C   UNL     1      -1.132   6.417  18.248  1.00  0.00     0.183 C 
ATOM     11  O   UNL     1      -0.194   5.826  17.372  1.00  0.00    -0.360 OA
BRANCH   8  12
ATOM     12  O   UNL     1      -2.303   8.408  18.854  1.00  0.00    -0.390 OA
ATOM     13  H   UNL     1      -2.964   7.740  19.174  1.00  0.00     0.211 HD
ENDBRANCH   8  12
BRANCH   9  14
ATOM     14  C   UNL     1       0.833   5.544  19.633  1.00  0.00     0.195 C 
BRANCH  14  15
ATOM     15  O   UNL     1       1.485   6.302  20.615  1.00  0.00    -0.393 OA
ATOM     16  H   UNL     1       2.037   5.664  21.140  1.00  0.00     0.210 HD
ENDBRANCH  14  15
ENDBRANCH   9  14
ENDBRANCH   1   2
BRANCH   1  17
ATOM     17  C   UNL     1       3.873   6.411  17.420  1.00  0.00     0.286 C 
ATOM     18  C   UNL     1       5.358   6.875  17.457  1.00  0.00     0.202 C 
ATOM     19  O   UNL     1       3.666   5.030  17.716  1.00  0.00    -0.341 OA
ATOM     20  C   UNL     1       6.031   6.519  18.809  1.00  0.00     0.179 C 
ATOM     21  C   UNL     1       4.726   4.391  18.420  1.00  0.00     0.178 C 
ATOM     22  C   UNL     1       5.372   5.298  19.493  1.00  0.00     0.177 C 
BRANCH  18  23
ATOM     23  O   UNL     1       6.071   6.267  16.406  1.00  0.00    -0.385 OA
ATOM     24  H   UNL     1       5.853   5.299  16.431  1.00  0.00     0.211 HD
ENDBRANCH  18  23
BRANCH  20  25
ATOM     25  O   UNL     1       6.079   7.625  19.678  1.00  0.00    -0.387 OA
ATOM     26  H   UNL     1       5.418   7.477  20.404  1.00  0.00     0.211 HD
ENDBRANCH  20  25
BRANCH  21  27
ATOM     27  C   UNL     1       4.193   3.094  19.044  1.00  0.00     0.191 C 
BRANCH  27  28
ATOM     28  O   UNL     1       5.006   2.718  20.120  1.00  0.00    -0.394 OA
ATOM     29  H   UNL     1       5.809   2.289  19.727  1.00  0.00     0.210 HD
ENDBRANCH  27  28
ENDBRANCH  21  27
BRANCH  22  30
ATOM     30  O   UNL     1       4.401   5.717  20.420  1.00  0.00    -0.387 OA
ATOM     31  H   UNL     1       3.852   4.922  20.649  1.00  0.00     0.211 HD
ENDBRANCH  22  30
ENDBRANCH   1  17
TORSDOF 10
ENDMDL
MODEL 2
REMARK VINA RESULT:    -6.571      1.705      6.186
REMARK INTER + INTRA:         -10.869
REMARK INTER:                  -9.435
REMARK INTRA:                  -1.433
REMARK UNBOUND:                -1.609
REMARK SMILES OC[C@H]1O[C@@H](O[C@H]2OC=C[C@H]3[C@H](O)[C@H]4O[C@@]4(CO)[C@@H]23)[C@H](O)[C@@H](O)[C@H]1O
REMARK SMILES IDX 6 1 7 2 10 3 9 4 11 5 8 6 19 7 12 8 16 9 14 10 15 11 13 12
REMARK SMILES IDX 17 14 18 15 5 17 20 18 4 19 22 20 3 21 24 22 21 23 23 25
REMARK SMILES IDX 2 27 1 28 25 30
REMARK H PARENT 13 13 18 16 21 24 23 26 1 29 25 31
REMARK Flexibility Score: inf
ROOT
ATOM      1  O   UNL     1       1.085   6.549  17.637  1.00  0.00    -0.310 OA
ENDROOT
BRANCH   1   2
ATOM      2  C   UNL     1       1.741   5.418  18.177  1.00  0.00     0.315 C 
ATOM      3  C   UNL     1       3.837   3.537  18.539  1.00  0.00     0.018 C 
ATOM      4  C   UNL     1       3.136   3.551  17.404  1.00  0.00     0.186 C 
ATOM      5  C   UNL     1       3.790   4.680  19.538  1.00  0.00     0.059 C 
ATOM      6  O   UNL     1       2.242   4.588  17.131  1.00  0.00    -0.472 OA
ATOM      7  C   UNL     1       2.896   5.863  19.092  1.00  0.00     0.105 C 
ATOM      8  C   UNL     1       5.196   5.289  19.694  1.00  0.00     0.154 C 
ATOM      9  C   UNL     1       3.842   6.872  18.433  1.00  0.00     0.130 C 
ATOM     10  C   UNL     1       5.221   6.549  18.832  1.00  0.00     0.183 C 
ATOM     11  O   UNL     1       4.769   6.339  17.510  1.00  0.00    -0.360 OA
BRANCH   8  12
ATOM     12  O   UNL     1       5.403   5.646  21.036  1.00  0.00    -0.390 OA
ATOM     13  H   UNL     1       4.688   6.293  21.273  1.00  0.00     0.211 HD
ENDBRANCH   8  12
BRANCH   9  14
ATOM     14  C   UNL     1       3.506   8.359  18.263  1.00  0.00     0.195 C 
BRANCH  14  15
ATOM     15  O   UNL     1       2.916   8.572  17.009  1.00  0.00    -0.393 OA
ATOM     16  H   UNL     1       3.339   9.391  16.637  1.00  0.00     0.210 HD
ENDBRANCH  14  15
ENDBRANCH   9  14
ENDBRANCH   1   2
BRANCH   1  17
ATOM     17  C   UNL     1      -0.293   6.570  17.981  1.00  0.00     0.286 C 
ATOM     18  C   UNL     1      -0.719   8.017  18.363  1.00  0.00     0.202 C 
ATOM     19  O   UNL     1      -1.030   5.989  16.906  1.00  0.00    -0.341 OA
ATOM     20  C   UNL     1      -0.692   8.962  17.133  1.00  0.00     0.179 C 
ATOM     21  C   UNL     1      -1.710   6.913  16.062  1.00  0.00     0.178 C 
ATOM     22  C   UNL     1      -0.898   8.203  15.801  1.00  0.00     0.177 C 
BRANCH  18  23
ATOM     23  O   UNL     1      -2.017   7.999  18.909  1.00  0.00    -0.385 OA
ATOM     24  H   UNL     1      -1.925   8.179  19.881  1.00  0.00     0.211 HD
ENDBRANCH  18  23
BRANCH  20  25
ATOM     25  O   UNL     1       0.477   9.743  17.097  1.00  0.00    -0.387 OA
ATOM     26  H   UNL     1       0.565  10.211  17.969  1.00  0.00     0.211 HD
ENDBRANCH  20  25
BRANCH  21  27
ATOM     27  C   UNL     1      -2.064   6.209  14.745  1.00  0.00     0.191 C 
BRANCH  27  28
ATOM     28  O   UNL     1      -2.499   4.904  15.008  1.00  0.00    -0.394 OA
ATOM     29  H   UNL     1      -2.399   4.769  15.986  1.00  0.00     0.210 HD
ENDBRANCH  27  28
ENDBRANCH  21  27
BRANCH  22  30
ATOM     30  O   UNL     1       0.342   7.885  15.218  1.00  0.00    -0.387 OA
ATOM     31  H   UNL     1       0.869   8.725  15.174  1.00  0.00     0.211 HD
ENDBRANCH  22  30
ENDBRANCH   1  17
TORSDOF 10
ENDMDL
MODEL 3
REMARK VINA RESULT:    -6.546      1.698      6.355
REMARK INTER + INTRA:         -10.834
REMARK INTER:                  -9.501
REMARK INTRA:                  -1.333
REMARK UNBOUND:                -1.609
REMARK SMILES OC[C@H]1O[C@@H](O[C@H]2OC=C[C@H]3[C@H](O)[C@H]4O[C@@]4(CO)[C@@H]23)[C@H](O)[C@@H](O)[C@H]1O
REMARK SMILES IDX 6 1 7 2 10 3 9 4 11 5 8 6 19 7 12 8 16 9 14 10 15 11 13 12
REMARK SMILES IDX 17 14 18 15 5 17 20 18 4 19 22 20 3 21 24 22 21 23 23 25
REMARK SMILES IDX 2 27 1 28 25 30
REMARK H PARENT 13 13 18 16 21 24 23 26 1 29 25 31
REMARK Flexibility Score: inf
ROOT
ATOM      1  O   UNL     1       1.213   6.283  18.205  1.00  0.00    -0.310 OA
ENDROOT
BRANCH   1   2
ATOM      2  C   UNL     1       2.069   5.254  18.661  1.00  0.00     0.315 C 
ATOM      3  C   UNL     1       4.366   3.584  18.685  1.00  0.00     0.018 C 
ATOM      4  C   UNL     1       3.451   3.454  17.722  1.00  0.00     0.186 C 
ATOM      5  C   UNL     1       4.413   4.793  19.604  1.00  0.00     0.059 C 
ATOM      6  O   UNL     1       2.426   4.391  17.583  1.00  0.00    -0.472 OA
ATOM      7  C   UNL     1       3.338   5.860  19.287  1.00  0.00     0.105 C 
ATOM      8  C   UNL     1       5.757   5.524  19.428  1.00  0.00     0.154 C 
ATOM      9  C   UNL     1       4.029   6.890  18.389  1.00  0.00     0.130 C 
ATOM     10  C   UNL     1       5.486   6.713  18.509  1.00  0.00     0.183 C 
ATOM     11  O   UNL     1       4.797   6.366  17.325  1.00  0.00    -0.360 OA
BRANCH   8  12
ATOM     12  O   UNL     1       6.196   5.998  20.674  1.00  0.00    -0.390 OA
ATOM     13  H   UNL     1       7.008   5.477  20.908  1.00  0.00     0.211 HD
ENDBRANCH   8  12
BRANCH   9  14
ATOM     14  C   UNL     1       3.525   8.328  18.208  1.00  0.00     0.195 C 
BRANCH  14  15
ATOM     15  O   UNL     1       2.655   8.391  17.110  1.00  0.00    -0.393 OA
ATOM     16  H   UNL     1       3.052   7.814  16.405  1.00  0.00     0.210 HD
ENDBRANCH  14  15
ENDBRANCH   9  14
ENDBRANCH   1   2
BRANCH   1  17
ATOM     17  C   UNL     1       0.342   5.825  17.181  1.00  0.00     0.286 C 
ATOM     18  C   UNL     1      -0.768   4.924  17.795  1.00  0.00     0.202 C 
ATOM     19  O   UNL     1      -0.134   6.959  16.459  1.00  0.00    -0.341 OA
ATOM     20  C   UNL     1      -1.740   5.745  18.683  1.00  0.00     0.179 C 
ATOM     21  C   UNL     1      -1.467   7.361  16.761  1.00  0.00     0.178 C 
ATOM     22  C   UNL     1      -1.810   7.232  18.263  1.00  0.00     0.177 C 
BRANCH  18  23
ATOM     23  O   UNL     1      -1.494   4.298  16.764  1.00  0.00    -0.385 OA
ATOM     24  H   UNL     1      -2.272   4.881  16.563  1.00  0.00     0.211 HD
ENDBRANCH  18  23
BRANCH  20  25
ATOM     25  O   UNL     1      -1.435   5.617  20.051  1.00  0.00    -0.387 OA
ATOM     26  H   UNL     1      -2.077   6.174  20.565  1.00  0.00     0.211 HD
ENDBRANCH  20  25
BRANCH  21  27
ATOM     27  C   UNL     1      -1.672   8.801  16.270  1.00  0.00     0.191 C 
BRANCH  27  28
ATOM     28  O   UNL     1      -2.523   9.483  17.148  1.00  0.00    -0.394 OA
ATOM     29  H   UNL     1      -1.957  10.134  17.637  1.00  0.00     0.210 HD
ENDBRANCH  27  28
ENDBRANCH  21  27
BRANCH  22  30
ATOM     30  O   UNL     1      -0.920   8.004  19.031  1.00  0.00    -0.387 OA
ATOM     31  H   UNL     1      -1.433   8.366  19.799  1.00  0.00     0.211 HD
ENDBRANCH  22  30
ENDBRANCH   1  17
TORSDOF 10
ENDMDL
MODEL 4
REMARK VINA RESULT:    -6.532      1.748      2.363
REMARK INTER + INTRA:         -10.814
REMARK INTER:                  -9.268
REMARK INTRA:                  -1.547
REMARK UNBOUND:                -1.609
REMARK SMILES OC[C@H]1O[C@@H](O[C@H]2OC=C[C@H]3[C@H](O)[C@H]4O[C@@]4(CO)[C@@H]23)[C@H](O)[C@@H](O)[C@H]1O
REMARK SMILES IDX 6 1 7 2 10 3 9 4 11 5 8 6 19 7 12 8 16 9 14 10 15 11 13 12
REMARK SMILES IDX 17 14 18 15 5 17 20 18 4 19 22 20 3 21 24 22 21 23 23 25
REMARK SMILES IDX 2 27 1 28 25 30
REMARK H PARENT 13 13 18 16 21 24 23 26 1 29 25 31
REMARK Flexibility Score: inf
ROOT
ATOM      1  O   UNL     1       2.609   8.262  18.012  1.00  0.00    -0.310 OA
ENDROOT
BRANCH   1   2
ATOM      2  C   UNL     1       1.228   8.425  17.754  1.00  0.00     0.315 C 
ATOM      3  C   UNL     1      -1.355   7.719  16.810  1.00  0.00     0.018 C 
ATOM      4  C   UNL     1      -0.374   7.986  15.946  1.00  0.00     0.186 C 
ATOM      5  C   UNL     1      -1.093   7.462  18.284  1.00  0.00     0.059 C 
ATOM      6  O   UNL     1       0.942   8.138  16.386  1.00  0.00    -0.472 OA
ATOM      7  C   UNL     1       0.407   7.497  18.667  1.00  0.00     0.105 C 
ATOM      8  C   UNL     1      -1.559   6.041  18.652  1.00  0.00     0.154 C 
ATOM      9  C   UNL     1       0.876   6.039  18.635  1.00  0.00     0.130 C 
ATOM     10  C   UNL     1      -0.309   5.166  18.670  1.00  0.00     0.183 C 
ATOM     11  O   UNL     1       0.483   5.287  17.506  1.00  0.00    -0.360 OA
BRANCH   8  12
ATOM     12  O   UNL     1      -2.128   6.055  19.936  1.00  0.00    -0.390 OA
ATOM     13  H   UNL     1      -2.154   7.004  20.226  1.00  0.00     0.211 HD
ENDBRANCH   8  12
BRANCH   9  14
ATOM     14  C   UNL     1       2.123   5.536  19.375  1.00  0.00     0.195 C 
BRANCH  14  15
ATOM     15  O   UNL     1       2.479   6.449  20.378  1.00  0.00    -0.393 OA
ATOM     16  H   UNL     1       1.693   7.043  20.507  1.00  0.00     0.210 HD
ENDBRANCH  14  15
ENDBRANCH   9  14
ENDBRANCH   1   2
BRANCH   1  17
ATOM     17  C   UNL     1       3.393   8.537  16.860  1.00  0.00     0.286 C 
ATOM     18  C   UNL     1       4.270   9.799  17.105  1.00  0.00     0.202 C 
ATOM     19  O   UNL     1       4.119   7.356  16.521  1.00  0.00    -0.341 OA
ATOM     20  C   UNL     1       5.367   9.531  18.170  1.00  0.00     0.179 C 
ATOM     21  C   UNL     1       5.497   7.361  16.882  1.00  0.00     0.178 C 
ATOM     22  C   UNL     1       5.761   8.037  18.247  1.00  0.00     0.177 C 
BRANCH  18  23
ATOM     23  O   UNL     1       4.878  10.196  15.899  1.00  0.00    -0.385 OA
ATOM     24  H   UNL     1       5.302   9.387  15.509  1.00  0.00     0.211 HD
ENDBRANCH  18  23
BRANCH  20  25
ATOM     25  O   UNL     1       5.002  10.027  19.435  1.00  0.00    -0.387 OA
ATOM     26  H   UNL     1       5.437  10.911  19.558  1.00  0.00     0.211 HD
ENDBRANCH  20  25
BRANCH  21  27
ATOM     27  C   UNL     1       6.015   5.916  16.872  1.00  0.00     0.191 C 
BRANCH  27  28
ATOM     28  O   UNL     1       5.082   5.075  17.491  1.00  0.00    -0.394 OA
ATOM     29  H   UNL     1       4.430   5.669  17.945  1.00  0.00     0.210 HD
ENDBRANCH  27  28
ENDBRANCH  21  27
BRANCH  22  30
ATOM     30  O   UNL     1       5.032   7.386  19.258  1.00  0.00    -0.387 OA
ATOM     31  H   UNL     1       5.690   7.000  19.893  1.00  0.00     0.211 HD
ENDBRANCH  22  30
ENDBRANCH   1  17
TORSDOF 10
ENDMDL
MODEL 5
REMARK VINA RESULT:    -6.338      1.919      3.572
REMARK INTER + INTRA:         -10.540
REMARK INTER:                  -9.036
REMARK INTRA:                  -1.504
REMARK UNBOUND:                -1.609
REMARK SMILES OC[C@H]1O[C@@H](O[C@H]2OC=C[C@H]3[C@H](O)[C@H]4O[C@@]4(CO)[C@@H]23)[C@H](O)[C@@H](O)[C@H]1O
REMARK SMILES IDX 6 1 7 2 10 3 9 4 11 5 8 6 19 7 12 8 16 9 14 10 15 11 13 12
REMARK SMILES IDX 17 14 18 15 5 17 20 18 4 19 22 20 3 21 24 22 21 23 23 25
REMARK SMILES IDX 2 27 1 28 25 30
REMARK H PARENT 13 13 18 16 21 24 23 26 1 29 25 31
REMARK Flexibility Score: inf
ROOT
ATOM      1  O   UNL     1       0.873   6.539  18.545  1.00  0.00    -0.310 OA
ENDROOT
BRANCH   1   2
ATOM      2  C   UNL     1       0.103   7.696  18.279  1.00  0.00     0.315 C 
ATOM      3  C   UNL     1      -1.230   9.641  16.699  1.00  0.00     0.018 C 
ATOM      4  C   UNL     1       0.103   9.592  16.719  1.00  0.00     0.186 C 
ATOM      5  C   UNL     1      -2.094   8.510  17.229  1.00  0.00     0.059 C 
ATOM      6  O   UNL     1       0.767   8.526  17.328  1.00  0.00    -0.472 OA
ATOM      7  C   UNL     1      -1.284   7.296  17.747  1.00  0.00     0.105 C 
ATOM      8  C   UNL     1      -2.963   7.945  16.091  1.00  0.00     0.154 C 
ATOM      9  C   UNL     1      -1.229   6.307  16.579  1.00  0.00     0.130 C 
ATOM     10  C   UNL     1      -2.269   6.675  15.605  1.00  0.00     0.183 C 
ATOM     11  O   UNL     1      -0.897   6.855  15.320  1.00  0.00    -0.360 OA
BRANCH   8  12
ATOM     12  O   UNL     1      -4.231   7.611  16.593  1.00  0.00    -0.390 OA
ATOM     13  H   UNL     1      -4.103   7.357  17.544  1.00  0.00     0.211 HD
ENDBRANCH   8  12
BRANCH   9  14
ATOM     14  C   UNL     1      -0.950   4.808  16.754  1.00  0.00     0.195 C 
BRANCH  14  15
ATOM     15  O   UNL     1       0.411   4.550  16.536  1.00  0.00    -0.393 OA
ATOM     16  H   UNL     1       0.910   5.149  17.152  1.00  0.00     0.210 HD
ENDBRANCH  14  15
ENDBRANCH   9  14
ENDBRANCH   1   2
BRANCH   1  17
ATOM     17  C   UNL     1       1.956   6.820  19.420  1.00  0.00     0.286 C 
ATOM     18  C   UNL     1       2.770   5.521  19.687  1.00  0.00     0.202 C 
ATOM     19  O   UNL     1       2.708   7.899  18.867  1.00  0.00    -0.341 OA
ATOM     20  C   UNL     1       3.517   5.045  18.413  1.00  0.00     0.179 C 
ATOM     21  C   UNL     1       3.930   7.531  18.234  1.00  0.00     0.178 C 
ATOM     22  C   UNL     1       3.825   6.209  17.440  1.00  0.00     0.177 C 
BRANCH  18  23
ATOM     23  O   UNL     1       3.703   5.750  20.716  1.00  0.00    -0.385 OA
ATOM     24  H   UNL     1       3.201   6.127  21.484  1.00  0.00     0.211 HD
ENDBRANCH  18  23
BRANCH  20  25
ATOM     25  O   UNL     1       2.830   4.005  17.760  1.00  0.00    -0.387 OA
ATOM     26  H   UNL     1       3.326   3.159  17.918  1.00  0.00     0.211 HD
ENDBRANCH  20  25
BRANCH  21  27
ATOM     27  C   UNL     1       4.383   8.684  17.328  1.00  0.00     0.191 C 
BRANCH  27  28
ATOM     28  O   UNL     1       3.494   9.759  17.450  1.00  0.00    -0.394 OA
ATOM     29  H   UNL     1       4.031  10.530  17.770  1.00  0.00     0.210 HD
ENDBRANCH  27  28
ENDBRANCH  21  27
BRANCH  22  30
ATOM     30  O   UNL     1       2.821   6.311  16.461  1.00  0.00    -0.387 OA
ATOM     31  H   UNL     1       2.818   7.252  16.141  1.00  0.00     0.211 HD
ENDBRANCH  22  30
ENDBRANCH   1  17
TORSDOF 10
ENDMDL
MODEL 6
REMARK VINA RESULT:    -6.319      1.979      6.030
REMARK INTER + INTRA:         -10.514
REMARK INTER:                  -9.319
REMARK INTRA:                  -1.195
REMARK UNBOUND:                -1.609
REMARK SMILES OC[C@H]1O[C@@H](O[C@H]2OC=C[C@H]3[C@H](O)[C@H]4O[C@@]4(CO)[C@@H]23)[C@H](O)[C@@H](O)[C@H]1O
REMARK SMILES IDX 6 1 7 2 10 3 9 4 11 5 8 6 19 7 12 8 16 9 14 10 15 11 13 12
REMARK SMILES IDX 17 14 18 15 5 17 20 18 4 19 22 20 3 21 24 22 21 23 23 25
REMARK SMILES IDX 2 27 1 28 25 30
REMARK H PARENT 13 13 18 16 21 24 23 26 1 29 25 31
REMARK Flexibility Score: inf
ROOT
ATOM      1  O   UNL     1       1.416   7.056  17.974  1.00  0.00    -0.310 OA
ENDROOT
BRANCH   1   2
ATOM      2  C   UNL     1       2.727   7.022  18.505  1.00  0.00     0.315 C 
ATOM      3  C   UNL     1       5.560   6.840  18.462  1.00  0.00     0.018 C 
ATOM      4  C   UNL     1       4.815   5.769  18.183  1.00  0.00     0.186 C 
ATOM      5  C   UNL     1       4.985   8.245  18.496  1.00  0.00     0.059 C 
ATOM      6  O   UNL     1       3.435   5.888  18.006  1.00  0.00    -0.472 OA
ATOM      7  C   UNL     1       3.480   8.312  18.138  1.00  0.00     0.105 C 
ATOM      8  C   UNL     1       5.681   9.116  17.433  1.00  0.00     0.154 C 
ATOM      9  C   UNL     1       3.424   8.648  16.644  1.00  0.00     0.130 C 
ATOM     10  C   UNL     1       4.738   9.171  16.234  1.00  0.00     0.183 C 
ATOM     11  O   UNL     1       4.286   7.901  15.811  1.00  0.00    -0.360 OA
BRANCH   8  12
ATOM     12  O   UNL     1       5.859  10.414  17.937  1.00  0.00    -0.390 OA
ATOM     13  H   UNL     1       5.163  10.548  18.633  1.00  0.00     0.211 HD
ENDBRANCH   8  12
BRANCH   9  14
ATOM     14  C   UNL     1       2.196   9.262  15.961  1.00  0.00     0.195 C 
BRANCH  14  15
ATOM     15  O   UNL     1       1.314   9.760  16.930  1.00  0.00    -0.393 OA
ATOM     16  H   UNL     1       1.628  10.678  17.147  1.00  0.00     0.210 HD
ENDBRANCH  14  15
ENDBRANCH   9  14
ENDBRANCH   1   2
BRANCH   1  17
ATOM     17  C   UNL     1       0.694   5.872  18.284  1.00  0.00     0.286 C 
ATOM     18  C   UNL     1      -0.486   6.209  19.241  1.00  0.00     0.202 C 
ATOM     19  O   UNL     1       0.317   5.246  17.059  1.00  0.00    -0.341 OA
ATOM     20  C   UNL     1      -1.572   7.057  18.528  1.00  0.00     0.179 C 
ATOM     21  C   UNL     1      -1.046   5.415  16.681  1.00  0.00     0.178 C 
ATOM     22  C   UNL     1      -1.589   6.828  16.998  1.00  0.00     0.177 C 
BRANCH  18  23
ATOM     23  O   UNL     1      -1.063   5.017  19.718  1.00  0.00    -0.385 OA
ATOM     24  H   UNL     1      -1.703   4.707  19.025  1.00  0.00     0.211 HD
ENDBRANCH  18  23
BRANCH  20  25
ATOM     25  O   UNL     1      -1.455   8.425  18.835  1.00  0.00    -0.387 OA
ATOM     26  H   UNL     1      -2.370   8.797  18.947  1.00  0.00     0.211 HD
ENDBRANCH  20  25
BRANCH  21  27
ATOM     27  C   UNL     1      -1.188   5.092  15.187  1.00  0.00     0.191 C 
BRANCH  27  28
ATOM     28  O   UNL     1      -2.539   4.914  14.868  1.00  0.00    -0.394 OA
ATOM     29  H   UNL     1      -2.971   4.541  15.680  1.00  0.00     0.210 HD
ENDBRANCH  27  28
ENDBRANCH  21  27
BRANCH  22  30
ATOM     30  O   UNL     1      -0.814   7.802  16.344  1.00  0.00    -0.387 OA
ATOM     31  H   UNL     1      -1.208   8.686  16.565  1.00  0.00     0.211 HD
ENDBRANCH  22  30
ENDBRANCH   1  17
TORSDOF 10
ENDMDL
MODEL 7
REMARK VINA RESULT:    -6.295      1.445      1.666
REMARK INTER + INTRA:         -10.480
REMARK INTER:                  -8.831
REMARK INTRA:                  -1.649
REMARK UNBOUND:                -1.609
REMARK SMILES OC[C@H]1O[C@@H](O[C@H]2OC=C[C@H]3[C@H](O)[C@H]4O[C@@]4(CO)[C@@H]23)[C@H](O)[C@@H](O)[C@H]1O
REMARK SMILES IDX 6 1 7 2 10 3 9 4 11 5 8 6 19 7 12 8 16 9 14 10 15 11 13 12
REMARK SMILES IDX 17 14 18 15 5 17 20 18 4 19 22 20 3 21 24 22 21 23 23 25
REMARK SMILES IDX 2 27 1 28 25 30
REMARK H PARENT 13 13 18 16 21 24 23 26 1 29 25 31
REMARK Flexibility Score: inf
ROOT
ATOM      1  O   UNL     1       2.486   5.448  17.985  1.00  0.00    -0.310 OA
ENDROOT
BRANCH   1   2
ATOM      2  C   UNL     1       1.409   5.850  17.162  1.00  0.00     0.315 C 
ATOM      3  C   UNL     1      -1.253   5.889  16.175  1.00  0.00     0.018 C 
ATOM      4  C   UNL     1      -0.472   4.830  15.957  1.00  0.00     0.186 C 
ATOM      5  C   UNL     1      -0.907   6.958  17.197  1.00  0.00     0.059 C 
ATOM      6  O   UNL     1       0.762   4.710  16.599  1.00  0.00    -0.472 OA
ATOM      7  C   UNL     1       0.399   6.676  17.978  1.00  0.00     0.105 C 
ATOM      8  C   UNL     1      -2.005   7.017  18.275  1.00  0.00     0.154 C 
ATOM      9  C   UNL     1      -0.036   5.994  19.279  1.00  0.00     0.130 C 
ATOM     10  C   UNL     1      -1.474   6.238  19.476  1.00  0.00     0.183 C 
ATOM     11  O   UNL     1      -0.983   4.955  19.146  1.00  0.00    -0.360 OA
BRANCH   8  12
ATOM     12  O   UNL     1      -2.218   8.352  18.652  1.00  0.00    -0.390 OA
ATOM     13  H   UNL     1      -3.065   8.372  19.170  1.00  0.00     0.211 HD
ENDBRANCH   8  12
BRANCH   9  14
ATOM     14  C   UNL     1       0.834   5.952  20.543  1.00  0.00     0.195 C 
BRANCH  14  15
ATOM     15  O   UNL     1       1.851   6.912  20.451  1.00  0.00    -0.393 OA
ATOM     16  H   UNL     1       2.677   6.419  20.199  1.00  0.00     0.210 HD
ENDBRANCH  14  15
ENDBRANCH   9  14
ENDBRANCH   1   2
BRANCH   1  17
ATOM     17  C   UNL     1       3.656   5.180  17.225  1.00  0.00     0.286 C 
ATOM     18  C   UNL     1       4.503   6.478  17.085  1.00  0.00     0.202 C 
ATOM     19  O   UNL     1       4.336   4.078  17.824  1.00  0.00    -0.341 OA
ATOM     20  C   UNL     1       5.111   6.910  18.446  1.00  0.00     0.179 C 
ATOM     21  C   UNL     1       5.485   4.415  18.595  1.00  0.00     0.178 C 
ATOM     22  C   UNL     1       5.303   5.716  19.412  1.00  0.00     0.177 C 
BRANCH  18  23
ATOM     23  O   UNL     1       5.541   6.268  16.157  1.00  0.00    -0.385 OA
ATOM     24  H   UNL     1       6.067   7.109  16.116  1.00  0.00     0.211 HD
ENDBRANCH  18  23
BRANCH  20  25
ATOM     25  O   UNL     1       4.365   7.938  19.051  1.00  0.00    -0.387 OA
ATOM     26  H   UNL     1       3.455   7.589  19.244  1.00  0.00     0.211 HD
ENDBRANCH  20  25
BRANCH  21  27
ATOM     27  C   UNL     1       5.828   3.233  19.512  1.00  0.00     0.191 C 
BRANCH  27  28
ATOM     28  O   UNL     1       4.649   2.634  19.972  1.00  0.00    -0.394 OA
ATOM     29  H   UNL     1       4.361   3.157  20.764  1.00  0.00     0.210 HD
ENDBRANCH  27  28
ENDBRANCH  21  27
BRANCH  22  30
ATOM     30  O   UNL     1       4.198   5.596  20.274  1.00  0.00    -0.387 OA
ATOM     31  H   UNL     1       4.377   6.172  21.062  1.00  0.00     0.211 HD
ENDBRANCH  22  30
ENDBRANCH   1  17
TORSDOF 10
ENDMDL
MODEL 8
REMARK VINA RESULT:    -6.272      2.253      5.937
REMARK INTER + INTRA:         -10.448
REMARK INTER:                  -8.797
REMARK INTRA:                  -1.651
REMARK UNBOUND:                -1.609
REMARK SMILES OC[C@H]1O[C@@H](O[C@H]2OC=C[C@H]3[C@H](O)[C@H]4O[C@@]4(CO)[C@@H]23)[C@H](O)[C@@H](O)[C@H]1O
REMARK SMILES IDX 6 1 7 2 10 3 9 4 11 5 8 6 19 7 12 8 16 9 14 10 15 11 13 12
REMARK SMILES IDX 17 14 18 15 5 17 20 18 4 19 22 20 3 21 24 22 21 23 23 25
REMARK SMILES IDX 2 27 1 28 25 30
REMARK H PARENT 13 13 18 16 21 24 23 26 1 29 25 31
REMARK Flexibility Score: inf
ROOT
ATOM      1  O   UNL     1       0.847   6.974  17.210  1.00  0.00    -0.310 OA
ENDROOT
BRANCH   1   2
ATOM      2  C   UNL     1       1.879   7.395  16.338  1.00  0.00     0.315 C 
ATOM      3  C   UNL     1       4.152   8.878  15.504  1.00  0.00     0.018 C 
ATOM      4  C   UNL     1       2.971   9.483  15.648  1.00  0.00     0.186 C 
ATOM      5  C   UNL     1       4.430   7.494  16.064  1.00  0.00     0.059 C 
ATOM      6  O   UNL     1       1.898   8.819  16.244  1.00  0.00    -0.472 OA
ATOM      7  C   UNL     1       3.240   6.886  16.844  1.00  0.00     0.105 C 
ATOM      8  C   UNL     1       5.574   7.573  17.092  1.00  0.00     0.154 C 
ATOM      9  C   UNL     1       3.502   7.209  18.319  1.00  0.00     0.130 C 
ATOM     10  C   UNL     1       4.919   7.581  18.470  1.00  0.00     0.183 C 
ATOM     11  O   UNL     1       3.888   8.539  18.601  1.00  0.00    -0.360 OA
BRANCH   8  12
ATOM     12  O   UNL     1       6.385   6.432  16.975  1.00  0.00    -0.390 OA
ATOM     13  H   UNL     1       6.912   6.370  17.814  1.00  0.00     0.211 HD
ENDBRANCH   8  12
BRANCH   9  14
ATOM     14  C   UNL     1       2.867   6.434  19.480  1.00  0.00     0.195 C 
BRANCH  14  15
ATOM     15  O   UNL     1       1.748   7.130  19.959  1.00  0.00    -0.393 OA
ATOM     16  H   UNL     1       2.069   7.687  20.717  1.00  0.00     0.210 HD
ENDBRANCH  14  15
ENDBRANCH   9  14
ENDBRANCH   1   2
BRANCH   1  17
ATOM     17  C   UNL     1      -0.139   6.214  16.526  1.00  0.00     0.286 C 
ATOM     18  C   UNL     1      -0.521   4.964  17.370  1.00  0.00     0.202 C 
ATOM     19  O   UNL     1      -1.226   7.079  16.204  1.00  0.00    -0.341 OA
ATOM     20  C   UNL     1      -1.279   5.362  18.664  1.00  0.00     0.179 C 
ATOM     21  C   UNL     1      -2.377   6.949  17.033  1.00  0.00     0.178 C 
ATOM     22  C   UNL     1      -2.025   6.709  18.520  1.00  0.00     0.177 C 
BRANCH  18  23
ATOM     23  O   UNL     1      -1.329   4.103  16.603  1.00  0.00    -0.385 OA
ATOM     24  H   UNL     1      -0.733   3.403  16.229  1.00  0.00     0.211 HD
ENDBRANCH  18  23
BRANCH  20  25
ATOM     25  O   UNL     1      -0.432   5.367  19.788  1.00  0.00    -0.387 OA
ATOM     26  H   UNL     1      -0.674   6.147  20.354  1.00  0.00     0.211 HD
ENDBRANCH  20  25
BRANCH  21  27
ATOM     27  C   UNL     1      -3.249   8.201  16.868  1.00  0.00     0.191 C 
BRANCH  27  28
ATOM     28  O   UNL     1      -2.498   9.344  17.171  1.00  0.00    -0.394 OA
ATOM     29  H   UNL     1      -1.625   9.021  17.514  1.00  0.00     0.210 HD
ENDBRANCH  27  28
ENDBRANCH  21  27
BRANCH  22  30
ATOM     30  O   UNL     1      -1.235   7.766  19.007  1.00  0.00    -0.387 OA
ATOM     31  H   UNL     1      -1.321   7.765  19.996  1.00  0.00     0.211 HD
ENDBRANCH  22  30
ENDBRANCH   1  17
TORSDOF 10
ENDMDL
MODEL 9
REMARK VINA RESULT:    -6.063      1.745      3.937
REMARK INTER + INTRA:         -10.153
REMARK INTER:                  -8.365
REMARK INTRA:                  -1.788
REMARK UNBOUND:                -1.609
REMARK SMILES OC[C@H]1O[C@@H](O[C@H]2OC=C[C@H]3[C@H](O)[C@H]4O[C@@]4(CO)[C@@H]23)[C@H](O)[C@@H](O)[C@H]1O
REMARK SMILES IDX 6 1 7 2 10 3 9 4 11 5 8 6 19 7 12 8 16 9 14 10 15 11 13 12
REMARK SMILES IDX 17 14 18 15 5 17 20 18 4 19 22 20 3 21 24 22 21 23 23 25
REMARK SMILES IDX 2 27 1 28 25 30
REMARK H PARENT 13 13 18 16 21 24 23 26 1 29 25 31
REMARK Flexibility Score: inf
ROOT
ATOM      1  O   UNL     1       2.077   6.760  17.444  1.00  0.00    -0.310 OA
ENDROOT
BRANCH   1   2
ATOM      2  C   UNL     1       0.883   6.078  17.775  1.00  0.00     0.315 C 
ATOM      3  C   UNL     1      -1.733   5.750  18.829  1.00  0.00     0.018 C 
ATOM      4  C   UNL     1      -0.696   5.929  19.650  1.00  0.00     0.186 C 
ATOM      5  C   UNL     1      -1.647   6.025  17.338  1.00  0.00     0.059 C 
ATOM      6  O   UNL     1       0.556   6.288  19.148  1.00  0.00    -0.472 OA
ATOM      7  C   UNL     1      -0.270   6.567  16.881  1.00  0.00     0.105 C 
ATOM      8  C   UNL     1      -2.650   7.130  16.957  1.00  0.00     0.154 C 
ATOM      9  C   UNL     1      -0.415   8.092  16.851  1.00  0.00     0.130 C 
ATOM     10  C   UNL     1      -1.849   8.425  16.854  1.00  0.00     0.183 C 
ATOM     11  O   UNL     1      -1.033   8.676  17.979  1.00  0.00    -0.360 OA
BRANCH   8  12
ATOM     12  O   UNL     1      -3.212   6.837  15.705  1.00  0.00    -0.390 OA
ATOM     13  H   UNL     1      -2.688   6.084  15.325  1.00  0.00     0.211 HD
ENDBRANCH   8  12
BRANCH   9  14
ATOM     14  C   UNL     1       0.503   9.012  16.037  1.00  0.00     0.195 C 
BRANCH  14  15
ATOM     15  O   UNL     1       1.380   9.689  16.896  1.00  0.00    -0.393 OA
ATOM     16  H   UNL     1       2.126  10.020  16.329  1.00  0.00     0.210 HD
ENDBRANCH  14  15
ENDBRANCH   9  14
ENDBRANCH   1   2
BRANCH   1  17
ATOM     17  C   UNL     1       2.869   7.020  18.595  1.00  0.00     0.286 C 
ATOM     18  C   UNL     1       3.921   5.888  18.779  1.00  0.00     0.202 C 
ATOM     19  O   UNL     1       3.412   8.334  18.476  1.00  0.00    -0.341 OA
ATOM     20  C   UNL     1       4.990   5.917  17.654  1.00  0.00     0.179 C 
ATOM     21  C   UNL     1       4.783   8.396  18.097  1.00  0.00     0.178 C 
ATOM     22  C   UNL     1       5.169   7.329  17.047  1.00  0.00     0.177 C 
BRANCH  18  23
ATOM     23  O   UNL     1       4.554   6.029  20.028  1.00  0.00    -0.385 OA
ATOM     24  H   UNL     1       4.417   6.968  20.318  1.00  0.00     0.211 HD
ENDBRANCH  18  23
BRANCH  20  25
ATOM     25  O   UNL     1       4.725   4.964  16.654  1.00  0.00    -0.387 OA
ATOM     26  H   UNL     1       5.109   5.295  15.800  1.00  0.00     0.211 HD
ENDBRANCH  20  25
BRANCH  21  27
ATOM     27  C   UNL     1       5.091   9.810  17.585  1.00  0.00     0.191 C 
BRANCH  27  28
ATOM     28  O   UNL     1       4.018  10.278  16.817  1.00  0.00    -0.394 OA
ATOM     29  H   UNL     1       3.408   9.506  16.689  1.00  0.00     0.210 HD
ENDBRANCH  27  28
ENDBRANCH  21  27
BRANCH  22  30
ATOM     30  O   UNL     1       4.375   7.475  15.895  1.00  0.00    -0.387 OA
ATOM     31  H   UNL     1       4.991   7.514  15.117  1.00  0.00     0.211 HD
ENDBRANCH  22  30
ENDBRANCH   1  17
TORSDOF 10
ENDMDL
