MODEL 1
REMARK VINA RESULT:    -4.626      0.000      0.000
REMARK INTER + INTRA:          -5.706
REMARK INTER:                  -5.573
REMARK INTRA:                  -0.133
REMARK UNBOUND:                -0.133
REMARK SMILES CC[C@H](C)[C@@H]([NH3+])C(=O)[O-]
REMARK SMILES IDX 3 1 4 2 5 3 6 4 7 8 8 9 9 10 2 11 1 12
REMARK H PARENT 6 5 6 6 6 7
REMARK Flexibility Score: inf
ROOT
ATOM      1  C   UNL     1      20.416  -4.405  15.127  1.00  0.00     0.050 C 
ATOM      2  C   UNL     1      20.371  -3.452  13.918  1.00  0.00     0.014 C 
ENDROOT
BRANCH   1   3
ATOM      3  C   UNL     1      21.043  -5.784  14.735  1.00  0.00     0.230 C 
BRANCH   3   4
ATOM      4  N   UNL     1      22.449  -5.653  14.321  1.00  0.00    -0.350 N 
ATOM      5  H   UNL     1      22.505  -5.420  13.301  1.00  0.00     0.345 HD
ATOM      6  H   UNL     1      22.908  -4.868  14.837  1.00  0.00     0.345 HD
ATOM      7  H   UNL     1      22.972  -6.542  14.494  1.00  0.00     0.345 HD
ENDBRANCH   3   4
BRANCH   3   8
ATOM      8  C   UNL     1      20.947  -6.768  15.872  1.00  0.00     0.099 C 
ATOM      9  O   UNL     1      21.579  -6.569  16.944  1.00  0.00    -0.544 OA
ATOM     10  O   UNL     1      20.143  -7.895  15.749  1.00  0.00    -0.544 OA
ENDBRANCH   3   8
ENDBRANCH   1   3
BRANCH   1  11
ATOM     11  C   UNL     1      18.981  -4.566  15.712  1.00  0.00     0.006 C 
ATOM     12  C   UNL     1      18.819  -3.900  17.080  1.00  0.00     0.004 C 
ENDBRANCH   1  11
TORSDOF 4
ENDMDL
MODEL 2
REMARK VINA RESULT:    -4.616      2.386      3.113
REMARK INTER + INTRA:          -5.693
REMARK INTER:                  -5.563
REMARK INTRA:                  -0.131
REMARK UNBOUND:                -0.133
REMARK SMILES CC[C@H](C)[C@@H]([NH3+])C(=O)[O-]
REMARK SMILES IDX 3 1 4 2 5 3 6 4 7 8 8 9 9 10 2 11 1 12
REMARK H PARENT 6 5 6 6 6 7
REMARK Flexibility Score: inf
ROOT
ATOM      1  C   UNL     1      19.962  -5.676  16.555  1.00  0.00     0.050 C 
ATOM      2  C   UNL     1      19.331  -6.952  17.144  1.00  0.00     0.014 C 
ENDROOT
BRANCH   1   3
ATOM      3  C   UNL     1      21.455  -5.531  17.000  1.00  0.00     0.230 C 
BRANCH   3   4
ATOM      4  N   UNL     1      22.142  -6.831  17.062  1.00  0.00    -0.350 N 
ATOM      5  H   UNL     1      22.569  -6.968  18.008  1.00  0.00     0.345 HD
ATOM      6  H   UNL     1      21.458  -7.609  16.921  1.00  0.00     0.345 HD
ATOM      7  H   UNL     1      22.895  -6.889  16.339  1.00  0.00     0.345 HD
ENDBRANCH   3   4
BRANCH   3   8
ATOM      8  C   UNL     1      22.210  -4.610  16.075  1.00  0.00     0.099 C 
ATOM      9  O   UNL     1      22.127  -4.752  14.826  1.00  0.00    -0.544 OA
ATOM     10  O   UNL     1      22.990  -3.587  16.599  1.00  0.00    -0.544 OA
ENDBRANCH   3   8
ENDBRANCH   1   3
BRANCH   1  11
ATOM     11  C   UNL     1      19.110  -4.439  16.970  1.00  0.00     0.006 C 
ATOM     12  C   UNL     1      18.463  -3.737  15.774  1.00  0.00     0.004 C 
ENDBRANCH   1  11
TORSDOF 4
ENDMDL
MODEL 3
REMARK VINA RESULT:    -4.614      1.434      2.297
REMARK INTER + INTRA:          -5.692
REMARK INTER:                  -5.696
REMARK INTRA:                   0.004
REMARK UNBOUND:                -0.133
REMARK SMILES CC[C@H](C)[C@@H]([NH3+])C(=O)[O-]
REMARK SMILES IDX 3 1 4 2 5 3 6 4 7 8 8 9 9 10 2 11 1 12
REMARK H PARENT 6 5 6 6 6 7
REMARK Flexibility Score: inf
ROOT
ATOM      1  C   UNL     1      19.025  -4.305  15.532  1.00  0.00     0.050 C 
ATOM      2  C   UNL     1      18.794  -3.929  17.008  1.00  0.00     0.014 C 
ENDROOT
BRANCH   1   3
ATOM      3  C   UNL     1      19.300  -5.838  15.378  1.00  0.00     0.230 C 
BRANCH   3   4
ATOM      4  N   UNL     1      20.204  -6.126  14.253  1.00  0.00    -0.350 N 
ATOM      5  H   UNL     1      21.201  -6.040  14.560  1.00  0.00     0.345 HD
ATOM      6  H   UNL     1      20.070  -7.110  13.925  1.00  0.00     0.345 HD
ATOM      7  H   UNL     1      20.034  -5.465  13.461  1.00  0.00     0.345 HD
ENDBRANCH   3   4
BRANCH   3   8
ATOM      8  C   UNL     1      19.878  -6.416  16.644  1.00  0.00     0.099 C 
ATOM      9  O   UNL     1      19.182  -7.166  17.380  1.00  0.00    -0.544 OA
ATOM     10  O   UNL     1      21.192  -6.136  16.999  1.00  0.00    -0.544 OA
ENDBRANCH   3   8
ENDBRANCH   1   3
BRANCH   1  11
ATOM     11  C   UNL     1      20.191  -3.446  14.957  1.00  0.00     0.006 C 
ATOM     12  C   UNL     1      20.997  -2.733  16.045  1.00  0.00     0.004 C 
ENDBRANCH   1  11
TORSDOF 4
ENDMDL
MODEL 4
REMARK VINA RESULT:    -4.608      1.901      2.077
REMARK INTER + INTRA:          -5.684
REMARK INTER:                  -5.702
REMARK INTRA:                   0.018
REMARK UNBOUND:                -0.133
REMARK SMILES CC[C@H](C)[C@@H]([NH3+])C(=O)[O-]
REMARK SMILES IDX 3 1 4 2 5 3 6 4 7 8 8 9 9 10 2 11 1 12
REMARK H PARENT 6 5 6 6 6 7
REMARK Flexibility Score: inf
ROOT
ATOM      1  C   UNL     1      20.584  -3.441  16.099  1.00  0.00     0.050 C 
ATOM      2  C   UNL     1      20.575  -3.148  14.586  1.00  0.00     0.014 C 
ENDROOT
BRANCH   1   3
ATOM      3  C   UNL     1      21.585  -4.594  16.443  1.00  0.00     0.230 C 
BRANCH   3   4
ATOM      4  N   UNL     1      21.133  -5.392  17.594  1.00  0.00    -0.350 N 
ATOM      5  H   UNL     1      20.887  -4.763  18.394  1.00  0.00     0.345 HD
ATOM      6  H   UNL     1      20.268  -5.925  17.348  1.00  0.00     0.345 HD
ATOM      7  H   UNL     1      21.880  -6.056  17.902  1.00  0.00     0.345 HD
ENDBRANCH   3   4
BRANCH   3   8
ATOM      8  C   UNL     1      21.796  -5.501  15.258  1.00  0.00     0.099 C 
ATOM      9  O   UNL     1      22.826  -5.385  14.541  1.00  0.00    -0.544 OA
ATOM     10  O   UNL     1      20.861  -6.485  14.961  1.00  0.00    -0.544 OA
ENDBRANCH   3   8
ENDBRANCH   1   3
BRANCH   1  11
ATOM     11  C   UNL     1      19.136  -3.770  16.570  1.00  0.00     0.006 C 
ATOM     12  C   UNL     1      18.148  -3.898  15.407  1.00  0.00     0.004 C 
ENDBRANCH   1  11
TORSDOF 4
ENDMDL
MODEL 5
REMARK VINA RESULT:    -4.584      2.480      2.658
REMARK INTER + INTRA:          -5.654
REMARK INTER:                  -5.583
REMARK INTRA:                  -0.072
REMARK UNBOUND:                -0.133
REMARK SMILES CC[C@H](C)[C@@H]([NH3+])C(=O)[O-]
REMARK SMILES IDX 3 1 4 2 5 3 6 4 7 8 8 9 9 10 2 11 1 12
REMARK H PARENT 6 5 6 6 6 7
REMARK Flexibility Score: inf
ROOT
ATOM      1  C   UNL     1      21.099  -4.133  15.806  1.00  0.00     0.050 C 
ATOM      2  C   UNL     1      20.400  -3.849  14.464  1.00  0.00     0.014 C 
ENDROOT
BRANCH   1   3
ATOM      3  C   UNL     1      22.328  -5.082  15.611  1.00  0.00     0.230 C 
BRANCH   3   4
ATOM      4  N   UNL     1      22.503  -5.477  14.204  1.00  0.00    -0.350 N 
ATOM      5  H   UNL     1      22.936  -4.694  13.661  1.00  0.00     0.345 HD
ATOM      6  H   UNL     1      23.154  -6.292  14.135  1.00  0.00     0.345 HD
ATOM      7  H   UNL     1      21.584  -5.723  13.770  1.00  0.00     0.345 HD
ENDBRANCH   3   4
BRANCH   3   8
ATOM      8  C   UNL     1      23.596  -4.439  16.111  1.00  0.00     0.099 C 
ATOM      9  O   UNL     1      23.546  -3.444  16.883  1.00  0.00    -0.544 OA
ATOM     10  O   UNL     1      24.831  -4.954  15.735  1.00  0.00    -0.544 OA
ENDBRANCH   3   8
ENDBRANCH   1   3
BRANCH   1  11
ATOM     11  C   UNL     1      20.066  -4.722  16.813  1.00  0.00     0.006 C 
ATOM     12  C   UNL     1      18.815  -3.852  16.956  1.00  0.00     0.004 C 
ENDBRANCH   1  11
TORSDOF 4
ENDMDL
MODEL 6
REMARK VINA RESULT:    -4.403      1.979      2.737
REMARK INTER + INTRA:          -5.437
REMARK INTER:                  -5.307
REMARK INTRA:                  -0.130
REMARK UNBOUND:                -0.133
REMARK SMILES CC[C@H](C)[C@@H]([NH3+])C(=O)[O-]
REMARK SMILES IDX 3 1 4 2 5 3 6 4 7 8 8 9 9 10 2 11 1 12
REMARK H PARENT 6 5 6 6 6 7
REMARK Flexibility Score: inf
ROOT
ATOM      1  C   UNL     1      21.712  -4.944  15.729  1.00  0.00     0.050 C 
ATOM      2  C   UNL     1      23.247  -4.828  15.770  1.00  0.00     0.014 C 
ENDROOT
BRANCH   1   3
ATOM      3  C   UNL     1      21.235  -6.313  16.317  1.00  0.00     0.230 C 
BRANCH   3   4
ATOM      4  N   UNL     1      22.244  -6.915  17.204  1.00  0.00    -0.350 N 
ATOM      5  H   UNL     1      22.778  -6.165  17.704  1.00  0.00     0.345 HD
ATOM      6  H   UNL     1      21.780  -7.497  17.938  1.00  0.00     0.345 HD
ATOM      7  H   UNL     1      22.915  -7.503  16.659  1.00  0.00     0.345 HD
ENDBRANCH   3   4
BRANCH   3   8
ATOM      8  C   UNL     1      19.937  -6.160  17.067  1.00  0.00     0.099 C 
ATOM      9  O   UNL     1      19.289  -7.176  17.435  1.00  0.00    -0.544 OA
ATOM     10  O   UNL     1      19.456  -4.893  17.372  1.00  0.00    -0.544 OA
ENDBRANCH   3   8
ENDBRANCH   1   3
BRANCH   1  11
ATOM     11  C   UNL     1      21.216  -4.737  14.267  1.00  0.00     0.006 C 
ATOM     12  C   UNL     1      20.242  -3.564  14.131  1.00  0.00     0.004 C 
ENDBRANCH   1  11
TORSDOF 4
ENDMDL
MODEL 7
REMARK VINA RESULT:    -4.376      2.017      2.867
REMARK INTER + INTRA:          -5.404
REMARK INTER:                  -5.464
REMARK INTRA:                   0.060
REMARK UNBOUND:                -0.133
REMARK SMILES CC[C@H](C)[C@@H]([NH3+])C(=O)[O-]
REMARK SMILES IDX 3 1 4 2 5 3 6 4 7 8 8 9 9 10 2 11 1 12
REMARK H PARENT 6 5 6 6 6 7
REMARK Flexibility Score: inf
ROOT
ATOM      1  C   UNL     1      19.281  -4.262  16.159  1.00  0.00     0.050 C 
ATOM      2  C   UNL     1      19.619  -2.764  16.267  1.00  0.00     0.014 C 
ENDROOT
BRANCH   1   3
ATOM      3  C   UNL     1      19.997  -5.084  17.281  1.00  0.00     0.230 C 
BRANCH   3   4
ATOM      4  N   UNL     1      19.287  -6.336  17.589  1.00  0.00    -0.350 N 
ATOM      5  H   UNL     1      18.285  -6.264  17.292  1.00  0.00     0.345 HD
ATOM      6  H   UNL     1      19.706  -7.130  17.054  1.00  0.00     0.345 HD
ATOM      7  H   UNL     1      19.324  -6.542  18.613  1.00  0.00     0.345 HD
ENDBRANCH   3   4
BRANCH   3   8
ATOM      8  C   UNL     1      21.421  -5.397  16.900  1.00  0.00     0.099 C 
ATOM      9  O   UNL     1      21.763  -6.579  16.626  1.00  0.00    -0.544 OA
ATOM     10  O   UNL     1      22.363  -4.378  16.831  1.00  0.00    -0.544 OA
ENDBRANCH   3   8
ENDBRANCH   1   3
BRANCH   1  11
ATOM     11  C   UNL     1      19.654  -4.776  14.736  1.00  0.00     0.006 C 
ATOM     12  C   UNL     1      20.405  -3.731  13.906  1.00  0.00     0.004 C 
ENDBRANCH   1  11
TORSDOF 4
ENDMDL
MODEL 8
REMARK VINA RESULT:    -4.365      2.428      3.240
REMARK INTER + INTRA:          -5.391
REMARK INTER:                  -5.303
REMARK INTRA:                  -0.088
REMARK UNBOUND:                -0.133
REMARK SMILES CC[C@H](C)[C@@H]([NH3+])C(=O)[O-]
REMARK SMILES IDX 3 1 4 2 5 3 6 4 7 8 8 9 9 10 2 11 1 12
REMARK H PARENT 6 5 6 6 6 7
REMARK Flexibility Score: inf
ROOT
ATOM      1  C   UNL     1      21.312  -4.800  14.967  1.00  0.00     0.050 C 
ATOM      2  C   UNL     1      20.758  -6.237  14.991  1.00  0.00     0.014 C 
ENDROOT
BRANCH   1   3
ATOM      3  C   UNL     1      21.701  -4.322  16.405  1.00  0.00     0.230 C 
BRANCH   3   4
ATOM      4  N   UNL     1      21.205  -5.238  17.444  1.00  0.00    -0.350 N 
ATOM      5  H   UNL     1      21.973  -5.879  17.757  1.00  0.00     0.345 HD
ATOM      6  H   UNL     1      20.897  -4.699  18.286  1.00  0.00     0.345 HD
ATOM      7  H   UNL     1      20.409  -5.814  17.084  1.00  0.00     0.345 HD
ENDBRANCH   3   4
BRANCH   3   8
ATOM      8  C   UNL     1      23.193  -4.170  16.543  1.00  0.00     0.099 C 
ATOM      9  O   UNL     1      23.959  -5.141  16.302  1.00  0.00    -0.544 OA
ATOM     10  O   UNL     1      23.735  -2.947  16.921  1.00  0.00    -0.544 OA
ENDBRANCH   3   8
ENDBRANCH   1   3
BRANCH   1  11
ATOM     11  C   UNL     1      20.268  -3.854  14.303  1.00  0.00     0.006 C 
ATOM     12  C   UNL     1      18.907  -3.887  15.004  1.00  0.00     0.004 C 
ENDBRANCH   1  11
TORSDOF 4
ENDMDL
MODEL 9
REMARK VINA RESULT:    -4.360      2.495      3.281
REMARK INTER + INTRA:          -5.385
REMARK INTER:                  -5.314
REMARK INTRA:                  -0.071
REMARK UNBOUND:                -0.133
REMARK SMILES CC[C@H](C)[C@@H]([NH3+])C(=O)[O-]
REMARK SMILES IDX 3 1 4 2 5 3 6 4 7 8 8 9 9 10 2 11 1 12
REMARK H PARENT 6 5 6 6 6 7
REMARK Flexibility Score: inf
ROOT
ATOM      1  C   UNL     1      19.106  -5.731  15.648  1.00  0.00     0.050 C 
ATOM      2  C   UNL     1      19.162  -4.668  16.761  1.00  0.00     0.014 C 
ENDROOT
BRANCH   1   3
ATOM      3  C   UNL     1      19.307  -7.169  16.232  1.00  0.00     0.230 C 
BRANCH   3   4
ATOM      4  N   UNL     1      19.350  -7.167  17.703  1.00  0.00    -0.350 N 
ATOM      5  H   UNL     1      18.802  -6.357  18.079  1.00  0.00     0.345 HD
ATOM      6  H   UNL     1      18.906  -8.035  18.079  1.00  0.00     0.345 HD
ATOM      7  H   UNL     1      20.335  -7.097  18.046  1.00  0.00     0.345 HD
ENDBRANCH   3   4
BRANCH   3   8
ATOM      8  C   UNL     1      18.220  -8.101  15.764  1.00  0.00     0.099 C 
ATOM      9  O   UNL     1      18.208  -9.305  16.137  1.00  0.00    -0.544 OA
ATOM     10  O   UNL     1      17.213  -7.632  14.930  1.00  0.00    -0.544 OA
ENDBRANCH   3   8
ENDBRANCH   1   3
BRANCH   1  11
ATOM     11  C   UNL     1      20.167  -5.394  14.558  1.00  0.00     0.006 C 
ATOM     12  C   UNL     1      20.215  -3.902  14.217  1.00  0.00     0.004 C 
ENDBRANCH   1  11
TORSDOF 4
ENDMDL
