MODEL 1
REMARK VINA RESULT:    -3.343      0.000      0.000
REMARK INTER + INTRA:          -8.719
REMARK INTER:                  -6.080
REMARK INTRA:                  -2.639
REMARK UNBOUND:                -2.639
REMARK SMILES CCCCCCCCCCCCCCCC(=O)[O-]
REMARK SMILES IDX 9 1 10 2 11 3 12 4 13 5 14 6 15 7 16 8 17 9 18 10 8 11 7 12
REMARK SMILES IDX 6 13 5 14 4 15 3 16 2 17 1 18
REMARK H PARENT
REMARK Flexibility Score: inf
ROOT
ATOM      1  C   UNL     1       2.110   2.724  21.736  1.00  0.00     0.000 C 
ENDROOT
BRANCH   1   2
ATOM      2  C   UNL     1       2.630   3.652  20.628  1.00  0.00     0.000 C 
BRANCH   2   3
ATOM      3  C   UNL     1       2.411   3.029  19.242  1.00  0.00     0.000 C 
BRANCH   3   4
ATOM      4  C   UNL     1       1.039   2.349  19.104  1.00  0.00     0.000 C 
BRANCH   4   5
ATOM      5  C   UNL     1       1.136   0.937  18.501  1.00  0.00     0.000 C 
BRANCH   5   6
ATOM      6  C   UNL     1       0.801  -0.170  19.519  1.00  0.00     0.006 C 
BRANCH   6   7
ATOM      7  C   UNL     1      -0.380   0.158  20.447  1.00  0.00     0.053 C 
BRANCH   7   8
ATOM      8  C   UNL     1      -1.700  -0.138  19.804  1.00  0.00     0.041 C 
ATOM      9  O   UNL     1      -1.795  -1.049  18.941  1.00  0.00    -0.550 OA
ATOM     10  O   UNL     1      -2.833   0.570  20.186  1.00  0.00    -0.550 OA
ENDBRANCH   7   8
ENDBRANCH   6   7
ENDBRANCH   5   6
ENDBRANCH   4   5
ENDBRANCH   3   4
ENDBRANCH   2   3
ENDBRANCH   1   2
BRANCH   1  11
ATOM     11  C   UNL     1       3.243   1.956  22.436  1.00  0.00     0.000 C 
BRANCH  11  12
ATOM     12  C   UNL     1       3.347   0.495  21.962  1.00  0.00    -0.000 C 
BRANCH  12  13
ATOM     13  C   UNL     1       4.356   0.332  20.806  1.00  0.00    -0.000 C 
BRANCH  13  14
ATOM     14  C   UNL     1       5.593   1.238  20.940  1.00  0.00    -0.000 C 
BRANCH  14  15
ATOM     15  C   UNL     1       5.915   2.008  19.652  1.00  0.00    -0.000 C 
BRANCH  15  16
ATOM     16  C   UNL     1       6.583   3.352  19.965  1.00  0.00    -0.000 C 
BRANCH  16  17
ATOM     17  C   UNL     1       6.529   3.654  21.468  1.00  0.00    -0.003 C 
ATOM     18  C   UNL     1       5.905   5.021  21.733  1.00  0.00     0.004 C 
ENDBRANCH  16  17
ENDBRANCH  15  16
ENDBRANCH  14  15
ENDBRANCH  13  14
ENDBRANCH  12  13
ENDBRANCH  11  12
ENDBRANCH   1  11
TORSDOF 14
ENDMDL
MODEL 2
REMARK VINA RESULT:    -3.328     12.874     15.069
REMARK INTER + INTRA:          -8.690
REMARK INTER:                  -7.795
REMARK INTRA:                  -0.896
REMARK UNBOUND:                -2.639
REMARK SMILES CCCCCCCCCCCCCCCC(=O)[O-]
REMARK SMILES IDX 9 1 10 2 11 3 12 4 13 5 14 6 15 7 16 8 17 9 18 10 8 11 7 12
REMARK SMILES IDX 6 13 5 14 4 15 3 16 2 17 1 18
REMARK H PARENT
REMARK Flexibility Score: inf
ROOT
ATOM      1  C   UNL     1       4.299  -0.383  32.164  1.00  0.00     0.000 C 
ENDROOT
BRANCH   1   2
ATOM      2  C   UNL     1       3.043   0.497  32.249  1.00  0.00     0.000 C 
BRANCH   2   3
ATOM      3  C   UNL     1       3.413   1.955  32.558  1.00  0.00     0.000 C 
BRANCH   3   4
ATOM      4  C   UNL     1       4.903   2.254  32.322  1.00  0.00     0.000 C 
BRANCH   4   5
ATOM      5  C   UNL     1       5.395   3.473  33.120  1.00  0.00     0.000 C 
BRANCH   5   6
ATOM      6  C   UNL     1       6.388   4.343  32.327  1.00  0.00     0.006 C 
BRANCH   6   7
ATOM      7  C   UNL     1       7.163   5.360  33.179  1.00  0.00     0.053 C 
BRANCH   7   8
ATOM      8  C   UNL     1       6.259   6.382  33.797  1.00  0.00     0.041 C 
ATOM      9  O   UNL     1       5.597   7.166  33.068  1.00  0.00    -0.550 OA
ATOM     10  O   UNL     1       6.122   6.445  35.179  1.00  0.00    -0.550 OA
ENDBRANCH   7   8
ENDBRANCH   6   7
ENDBRANCH   5   6
ENDBRANCH   4   5
ENDBRANCH   3   4
ENDBRANCH   2   3
ENDBRANCH   1   2
BRANCH   1  11
ATOM     11  C   UNL     1       3.972  -1.882  32.260  1.00  0.00     0.000 C 
BRANCH  11  12
ATOM     12  C   UNL     1       2.480  -2.144  32.531  1.00  0.00    -0.000 C 
BRANCH  12  13
ATOM     13  C   UNL     1       2.243  -2.749  33.931  1.00  0.00    -0.000 C 
BRANCH  13  14
ATOM     14  C   UNL     1       3.379  -3.676  34.398  1.00  0.00    -0.000 C 
BRANCH  14  15
ATOM     15  C   UNL     1       4.078  -3.174  35.669  1.00  0.00    -0.000 C 
BRANCH  15  16
ATOM     16  C   UNL     1       4.898  -4.291  36.325  1.00  0.00    -0.000 C 
BRANCH  16  17
ATOM     17  C   UNL     1       6.299  -3.794  36.701  1.00  0.00    -0.003 C 
ATOM     18  C   UNL     1       6.896  -2.935  35.590  1.00  0.00     0.004 C 
ENDBRANCH  16  17
ENDBRANCH  15  16
ENDBRANCH  14  15
ENDBRANCH  13  14
ENDBRANCH  12  13
ENDBRANCH  11  12
ENDBRANCH   1  11
TORSDOF 14
ENDMDL
MODEL 3
REMARK VINA RESULT:    -3.321     12.565     14.275
REMARK INTER + INTRA:          -8.677
REMARK INTER:                  -7.362
REMARK INTRA:                  -1.316
REMARK UNBOUND:                -2.639
REMARK SMILES CCCCCCCCCCCCCCCC(=O)[O-]
REMARK SMILES IDX 9 1 10 2 11 3 12 4 13 5 14 6 15 7 16 8 17 9 18 10 8 11 7 12
REMARK SMILES IDX 6 13 5 14 4 15 3 16 2 17 1 18
REMARK H PARENT
REMARK Flexibility Score: inf
ROOT
ATOM      1  C   UNL     1       6.447   3.415  32.229  1.00  0.00     0.000 C 
ENDROOT
BRANCH   1   2
ATOM      2  C   UNL     1       5.460   2.264  31.984  1.00  0.00     0.000 C 
BRANCH   2   3
ATOM      3  C   UNL     1       4.179   2.455  32.810  1.00  0.00     0.000 C 
BRANCH   3   4
ATOM      4  C   UNL     1       3.057   1.487  32.400  1.00  0.00     0.000 C 
BRANCH   4   5
ATOM      5  C   UNL     1       3.472   0.551  31.251  1.00  0.00     0.000 C 
BRANCH   5   6
ATOM      6  C   UNL     1       3.155  -0.927  31.544  1.00  0.00     0.006 C 
BRANCH   6   7
ATOM      7  C   UNL     1       3.939  -1.523  32.725  1.00  0.00     0.053 C 
BRANCH   7   8
ATOM      8  C   UNL     1       3.036  -2.154  33.740  1.00  0.00     0.041 C 
ATOM      9  O   UNL     1       1.810  -2.297  33.495  1.00  0.00    -0.550 OA
ATOM     10  O   UNL     1       3.557  -2.617  34.942  1.00  0.00    -0.550 OA
ENDBRANCH   7   8
ENDBRANCH   6   7
ENDBRANCH   5   6
ENDBRANCH   4   5
ENDBRANCH   3   4
ENDBRANCH   2   3
ENDBRANCH   1   2
BRANCH   1  11
ATOM     11  C   UNL     1       6.203   4.119  33.574  1.00  0.00     0.000 C 
BRANCH  11  12
ATOM     12  C   UNL     1       6.128   5.650  33.434  1.00  0.00    -0.000 C 
BRANCH  12  13
ATOM     13  C   UNL     1       7.524   6.306  33.483  1.00  0.00    -0.000 C 
BRANCH  13  14
ATOM     14  C   UNL     1       8.330   5.937  34.740  1.00  0.00    -0.000 C 
BRANCH  14  15
ATOM     15  C   UNL     1       8.181   6.963  35.872  1.00  0.00    -0.000 C 
BRANCH  15  16
ATOM     16  C   UNL     1       7.709   6.293  37.166  1.00  0.00    -0.000 C 
BRANCH  16  17
ATOM     17  C   UNL     1       6.178   6.298  37.259  1.00  0.00    -0.003 C 
ATOM     18  C   UNL     1       5.616   4.881  37.184  1.00  0.00     0.004 C 
ENDBRANCH  16  17
ENDBRANCH  15  16
ENDBRANCH  14  15
ENDBRANCH  13  14
ENDBRANCH  12  13
ENDBRANCH  11  12
ENDBRANCH   1  11
TORSDOF 14
ENDMDL
MODEL 4
REMARK VINA RESULT:    -3.312     12.969     14.561
REMARK INTER + INTRA:          -8.662
REMARK INTER:                  -7.764
REMARK INTRA:                  -0.898
REMARK UNBOUND:                -2.639
REMARK SMILES CCCCCCCCCCCCCCCC(=O)[O-]
REMARK SMILES IDX 9 1 10 2 11 3 12 4 13 5 14 6 15 7 16 8 17 9 18 10 8 11 7 12
REMARK SMILES IDX 6 13 5 14 4 15 3 16 2 17 1 18
REMARK H PARENT
REMARK Flexibility Score: inf
ROOT
ATOM      1  C   UNL     1       3.381   1.725  32.174  1.00  0.00     0.000 C 
ENDROOT
BRANCH   1   2
ATOM      2  C   UNL     1       3.004   0.240  32.066  1.00  0.00     0.000 C 
BRANCH   2   3
ATOM      3  C   UNL     1       4.222  -0.656  32.332  1.00  0.00     0.000 C 
BRANCH   3   4
ATOM      4  C   UNL     1       3.844  -2.134  32.523  1.00  0.00     0.000 C 
BRANCH   4   5
ATOM      5  C   UNL     1       2.458  -2.312  33.167  1.00  0.00     0.000 C 
BRANCH   5   6
ATOM      6  C   UNL     1       2.529  -2.951  34.567  1.00  0.00     0.006 C 
BRANCH   6   7
ATOM      7  C   UNL     1       3.937  -2.972  35.183  1.00  0.00     0.053 C 
BRANCH   7   8
ATOM      8  C   UNL     1       4.417  -4.366  35.445  1.00  0.00     0.041 C 
ATOM      9  O   UNL     1       4.959  -4.653  36.544  1.00  0.00    -0.550 OA
ATOM     10  O   UNL     1       4.232  -5.357  34.489  1.00  0.00    -0.550 OA
ENDBRANCH   7   8
ENDBRANCH   6   7
ENDBRANCH   5   6
ENDBRANCH   4   5
ENDBRANCH   3   4
ENDBRANCH   2   3
ENDBRANCH   1   2
BRANCH   1  11
ATOM     11  C   UNL     1       4.896   1.934  32.327  1.00  0.00     0.000 C 
BRANCH  11  12
ATOM     12  C   UNL     1       5.244   3.285  32.977  1.00  0.00    -0.000 C 
BRANCH  12  13
ATOM     13  C   UNL     1       6.733   3.649  32.797  1.00  0.00    -0.000 C 
BRANCH  13  14
ATOM     14  C   UNL     1       7.106   5.018  33.392  1.00  0.00    -0.000 C 
BRANCH  14  15
ATOM     15  C   UNL     1       5.884   5.826  33.851  1.00  0.00    -0.000 C 
BRANCH  15  16
ATOM     16  C   UNL     1       6.157   6.529  35.185  1.00  0.00    -0.000 C 
BRANCH  16  17
ATOM     17  C   UNL     1       5.968   5.565  36.362  1.00  0.00    -0.003 C 
ATOM     18  C   UNL     1       5.059   6.169  37.428  1.00  0.00     0.004 C 
ENDBRANCH  16  17
ENDBRANCH  15  16
ENDBRANCH  14  15
ENDBRANCH  13  14
ENDBRANCH  12  13
ENDBRANCH  11  12
ENDBRANCH   1  11
TORSDOF 14
ENDMDL
MODEL 5
REMARK VINA RESULT:    -3.279     10.553     12.468
REMARK INTER + INTRA:          -8.601
REMARK INTER:                  -7.606
REMARK INTRA:                  -0.996
REMARK UNBOUND:                -2.639
REMARK SMILES CCCCCCCCCCCCCCCC(=O)[O-]
REMARK SMILES IDX 9 1 10 2 11 3 12 4 13 5 14 6 15 7 16 8 17 9 18 10 8 11 7 12
REMARK SMILES IDX 6 13 5 14 4 15 3 16 2 17 1 18
REMARK H PARENT
REMARK Flexibility Score: inf
ROOT
ATOM      1  C   UNL     1       3.315   1.452  31.238  1.00  0.00     0.000 C 
ENDROOT
BRANCH   1   2
ATOM      2  C   UNL     1       3.046   0.265  32.175  1.00  0.00     0.000 C 
BRANCH   2   3
ATOM      3  C   UNL     1       4.176  -0.771  32.087  1.00  0.00     0.000 C 
BRANCH   3   4
ATOM      4  C   UNL     1       3.656  -2.217  32.047  1.00  0.00     0.000 C 
BRANCH   4   5
ATOM      5  C   UNL     1       2.300  -2.379  32.757  1.00  0.00     0.000 C 
BRANCH   5   6
ATOM      6  C   UNL     1       2.381  -3.294  33.994  1.00  0.00     0.006 C 
BRANCH   6   7
ATOM      7  C   UNL     1       3.255  -2.745  35.133  1.00  0.00     0.053 C 
BRANCH   7   8
ATOM      8  C   UNL     1       4.493  -3.562  35.339  1.00  0.00     0.041 C 
ATOM      9  O   UNL     1       4.411  -4.728  35.806  1.00  0.00    -0.550 OA
ATOM     10  O   UNL     1       5.733  -3.049  34.980  1.00  0.00    -0.550 OA
ENDBRANCH   7   8
ENDBRANCH   6   7
ENDBRANCH   5   6
ENDBRANCH   4   5
ENDBRANCH   3   4
ENDBRANCH   2   3
ENDBRANCH   1   2
BRANCH   1  11
ATOM     11  C   UNL     1       3.703   1.002  29.821  1.00  0.00     0.000 C 
BRANCH  11  12
ATOM     12  C   UNL     1       2.569   0.242  29.110  1.00  0.00    -0.000 C 
BRANCH  12  13
ATOM     13  C   UNL     1       1.893   1.099  28.019  1.00  0.00    -0.000 C 
BRANCH  13  14
ATOM     14  C   UNL     1       0.517   0.565  27.585  1.00  0.00    -0.000 C 
BRANCH  14  15
ATOM     15  C   UNL     1      -0.192   1.481  26.579  1.00  0.00    -0.000 C 
BRANCH  15  16
ATOM     16  C   UNL     1       0.251   2.938  26.751  1.00  0.00    -0.000 C 
BRANCH  16  17
ATOM     17  C   UNL     1      -0.815   3.752  27.495  1.00  0.00    -0.003 C 
ATOM     18  C   UNL     1      -0.312   5.156  27.816  1.00  0.00     0.004 C 
ENDBRANCH  16  17
ENDBRANCH  15  16
ENDBRANCH  14  15
ENDBRANCH  13  14
ENDBRANCH  12  13
ENDBRANCH  11  12
ENDBRANCH   1  11
TORSDOF 14
ENDMDL
MODEL 6
REMARK VINA RESULT:    -3.270      1.596      2.447
REMARK INTER + INTRA:          -8.584
REMARK INTER:                  -7.061
REMARK INTRA:                  -1.524
REMARK UNBOUND:                -2.639
REMARK SMILES CCCCCCCCCCCCCCCC(=O)[O-]
REMARK SMILES IDX 9 1 10 2 11 3 12 4 13 5 14 6 15 7 16 8 17 9 18 10 8 11 7 12
REMARK SMILES IDX 6 13 5 14 4 15 3 16 2 17 1 18
REMARK H PARENT
REMARK Flexibility Score: inf
ROOT
ATOM      1  C   UNL     1       3.165   4.202  19.368  1.00  0.00     0.000 C 
ENDROOT
BRANCH   1   2
ATOM      2  C   UNL     1       2.236   2.985  19.486  1.00  0.00     0.000 C 
BRANCH   2   3
ATOM      3  C   UNL     1       1.763   2.518  18.101  1.00  0.00     0.000 C 
BRANCH   3   4
ATOM      4  C   UNL     1       1.090   1.137  18.135  1.00  0.00     0.000 C 
BRANCH   4   5
ATOM      5  C   UNL     1       1.407   0.356  19.422  1.00  0.00     0.000 C 
BRANCH   5   6
ATOM      6  C   UNL     1       0.152  -0.261  20.069  1.00  0.00     0.006 C 
BRANCH   6   7
ATOM      7  C   UNL     1      -1.156   0.025  19.313  1.00  0.00     0.053 C 
BRANCH   7   8
ATOM      8  C   UNL     1      -2.360  -0.424  20.081  1.00  0.00     0.041 C 
ATOM      9  O   UNL     1      -2.846  -1.569  19.885  1.00  0.00    -0.550 OA
ATOM     10  O   UNL     1      -2.925   0.409  21.039  1.00  0.00    -0.550 OA
ENDBRANCH   7   8
ENDBRANCH   6   7
ENDBRANCH   5   6
ENDBRANCH   4   5
ENDBRANCH   3   4
ENDBRANCH   2   3
ENDBRANCH   1   2
BRANCH   1  11
ATOM     11  C   UNL     1       4.271   3.994  18.321  1.00  0.00     0.000 C 
BRANCH  11  12
ATOM     12  C   UNL     1       5.657   3.788  18.960  1.00  0.00    -0.000 C 
BRANCH  12  13
ATOM     13  C   UNL     1       5.763   2.430  19.687  1.00  0.00    -0.000 C 
BRANCH  13  14
ATOM     14  C   UNL     1       5.900   2.563  21.214  1.00  0.00    -0.000 C 
BRANCH  14  15
ATOM     15  C   UNL     1       6.545   3.886  21.646  1.00  0.00    -0.000 C 
BRANCH  15  16
ATOM     16  C   UNL     1       5.839   4.468  22.876  1.00  0.00    -0.000 C 
BRANCH  16  17
ATOM     17  C   UNL     1       5.081   5.752  22.517  1.00  0.00    -0.003 C 
ATOM     18  C   UNL     1       5.824   6.552  21.452  1.00  0.00     0.004 C 
ENDBRANCH  16  17
ENDBRANCH  15  16
ENDBRANCH  14  15
ENDBRANCH  13  14
ENDBRANCH  12  13
ENDBRANCH  11  12
ENDBRANCH   1  11
TORSDOF 14
ENDMDL
MODEL 7
REMARK VINA RESULT:    -3.249      1.817      3.389
REMARK INTER + INTRA:          -8.546
REMARK INTER:                  -6.975
REMARK INTRA:                  -1.571
REMARK UNBOUND:                -2.639
REMARK SMILES CCCCCCCCCCCCCCCC(=O)[O-]
REMARK SMILES IDX 9 1 10 2 11 3 12 4 13 5 14 6 15 7 16 8 17 9 18 10 8 11 7 12
REMARK SMILES IDX 6 13 5 14 4 15 3 16 2 17 1 18
REMARK H PARENT
REMARK Flexibility Score: inf
ROOT
ATOM      1  C   UNL     1       1.712   2.649  19.846  1.00  0.00     0.000 C 
ENDROOT
BRANCH   1   2
ATOM      2  C   UNL     1       1.189   1.308  20.383  1.00  0.00     0.000 C 
BRANCH   2   3
ATOM      3  C   UNL     1       0.956   0.312  19.238  1.00  0.00     0.000 C 
BRANCH   3   4
ATOM      4  C   UNL     1      -0.530  -0.027  19.036  1.00  0.00     0.000 C 
BRANCH   4   5
ATOM      5  C   UNL     1      -0.969  -1.264  19.837  1.00  0.00     0.000 C 
BRANCH   5   6
ATOM      6  C   UNL     1      -2.250  -1.019  20.658  1.00  0.00     0.006 C 
BRANCH   6   7
ATOM      7  C   UNL     1      -3.045   0.227  20.235  1.00  0.00     0.053 C 
BRANCH   7   8
ATOM      8  C   UNL     1      -2.946   1.329  21.245  1.00  0.00     0.041 C 
ATOM      9  O   UNL     1      -3.761   2.288  21.218  1.00  0.00    -0.550 OA
ATOM     10  O   UNL     1      -1.976   1.278  22.237  1.00  0.00    -0.550 OA
ENDBRANCH   7   8
ENDBRANCH   6   7
ENDBRANCH   5   6
ENDBRANCH   4   5
ENDBRANCH   3   4
ENDBRANCH   2   3
ENDBRANCH   1   2
BRANCH   1  11
ATOM     11  C   UNL     1       1.908   2.632  18.322  1.00  0.00     0.000 C 
BRANCH  11  12
ATOM     12  C   UNL     1       3.154   3.420  17.877  1.00  0.00    -0.000 C 
BRANCH  12  13
ATOM     13  C   UNL     1       3.933   3.996  19.078  1.00  0.00    -0.000 C 
BRANCH  13  14
ATOM     14  C   UNL     1       5.439   4.160  18.810  1.00  0.00    -0.000 C 
BRANCH  14  15
ATOM     15  C   UNL     1       6.309   3.270  19.708  1.00  0.00    -0.000 C 
BRANCH  15  16
ATOM     16  C   UNL     1       5.445   2.327  20.553  1.00  0.00    -0.000 C 
BRANCH  16  17
ATOM     17  C   UNL     1       5.716   0.862  20.190  1.00  0.00    -0.003 C 
ATOM     18  C   UNL     1       4.677  -0.063  20.817  1.00  0.00     0.004 C 
ENDBRANCH  16  17
ENDBRANCH  15  16
ENDBRANCH  14  15
ENDBRANCH  13  14
ENDBRANCH  12  13
ENDBRANCH  11  12
ENDBRANCH   1  11
TORSDOF 14
ENDMDL
MODEL 8
REMARK VINA RESULT:    -3.204      1.646      3.309
REMARK INTER + INTRA:          -8.465
REMARK INTER:                  -6.581
REMARK INTRA:                  -1.884
REMARK UNBOUND:                -2.639
REMARK SMILES CCCCCCCCCCCCCCCC(=O)[O-]
REMARK SMILES IDX 9 1 10 2 11 3 12 4 13 5 14 6 15 7 16 8 17 9 18 10 8 11 7 12
REMARK SMILES IDX 6 13 5 14 4 15 3 16 2 17 1 18
REMARK H PARENT
REMARK Flexibility Score: inf
ROOT
ATOM      1  C   UNL     1       5.512   3.520  18.982  1.00  0.00     0.000 C 
ENDROOT
BRANCH   1   2
ATOM      2  C   UNL     1       4.027   3.428  18.603  1.00  0.00     0.000 C 
BRANCH   2   3
ATOM      3  C   UNL     1       3.132   3.738  19.813  1.00  0.00     0.000 C 
BRANCH   3   4
ATOM      4  C   UNL     1       1.856   2.881  19.844  1.00  0.00     0.000 C 
BRANCH   4   5
ATOM      5  C   UNL     1       1.506   2.289  18.468  1.00  0.00     0.000 C 
BRANCH   5   6
ATOM      6  C   UNL     1       0.985   0.842  18.558  1.00  0.00     0.006 C 
BRANCH   6   7
ATOM      7  C   UNL     1       0.284   0.501  19.883  1.00  0.00     0.053 C 
BRANCH   7   8
ATOM      8  C   UNL     1      -1.157   0.146  19.684  1.00  0.00     0.041 C 
ATOM      9  O   UNL     1      -2.046   0.686  20.393  1.00  0.00    -0.550 OA
ATOM     10  O   UNL     1      -1.521  -0.755  18.691  1.00  0.00    -0.550 OA
ENDBRANCH   7   8
ENDBRANCH   6   7
ENDBRANCH   5   6
ENDBRANCH   4   5
ENDBRANCH   3   4
ENDBRANCH   2   3
ENDBRANCH   1   2
BRANCH   1  11
ATOM     11  C   UNL     1       5.819   2.826  20.319  1.00  0.00     0.000 C 
BRANCH  11  12
ATOM     12  C   UNL     1       6.602   3.731  21.288  1.00  0.00    -0.000 C 
BRANCH  12  13
ATOM     13  C   UNL     1       5.740   4.181  22.485  1.00  0.00    -0.000 C 
BRANCH  13  14
ATOM     14  C   UNL     1       5.681   5.708  22.659  1.00  0.00    -0.000 C 
BRANCH  14  15
ATOM     15  C   UNL     1       5.903   6.470  21.345  1.00  0.00    -0.000 C 
BRANCH  15  16
ATOM     16  C   UNL     1       4.606   7.132  20.866  1.00  0.00    -0.000 C 
BRANCH  16  17
ATOM     17  C   UNL     1       4.486   7.063  19.339  1.00  0.00    -0.003 C 
ATOM     18  C   UNL     1       5.849   7.227  18.671  1.00  0.00     0.004 C 
ENDBRANCH  16  17
ENDBRANCH  15  16
ENDBRANCH  14  15
ENDBRANCH  13  14
ENDBRANCH  12  13
ENDBRANCH  11  12
ENDBRANCH   1  11
TORSDOF 14
ENDMDL
MODEL 9
REMARK VINA RESULT:    -3.194      1.587      3.253
REMARK INTER + INTRA:          -8.447
REMARK INTER:                  -6.493
REMARK INTRA:                  -1.954
REMARK UNBOUND:                -2.639
REMARK SMILES CCCCCCCCCCCCCCCC(=O)[O-]
REMARK SMILES IDX 9 1 10 2 11 3 12 4 13 5 14 6 15 7 16 8 17 9 18 10 8 11 7 12
REMARK SMILES IDX 6 13 5 14 4 15 3 16 2 17 1 18
REMARK H PARENT
REMARK Flexibility Score: inf
ROOT
ATOM      1  C   UNL     1       3.400   4.500  19.022  1.00  0.00     0.000 C 
ENDROOT
BRANCH   1   2
ATOM      2  C   UNL     1       3.076   3.480  17.921  1.00  0.00     0.000 C 
BRANCH   2   3
ATOM      3  C   UNL     1       1.915   2.567  18.343  1.00  0.00     0.000 C 
BRANCH   3   4
ATOM      4  C   UNL     1       1.641   2.611  19.855  1.00  0.00     0.000 C 
BRANCH   4   5
ATOM      5  C   UNL     1       0.959   1.332  20.371  1.00  0.00     0.000 C 
BRANCH   5   6
ATOM      6  C   UNL     1       0.431   0.439  19.233  1.00  0.00     0.006 C 
BRANCH   6   7
ATOM      7  C   UNL     1      -1.017  -0.041  19.424  1.00  0.00     0.053 C 
BRANCH   7   8
ATOM      8  C   UNL     1      -1.126  -1.103  20.474  1.00  0.00     0.041 C 
ATOM      9  O   UNL     1      -0.301  -2.053  20.502  1.00  0.00    -0.550 OA
ATOM     10  O   UNL     1      -2.117  -1.022  21.445  1.00  0.00    -0.550 OA
ENDBRANCH   7   8
ENDBRANCH   6   7
ENDBRANCH   5   6
ENDBRANCH   4   5
ENDBRANCH   3   4
ENDBRANCH   2   3
ENDBRANCH   1   2
BRANCH   1  11
ATOM     11  C   UNL     1       4.403   5.566  18.554  1.00  0.00     0.000 C 
BRANCH  11  12
ATOM     12  C   UNL     1       5.632   5.666  19.476  1.00  0.00    -0.000 C 
BRANCH  12  13
ATOM     13  C   UNL     1       5.238   5.996  20.932  1.00  0.00    -0.000 C 
BRANCH  13  14
ATOM     14  C   UNL     1       6.059   5.223  21.979  1.00  0.00    -0.000 C 
BRANCH  14  15
ATOM     15  C   UNL     1       6.360   3.779  21.558  1.00  0.00    -0.000 C 
BRANCH  15  16
ATOM     16  C   UNL     1       5.166   2.861  21.840  1.00  0.00    -0.000 C 
BRANCH  16  17
ATOM     17  C   UNL     1       5.206   1.616  20.945  1.00  0.00    -0.003 C 
ATOM     18  C   UNL     1       5.995   1.883  19.666  1.00  0.00     0.004 C 
ENDBRANCH  16  17
ENDBRANCH  15  16
ENDBRANCH  14  15
ENDBRANCH  13  14
ENDBRANCH  12  13
ENDBRANCH  11  12
ENDBRANCH   1  11
TORSDOF 14
ENDMDL
