MODEL 1
REMARK VINA RESULT:    -6.042      0.000      0.000
REMARK INTER + INTRA:          -9.366
REMARK INTER:                  -8.515
REMARK INTRA:                  -0.851
REMARK UNBOUND:                -0.851
REMARK SMILES COc1ccc(-c2cc(=O)c3c(OC)c(OC)c(OC)c(OC)c3o2)cc1OC
REMARK SMILES IDX 7 1 8 2 9 3 10 4 11 5 24 6 25 7 21 8 18 9 15 10 12 11 6 12
REMARK SMILES IDX 3 13 27 14 4 15 26 16 5 17 2 18 1 19 28 20 29 21 22 22 23 23
REMARK SMILES IDX 13 24 14 25 19 26 20 27 16 28 17 29
REMARK H PARENT
REMARK Flexibility Score: inf
ROOT
ATOM      1  C   UNL     1     132.107 140.376 140.621  1.00  0.00     0.138 A 
ATOM      2  C   UNL     1     131.947 141.753 140.440  1.00  0.00     0.100 A 
ATOM      3  C   UNL     1     132.997 142.610 140.755  1.00  0.00     0.197 A 
ATOM      4  O   UNL     1     132.827 143.850 140.617  1.00  0.00    -0.289 OA
ATOM      5  C   UNL     1     134.214 142.078 141.237  1.00  0.00     0.115 A 
ATOM      6  C   UNL     1     134.299 140.677 141.412  1.00  0.00     0.188 A 
ATOM      7  O   UNL     1     133.256 139.909 141.102  1.00  0.00    -0.452 OA
ATOM      8  C   UNL     1     135.489 140.096 141.908  1.00  0.00     0.209 A 
ATOM      9  C   UNL     1     136.568 140.912 142.281  1.00  0.00     0.211 A 
ATOM     10  C   UNL     1     136.484 142.319 142.134  1.00  0.00     0.208 A 
ATOM     11  C   UNL     1     135.330 142.889 141.550  1.00  0.00     0.179 A 
ENDROOT
BRANCH   1  12
ATOM     12  C   UNL     1     131.017 139.422 140.303  1.00  0.00     0.021 A 
ATOM     13  C   UNL     1     128.908 137.641 139.712  1.00  0.00     0.160 A 
ATOM     14  C   UNL     1     130.134 137.142 140.175  1.00  0.00     0.161 A 
ATOM     15  C   UNL     1     128.740 139.029 139.551  1.00  0.00     0.051 A 
ATOM     16  C   UNL     1     131.183 138.036 140.474  1.00  0.00     0.062 A 
ATOM     17  C   UNL     1     129.783 139.906 139.845  1.00  0.00     0.016 A 
BRANCH  13  18
ATOM     18  O   UNL     1     127.881 136.728 139.424  1.00  0.00    -0.493 OA
ATOM     19  C   UNL     1     127.242 136.607 138.157  1.00  0.00     0.278 C 
ENDBRANCH  13  18
BRANCH  14  20
ATOM     20  O   UNL     1     130.271 135.754 140.328  1.00  0.00    -0.493 OA
ATOM     21  C   UNL     1     130.672 135.108 141.534  1.00  0.00     0.278 C 
ENDBRANCH  14  20
ENDBRANCH   1  12
BRANCH   8  22
ATOM     22  O   UNL     1     135.671 138.707 142.066  1.00  0.00    -0.490 OA
ATOM     23  C   UNL     1     135.183 137.899 143.130  1.00  0.00     0.278 C 
ENDBRANCH   8  22
BRANCH  11  24
ATOM     24  O   UNL     1     135.308 144.251 141.242  1.00  0.00    -0.492 OA
ATOM     25  C   UNL     1     136.045 144.766 140.139  1.00  0.00     0.278 C 
ENDBRANCH  11  24
BRANCH   9  26
ATOM     26  O   UNL     1     137.698 140.250 142.802  1.00  0.00    -0.490 OA
ATOM     27  C   UNL     1     138.063 140.124 144.172  1.00  0.00     0.279 C 
ENDBRANCH   9  26
BRANCH  10  28
ATOM     28  O   UNL     1     137.559 143.114 142.569  1.00  0.00    -0.490 OA
ATOM     29  C   UNL     1     137.608 143.858 143.782  1.00  0.00     0.278 C 
ENDBRANCH  10  28
TORSDOF 7
ENDMDL
MODEL 2
REMARK VINA RESULT:    -6.020      3.738      8.774
REMARK INTER + INTRA:          -9.335
REMARK INTER:                  -8.548
REMARK INTRA:                  -0.786
REMARK UNBOUND:                -0.851
REMARK SMILES COc1ccc(-c2cc(=O)c3c(OC)c(OC)c(OC)c(OC)c3o2)cc1OC
REMARK SMILES IDX 7 1 8 2 9 3 10 4 11 5 24 6 25 7 21 8 18 9 15 10 12 11 6 12
REMARK SMILES IDX 3 13 27 14 4 15 26 16 5 17 2 18 1 19 28 20 29 21 22 22 23 23
REMARK SMILES IDX 13 24 14 25 19 26 20 27 16 28 17 29
REMARK H PARENT
REMARK Flexibility Score: inf
ROOT
ATOM      1  C   UNL     1     136.603 136.342 141.706  1.00  0.00     0.138 A 
ATOM      2  C   UNL     1     135.842 135.206 142.004  1.00  0.00     0.100 A 
ATOM      3  C   UNL     1     134.460 135.320 142.113  1.00  0.00     0.197 A 
ATOM      4  O   UNL     1     133.791 134.295 142.414  1.00  0.00    -0.289 OA
ATOM      5  C   UNL     1     133.841 136.573 141.905  1.00  0.00     0.115 A 
ATOM      6  C   UNL     1     134.674 137.682 141.623  1.00  0.00     0.188 A 
ATOM      7  O   UNL     1     135.992 137.513 141.542  1.00  0.00    -0.452 OA
ATOM      8  C   UNL     1     134.106 138.961 141.423  1.00  0.00     0.209 A 
ATOM      9  C   UNL     1     132.722 139.145 141.559  1.00  0.00     0.211 A 
ATOM     10  C   UNL     1     131.882 138.047 141.867  1.00  0.00     0.208 A 
ATOM     11  C   UNL     1     132.440 136.753 141.972  1.00  0.00     0.179 A 
ENDROOT
BRANCH   1  12
ATOM     12  C   UNL     1     138.079 136.274 141.583  1.00  0.00     0.021 A 
ATOM     13  C   UNL     1     140.892 136.129 141.398  1.00  0.00     0.160 A 
ATOM     14  C   UNL     1     140.189 137.073 140.635  1.00  0.00     0.161 A 
ATOM     15  C   UNL     1     140.186 135.264 142.254  1.00  0.00     0.051 A 
ATOM     16  C   UNL     1     138.785 137.145 140.735  1.00  0.00     0.062 A 
ATOM     17  C   UNL     1     138.795 135.339 142.344  1.00  0.00     0.016 A 
BRANCH  13  18
ATOM     18  O   UNL     1     142.290 136.082 141.278  1.00  0.00    -0.493 OA
ATOM     19  C   UNL     1     143.085 134.935 141.565  1.00  0.00     0.278 C 
ENDBRANCH  13  18
BRANCH  14  20
ATOM     20  O   UNL     1     140.921 137.924 139.792  1.00  0.00    -0.493 OA
ATOM     21  C   UNL     1     140.838 137.922 138.369  1.00  0.00     0.278 C 
ENDBRANCH  14  20
ENDBRANCH   1  12
BRANCH   8  22
ATOM     22  O   UNL     1     134.861 140.105 141.093  1.00  0.00    -0.490 OA
ATOM     23  C   UNL     1     135.714 140.843 141.959  1.00  0.00     0.278 C 
ENDBRANCH   8  22
BRANCH  11  24
ATOM     24  O   UNL     1     131.602 135.643 142.101  1.00  0.00    -0.492 OA
ATOM     25  C   UNL     1     130.863 135.149 140.990  1.00  0.00     0.278 C 
ENDBRANCH  11  24
BRANCH   9  26
ATOM     26  O   UNL     1     132.249 140.461 141.382  1.00  0.00    -0.490 OA
ATOM     27  C   UNL     1     131.693 141.022 140.198  1.00  0.00     0.279 C 
ENDBRANCH   9  26
BRANCH  10  28
ATOM     28  O   UNL     1     130.506 138.273 142.052  1.00  0.00    -0.490 OA
ATOM     29  C   UNL     1     129.866 138.541 143.296  1.00  0.00     0.278 C 
ENDBRANCH  10  28
TORSDOF 7
ENDMDL
MODEL 3
REMARK VINA RESULT:    -5.910      4.556      7.182
REMARK INTER + INTRA:          -9.180
REMARK INTER:                  -8.578
REMARK INTRA:                  -0.602
REMARK UNBOUND:                -0.851
REMARK SMILES COc1ccc(-c2cc(=O)c3c(OC)c(OC)c(OC)c(OC)c3o2)cc1OC
REMARK SMILES IDX 7 1 8 2 9 3 10 4 11 5 24 6 25 7 21 8 18 9 15 10 12 11 6 12
REMARK SMILES IDX 3 13 27 14 4 15 26 16 5 17 2 18 1 19 28 20 29 21 22 22 23 23
REMARK SMILES IDX 13 24 14 25 19 26 20 27 16 28 17 29
REMARK H PARENT
REMARK Flexibility Score: inf
ROOT
ATOM      1  C   UNL     1     137.866 136.758 142.275  1.00  0.00     0.138 A 
ATOM      2  C   UNL     1     138.775 135.695 142.238  1.00  0.00     0.100 A 
ATOM      3  C   UNL     1     140.116 135.953 141.970  1.00  0.00     0.197 A 
ATOM      4  O   UNL     1     140.917 134.982 141.908  1.00  0.00    -0.289 OA
ATOM      5  C   UNL     1     140.545 137.282 141.755  1.00  0.00     0.115 A 
ATOM      6  C   UNL     1     139.567 138.304 141.791  1.00  0.00     0.188 A 
ATOM      7  O   UNL     1     138.297 137.995 142.042  1.00  0.00    -0.452 OA
ATOM      8  C   UNL     1     139.942 139.649 141.565  1.00  0.00     0.209 A 
ATOM      9  C   UNL     1     141.272 139.965 141.250  1.00  0.00     0.211 A 
ATOM     10  C   UNL     1     142.254 138.946 141.187  1.00  0.00     0.208 A 
ATOM     11  C   UNL     1     141.896 137.616 141.506  1.00  0.00     0.179 A 
ENDROOT
BRANCH   1  12
ATOM     12  C   UNL     1     136.427 136.535 142.553  1.00  0.00     0.021 A 
ATOM     13  C   UNL     1     133.694 136.120 143.130  1.00  0.00     0.160 A 
ATOM     14  C   UNL     1     134.301 135.416 142.080  1.00  0.00     0.161 A 
ATOM     15  C   UNL     1     134.458 137.026 143.890  1.00  0.00     0.051 A 
ATOM     16  C   UNL     1     135.667 135.622 141.798  1.00  0.00     0.062 A 
ATOM     17  C   UNL     1     135.808 137.227 143.603  1.00  0.00     0.016 A 
BRANCH  13  18
ATOM     18  O   UNL     1     132.333 135.893 143.388  1.00  0.00    -0.493 OA
ATOM     19  C   UNL     1     131.836 135.137 144.487  1.00  0.00     0.278 C 
ENDBRANCH  13  18
BRANCH  14  20
ATOM     20  O   UNL     1     133.516 134.517 141.341  1.00  0.00    -0.493 OA
ATOM     21  C   UNL     1     133.236 134.642 139.949  1.00  0.00     0.278 C 
ENDBRANCH  14  20
ENDBRANCH   1  12
BRANCH   8  22
ATOM     22  O   UNL     1     139.039 140.730 141.629  1.00  0.00    -0.490 OA
ATOM     23  C   UNL     1     138.538 141.353 142.805  1.00  0.00     0.278 C 
ENDBRANCH   8  22
BRANCH  11  24
ATOM     24  O   UNL     1     142.887 136.638 141.616  1.00  0.00    -0.492 OA
ATOM     25  C   UNL     1     143.575 136.159 140.465  1.00  0.00     0.278 C 
ENDBRANCH  11  24
BRANCH   9  26
ATOM     26  O   UNL     1     141.546 141.325 141.002  1.00  0.00    -0.490 OA
ATOM     27  C   UNL     1     141.664 141.960 139.733  1.00  0.00     0.279 C 
ENDBRANCH   9  26
BRANCH  10  28
ATOM     28  O   UNL     1     143.566 139.287 140.814  1.00  0.00    -0.490 OA
ATOM     29  C   UNL     1     144.580 139.773 141.690  1.00  0.00     0.278 C 
ENDBRANCH  10  28
TORSDOF 7
ENDMDL
MODEL 4
REMARK VINA RESULT:    -5.688      4.530      6.892
REMARK INTER + INTRA:          -8.866
REMARK INTER:                  -8.249
REMARK INTRA:                  -0.617
REMARK UNBOUND:                -0.851
REMARK SMILES COc1ccc(-c2cc(=O)c3c(OC)c(OC)c(OC)c(OC)c3o2)cc1OC
REMARK SMILES IDX 7 1 8 2 9 3 10 4 11 5 24 6 25 7 21 8 18 9 15 10 12 11 6 12
REMARK SMILES IDX 3 13 27 14 4 15 26 16 5 17 2 18 1 19 28 20 29 21 22 22 23 23
REMARK SMILES IDX 13 24 14 25 19 26 20 27 16 28 17 29
REMARK H PARENT
REMARK Flexibility Score: inf
ROOT
ATOM      1  C   UNL     1     136.959 135.980 141.412  1.00  0.00     0.138 A 
ATOM      2  C   UNL     1     137.945 135.383 142.204  1.00  0.00     0.100 A 
ATOM      3  C   UNL     1     139.278 135.731 142.012  1.00  0.00     0.197 A 
ATOM      4  O   UNL     1     140.158 135.161 142.711  1.00  0.00    -0.289 OA
ATOM      5  C   UNL     1     139.618 136.692 141.033  1.00  0.00     0.115 A 
ATOM      6  C   UNL     1     138.570 137.242 140.258  1.00  0.00     0.188 A 
ATOM      7  O   UNL     1     137.314 136.862 140.481  1.00  0.00    -0.452 OA
ATOM      8  C   UNL     1     138.859 138.195 139.254  1.00  0.00     0.209 A 
ATOM      9  C   UNL     1     140.188 138.556 138.987  1.00  0.00     0.211 A 
ATOM     10  C   UNL     1     141.247 137.991 139.741  1.00  0.00     0.208 A 
ATOM     11  C   UNL     1     140.949 137.112 140.806  1.00  0.00     0.179 A 
ENDROOT
BRANCH   1  12
ATOM     12  C   UNL     1     135.525 135.641 141.575  1.00  0.00     0.021 A 
ATOM     13  C   UNL     1     132.788 134.999 141.837  1.00  0.00     0.160 A 
ATOM     14  C   UNL     1     133.448 135.677 142.872  1.00  0.00     0.161 A 
ATOM     15  C   UNL     1     133.498 134.648 140.674  1.00  0.00     0.051 A 
ATOM     16  C   UNL     1     134.814 136.000 142.735  1.00  0.00     0.062 A 
ATOM     17  C   UNL     1     134.850 134.968 140.547  1.00  0.00     0.016 A 
BRANCH  13  18
ATOM     18  O   UNL     1     131.428 134.691 142.001  1.00  0.00    -0.493 OA
ATOM     19  C   UNL     1     130.376 135.249 141.220  1.00  0.00     0.278 C 
ENDBRANCH  13  18
BRANCH  14  20
ATOM     20  O   UNL     1     132.714 136.016 144.019  1.00  0.00    -0.493 OA
ATOM     21  C   UNL     1     131.989 137.231 144.186  1.00  0.00     0.278 C 
ENDBRANCH  14  20
ENDBRANCH   1  12
BRANCH   8  22
ATOM     22  O   UNL     1     137.870 138.825 138.470  1.00  0.00    -0.490 OA
ATOM     23  C   UNL     1     137.038 139.911 138.859  1.00  0.00     0.278 C 
ENDBRANCH   8  22
BRANCH  11  24
ATOM     24  O   UNL     1     141.968 136.688 141.662  1.00  0.00    -0.492 OA
ATOM     25  C   UNL     1     142.960 135.767 141.222  1.00  0.00     0.278 C 
ENDBRANCH  11  24
BRANCH   9  26
ATOM     26  O   UNL     1     140.384 139.482 137.943  1.00  0.00    -0.490 OA
ATOM     27  C   UNL     1     140.588 140.885 138.066  1.00  0.00     0.279 C 
ENDBRANCH   9  26
BRANCH  10  28
ATOM     28  O   UNL     1     142.571 138.330 139.413  1.00  0.00    -0.490 OA
ATOM     29  C   UNL     1     143.326 139.393 139.989  1.00  0.00     0.278 C 
ENDBRANCH  10  28
TORSDOF 7
ENDMDL
MODEL 5
REMARK VINA RESULT:    -5.617      1.817      4.169
REMARK INTER + INTRA:          -8.767
REMARK INTER:                  -7.929
REMARK INTRA:                  -0.839
REMARK UNBOUND:                -0.851
REMARK SMILES COc1ccc(-c2cc(=O)c3c(OC)c(OC)c(OC)c(OC)c3o2)cc1OC
REMARK SMILES IDX 7 1 8 2 9 3 10 4 11 5 24 6 25 7 21 8 18 9 15 10 12 11 6 12
REMARK SMILES IDX 3 13 27 14 4 15 26 16 5 17 2 18 1 19 28 20 29 21 22 22 23 23
REMARK SMILES IDX 13 24 14 25 19 26 20 27 16 28 17 29
REMARK H PARENT
REMARK Flexibility Score: inf
ROOT
ATOM      1  C   UNL     1     133.337 137.670 141.300  1.00  0.00     0.138 A 
ATOM      2  C   UNL     1     134.228 136.631 141.585  1.00  0.00     0.100 A 
ATOM      3  C   UNL     1     135.537 136.934 141.946  1.00  0.00     0.197 A 
ATOM      4  O   UNL     1     136.338 135.987 142.167  1.00  0.00    -0.289 OA
ATOM      5  C   UNL     1     135.944 138.284 142.038  1.00  0.00     0.115 A 
ATOM      6  C   UNL     1     134.993 139.283 141.720  1.00  0.00     0.188 A 
ATOM      7  O   UNL     1     133.758 138.930 141.370  1.00  0.00    -0.452 OA
ATOM      8  C   UNL     1     135.355 140.648 141.780  1.00  0.00     0.209 A 
ATOM      9  C   UNL     1     136.671 141.014 142.100  1.00  0.00     0.211 A 
ATOM     10  C   UNL     1     137.637 140.021 142.394  1.00  0.00     0.208 A 
ATOM     11  C   UNL     1     137.249 138.663 142.427  1.00  0.00     0.179 A 
ENDROOT
BRANCH   1  12
ATOM     12  C   UNL     1     131.933 137.399 140.907  1.00  0.00     0.021 A 
ATOM     13  C   UNL     1     129.276 136.865 140.113  1.00  0.00     0.160 A 
ATOM     14  C   UNL     1     129.546 137.938 140.976  1.00  0.00     0.161 A 
ATOM     15  C   UNL     1     130.337 136.066 139.648  1.00  0.00     0.051 A 
ATOM     16  C   UNL     1     130.875 138.204 141.365  1.00  0.00     0.062 A 
ATOM     17  C   UNL     1     131.649 136.333 140.041  1.00  0.00     0.016 A 
BRANCH  13  18
ATOM     18  O   UNL     1     127.944 136.625 139.742  1.00  0.00    -0.493 OA
ATOM     19  C   UNL     1     127.439 136.765 138.418  1.00  0.00     0.278 C 
ENDBRANCH  13  18
BRANCH  14  20
ATOM     20  O   UNL     1     128.468 138.718 141.422  1.00  0.00    -0.493 OA
ATOM     21  C   UNL     1     127.909 138.655 142.731  1.00  0.00     0.278 C 
ENDBRANCH  14  20
ENDBRANCH   1  12
BRANCH   8  22
ATOM     22  O   UNL     1     134.455 141.704 141.525  1.00  0.00    -0.490 OA
ATOM     23  C   UNL     1     134.000 142.146 140.252  1.00  0.00     0.278 C 
ENDBRANCH   8  22
BRANCH  11  24
ATOM     24  O   UNL     1     138.147 137.695 142.885  1.00  0.00    -0.492 OA
ATOM     25  C   UNL     1     138.503 137.617 144.261  1.00  0.00     0.278 C 
ENDBRANCH  11  24
BRANCH   9  26
ATOM     26  O   UNL     1     136.950 142.396 142.096  1.00  0.00    -0.490 OA
ATOM     27  C   UNL     1     137.565 143.145 141.054  1.00  0.00     0.279 C 
ENDBRANCH   9  26
BRANCH  10  28
ATOM     28  O   UNL     1     138.961 140.417 142.657  1.00  0.00    -0.490 OA
ATOM     29  C   UNL     1     140.043 140.369 141.731  1.00  0.00     0.278 C 
ENDBRANCH  10  28
TORSDOF 7
ENDMDL
MODEL 6
REMARK VINA RESULT:    -5.548      3.026      5.224
REMARK INTER + INTRA:          -8.670
REMARK INTER:                  -7.882
REMARK INTRA:                  -0.788
REMARK UNBOUND:                -0.851
REMARK SMILES COc1ccc(-c2cc(=O)c3c(OC)c(OC)c(OC)c(OC)c3o2)cc1OC
REMARK SMILES IDX 7 1 8 2 9 3 10 4 11 5 24 6 25 7 21 8 18 9 15 10 12 11 6 12
REMARK SMILES IDX 3 13 27 14 4 15 26 16 5 17 2 18 1 19 28 20 29 21 22 22 23 23
REMARK SMILES IDX 13 24 14 25 19 26 20 27 16 28 17 29
REMARK H PARENT
REMARK Flexibility Score: inf
ROOT
ATOM      1  C   UNL     1     132.948 137.572 142.457  1.00  0.00     0.138 A 
ATOM      2  C   UNL     1     133.414 136.260 142.327  1.00  0.00     0.100 A 
ATOM      3  C   UNL     1     134.752 136.039 142.016  1.00  0.00     0.197 A 
ATOM      4  O   UNL     1     135.151 134.852 141.870  1.00  0.00    -0.289 OA
ATOM      5  C   UNL     1     135.624 137.139 141.851  1.00  0.00     0.115 A 
ATOM      6  C   UNL     1     135.080 138.438 141.981  1.00  0.00     0.188 A 
ATOM      7  O   UNL     1     133.788 138.586 142.270  1.00  0.00    -0.452 OA
ATOM      8  C   UNL     1     135.907 139.572 141.809  1.00  0.00     0.209 A 
ATOM      9  C   UNL     1     137.255 139.413 141.454  1.00  0.00     0.211 A 
ATOM     10  C   UNL     1     137.804 138.116 141.297  1.00  0.00     0.208 A 
ATOM     11  C   UNL     1     137.000 136.984 141.562  1.00  0.00     0.179 A 
ENDROOT
BRANCH   1  12
ATOM     12  C   UNL     1     131.531 137.860 142.784  1.00  0.00     0.021 A 
ATOM     13  C   UNL     1     128.835 138.377 143.446  1.00  0.00     0.160 A 
ATOM     14  C   UNL     1     129.246 138.418 142.105  1.00  0.00     0.161 A 
ATOM     15  C   UNL     1     129.773 138.073 144.449  1.00  0.00     0.051 A 
ATOM     16  C   UNL     1     130.592 138.154 141.779  1.00  0.00     0.062 A 
ATOM     17  C   UNL     1     131.104 137.817 144.119  1.00  0.00     0.016 A 
BRANCH  13  18
ATOM     18  O   UNL     1     127.488 138.643 143.740  1.00  0.00    -0.493 OA
ATOM     19  C   UNL     1     126.905 138.514 145.033  1.00  0.00     0.278 C 
ENDBRANCH  13  18
BRANCH  14  20
ATOM     20  O   UNL     1     128.287 138.721 141.126  1.00  0.00    -0.493 OA
ATOM     21  C   UNL     1     128.511 139.583 140.013  1.00  0.00     0.278 C 
ENDBRANCH  14  20
ENDBRANCH   1  12
BRANCH   8  22
ATOM     22  O   UNL     1     135.453 140.898 141.967  1.00  0.00    -0.490 OA
ATOM     23  C   UNL     1     134.659 141.642 141.051  1.00  0.00     0.278 C 
ENDBRANCH   8  22
BRANCH  11  24
ATOM     24  O   UNL     1     137.577 135.712 141.579  1.00  0.00    -0.492 OA
ATOM     25  C   UNL     1     138.492 135.335 142.602  1.00  0.00     0.278 C 
ENDBRANCH  11  24
BRANCH   9  26
ATOM     26  O   UNL     1     137.992 140.599 141.265  1.00  0.00    -0.490 OA
ATOM     27  C   UNL     1     138.289 141.236 140.028  1.00  0.00     0.279 C 
ENDBRANCH   9  26
BRANCH  10  28
ATOM     28  O   UNL     1     139.143 137.990 140.887  1.00  0.00    -0.490 OA
ATOM     29  C   UNL     1     139.586 137.743 139.556  1.00  0.00     0.278 C 
ENDBRANCH  10  28
TORSDOF 7
ENDMDL
MODEL 7
REMARK VINA RESULT:    -5.543      1.943      8.703
REMARK INTER + INTRA:          -8.663
REMARK INTER:                  -7.951
REMARK INTRA:                  -0.712
REMARK UNBOUND:                -0.851
REMARK SMILES COc1ccc(-c2cc(=O)c3c(OC)c(OC)c(OC)c(OC)c3o2)cc1OC
REMARK SMILES IDX 7 1 8 2 9 3 10 4 11 5 24 6 25 7 21 8 18 9 15 10 12 11 6 12
REMARK SMILES IDX 3 13 27 14 4 15 26 16 5 17 2 18 1 19 28 20 29 21 22 22 23 23
REMARK SMILES IDX 13 24 14 25 19 26 20 27 16 28 17 29
REMARK H PARENT
REMARK Flexibility Score: inf
ROOT
ATOM      1  C   UNL     1     134.435 137.754 142.781  1.00  0.00     0.138 A 
ATOM      2  C   UNL     1     134.279 136.382 142.562  1.00  0.00     0.100 A 
ATOM      3  C   UNL     1     133.123 135.916 141.942  1.00  0.00     0.197 A 
ATOM      4  O   UNL     1     132.983 134.675 141.781  1.00  0.00    -0.289 OA
ATOM      5  C   UNL     1     132.133 136.834 141.527  1.00  0.00     0.115 A 
ATOM      6  C   UNL     1     132.350 138.206 141.796  1.00  0.00     0.188 A 
ATOM      7  O   UNL     1     133.472 138.590 142.402  1.00  0.00    -0.452 OA
ATOM      8  C   UNL     1     131.381 139.163 141.417  1.00  0.00     0.209 A 
ATOM      9  C   UNL     1     130.178 138.751 140.824  1.00  0.00     0.211 A 
ATOM     10  C   UNL     1     129.940 137.377 140.574  1.00  0.00     0.208 A 
ATOM     11  C   UNL     1     130.949 136.432 140.867  1.00  0.00     0.179 A 
ENDROOT
BRANCH   1  12
ATOM     12  C   UNL     1     135.646 138.299 143.441  1.00  0.00     0.021 A 
ATOM     13  C   UNL     1     137.936 139.318 144.741  1.00  0.00     0.160 A 
ATOM     14  C   UNL     1     137.382 140.012 143.655  1.00  0.00     0.161 A 
ATOM     15  C   UNL     1     137.340 138.119 145.174  1.00  0.00     0.051 A 
ATOM     16  C   UNL     1     136.235 139.502 143.012  1.00  0.00     0.062 A 
ATOM     17  C   UNL     1     136.207 137.619 144.531  1.00  0.00     0.016 A 
BRANCH  13  18
ATOM     18  O   UNL     1     139.077 139.850 145.361  1.00  0.00    -0.493 OA
ATOM     19  C   UNL     1     139.727 139.269 146.488  1.00  0.00     0.278 C 
ENDBRANCH  13  18
BRANCH  14  20
ATOM     20  O   UNL     1     137.997 141.206 143.246  1.00  0.00    -0.493 OA
ATOM     21  C   UNL     1     137.308 142.429 143.004  1.00  0.00     0.278 C 
ENDBRANCH  14  20
ENDBRANCH   1  12
BRANCH   8  22
ATOM     22  O   UNL     1     131.542 140.551 141.606  1.00  0.00    -0.490 OA
ATOM     23  C   UNL     1     132.284 141.443 140.782  1.00  0.00     0.278 C 
ENDBRANCH   8  22
BRANCH  11  24
ATOM     24  O   UNL     1     130.793 135.103 140.465  1.00  0.00    -0.492 OA
ATOM     25  C   UNL     1     131.191 134.678 139.166  1.00  0.00     0.278 C 
ENDBRANCH  11  24
BRANCH   9  26
ATOM     26  O   UNL     1     129.255 139.770 140.516  1.00  0.00    -0.490 OA
ATOM     27  C   UNL     1     128.144 140.188 141.302  1.00  0.00     0.279 C 
ENDBRANCH   9  26
BRANCH  10  28
ATOM     28  O   UNL     1     128.702 136.989 140.030  1.00  0.00    -0.490 OA
ATOM     29  C   UNL     1     128.341 137.054 138.653  1.00  0.00     0.278 C 
ENDBRANCH  10  28
TORSDOF 7
ENDMDL
MODEL 8
REMARK VINA RESULT:    -5.529      5.703      8.361
REMARK INTER + INTRA:          -8.643
REMARK INTER:                  -8.054
REMARK INTRA:                  -0.589
REMARK UNBOUND:                -0.851
REMARK SMILES COc1ccc(-c2cc(=O)c3c(OC)c(OC)c(OC)c(OC)c3o2)cc1OC
REMARK SMILES IDX 7 1 8 2 9 3 10 4 11 5 24 6 25 7 21 8 18 9 15 10 12 11 6 12
REMARK SMILES IDX 3 13 27 14 4 15 26 16 5 17 2 18 1 19 28 20 29 21 22 22 23 23
REMARK SMILES IDX 13 24 14 25 19 26 20 27 16 28 17 29
REMARK H PARENT
REMARK Flexibility Score: inf
ROOT
ATOM      1  C   UNL     1     139.481 136.809 140.891  1.00  0.00     0.138 A 
ATOM      2  C   UNL     1     140.515 135.996 141.367  1.00  0.00     0.100 A 
ATOM      3  C   UNL     1     141.835 136.400 141.194  1.00  0.00     0.197 A 
ATOM      4  O   UNL     1     142.756 135.641 141.599  1.00  0.00    -0.289 OA
ATOM      5  C   UNL     1     142.114 137.630 140.558  1.00  0.00     0.115 A 
ATOM      6  C   UNL     1     141.019 138.393 140.088  1.00  0.00     0.188 A 
ATOM      7  O   UNL     1     139.778 137.949 140.273  1.00  0.00    -0.452 OA
ATOM      8  C   UNL     1     141.246 139.623 139.428  1.00  0.00     0.209 A 
ATOM      9  C   UNL     1     142.556 140.063 139.190  1.00  0.00     0.211 A 
ATOM     10  C   UNL     1     143.660 139.294 139.634  1.00  0.00     0.208 A 
ATOM     11  C   UNL     1     143.431 138.113 140.376  1.00  0.00     0.179 A 
ENDROOT
BRANCH   1  12
ATOM     12  C   UNL     1     138.058 136.421 141.047  1.00  0.00     0.021 A 
ATOM     13  C   UNL     1     135.364 135.642 141.369  1.00  0.00     0.160 A 
ATOM     14  C   UNL     1     135.753 136.354 140.225  1.00  0.00     0.161 A 
ATOM     15  C   UNL     1     136.324 135.319 142.345  1.00  0.00     0.051 A 
ATOM     16  C   UNL     1     137.101 136.736 140.066  1.00  0.00     0.062 A 
ATOM     17  C   UNL     1     137.655 135.704 142.183  1.00  0.00     0.016 A 
BRANCH  13  18
ATOM     18  O   UNL     1     134.015 135.274 141.500  1.00  0.00    -0.493 OA
ATOM     19  C   UNL     1     133.348 135.086 142.743  1.00  0.00     0.278 C 
ENDBRANCH  13  18
BRANCH  14  20
ATOM     20  O   UNL     1     134.774 136.660 139.267  1.00  0.00    -0.493 OA
ATOM     21  C   UNL     1     134.058 137.890 139.205  1.00  0.00     0.278 C 
ENDBRANCH  14  20
ENDBRANCH   1  12
BRANCH   8  22
ATOM     22  O   UNL     1     140.210 140.464 138.972  1.00  0.00    -0.490 OA
ATOM     23  C   UNL     1     139.432 141.360 139.756  1.00  0.00     0.278 C 
ENDBRANCH   8  22
BRANCH  11  24
ATOM     24  O   UNL     1     144.505 137.443 140.965  1.00  0.00    -0.492 OA
ATOM     25  C   UNL     1     145.374 136.625 140.190  1.00  0.00     0.278 C 
ENDBRANCH  11  24
BRANCH   9  26
ATOM     26  O   UNL     1     142.686 141.280 138.491  1.00  0.00    -0.490 OA
ATOM     27  C   UNL     1     143.012 142.553 139.038  1.00  0.00     0.279 C 
ENDBRANCH   9  26
BRANCH  10  28
ATOM     28  O   UNL     1     144.961 139.733 139.332  1.00  0.00    -0.490 OA
ATOM     29  C   UNL     1     145.638 139.541 138.092  1.00  0.00     0.278 C 
ENDBRANCH  10  28
TORSDOF 7
ENDMDL
MODEL 9
REMARK VINA RESULT:    -5.518      4.118      5.739
REMARK INTER + INTRA:          -8.628
REMARK INTER:                  -7.945
REMARK INTRA:                  -0.683
REMARK UNBOUND:                -0.851
REMARK SMILES COc1ccc(-c2cc(=O)c3c(OC)c(OC)c(OC)c(OC)c3o2)cc1OC
REMARK SMILES IDX 7 1 8 2 9 3 10 4 11 5 24 6 25 7 21 8 18 9 15 10 12 11 6 12
REMARK SMILES IDX 3 13 27 14 4 15 26 16 5 17 2 18 1 19 28 20 29 21 22 22 23 23
REMARK SMILES IDX 13 24 14 25 19 26 20 27 16 28 17 29
REMARK H PARENT
REMARK Flexibility Score: inf
ROOT
ATOM      1  C   UNL     1     136.445 137.626 142.233  1.00  0.00     0.138 A 
ATOM      2  C   UNL     1     136.387 139.023 142.279  1.00  0.00     0.100 A 
ATOM      3  C   UNL     1     137.561 139.759 142.152  1.00  0.00     0.197 A 
ATOM      4  O   UNL     1     137.498 141.015 142.228  1.00  0.00    -0.289 OA
ATOM      5  C   UNL     1     138.791 139.090 141.961  1.00  0.00     0.115 A 
ATOM      6  C   UNL     1     138.776 137.675 141.941  1.00  0.00     0.188 A 
ATOM      7  O   UNL     1     137.622 137.025 142.079  1.00  0.00    -0.452 OA
ATOM      8  C   UNL     1     139.983 136.958 141.771  1.00  0.00     0.209 A 
ATOM      9  C   UNL     1     141.203 137.644 141.677  1.00  0.00     0.211 A 
ATOM     10  C   UNL     1     141.231 139.060 141.722  1.00  0.00     0.208 A 
ATOM     11  C   UNL     1     140.016 139.777 141.796  1.00  0.00     0.179 A 
ENDROOT
BRANCH   1  12
ATOM     12  C   UNL     1     135.224 136.797 142.368  1.00  0.00     0.021 A 
ATOM     13  C   UNL     1     132.912 135.191 142.584  1.00  0.00     0.160 A 
ATOM     14  C   UNL     1     132.866 136.537 142.975  1.00  0.00     0.161 A 
ATOM     15  C   UNL     1     134.112 134.655 142.083  1.00  0.00     0.051 A 
ATOM     16  C   UNL     1     134.022 137.337 142.860  1.00  0.00     0.062 A 
ATOM     17  C   UNL     1     135.252 135.451 141.976  1.00  0.00     0.016 A 
BRANCH  13  18
ATOM     18  O   UNL     1     131.745 134.420 142.709  1.00  0.00    -0.493 OA
ATOM     19  C   UNL     1     131.460 133.562 143.809  1.00  0.00     0.278 C 
ENDBRANCH  13  18
BRANCH  14  20
ATOM     20  O   UNL     1     131.654 137.045 143.468  1.00  0.00    -0.493 OA
ATOM     21  C   UNL     1     131.379 137.287 144.845  1.00  0.00     0.278 C 
ENDBRANCH  14  20
ENDBRANCH   1  12
BRANCH   8  22
ATOM     22  O   UNL     1     140.048 135.551 141.693  1.00  0.00    -0.490 OA
ATOM     23  C   UNL     1     139.827 134.628 142.752  1.00  0.00     0.278 C 
ENDBRANCH   8  22
BRANCH  11  24
ATOM     24  O   UNL     1     140.021 141.168 141.666  1.00  0.00    -0.492 OA
ATOM     25  C   UNL     1     140.089 141.784 140.384  1.00  0.00     0.278 C 
ENDBRANCH  11  24
BRANCH   9  26
ATOM     26  O   UNL     1     142.357 136.846 141.549  1.00  0.00    -0.490 OA
ATOM     27  C   UNL     1     142.996 136.448 140.342  1.00  0.00     0.279 C 
ENDBRANCH   9  26
BRANCH  10  28
ATOM     28  O   UNL     1     142.474 139.717 141.681  1.00  0.00    -0.490 OA
ATOM     29  C   UNL     1     143.194 140.064 140.502  1.00  0.00     0.278 C 
ENDBRANCH  10  28
TORSDOF 7
ENDMDL
