MODEL 1
REMARK VINA RESULT:    -3.501      0.000      0.000
REMARK INTER + INTRA:          -4.135
REMARK INTER:                  -4.115
REMARK INTRA:                  -0.019
REMARK UNBOUND:                -0.019
REMARK SMILES CCCCC(=O)[O-]
REMARK SMILES IDX 4 1 5 2 6 3 7 4 3 5 2 6 1 7
REMARK H PARENT
REMARK Flexibility Score: inf
ROOT
ATOM      1  C   UNL     1      75.380  62.806  98.236  1.00  0.00     0.053 C 
ENDROOT
BRANCH   1   2
ATOM      2  C   UNL     1      74.623  64.078  98.020  1.00  0.00     0.041 C 
ATOM      3  O   UNL     1      74.633  64.638  96.892  1.00  0.00    -0.550 OA
ATOM      4  O   UNL     1      73.867  64.621  99.050  1.00  0.00    -0.550 OA
ENDBRANCH   1   2
BRANCH   1   5
ATOM      5  C   UNL     1      75.380  61.960  96.956  1.00  0.00     0.006 C 
BRANCH   5   6
ATOM      6  C   UNL     1      75.650  60.473  97.234  1.00  0.00    -0.003 C 
ATOM      7  C   UNL     1      76.875  59.945  96.488  1.00  0.00     0.004 C 
ENDBRANCH   5   6
ENDBRANCH   1   5
TORSDOF 3
ENDMDL
MODEL 2
REMARK VINA RESULT:    -3.108      2.733      4.142
REMARK INTER + INTRA:          -3.673
REMARK INTER:                  -3.641
REMARK INTRA:                  -0.032
REMARK UNBOUND:                -0.019
REMARK SMILES CCCCC(=O)[O-]
REMARK SMILES IDX 4 1 5 2 6 3 7 4 3 5 2 6 1 7
REMARK H PARENT
REMARK Flexibility Score: inf
ROOT
ATOM      1  C   UNL     1      75.687  62.153  97.640  1.00  0.00     0.053 C 
ENDROOT
BRANCH   1   2
ATOM      2  C   UNL     1      75.696  60.753  97.114  1.00  0.00     0.041 C 
ATOM      3  O   UNL     1      74.959  59.875  97.635  1.00  0.00    -0.550 OA
ATOM      4  O   UNL     1      76.483  60.428  96.017  1.00  0.00    -0.550 OA
ENDBRANCH   1   2
BRANCH   1   5
ATOM      5  C   UNL     1      75.044  63.103  96.621  1.00  0.00     0.006 C 
BRANCH   5   6
ATOM      6  C   UNL     1      74.644  64.450  97.242  1.00  0.00    -0.003 C 
ATOM      7  C   UNL     1      74.325  64.341  98.733  1.00  0.00     0.004 C 
ENDBRANCH   5   6
ENDBRANCH   1   5
TORSDOF 3
ENDMDL
MODEL 3
REMARK VINA RESULT:    -2.830     17.296     17.856
REMARK INTER + INTRA:          -3.346
REMARK INTER:                  -3.321
REMARK INTRA:                  -0.024
REMARK UNBOUND:                -0.019
REMARK SMILES CCCCC(=O)[O-]
REMARK SMILES IDX 4 1 5 2 6 3 7 4 3 5 2 6 1 7
REMARK H PARENT
REMARK Flexibility Score: inf
ROOT
ATOM      1  C   UNL     1      86.582  65.796 110.139  1.00  0.00     0.053 C 
ENDROOT
BRANCH   1   2
ATOM      2  C   UNL     1      86.068  67.017 110.834  1.00  0.00     0.041 C 
ATOM      3  O   UNL     1      86.850  67.962 111.118  1.00  0.00    -0.550 OA
ATOM      4  O   UNL     1      84.714  67.132 111.125  1.00  0.00    -0.550 OA
ENDBRANCH   1   2
BRANCH   1   5
ATOM      5  C   UNL     1      87.938  65.379 110.725  1.00  0.00     0.006 C 
BRANCH   5   6
ATOM      6  C   UNL     1      88.002  63.879 111.049  1.00  0.00    -0.003 C 
ATOM      7  C   UNL     1      87.745  62.999 109.826  1.00  0.00     0.004 C 
ENDBRANCH   5   6
ENDBRANCH   1   5
TORSDOF 3
ENDMDL
MODEL 4
REMARK VINA RESULT:    -2.737     17.438     18.232
REMARK INTER + INTRA:          -3.236
REMARK INTER:                  -3.196
REMARK INTRA:                  -0.040
REMARK UNBOUND:                -0.019
REMARK SMILES CCCCC(=O)[O-]
REMARK SMILES IDX 4 1 5 2 6 3 7 4 3 5 2 6 1 7
REMARK H PARENT
REMARK Flexibility Score: inf
ROOT
ATOM      1  C   UNL     1      86.988  64.972 109.927  1.00  0.00     0.053 C 
ENDROOT
BRANCH   1   2
ATOM      2  C   UNL     1      87.560  63.592 110.005  1.00  0.00     0.041 C 
ATOM      3  O   UNL     1      87.771  63.056 111.124  1.00  0.00    -0.550 OA
ATOM      4  O   UNL     1      87.816  62.879 108.841  1.00  0.00    -0.550 OA
ENDBRANCH   1   2
BRANCH   1   5
ATOM      5  C   UNL     1      87.836  65.950 110.751  1.00  0.00     0.006 C 
BRANCH   5   6
ATOM      6  C   UNL     1      87.072  67.234 111.110  1.00  0.00    -0.003 C 
ATOM      7  C   UNL     1      85.556  67.051 111.065  1.00  0.00     0.004 C 
ENDBRANCH   5   6
ENDBRANCH   1   5
TORSDOF 3
ENDMDL
MODEL 5
REMARK VINA RESULT:    -2.365     13.715     15.416
REMARK INTER + INTRA:          -2.799
REMARK INTER:                  -2.779
REMARK INTRA:                  -0.020
REMARK UNBOUND:                -0.019
REMARK SMILES CCCCC(=O)[O-]
REMARK SMILES IDX 4 1 5 2 6 3 7 4 3 5 2 6 1 7
REMARK H PARENT
REMARK Flexibility Score: inf
ROOT
ATOM      1  C   UNL     1      69.063  74.524  91.912  1.00  0.00     0.053 C 
ENDROOT
BRANCH   1   2
ATOM      2  C   UNL     1      69.243  73.202  91.235  1.00  0.00     0.041 C 
ATOM      3  O   UNL     1      70.392  72.813  90.899  1.00  0.00    -0.550 OA
ATOM      4  O   UNL     1      68.146  72.377  91.019  1.00  0.00    -0.550 OA
ENDBRANCH   1   2
BRANCH   1   5
ATOM      5  C   UNL     1      68.207  75.456  91.045  1.00  0.00     0.006 C 
BRANCH   5   6
ATOM      6  C   UNL     1      68.209  76.904  91.559  1.00  0.00    -0.003 C 
ATOM      7  C   UNL     1      67.875  77.005  93.046  1.00  0.00     0.004 C 
ENDBRANCH   5   6
ENDBRANCH   1   5
TORSDOF 3
ENDMDL
MODEL 6
REMARK VINA RESULT:    -2.339     13.895     15.214
REMARK INTER + INTRA:          -2.769
REMARK INTER:                  -2.739
REMARK INTRA:                  -0.030
REMARK UNBOUND:                -0.019
REMARK SMILES CCCCC(=O)[O-]
REMARK SMILES IDX 4 1 5 2 6 3 7 4 3 5 2 6 1 7
REMARK H PARENT
REMARK Flexibility Score: inf
ROOT
ATOM      1  C   UNL     1      69.009  75.025  92.319  1.00  0.00     0.053 C 
ENDROOT
BRANCH   1   2
ATOM      2  C   UNL     1      68.285  76.332  92.370  1.00  0.00     0.041 C 
ATOM      3  O   UNL     1      67.876  76.788  93.470  1.00  0.00    -0.550 OA
ATOM      4  O   UNL     1      68.103  77.072  91.208  1.00  0.00    -0.550 OA
ENDBRANCH   1   2
BRANCH   1   5
ATOM      5  C   UNL     1      68.931  74.425  90.909  1.00  0.00     0.006 C 
BRANCH   5   6
ATOM      6  C   UNL     1      68.265  73.041  90.894  1.00  0.00    -0.003 C 
ATOM      7  C   UNL     1      69.279  71.897  90.875  1.00  0.00     0.004 C 
ENDBRANCH   5   6
ENDBRANCH   1   5
TORSDOF 3
ENDMDL
MODEL 7
REMARK VINA RESULT:    -1.758     16.436     17.818
REMARK INTER + INTRA:          -2.085
REMARK INTER:                  -2.048
REMARK INTRA:                  -0.037
REMARK UNBOUND:                -0.019
REMARK SMILES CCCCC(=O)[O-]
REMARK SMILES IDX 4 1 5 2 6 3 7 4 3 5 2 6 1 7
REMARK H PARENT
REMARK Flexibility Score: inf
ROOT
ATOM      1  C   UNL     1      68.999  78.314  99.154  1.00  0.00     0.053 C 
ENDROOT
BRANCH   1   2
ATOM      2  C   UNL     1      68.316  77.721  97.963  1.00  0.00     0.041 C 
ATOM      3  O   UNL     1      67.878  78.465  97.047  1.00  0.00    -0.550 OA
ATOM      4  O   UNL     1      68.204  76.341  97.842  1.00  0.00    -0.550 OA
ENDBRANCH   1   2
BRANCH   1   5
ATOM      5  C   UNL     1      68.626  79.795  99.302  1.00  0.00     0.006 C 
BRANCH   5   6
ATOM      6  C   UNL     1      68.070  80.125 100.696  1.00  0.00    -0.003 C 
ATOM      7  C   UNL     1      69.027  79.735 101.822  1.00  0.00     0.004 C 
ENDBRANCH   5   6
ENDBRANCH   1   5
TORSDOF 3
ENDMDL
MODEL 8
REMARK VINA RESULT:    -1.114     16.872     17.907
REMARK INTER + INTRA:          -1.329
REMARK INTER:                  -1.253
REMARK INTRA:                  -0.076
REMARK UNBOUND:                -0.019
REMARK SMILES CCCCC(=O)[O-]
REMARK SMILES IDX 4 1 5 2 6 3 7 4 3 5 2 6 1 7
REMARK H PARENT
REMARK Flexibility Score: inf
ROOT
ATOM      1  C   UNL     1      69.258  78.717 100.030  1.00  0.00     0.053 C 
ENDROOT
BRANCH   1   2
ATOM      2  C   UNL     1      68.717  79.105 101.370  1.00  0.00     0.041 C 
ATOM      3  O   UNL     1      67.989  80.125 101.489  1.00  0.00    -0.550 OA
ATOM      4  O   UNL     1      68.977  78.311 102.480  1.00  0.00    -0.550 OA
ENDBRANCH   1   2
BRANCH   1   5
ATOM      5  C   UNL     1      68.730  79.667  98.946  1.00  0.00     0.006 C 
BRANCH   5   6
ATOM      6  C   UNL     1      67.879  78.942  97.892  1.00  0.00    -0.003 C 
ATOM      7  C   UNL     1      67.972  77.420  98.002  1.00  0.00     0.004 C 
ENDBRANCH   5   6
ENDBRANCH   1   5
TORSDOF 3
ENDMDL
