MODEL 1
REMARK VINA RESULT:    -3.414      0.000      0.000
REMARK INTER + INTRA:          -7.032
REMARK INTER:                  -5.808
REMARK INTRA:                  -1.223
REMARK UNBOUND:                -1.223
REMARK SMILES CCCCCCCCCCCCCC(=O)[O-]
REMARK SMILES IDX 8 1 9 2 10 3 11 4 12 5 13 6 14 7 15 8 16 9 7 10 6 11 5 12
REMARK SMILES IDX 4 13 3 14 2 15 1 16
REMARK H PARENT
REMARK Flexibility Score: inf
ROOT
ATOM      1  C   UNL     1      68.809  -2.047  10.946  1.00  0.00     0.000 C 
ENDROOT
BRANCH   1   2
ATOM      2  C   UNL     1      70.009  -1.228  11.449  1.00  0.00     0.000 C 
BRANCH   2   3
ATOM      3  C   UNL     1      69.585   0.079  12.138  1.00  0.00     0.000 C 
BRANCH   3   4
ATOM      4  C   UNL     1      69.401   1.240  11.149  1.00  0.00     0.000 C 
BRANCH   4   5
ATOM      5  C   UNL     1      67.921   1.622  11.022  1.00  0.00     0.006 C 
BRANCH   5   6
ATOM      6  C   UNL     1      67.586   2.058   9.593  1.00  0.00     0.053 C 
BRANCH   6   7
ATOM      7  C   UNL     1      66.806   0.993   8.889  1.00  0.00     0.041 C 
ATOM      8  O   UNL     1      66.366   0.003   9.529  1.00  0.00    -0.550 OA
ATOM      9  O   UNL     1      66.525   1.119   7.534  1.00  0.00    -0.550 OA
ENDBRANCH   6   7
ENDBRANCH   5   6
ENDBRANCH   4   5
ENDBRANCH   3   4
ENDBRANCH   2   3
ENDBRANCH   1   2
BRANCH   1  10
ATOM     10  C   UNL     1      68.991  -2.534   9.499  1.00  0.00     0.000 C 
BRANCH  10  11
ATOM     11  C   UNL     1      69.491  -1.428   8.557  1.00  0.00    -0.000 C 
BRANCH  11  12
ATOM     12  C   UNL     1      69.804  -1.995   7.165  1.00  0.00    -0.000 C 
BRANCH  12  13
ATOM     13  C   UNL     1      69.936  -3.527   7.162  1.00  0.00    -0.000 C 
BRANCH  13  14
ATOM     14  C   UNL     1      69.906  -4.120   5.743  1.00  0.00    -0.000 C 
BRANCH  14  15
ATOM     15  C   UNL     1      69.317  -5.540   5.712  1.00  0.00    -0.003 C 
ATOM     16  C   UNL     1      68.916  -6.047   7.097  1.00  0.00     0.004 C 
ENDBRANCH  14  15
ENDBRANCH  13  14
ENDBRANCH  12  13
ENDBRANCH  11  12
ENDBRANCH  10  11
ENDBRANCH   1  10
TORSDOF 12
ENDMDL
MODEL 2
REMARK VINA RESULT:    -3.360      3.207      6.363
REMARK INTER + INTRA:          -6.941
REMARK INTER:                  -5.853
REMARK INTRA:                  -1.088
REMARK UNBOUND:                -1.223
REMARK SMILES CCCCCCCCCCCCCC(=O)[O-]
REMARK SMILES IDX 8 1 9 2 10 3 11 4 12 5 13 6 14 7 15 8 16 9 7 10 6 11 5 12
REMARK SMILES IDX 4 13 3 14 2 15 1 16
REMARK H PARENT
REMARK Flexibility Score: inf
ROOT
ATOM      1  C   UNL     1      69.688  -2.208  10.927  1.00  0.00     0.000 C 
ENDROOT
BRANCH   1   2
ATOM      2  C   UNL     1      69.335  -2.103   9.434  1.00  0.00     0.000 C 
BRANCH   2   3
ATOM      3  C   UNL     1      70.034  -3.177   8.584  1.00  0.00     0.000 C 
BRANCH   3   4
ATOM      4  C   UNL     1      69.880  -2.934   7.075  1.00  0.00     0.000 C 
BRANCH   4   5
ATOM      5  C   UNL     1      69.813  -4.261   6.310  1.00  0.00     0.006 C 
BRANCH   5   6
ATOM      6  C   UNL     1      69.119  -5.342   7.143  1.00  0.00     0.053 C 
BRANCH   6   7
ATOM      7  C   UNL     1      69.524  -6.704   6.677  1.00  0.00     0.041 C 
ATOM      8  O   UNL     1      69.779  -7.610   7.513  1.00  0.00    -0.550 OA
ATOM      9  O   UNL     1      69.574  -6.988   5.318  1.00  0.00    -0.550 OA
ENDBRANCH   6   7
ENDBRANCH   5   6
ENDBRANCH   4   5
ENDBRANCH   3   4
ENDBRANCH   2   3
ENDBRANCH   1   2
BRANCH   1  10
ATOM     10  C   UNL     1      68.904  -1.207  11.791  1.00  0.00     0.000 C 
BRANCH  10  11
ATOM     11  C   UNL     1      69.407   0.237  11.635  1.00  0.00    -0.000 C 
BRANCH  11  12
ATOM     12  C   UNL     1      68.230   1.215  11.501  1.00  0.00    -0.000 C 
BRANCH  12  13
ATOM     13  C   UNL     1      68.086   1.782  10.079  1.00  0.00    -0.000 C 
BRANCH  13  14
ATOM     14  C   UNL     1      66.780   1.341   9.396  1.00  0.00    -0.000 C 
BRANCH  14  15
ATOM     15  C   UNL     1      67.017   0.296   8.295  1.00  0.00    -0.003 C 
ATOM     16  C   UNL     1      68.192   0.649   7.384  1.00  0.00     0.004 C 
ENDBRANCH  14  15
ENDBRANCH  13  14
ENDBRANCH  12  13
ENDBRANCH  11  12
ENDBRANCH  10  11
ENDBRANCH   1  10
TORSDOF 12
ENDMDL
MODEL 3
REMARK VINA RESULT:    -3.277     14.657     15.812
REMARK INTER + INTRA:          -6.799
REMARK INTER:                  -5.650
REMARK INTRA:                  -1.148
REMARK UNBOUND:                -1.223
REMARK SMILES CCCCCCCCCCCCCC(=O)[O-]
REMARK SMILES IDX 8 1 9 2 10 3 11 4 12 5 13 6 14 7 15 8 16 9 7 10 6 11 5 12
REMARK SMILES IDX 4 13 3 14 2 15 1 16
REMARK H PARENT
REMARK Flexibility Score: inf
ROOT
ATOM      1  C   UNL     1      65.626 -14.965  11.295  1.00  0.00     0.000 C 
ENDROOT
BRANCH   1   2
ATOM      2  C   UNL     1      65.127 -16.394  11.571  1.00  0.00     0.000 C 
BRANCH   2   3
ATOM      3  C   UNL     1      64.808 -16.632  13.056  1.00  0.00     0.000 C 
BRANCH   3   4
ATOM      4  C   UNL     1      66.055 -16.984  13.882  1.00  0.00     0.000 C 
BRANCH   4   5
ATOM      5  C   UNL     1      66.416 -15.844  14.842  1.00  0.00     0.006 C 
BRANCH   5   6
ATOM      6  C   UNL     1      67.909 -15.511  14.765  1.00  0.00     0.053 C 
BRANCH   6   7
ATOM      7  C   UNL     1      68.656 -16.190  15.868  1.00  0.00     0.041 C 
ATOM      8  O   UNL     1      68.033 -16.690  16.841  1.00  0.00    -0.550 OA
ATOM      9  O   UNL     1      70.038 -16.314  15.798  1.00  0.00    -0.550 OA
ENDBRANCH   6   7
ENDBRANCH   5   6
ENDBRANCH   4   5
ENDBRANCH   3   4
ENDBRANCH   2   3
ENDBRANCH   1   2
BRANCH   1  10
ATOM     10  C   UNL     1      66.985 -14.942  10.578  1.00  0.00     0.000 C 
BRANCH  10  11
ATOM     11  C   UNL     1      67.560 -16.348  10.347  1.00  0.00    -0.000 C 
BRANCH  11  12
ATOM     12  C   UNL     1      69.070 -16.375  10.626  1.00  0.00    -0.000 C 
BRANCH  12  13
ATOM     13  C   UNL     1      69.878 -16.992   9.473  1.00  0.00    -0.000 C 
BRANCH  13  14
ATOM     14  C   UNL     1      69.058 -17.118   8.177  1.00  0.00    -0.000 C 
BRANCH  14  15
ATOM     15  C   UNL     1      69.394 -16.016   7.160  1.00  0.00    -0.003 C 
ATOM     16  C   UNL     1      69.016 -16.396   5.728  1.00  0.00     0.004 C 
ENDBRANCH  14  15
ENDBRANCH  13  14
ENDBRANCH  12  13
ENDBRANCH  11  12
ENDBRANCH  10  11
ENDBRANCH   1  10
TORSDOF 12
ENDMDL
MODEL 4
REMARK VINA RESULT:    -3.275     17.268     19.500
REMARK INTER + INTRA:          -6.796
REMARK INTER:                  -5.490
REMARK INTRA:                  -1.306
REMARK UNBOUND:                -1.223
REMARK SMILES CCCCCCCCCCCCCC(=O)[O-]
REMARK SMILES IDX 8 1 9 2 10 3 11 4 12 5 13 6 14 7 15 8 16 9 7 10 6 11 5 12
REMARK SMILES IDX 4 13 3 14 2 15 1 16
REMARK H PARENT
REMARK Flexibility Score: inf
ROOT
ATOM      1  C   UNL     1      57.211 -14.342   9.014  1.00  0.00     0.000 C 
ENDROOT
BRANCH   1   2
ATOM      2  C   UNL     1      57.213 -15.799   9.507  1.00  0.00     0.000 C 
BRANCH   2   3
ATOM      3  C   UNL     1      55.796 -16.364   9.691  1.00  0.00     0.000 C 
BRANCH   3   4
ATOM      4  C   UNL     1      55.532 -16.854  11.123  1.00  0.00     0.000 C 
BRANCH   4   5
ATOM      5  C   UNL     1      56.757 -16.621  12.016  1.00  0.00     0.006 C 
BRANCH   5   6
ATOM      6  C   UNL     1      56.370 -16.646  13.498  1.00  0.00     0.053 C 
BRANCH   6   7
ATOM      7  C   UNL     1      57.590 -16.581  14.360  1.00  0.00     0.041 C 
ATOM      8  O   UNL     1      57.521 -16.880  15.580  1.00  0.00    -0.550 OA
ATOM      9  O   UNL     1      58.816 -16.237  13.804  1.00  0.00    -0.550 OA
ENDBRANCH   6   7
ENDBRANCH   5   6
ENDBRANCH   4   5
ENDBRANCH   3   4
ENDBRANCH   2   3
ENDBRANCH   1   2
BRANCH   1  10
ATOM     10  C   UNL     1      58.152 -14.121   7.819  1.00  0.00     0.000 C 
BRANCH  10  11
ATOM     11  C   UNL     1      58.400 -15.404   7.011  1.00  0.00    -0.000 C 
BRANCH  11  12
ATOM     12  C   UNL     1      57.790 -15.292   5.605  1.00  0.00    -0.000 C 
BRANCH  12  13
ATOM     13  C   UNL     1      57.112 -16.593   5.145  1.00  0.00    -0.000 C 
BRANCH  13  14
ATOM     14  C   UNL     1      55.887 -16.956   6.002  1.00  0.00    -0.000 C 
BRANCH  14  15
ATOM     15  C   UNL     1      54.812 -15.857   5.986  1.00  0.00    -0.003 C 
ATOM     16  C   UNL     1      53.570 -16.230   6.795  1.00  0.00     0.004 C 
ENDBRANCH  14  15
ENDBRANCH  13  14
ENDBRANCH  12  13
ENDBRANCH  11  12
ENDBRANCH  10  11
ENDBRANCH   1  10
TORSDOF 12
ENDMDL
MODEL 5
REMARK VINA RESULT:    -3.196     17.497     19.591
REMARK INTER + INTRA:          -6.661
REMARK INTER:                  -5.192
REMARK INTRA:                  -1.468
REMARK UNBOUND:                -1.223
REMARK SMILES CCCCCCCCCCCCCC(=O)[O-]
REMARK SMILES IDX 8 1 9 2 10 3 11 4 12 5 13 6 14 7 15 8 16 9 7 10 6 11 5 12
REMARK SMILES IDX 4 13 3 14 2 15 1 16
REMARK H PARENT
REMARK Flexibility Score: inf
ROOT
ATOM      1  C   UNL     1      56.984   2.056  24.016  1.00  0.00     0.000 C 
ENDROOT
BRANCH   1   2
ATOM      2  C   UNL     1      56.059   2.489  22.866  1.00  0.00     0.000 C 
BRANCH   2   3
ATOM      3  C   UNL     1      54.593   2.626  23.306  1.00  0.00     0.000 C 
BRANCH   3   4
ATOM      4  C   UNL     1      53.605   2.090  22.258  1.00  0.00     0.000 C 
BRANCH   4   5
ATOM      5  C   UNL     1      53.904   0.624  21.923  1.00  0.00     0.006 C 
BRANCH   5   6
ATOM      6  C   UNL     1      53.204   0.202  20.628  1.00  0.00     0.053 C 
BRANCH   6   7
ATOM      7  C   UNL     1      51.868  -0.400  20.925  1.00  0.00     0.041 C 
ATOM      8  O   UNL     1      50.863  -0.087  20.235  1.00  0.00    -0.550 OA
ATOM      9  O   UNL     1      51.742  -1.346  21.935  1.00  0.00    -0.550 OA
ENDBRANCH   6   7
ENDBRANCH   5   6
ENDBRANCH   4   5
ENDBRANCH   3   4
ENDBRANCH   2   3
ENDBRANCH   1   2
BRANCH   1  10
ATOM     10  C   UNL     1      56.243   1.265  25.105  1.00  0.00     0.000 C 
BRANCH  10  11
ATOM     11  C   UNL     1      56.625  -0.223  25.125  1.00  0.00    -0.000 C 
BRANCH  11  12
ATOM     12  C   UNL     1      58.129  -0.405  24.871  1.00  0.00    -0.000 C 
BRANCH  12  13
ATOM     13  C   UNL     1      58.475  -1.797  24.314  1.00  0.00    -0.000 C 
BRANCH  13  14
ATOM     14  C   UNL     1      58.845  -1.760  22.821  1.00  0.00    -0.000 C 
BRANCH  14  15
ATOM     15  C   UNL     1      57.610  -1.651  21.913  1.00  0.00    -0.003 C 
ATOM     16  C   UNL     1      57.501  -0.293  21.220  1.00  0.00     0.004 C 
ENDBRANCH  14  15
ENDBRANCH  13  14
ENDBRANCH  12  13
ENDBRANCH  11  12
ENDBRANCH  10  11
ENDBRANCH   1  10
TORSDOF 12
ENDMDL
MODEL 6
REMARK VINA RESULT:    -3.170      2.627      5.913
REMARK INTER + INTRA:          -6.618
REMARK INTER:                  -5.063
REMARK INTRA:                  -1.555
REMARK UNBOUND:                -1.223
REMARK SMILES CCCCCCCCCCCCCC(=O)[O-]
REMARK SMILES IDX 8 1 9 2 10 3 11 4 12 5 13 6 14 7 15 8 16 9 7 10 6 11 5 12
REMARK SMILES IDX 4 13 3 14 2 15 1 16
REMARK H PARENT
REMARK Flexibility Score: inf
ROOT
ATOM      1  C   UNL     1      66.718   0.565   9.488  1.00  0.00     0.000 C 
ENDROOT
BRANCH   1   2
ATOM      2  C   UNL     1      67.522  -0.588   8.866  1.00  0.00     0.000 C 
BRANCH   2   3
ATOM      3  C   UNL     1      68.512  -0.107   7.793  1.00  0.00     0.000 C 
BRANCH   3   4
ATOM      4  C   UNL     1      69.844  -0.874   7.826  1.00  0.00     0.000 C 
BRANCH   4   5
ATOM      5  C   UNL     1      69.802  -2.087   6.889  1.00  0.00     0.006 C 
BRANCH   5   6
ATOM      6  C   UNL     1      69.764  -3.395   7.684  1.00  0.00     0.053 C 
BRANCH   6   7
ATOM      7  C   UNL     1      69.610  -4.564   6.763  1.00  0.00     0.041 C 
ATOM      8  O   UNL     1      69.755  -4.416   5.522  1.00  0.00    -0.550 OA
ATOM      9  O   UNL     1      69.353  -5.827   7.281  1.00  0.00    -0.550 OA
ENDBRANCH   6   7
ENDBRANCH   5   6
ENDBRANCH   4   5
ENDBRANCH   3   4
ENDBRANCH   2   3
ENDBRANCH   1   2
BRANCH   1  10
ATOM     10  C   UNL     1      67.213   1.946   9.030  1.00  0.00     0.000 C 
BRANCH  10  11
ATOM     11  C   UNL     1      67.795   2.781  10.181  1.00  0.00    -0.000 C 
BRANCH  11  12
ATOM     12  C   UNL     1      69.153   2.223  10.631  1.00  0.00    -0.000 C 
BRANCH  12  13
ATOM     13  C   UNL     1      69.079   1.488  11.979  1.00  0.00    -0.000 C 
BRANCH  13  14
ATOM     14  C   UNL     1      70.015   0.268  12.040  1.00  0.00    -0.000 C 
BRANCH  14  15
ATOM     15  C   UNL     1      69.248  -1.063  12.007  1.00  0.00    -0.003 C 
ATOM     16  C   UNL     1      69.978  -2.149  11.217  1.00  0.00     0.004 C 
ENDBRANCH  14  15
ENDBRANCH  13  14
ENDBRANCH  12  13
ENDBRANCH  11  12
ENDBRANCH  10  11
ENDBRANCH   1  10
TORSDOF 12
ENDMDL
MODEL 7
REMARK VINA RESULT:    -3.157     18.210     20.322
REMARK INTER + INTRA:          -6.595
REMARK INTER:                  -5.280
REMARK INTRA:                  -1.314
REMARK UNBOUND:                -1.223
REMARK SMILES CCCCCCCCCCCCCC(=O)[O-]
REMARK SMILES IDX 8 1 9 2 10 3 11 4 12 5 13 6 14 7 15 8 16 9 7 10 6 11 5 12
REMARK SMILES IDX 4 13 3 14 2 15 1 16
REMARK H PARENT
REMARK Flexibility Score: inf
ROOT
ATOM      1  C   UNL     1      53.284   2.214  23.282  1.00  0.00     0.000 C 
ENDROOT
BRANCH   1   2
ATOM      2  C   UNL     1      54.547   1.443  23.703  1.00  0.00     0.000 C 
BRANCH   2   3
ATOM      3  C   UNL     1      55.774   1.808  22.853  1.00  0.00     0.000 C 
BRANCH   3   4
ATOM      4  C   UNL     1      56.372   0.596  22.121  1.00  0.00     0.000 C 
BRANCH   4   5
ATOM      5  C   UNL     1      56.251  -0.673  22.972  1.00  0.00     0.006 C 
BRANCH   5   6
ATOM      6  C   UNL     1      57.316  -0.701  24.072  1.00  0.00     0.053 C 
BRANCH   6   7
ATOM      7  C   UNL     1      58.346  -1.745  23.780  1.00  0.00     0.041 C 
ATOM      8  O   UNL     1      59.004  -2.266  24.717  1.00  0.00    -0.550 OA
ATOM      9  O   UNL     1      58.545  -2.178  22.475  1.00  0.00    -0.550 OA
ENDBRANCH   6   7
ENDBRANCH   5   6
ENDBRANCH   4   5
ENDBRANCH   3   4
ENDBRANCH   2   3
ENDBRANCH   1   2
BRANCH   1  10
ATOM     10  C   UNL     1      53.348   2.702  21.827  1.00  0.00     0.000 C 
BRANCH  10  11
ATOM     11  C   UNL     1      52.379   1.949  20.902  1.00  0.00    -0.000 C 
BRANCH  11  12
ATOM     12  C   UNL     1      52.875   0.519  20.638  1.00  0.00    -0.000 C 
BRANCH  12  13
ATOM     13  C   UNL     1      51.815  -0.362  19.955  1.00  0.00    -0.000 C 
BRANCH  13  14
ATOM     14  C   UNL     1      50.758  -0.887  20.942  1.00  0.00    -0.000 C 
BRANCH  14  15
ATOM     15  C   UNL     1      51.375  -1.364  22.266  1.00  0.00    -0.003 C 
ATOM     16  C   UNL     1      50.776  -0.665  23.486  1.00  0.00     0.004 C 
ENDBRANCH  14  15
ENDBRANCH  13  14
ENDBRANCH  12  13
ENDBRANCH  11  12
ENDBRANCH  10  11
ENDBRANCH   1  10
TORSDOF 12
ENDMDL
MODEL 8
REMARK VINA RESULT:    -3.145     18.042     20.238
REMARK INTER + INTRA:          -6.575
REMARK INTER:                  -5.082
REMARK INTRA:                  -1.493
REMARK UNBOUND:                -1.223
REMARK SMILES CCCCCCCCCCCCCC(=O)[O-]
REMARK SMILES IDX 8 1 9 2 10 3 11 4 12 5 13 6 14 7 15 8 16 9 7 10 6 11 5 12
REMARK SMILES IDX 4 13 3 14 2 15 1 16
REMARK H PARENT
REMARK Flexibility Score: inf
ROOT
ATOM      1  C   UNL     1      52.985   2.796  23.206  1.00  0.00     0.000 C 
ENDROOT
BRANCH   1   2
ATOM      2  C   UNL     1      53.537   3.078  21.798  1.00  0.00     0.000 C 
BRANCH   2   3
ATOM      3  C   UNL     1      52.498   2.824  20.694  1.00  0.00     0.000 C 
BRANCH   3   4
ATOM      4  C   UNL     1      51.696   1.532  20.918  1.00  0.00     0.000 C 
BRANCH   4   5
ATOM      5  C   UNL     1      52.504   0.303  20.485  1.00  0.00     0.006 C 
BRANCH   5   6
ATOM      6  C   UNL     1      52.493  -0.775  21.573  1.00  0.00     0.053 C 
BRANCH   6   7
ATOM      7  C   UNL     1      51.145  -1.414  21.664  1.00  0.00     0.041 C 
ATOM      8  O   UNL     1      50.639  -1.671  22.788  1.00  0.00    -0.550 OA
ATOM      9  O   UNL     1      50.424  -1.684  20.507  1.00  0.00    -0.550 OA
ENDBRANCH   6   7
ENDBRANCH   5   6
ENDBRANCH   4   5
ENDBRANCH   3   4
ENDBRANCH   2   3
ENDBRANCH   1   2
BRANCH   1  10
ATOM     10  C   UNL     1      53.847   1.794  23.989  1.00  0.00     0.000 C 
BRANCH  10  11
ATOM     11  C   UNL     1      55.333   1.858  23.604  1.00  0.00    -0.000 C 
BRANCH  11  12
ATOM     12  C   UNL     1      55.866   0.462  23.249  1.00  0.00    -0.000 C 
BRANCH  12  13
ATOM     13  C   UNL     1      56.057   0.264  21.736  1.00  0.00    -0.000 C 
BRANCH  13  14
ATOM     14  C   UNL     1      57.461  -0.254  21.379  1.00  0.00    -0.000 C 
BRANCH  14  15
ATOM     15  C   UNL     1      57.679  -1.710  21.819  1.00  0.00    -0.003 C 
ATOM     16  C   UNL     1      58.786  -1.856  22.863  1.00  0.00     0.004 C 
ENDBRANCH  14  15
ENDBRANCH  13  14
ENDBRANCH  12  13
ENDBRANCH  11  12
ENDBRANCH  10  11
ENDBRANCH   1  10
TORSDOF 12
ENDMDL
MODEL 9
REMARK VINA RESULT:    -3.088     17.649     19.728
REMARK INTER + INTRA:          -6.478
REMARK INTER:                  -5.154
REMARK INTRA:                  -1.324
REMARK UNBOUND:                -1.223
REMARK SMILES CCCCCCCCCCCCCC(=O)[O-]
REMARK SMILES IDX 8 1 9 2 10 3 11 4 12 5 13 6 14 7 15 8 16 9 7 10 6 11 5 12
REMARK SMILES IDX 4 13 3 14 2 15 1 16
REMARK H PARENT
REMARK Flexibility Score: inf
ROOT
ATOM      1  C   UNL     1      55.506   2.946  22.472  1.00  0.00     0.000 C 
ENDROOT
BRANCH   1   2
ATOM      2  C   UNL     1      54.226   2.864  23.320  1.00  0.00     0.000 C 
BRANCH   2   3
ATOM      3  C   UNL     1      52.951   2.810  22.463  1.00  0.00     0.000 C 
BRANCH   3   4
ATOM      4  C   UNL     1      52.368   1.392  22.354  1.00  0.00     0.000 C 
BRANCH   4   5
ATOM      5  C   UNL     1      52.794   0.723  21.042  1.00  0.00     0.006 C 
BRANCH   5   6
ATOM      6  C   UNL     1      52.042  -0.593  20.825  1.00  0.00     0.053 C 
BRANCH   6   7
ATOM      7  C   UNL     1      50.913  -0.400  19.863  1.00  0.00     0.041 C 
ATOM      8  O   UNL     1      50.640   0.749  19.428  1.00  0.00    -0.550 OA
ATOM      9  O   UNL     1      50.192  -1.497  19.408  1.00  0.00    -0.550 OA
ENDBRANCH   6   7
ENDBRANCH   5   6
ENDBRANCH   4   5
ENDBRANCH   3   4
ENDBRANCH   2   3
ENDBRANCH   1   2
BRANCH   1  10
ATOM     10  C   UNL     1      56.562   1.912  22.894  1.00  0.00     0.000 C 
BRANCH  10  11
ATOM     11  C   UNL     1      55.944   0.649  23.514  1.00  0.00    -0.000 C 
BRANCH  11  12
ATOM     12  C   UNL     1      55.935  -0.508  22.505  1.00  0.00    -0.000 C 
BRANCH  12  13
ATOM     13  C   UNL     1      57.259  -0.636  21.733  1.00  0.00    -0.000 C 
BRANCH  13  14
ATOM     14  C   UNL     1      58.012  -1.937  22.062  1.00  0.00    -0.000 C 
BRANCH  14  15
ATOM     15  C   UNL     1      59.087  -1.736  23.143  1.00  0.00    -0.003 C 
ATOM     16  C   UNL     1      58.586  -2.071  24.547  1.00  0.00     0.004 C 
ENDBRANCH  14  15
ENDBRANCH  13  14
ENDBRANCH  12  13
ENDBRANCH  11  12
ENDBRANCH  10  11
ENDBRANCH   1  10
TORSDOF 12
ENDMDL
