MODEL 1
REMARK VINA RESULT:    -5.627      0.000      0.000
REMARK INTER + INTRA:          -6.015
REMARK INTER:                  -5.956
REMARK INTRA:                  -0.059
REMARK UNBOUND:                -0.059
REMARK SMILES CC(=O)c1ccccc1
REMARK SMILES IDX 4 1 5 2 6 3 7 4 8 5 9 6 2 7 1 8 3 9
REMARK H PARENT
REMARK Flexibility Score: inf
ROOT
ATOM      1  C   UNL     1     128.878 124.339 128.420  1.00  0.00     0.017 A 
ATOM      2  C   UNL     1     128.986 123.343 127.428  1.00  0.00     0.012 A 
ATOM      3  C   UNL     1     129.811 123.535 126.316  1.00  0.00     0.001 A 
ATOM      4  C   UNL     1     130.539 124.718 126.177  1.00  0.00     0.000 A 
ATOM      5  C   UNL     1     130.443 125.713 127.151  1.00  0.00     0.001 A 
ATOM      6  C   UNL     1     129.619 125.529 128.266  1.00  0.00     0.012 A 
ENDROOT
BRANCH   1   7
ATOM      7  C   UNL     1     127.997 124.123 129.599  1.00  0.00     0.159 C 
ATOM      8  C   UNL     1     128.551 123.805 130.956  1.00  0.00     0.093 C 
ATOM      9  O   UNL     1     126.745 124.208 129.468  1.00  0.00    -0.295 OA
ENDBRANCH   1   7
TORSDOF 1
ENDMDL
MODEL 2
REMARK VINA RESULT:    -5.620      1.596      3.645
REMARK INTER + INTRA:          -6.008
REMARK INTER:                  -5.944
REMARK INTRA:                  -0.064
REMARK UNBOUND:                -0.059
REMARK SMILES CC(=O)c1ccccc1
REMARK SMILES IDX 4 1 5 2 6 3 7 4 8 5 9 6 2 7 1 8 3 9
REMARK H PARENT
REMARK Flexibility Score: inf
ROOT
ATOM      1  C   UNL     1     129.009 124.328 128.800  1.00  0.00     0.017 A 
ATOM      2  C   UNL     1     128.525 123.012 128.665  1.00  0.00     0.012 A 
ATOM      3  C   UNL     1     128.204 122.254 129.795  1.00  0.00     0.001 A 
ATOM      4  C   UNL     1     128.361 122.797 131.072  1.00  0.00     0.000 A 
ATOM      5  C   UNL     1     128.838 124.099 131.221  1.00  0.00     0.001 A 
ATOM      6  C   UNL     1     129.161 124.863 130.095  1.00  0.00     0.012 A 
ENDROOT
BRANCH   1   7
ATOM      7  C   UNL     1     129.347 125.124 127.589  1.00  0.00     0.159 C 
ATOM      8  C   UNL     1     130.227 124.580 126.503  1.00  0.00     0.093 C 
ATOM      9  O   UNL     1     128.887 126.291 127.458  1.00  0.00    -0.295 OA
ENDBRANCH   1   7
TORSDOF 1
ENDMDL
MODEL 3
REMARK VINA RESULT:    -5.616      0.024      1.614
REMARK INTER + INTRA:          -6.003
REMARK INTER:                  -5.944
REMARK INTRA:                  -0.059
REMARK UNBOUND:                -0.059
REMARK SMILES CC(=O)c1ccccc1
REMARK SMILES IDX 4 1 5 2 6 3 7 4 8 5 9 6 2 7 1 8 3 9
REMARK H PARENT
REMARK Flexibility Score: inf
ROOT
ATOM      1  C   UNL     1     128.878 124.327 128.416  1.00  0.00     0.017 A 
ATOM      2  C   UNL     1     129.604 125.524 128.255  1.00  0.00     0.012 A 
ATOM      3  C   UNL     1     130.425 125.713 127.140  1.00  0.00     0.001 A 
ATOM      4  C   UNL     1     130.532 124.714 126.170  1.00  0.00     0.000 A 
ATOM      5  C   UNL     1     129.819 123.524 126.315  1.00  0.00     0.001 A 
ATOM      6  C   UNL     1     128.996 123.328 127.429  1.00  0.00     0.012 A 
ENDROOT
BRANCH   1   7
ATOM      7  C   UNL     1     128.008 124.139 129.609  1.00  0.00     0.159 C 
ATOM      8  C   UNL     1     128.576 123.841 130.964  1.00  0.00     0.093 C 
ATOM      9  O   UNL     1     126.756 124.230 129.491  1.00  0.00    -0.295 OA
ENDBRANCH   1   7
TORSDOF 1
ENDMDL
MODEL 4
REMARK VINA RESULT:    -5.487      1.604      4.000
REMARK INTER + INTRA:          -5.867
REMARK INTER:                  -5.798
REMARK INTRA:                  -0.069
REMARK UNBOUND:                -0.059
REMARK SMILES CC(=O)c1ccccc1
REMARK SMILES IDX 4 1 5 2 6 3 7 4 8 5 9 6 2 7 1 8 3 9
REMARK H PARENT
REMARK Flexibility Score: inf
ROOT
ATOM      1  C   UNL     1     128.909 123.867 128.661  1.00  0.00     0.017 A 
ATOM      2  C   UNL     1     129.198 124.813 129.665  1.00  0.00     0.012 A 
ATOM      3  C   UNL     1     128.996 124.503 131.013  1.00  0.00     0.001 A 
ATOM      4  C   UNL     1     128.506 123.248 131.379  1.00  0.00     0.000 A 
ATOM      5  C   UNL     1     128.216 122.300 130.397  1.00  0.00     0.001 A 
ATOM      6  C   UNL     1     128.415 122.604 129.046  1.00  0.00     0.012 A 
ENDROOT
BRANCH   1   7
ATOM      7  C   UNL     1     129.128 124.209 127.230  1.00  0.00     0.159 C 
ATOM      8  C   UNL     1     130.132 125.240 126.807  1.00  0.00     0.093 C 
ATOM      9  O   UNL     1     128.458 123.624 126.337  1.00  0.00    -0.295 OA
ENDBRANCH   1   7
TORSDOF 1
ENDMDL
MODEL 5
REMARK VINA RESULT:    -5.476      1.314      2.124
REMARK INTER + INTRA:          -5.855
REMARK INTER:                  -5.796
REMARK INTRA:                  -0.059
REMARK UNBOUND:                -0.059
REMARK SMILES CC(=O)c1ccccc1
REMARK SMILES IDX 4 1 5 2 6 3 7 4 8 5 9 6 2 7 1 8 3 9
REMARK H PARENT
REMARK Flexibility Score: inf
ROOT
ATOM      1  C   UNL     1     128.806 123.907 128.118  1.00  0.00     0.017 A 
ATOM      2  C   UNL     1     129.186 125.198 128.536  1.00  0.00     0.012 A 
ATOM      3  C   UNL     1     130.075 125.959 127.771  1.00  0.00     0.001 A 
ATOM      4  C   UNL     1     130.595 125.445 126.581  1.00  0.00     0.000 A 
ATOM      5  C   UNL     1     130.227 124.169 126.154  1.00  0.00     0.001 A 
ATOM      6  C   UNL     1     129.339 123.402 126.915  1.00  0.00     0.012 A 
ENDROOT
BRANCH   1   7
ATOM      7  C   UNL     1     127.859 123.107 128.942  1.00  0.00     0.159 C 
ATOM      8  C   UNL     1     126.384 123.373 128.937  1.00  0.00     0.093 C 
ATOM      9  O   UNL     1     128.297 122.174 129.669  1.00  0.00    -0.295 OA
ENDBRANCH   1   7
TORSDOF 1
ENDMDL
MODEL 6
REMARK VINA RESULT:    -5.466      2.479      4.126
REMARK INTER + INTRA:          -5.844
REMARK INTER:                  -5.773
REMARK INTRA:                  -0.071
REMARK UNBOUND:                -0.059
REMARK SMILES CC(=O)c1ccccc1
REMARK SMILES IDX 4 1 5 2 6 3 7 4 8 5 9 6 2 7 1 8 3 9
REMARK H PARENT
REMARK Flexibility Score: inf
ROOT
ATOM      1  C   UNL     1     130.396 125.542 126.759  1.00  0.00     0.017 A 
ATOM      2  C   UNL     1     130.112 124.267 126.229  1.00  0.00     0.012 A 
ATOM      3  C   UNL     1     129.335 123.355 126.950  1.00  0.00     0.001 A 
ATOM      4  C   UNL     1     128.831 123.701 128.205  1.00  0.00     0.000 A 
ATOM      5  C   UNL     1     129.104 124.959 128.743  1.00  0.00     0.001 A 
ATOM      6  C   UNL     1     129.880 125.876 128.027  1.00  0.00     0.012 A 
ENDROOT
BRANCH   1   7
ATOM      7  C   UNL     1     131.225 126.503 125.981  1.00  0.00     0.159 C 
ATOM      8  C   UNL     1     131.580 126.261 124.544  1.00  0.00     0.093 C 
ATOM      9  O   UNL     1     131.646 127.555 126.534  1.00  0.00    -0.295 OA
ENDBRANCH   1   7
TORSDOF 1
ENDMDL
MODEL 7
REMARK VINA RESULT:    -5.450      2.456      4.359
REMARK INTER + INTRA:          -5.827
REMARK INTER:                  -5.758
REMARK INTRA:                  -0.069
REMARK UNBOUND:                -0.059
REMARK SMILES CC(=O)c1ccccc1
REMARK SMILES IDX 4 1 5 2 6 3 7 4 8 5 9 6 2 7 1 8 3 9
REMARK H PARENT
REMARK Flexibility Score: inf
ROOT
ATOM      1  C   UNL     1     130.374 125.515 126.772  1.00  0.00     0.017 A 
ATOM      2  C   UNL     1     129.807 125.873 128.012  1.00  0.00     0.012 A 
ATOM      3  C   UNL     1     129.015 124.964 128.720  1.00  0.00     0.001 A 
ATOM      4  C   UNL     1     128.778 123.689 128.203  1.00  0.00     0.000 A 
ATOM      5  C   UNL     1     129.333 123.319 126.977  1.00  0.00     0.001 A 
ATOM      6  C   UNL     1     130.126 124.224 126.264  1.00  0.00     0.012 A 
ENDROOT
BRANCH   1   7
ATOM      7  C   UNL     1     131.214 126.492 126.029  1.00  0.00     0.159 C 
ATOM      8  C   UNL     1     131.606 126.274 124.598  1.00  0.00     0.093 C 
ATOM      9  O   UNL     1     131.615 127.540 126.606  1.00  0.00    -0.295 OA
ENDBRANCH   1   7
TORSDOF 1
ENDMDL
MODEL 8
REMARK VINA RESULT:    -5.181      1.356      1.937
REMARK INTER + INTRA:          -5.542
REMARK INTER:                  -5.476
REMARK INTRA:                  -0.066
REMARK UNBOUND:                -0.059
REMARK SMILES CC(=O)c1ccccc1
REMARK SMILES IDX 4 1 5 2 6 3 7 4 8 5 9 6 2 7 1 8 3 9
REMARK H PARENT
REMARK Flexibility Score: inf
ROOT
ATOM      1  C   UNL     1     129.801 125.111 127.501  1.00  0.00     0.017 A 
ATOM      2  C   UNL     1     130.380 124.703 126.282  1.00  0.00     0.012 A 
ATOM      3  C   UNL     1     131.239 125.556 125.584  1.00  0.00     0.001 A 
ATOM      4  C   UNL     1     131.534 126.824 126.090  1.00  0.00     0.000 A 
ATOM      5  C   UNL     1     130.969 127.241 127.295  1.00  0.00     0.001 A 
ATOM      6  C   UNL     1     130.108 126.393 127.999  1.00  0.00     0.012 A 
ENDROOT
BRANCH   1   7
ATOM      7  C   UNL     1     128.887 124.193 128.234  1.00  0.00     0.159 C 
ATOM      8  C   UNL     1     128.791 124.200 129.731  1.00  0.00     0.093 C 
ATOM      9  O   UNL     1     128.167 123.382 127.591  1.00  0.00    -0.295 OA
ENDBRANCH   1   7
TORSDOF 1
ENDMDL
MODEL 9
REMARK VINA RESULT:    -5.115      1.962      2.785
REMARK INTER + INTRA:          -5.473
REMARK INTER:                  -5.414
REMARK INTRA:                  -0.060
REMARK UNBOUND:                -0.059
REMARK SMILES CC(=O)c1ccccc1
REMARK SMILES IDX 4 1 5 2 6 3 7 4 8 5 9 6 2 7 1 8 3 9
REMARK H PARENT
REMARK Flexibility Score: inf
ROOT
ATOM      1  C   UNL     1     129.900 125.483 126.746  1.00  0.00     0.017 A 
ATOM      2  C   UNL     1     129.009 126.022 125.796  1.00  0.00     0.012 A 
ATOM      3  C   UNL     1     129.493 126.685 124.664  1.00  0.00     0.001 A 
ATOM      4  C   UNL     1     130.868 126.819 124.465  1.00  0.00     0.000 A 
ATOM      5  C   UNL     1     131.763 126.290 125.396  1.00  0.00     0.001 A 
ATOM      6  C   UNL     1     131.285 125.626 126.530  1.00  0.00     0.012 A 
ENDROOT
BRANCH   1   7
ATOM      7  C   UNL     1     129.371 124.780 127.946  1.00  0.00     0.159 C 
ATOM      8  C   UNL     1     128.714 123.435 127.852  1.00  0.00     0.093 C 
ATOM      9  O   UNL     1     129.473 125.318 129.082  1.00  0.00    -0.295 OA
ENDBRANCH   1   7
TORSDOF 1
ENDMDL
