MODEL 1
REMARK VINA RESULT:    -2.039      0.000      0.000
REMARK INTER + INTRA:          -2.039
REMARK INTER:                  -2.039
REMARK INTRA:                   0.000
REMARK UNBOUND:                 0.000
REMARK SMILES CC1(C)O[C@]2(C)CC[C@H]1CC2
REMARK SMILES IDX 1 1 2 2 9 3 8 4 7 5 5 6 4 7 11 8 10 9 6 10 3 11
REMARK H PARENT
REMARK Flexibility Score: inf
ROOT
ATOM      1  C   UNL     1     124.536 110.799 132.148  1.00  0.00     0.042 C 
ATOM      2  C   UNL     1     125.071 109.481 132.749  1.00  0.00     0.066 C 
ATOM      3  C   UNL     1     126.648 109.479 132.774  1.00  0.00     0.021 C 
ATOM      4  C   UNL     1     127.125 108.161 133.432  1.00  0.00     0.009 C 
ATOM      5  C   UNL     1     126.404 107.981 134.790  1.00  0.00     0.035 C 
ATOM      6  C   UNL     1     125.513 109.222 135.083  1.00  0.00     0.066 C 
ATOM      7  O   UNL     1     124.517 109.334 134.065  1.00  0.00    -0.369 OA
ATOM      8  C   UNL     1     126.403 110.498 135.069  1.00  0.00     0.035 C 
ATOM      9  C   UNL     1     127.124 110.620 133.706  1.00  0.00     0.009 C 
ATOM     10  C   UNL     1     124.819 109.071 136.440  1.00  0.00     0.042 C 
ATOM     11  C   UNL     1     124.537 108.326 131.874  1.00  0.00     0.042 C 
ENDROOT
TORSDOF 0
ENDMDL
MODEL 2
REMARK VINA RESULT:    -1.967      1.284      2.837
REMARK INTER + INTRA:          -1.967
REMARK INTER:                  -1.967
REMARK INTRA:                   0.000
REMARK UNBOUND:                 0.000
REMARK SMILES CC1(C)O[C@]2(C)CC[C@H]1CC2
REMARK SMILES IDX 1 1 2 2 9 3 8 4 7 5 5 6 4 7 11 8 10 9 6 10 3 11
REMARK H PARENT
REMARK Flexibility Score: inf
ROOT
ATOM      1  C   UNL     1     123.868 108.102 133.137  1.00  0.00     0.042 C 
ATOM      2  C   UNL     1     124.372 109.026 134.267  1.00  0.00     0.066 C 
ATOM      3  C   UNL     1     125.459 108.292 135.144  1.00  0.00     0.021 C 
ATOM      4  C   UNL     1     125.964 109.280 136.224  1.00  0.00     0.009 C 
ATOM      5  C   UNL     1     126.390 110.603 135.544  1.00  0.00     0.035 C 
ATOM      6  C   UNL     1     126.257 110.470 134.000  1.00  0.00     0.066 C 
ATOM      7  O   UNL     1     124.890 110.222 133.667  1.00  0.00    -0.369 OA
ATOM      8  C   UNL     1     127.124 109.270 133.519  1.00  0.00     0.035 C 
ATOM      9  C   UNL     1     126.681 107.978 134.247  1.00  0.00     0.009 C 
ATOM     10  C   UNL     1     126.708 111.762 133.312  1.00  0.00     0.042 C 
ATOM     11  C   UNL     1     123.148 109.412 135.126  1.00  0.00     0.042 C 
ENDROOT
TORSDOF 0
ENDMDL
MODEL 3
REMARK VINA RESULT:    -1.964      1.163      1.549
REMARK INTER + INTRA:          -1.964
REMARK INTER:                  -1.964
REMARK INTRA:                   0.000
REMARK UNBOUND:                 0.000
REMARK SMILES CC1(C)O[C@]2(C)CC[C@H]1CC2
REMARK SMILES IDX 1 1 2 2 9 3 8 4 7 5 5 6 4 7 11 8 10 9 6 10 3 11
REMARK H PARENT
REMARK Flexibility Score: inf
ROOT
ATOM      1  C   UNL     1     123.615 111.193 134.218  1.00  0.00     0.042 C 
ATOM      2  C   UNL     1     124.658 110.190 133.679  1.00  0.00     0.066 C 
ATOM      3  C   UNL     1     126.120 110.755 133.858  1.00  0.00     0.021 C 
ATOM      4  C   UNL     1     127.122 109.690 133.350  1.00  0.00     0.009 C 
ATOM      5  C   UNL     1     126.809 108.333 134.027  1.00  0.00     0.035 C 
ATOM      6  C   UNL     1     125.656 108.511 135.055  1.00  0.00     0.066 C 
ATOM      7  O   UNL     1     124.480 108.945 134.371  1.00  0.00    -0.369 OA
ATOM      8  C   UNL     1     126.069 109.592 136.096  1.00  0.00     0.035 C 
ATOM      9  C   UNL     1     126.400 110.919 135.372  1.00  0.00     0.009 C 
ATOM     10  C   UNL     1     125.358 107.182 135.757  1.00  0.00     0.042 C 
ATOM     11  C   UNL     1     124.343 109.957 132.185  1.00  0.00     0.042 C 
ENDROOT
TORSDOF 0
ENDMDL
MODEL 4
REMARK VINA RESULT:    -1.903      1.521      3.222
REMARK INTER + INTRA:          -1.903
REMARK INTER:                  -1.903
REMARK INTRA:                   0.000
REMARK UNBOUND:                 0.000
REMARK SMILES CC1(C)O[C@]2(C)CC[C@H]1CC2
REMARK SMILES IDX 1 1 2 2 9 3 8 4 7 5 5 6 4 7 11 8 10 9 6 10 3 11
REMARK H PARENT
REMARK Flexibility Score: inf
ROOT
ATOM      1  C   UNL     1     123.317 109.057 134.397  1.00  0.00     0.042 C 
ATOM      2  C   UNL     1     124.353 110.193 134.537  1.00  0.00     0.066 C 
ATOM      3  C   UNL     1     125.331 109.911 135.742  1.00  0.00     0.021 C 
ATOM      4  C   UNL     1     126.375 111.053 135.802  1.00  0.00     0.009 C 
ATOM      5  C   UNL     1     127.019 111.228 134.405  1.00  0.00     0.035 C 
ATOM      6  C   UNL     1     126.471 110.144 133.433  1.00  0.00     0.066 C 
ATOM      7  O   UNL     1     125.059 110.310 133.293  1.00  0.00    -0.369 OA
ATOM      8  C   UNL     1     126.763 108.736 134.029  1.00  0.00     0.035 C 
ATOM      9  C   UNL     1     126.126 108.620 135.435  1.00  0.00     0.009 C 
ATOM     10  C   UNL     1     127.125 110.285 132.055  1.00  0.00     0.042 C 
ATOM     11  C   UNL     1     123.568 111.504 134.766  1.00  0.00     0.042 C 
ENDROOT
TORSDOF 0
ENDMDL
MODEL 5
REMARK VINA RESULT:    -1.891      1.127      1.422
REMARK INTER + INTRA:          -1.891
REMARK INTER:                  -1.891
REMARK INTRA:                   0.000
REMARK UNBOUND:                 0.000
REMARK SMILES CC1(C)O[C@]2(C)CC[C@H]1CC2
REMARK SMILES IDX 1 1 2 2 9 3 8 4 7 5 5 6 4 7 11 8 10 9 6 10 3 11
REMARK H PARENT
REMARK Flexibility Score: inf
ROOT
ATOM      1  C   UNL     1     124.424 109.728 131.988  1.00  0.00     0.042 C 
ATOM      2  C   UNL     1     124.632 109.072 133.370  1.00  0.00     0.066 C 
ATOM      3  C   UNL     1     126.069 108.429 133.472  1.00  0.00     0.021 C 
ATOM      4  C   UNL     1     126.239 107.834 134.891  1.00  0.00     0.009 C 
ATOM      5  C   UNL     1     125.879 108.912 135.942  1.00  0.00     0.035 C 
ATOM      6  C   UNL     1     125.556 110.256 135.228  1.00  0.00     0.066 C 
ATOM      7  O   UNL     1     124.424 110.074 134.376  1.00  0.00    -0.369 OA
ATOM      8  C   UNL     1     126.781 110.678 134.366  1.00  0.00     0.035 C 
ATOM      9  C   UNL     1     127.120 109.559 133.353  1.00  0.00     0.009 C 
ATOM     10  C   UNL     1     125.230 111.342 136.259  1.00  0.00     0.042 C 
ATOM     11  C   UNL     1     123.538 107.994 133.536  1.00  0.00     0.042 C 
ENDROOT
TORSDOF 0
ENDMDL
MODEL 6
REMARK VINA RESULT:    -1.775      1.366      3.053
REMARK INTER + INTRA:          -1.775
REMARK INTER:                  -1.775
REMARK INTRA:                   0.000
REMARK UNBOUND:                 0.000
REMARK SMILES CC1(C)O[C@]2(C)CC[C@H]1CC2
REMARK SMILES IDX 1 1 2 2 9 3 8 4 7 5 5 6 4 7 11 8 10 9 6 10 3 11
REMARK H PARENT
REMARK Flexibility Score: inf
ROOT
ATOM      1  C   UNL     1     126.285 111.166 135.499  1.00  0.00     0.042 C 
ATOM      2  C   UNL     1     126.366 110.895 133.981  1.00  0.00     0.066 C 
ATOM      3  C   UNL     1     127.116 109.537 133.697  1.00  0.00     0.021 C 
ATOM      4  C   UNL     1     127.122 109.292 132.168  1.00  0.00     0.009 C 
ATOM      5  C   UNL     1     125.677 109.419 131.627  1.00  0.00     0.035 C 
ATOM      6  C   UNL     1     124.692 109.659 132.806  1.00  0.00     0.066 C 
ATOM      7  O   UNL     1     125.030 110.885 133.458  1.00  0.00    -0.369 OA
ATOM      8  C   UNL     1     124.825 108.488 133.823  1.00  0.00     0.035 C 
ATOM      9  C   UNL     1     126.289 108.382 134.312  1.00  0.00     0.009 C 
ATOM     10  C   UNL     1     123.253 109.754 132.288  1.00  0.00     0.042 C 
ATOM     11  C   UNL     1     127.122 112.080 133.342  1.00  0.00     0.042 C 
ENDROOT
TORSDOF 0
ENDMDL
MODEL 7
REMARK VINA RESULT:    -1.755      1.721      2.899
REMARK INTER + INTRA:          -1.755
REMARK INTER:                  -1.755
REMARK INTRA:                   0.000
REMARK UNBOUND:                 0.000
REMARK SMILES CC1(C)O[C@]2(C)CC[C@H]1CC2
REMARK SMILES IDX 1 1 2 2 9 3 8 4 7 5 5 6 4 7 11 8 10 9 6 10 3 11
REMARK H PARENT
REMARK Flexibility Score: inf
ROOT
ATOM      1  C   UNL     1     124.761 108.693 133.757  1.00  0.00     0.042 C 
ATOM      2  C   UNL     1     125.817 109.654 134.345  1.00  0.00     0.066 C 
ATOM      3  C   UNL     1     125.329 111.151 134.240  1.00  0.00     0.021 C 
ATOM      4  C   UNL     1     126.401 112.061 134.888  1.00  0.00     0.009 C 
ATOM      5  C   UNL     1     126.729 111.530 136.305  1.00  0.00     0.035 C 
ATOM      6  C   UNL     1     125.812 110.319 136.640  1.00  0.00     0.066 C 
ATOM      7  O   UNL     1     126.064 109.268 135.705  1.00  0.00    -0.369 OA
ATOM      8  C   UNL     1     124.325 110.762 136.521  1.00  0.00     0.035 C 
ATOM      9  C   UNL     1     124.053 111.311 135.100  1.00  0.00     0.009 C 
ATOM     10  C   UNL     1     126.104 109.804 138.053  1.00  0.00     0.042 C 
ATOM     11  C   UNL     1     127.122 109.448 133.545  1.00  0.00     0.042 C 
ENDROOT
TORSDOF 0
ENDMDL
MODEL 8
REMARK VINA RESULT:    -1.741      3.121      4.594
REMARK INTER + INTRA:          -1.741
REMARK INTER:                  -1.741
REMARK INTRA:                   0.000
REMARK UNBOUND:                 0.000
REMARK SMILES CC1(C)O[C@]2(C)CC[C@H]1CC2
REMARK SMILES IDX 1 1 2 2 9 3 8 4 7 5 5 6 4 7 11 8 10 9 6 10 3 11
REMARK H PARENT
REMARK Flexibility Score: inf
ROOT
ATOM      1  C   UNL     1     123.002 109.926 136.685  1.00  0.00     0.042 C 
ATOM      2  C   UNL     1     124.085 109.763 137.773  1.00  0.00     0.066 C 
ATOM      3  C   UNL     1     125.211 108.767 137.295  1.00  0.00     0.021 C 
ATOM      4  C   UNL     1     126.291 108.683 138.400  1.00  0.00     0.009 C 
ATOM      5  C   UNL     1     126.740 110.114 138.783  1.00  0.00     0.035 C 
ATOM      6  C   UNL     1     126.027 111.152 137.870  1.00  0.00     0.066 C 
ATOM      7  O   UNL     1     124.616 111.063 138.073  1.00  0.00    -0.369 OA
ATOM      8  C   UNL     1     126.350 110.825 136.383  1.00  0.00     0.035 C 
ATOM      9  C   UNL     1     125.911 109.377 136.057  1.00  0.00     0.009 C 
ATOM     10  C   UNL     1     126.488 112.572 138.215  1.00  0.00     0.042 C 
ATOM     11  C   UNL     1     123.385 109.228 139.042  1.00  0.00     0.042 C 
ENDROOT
TORSDOF 0
ENDMDL
