MODEL 1
REMARK VINA RESULT:    -4.173      0.000      0.000
REMARK INTER + INTRA:          -4.295
REMARK INTER:                  -4.295
REMARK INTRA:                   0.000
REMARK UNBOUND:                 0.000
REMARK SMILES Cc1ccccc1O
REMARK SMILES IDX 1 1 2 2 3 3 4 4 5 5 6 6 7 7 8 8
REMARK H PARENT 8 9
REMARK Flexibility Score: inf
ROOT
ATOM      1  C   UNL     1      46.746   5.221  14.100  1.00  0.00     0.048 C 
ATOM      2  C   UNL     1      46.351   5.979  15.336  1.00  0.00    -0.009 A 
ATOM      3  C   UNL     1      45.172   6.743  15.352  1.00  0.00     0.007 A 
ATOM      4  C   UNL     1      44.804   7.448  16.502  1.00  0.00     0.001 A 
ATOM      5  C   UNL     1      45.609   7.397  17.642  1.00  0.00     0.004 A 
ATOM      6  C   UNL     1      46.783   6.639  17.636  1.00  0.00     0.046 A 
ATOM      7  C   UNL     1      47.160   5.928  16.487  1.00  0.00     0.118 A 
ENDROOT
BRANCH   7   8
ATOM      8  O   UNL     1      48.333   5.174  16.486  1.00  0.00    -0.508 OA
ATOM      9  H   UNL     1      48.338   4.202  16.201  1.00  0.00     0.293 HD
ENDBRANCH   7   8
TORSDOF 1
ENDMDL
MODEL 2
REMARK VINA RESULT:    -4.166      0.700      2.491
REMARK INTER + INTRA:          -4.288
REMARK INTER:                  -4.288
REMARK INTRA:                   0.000
REMARK UNBOUND:                 0.000
REMARK SMILES Cc1ccccc1O
REMARK SMILES IDX 1 1 2 2 3 3 4 4 5 5 6 6 7 7 8 8
REMARK H PARENT 8 9
REMARK Flexibility Score: inf
ROOT
ATOM      1  C   UNL     1      46.756   6.971  18.382  1.00  0.00     0.048 C 
ATOM      2  C   UNL     1      46.271   6.654  16.995  1.00  0.00    -0.009 A 
ATOM      3  C   UNL     1      45.049   7.174  16.535  1.00  0.00     0.007 A 
ATOM      4  C   UNL     1      44.599   6.879  15.245  1.00  0.00     0.001 A 
ATOM      5  C   UNL     1      45.363   6.066  14.405  1.00  0.00     0.004 A 
ATOM      6  C   UNL     1      46.579   5.546  14.852  1.00  0.00     0.046 A 
ATOM      7  C   UNL     1      47.040   5.835  16.145  1.00  0.00     0.118 A 
ENDROOT
BRANCH   7   8
ATOM      8  O   UNL     1      48.255   5.313  16.588  1.00  0.00    -0.508 OA
ATOM      9  H   UNL     1      48.572   4.394  16.305  1.00  0.00     0.293 HD
ENDBRANCH   7   8
TORSDOF 1
ENDMDL
MODEL 3
REMARK VINA RESULT:    -4.101      3.614      5.317
REMARK INTER + INTRA:          -4.220
REMARK INTER:                  -4.220
REMARK INTRA:                   0.000
REMARK UNBOUND:                 0.000
REMARK SMILES Cc1ccccc1O
REMARK SMILES IDX 1 1 2 2 3 3 4 4 5 5 6 6 7 7 8 8
REMARK H PARENT 8 9
REMARK Flexibility Score: inf
ROOT
ATOM      1  C   UNL     1      46.522   8.236  22.929  1.00  0.00     0.048 C 
ATOM      2  C   UNL     1      46.386   8.178  21.434  1.00  0.00    -0.009 A 
ATOM      3  C   UNL     1      45.789   9.240  20.735  1.00  0.00     0.007 A 
ATOM      4  C   UNL     1      45.662   9.186  19.344  1.00  0.00     0.001 A 
ATOM      5  C   UNL     1      46.129   8.074  18.641  1.00  0.00     0.004 A 
ATOM      6  C   UNL     1      46.725   7.013  19.326  1.00  0.00     0.046 A 
ATOM      7  C   UNL     1      46.857   7.058  20.722  1.00  0.00     0.118 A 
ENDROOT
BRANCH   7   8
ATOM      8  O   UNL     1      47.452   5.996  21.402  1.00  0.00    -0.508 OA
ATOM      9  H   UNL     1      46.916   5.387  22.008  1.00  0.00     0.293 HD
ENDBRANCH   7   8
TORSDOF 1
ENDMDL
MODEL 4
REMARK VINA RESULT:    -4.099      7.726      8.855
REMARK INTER + INTRA:          -4.219
REMARK INTER:                  -4.219
REMARK INTRA:                   0.000
REMARK UNBOUND:                 0.000
REMARK SMILES Cc1ccccc1O
REMARK SMILES IDX 1 1 2 2 3 3 4 4 5 5 6 6 7 7 8 8
REMARK H PARENT 8 9
REMARK Flexibility Score: inf
ROOT
ATOM      1  C   UNL     1      47.872  -3.628  16.860  1.00  0.00     0.048 C 
ATOM      2  C   UNL     1      46.883  -2.842  16.046  1.00  0.00    -0.009 A 
ATOM      3  C   UNL     1      46.469  -3.311  14.788  1.00  0.00     0.007 A 
ATOM      4  C   UNL     1      45.550  -2.579  14.031  1.00  0.00     0.001 A 
ATOM      5  C   UNL     1      45.036  -1.377  14.523  1.00  0.00     0.004 A 
ATOM      6  C   UNL     1      45.441  -0.903  15.772  1.00  0.00     0.046 A 
ATOM      7  C   UNL     1      46.363  -1.630  16.540  1.00  0.00     0.118 A 
ENDROOT
BRANCH   7   8
ATOM      8  O   UNL     1      46.765  -1.153  17.787  1.00  0.00    -0.508 OA
ATOM      9  H   UNL     1      46.342  -0.331  18.202  1.00  0.00     0.293 HD
ENDBRANCH   7   8
TORSDOF 1
ENDMDL
MODEL 5
REMARK VINA RESULT:    -4.089      0.873      1.122
REMARK INTER + INTRA:          -4.209
REMARK INTER:                  -4.209
REMARK INTRA:                   0.000
REMARK UNBOUND:                 0.000
REMARK SMILES Cc1ccccc1O
REMARK SMILES IDX 1 1 2 2 3 3 4 4 5 5 6 6 7 7 8 8
REMARK H PARENT 8 9
REMARK Flexibility Score: inf
ROOT
ATOM      1  C   UNL     1      45.904   5.923  14.821  1.00  0.00     0.048 C 
ATOM      2  C   UNL     1      45.800   6.603  16.158  1.00  0.00    -0.009 A 
ATOM      3  C   UNL     1      44.711   7.444  16.443  1.00  0.00     0.007 A 
ATOM      4  C   UNL     1      44.614   8.076  17.685  1.00  0.00     0.001 A 
ATOM      5  C   UNL     1      45.602   7.875  18.652  1.00  0.00     0.004 A 
ATOM      6  C   UNL     1      46.688   7.041  18.379  1.00  0.00     0.046 A 
ATOM      7  C   UNL     1      46.794   6.402  17.135  1.00  0.00     0.118 A 
ENDROOT
BRANCH   7   8
ATOM      8  O   UNL     1      47.881   5.570  16.867  1.00  0.00    -0.508 OA
ATOM      9  H   UNL     1      47.829   4.837  16.170  1.00  0.00     0.293 HD
ENDBRANCH   7   8
TORSDOF 1
ENDMDL
MODEL 6
REMARK VINA RESULT:    -3.984      3.253      4.331
REMARK INTER + INTRA:          -4.100
REMARK INTER:                  -4.100
REMARK INTRA:                   0.000
REMARK UNBOUND:                 0.000
REMARK SMILES Cc1ccccc1O
REMARK SMILES IDX 1 1 2 2 3 3 4 4 5 5 6 6 7 7 8 8
REMARK H PARENT 8 9
REMARK Flexibility Score: inf
ROOT
ATOM      1  C   UNL     1      46.681   6.641  18.133  1.00  0.00     0.048 C 
ATOM      2  C   UNL     1      46.405   7.578  19.275  1.00  0.00    -0.009 A 
ATOM      3  C   UNL     1      45.914   8.871  19.029  1.00  0.00     0.007 A 
ATOM      4  C   UNL     1      45.657   9.742  20.091  1.00  0.00     0.001 A 
ATOM      5  C   UNL     1      45.887   9.330  21.406  1.00  0.00     0.004 A 
ATOM      6  C   UNL     1      46.374   8.047  21.661  1.00  0.00     0.046 A 
ATOM      7  C   UNL     1      46.635   7.165  20.602  1.00  0.00     0.118 A 
ENDROOT
BRANCH   7   8
ATOM      8  O   UNL     1      47.122   5.884  20.862  1.00  0.00    -0.508 OA
ATOM      9  H   UNL     1      47.710   5.395  20.199  1.00  0.00     0.293 HD
ENDBRANCH   7   8
TORSDOF 1
ENDMDL
MODEL 7
REMARK VINA RESULT:    -3.965      4.454      5.713
REMARK INTER + INTRA:          -4.081
REMARK INTER:                  -4.081
REMARK INTRA:                   0.000
REMARK UNBOUND:                 0.000
REMARK SMILES Cc1ccccc1O
REMARK SMILES IDX 1 1 2 2 3 3 4 4 5 5 6 6 7 7 8 8
REMARK H PARENT 8 9
REMARK Flexibility Score: inf
ROOT
ATOM      1  C   UNL     1      47.881   6.612  22.061  1.00  0.00     0.048 C 
ATOM      2  C   UNL     1      46.829   7.336  21.270  1.00  0.00    -0.009 A 
ATOM      3  C   UNL     1      46.835   7.283  19.866  1.00  0.00     0.007 A 
ATOM      4  C   UNL     1      45.857   7.957  19.130  1.00  0.00     0.001 A 
ATOM      5  C   UNL     1      44.865   8.688  19.788  1.00  0.00     0.004 A 
ATOM      6  C   UNL     1      44.850   8.747  21.183  1.00  0.00     0.046 A 
ATOM      7  C   UNL     1      45.828   8.074  21.930  1.00  0.00     0.118 A 
ENDROOT
BRANCH   7   8
ATOM      8  O   UNL     1      45.808   8.136  23.323  1.00  0.00    -0.508 OA
ATOM      9  H   UNL     1      46.473   8.700  23.839  1.00  0.00     0.293 HD
ENDBRANCH   7   8
TORSDOF 1
ENDMDL
MODEL 8
REMARK VINA RESULT:    -3.900      2.571      3.243
REMARK INTER + INTRA:          -4.014
REMARK INTER:                  -4.014
REMARK INTRA:                   0.000
REMARK UNBOUND:                 0.000
REMARK SMILES Cc1ccccc1O
REMARK SMILES IDX 1 1 2 2 3 3 4 4 5 5 6 6 7 7 8 8
REMARK H PARENT 8 9
REMARK Flexibility Score: inf
ROOT
ATOM      1  C   UNL     1      44.127   7.365  15.014  1.00  0.00     0.048 C 
ATOM      2  C   UNL     1      44.920   7.349  16.290  1.00  0.00    -0.009 A 
ATOM      3  C   UNL     1      46.056   6.531  16.409  1.00  0.00     0.007 A 
ATOM      4  C   UNL     1      46.793   6.516  17.596  1.00  0.00     0.001 A 
ATOM      5  C   UNL     1      46.404   7.317  18.672  1.00  0.00     0.004 A 
ATOM      6  C   UNL     1      45.278   8.135  18.564  1.00  0.00     0.046 A 
ATOM      7  C   UNL     1      44.531   8.156  17.377  1.00  0.00     0.118 A 
ENDROOT
BRANCH   7   8
ATOM      8  O   UNL     1      43.406   8.974  17.273  1.00  0.00    -0.508 OA
ATOM      9  H   UNL     1      42.534   8.631  16.890  1.00  0.00     0.293 HD
ENDBRANCH   7   8
TORSDOF 1
ENDMDL
MODEL 9
REMARK VINA RESULT:    -3.763      7.931      8.997
REMARK INTER + INTRA:          -3.873
REMARK INTER:                  -3.873
REMARK INTRA:                   0.000
REMARK UNBOUND:                 0.000
REMARK SMILES Cc1ccccc1O
REMARK SMILES IDX 1 1 2 2 3 3 4 4 5 5 6 6 7 7 8 8
REMARK H PARENT 8 9
REMARK Flexibility Score: inf
ROOT
ATOM      1  C   UNL     1      43.724  -3.133  13.875  1.00  0.00     0.048 C 
ATOM      2  C   UNL     1      44.833  -2.696  14.790  1.00  0.00    -0.009 A 
ATOM      3  C   UNL     1      45.891  -3.571  15.089  1.00  0.00     0.007 A 
ATOM      4  C   UNL     1      46.923  -3.165  15.940  1.00  0.00     0.001 A 
ATOM      5  C   UNL     1      46.908  -1.884  16.497  1.00  0.00     0.004 A 
ATOM      6  C   UNL     1      45.861  -1.007  16.205  1.00  0.00     0.046 A 
ATOM      7  C   UNL     1      44.821  -1.405  15.353  1.00  0.00     0.118 A 
ENDROOT
BRANCH   7   8
ATOM      8  O   UNL     1      43.778  -0.526  15.064  1.00  0.00    -0.508 OA
ATOM      9  H   UNL     1      43.348   0.042  15.784  1.00  0.00     0.293 HD
ENDBRANCH   7   8
TORSDOF 1
ENDMDL
