MODEL 1
REMARK VINA RESULT:    -2.840      0.000      0.000
REMARK INTER + INTRA:          -3.089
REMARK INTER:                  -3.089
REMARK INTRA:                   0.000
REMARK UNBOUND:                 0.000
REMARK SMILES [NH3+]CC(=O)[O-]
REMARK SMILES IDX 2 1 1 2 3 6 4 7 5 8
REMARK H PARENT 1 3 1 4 1 5
REMARK Flexibility Score: inf
ROOT
ATOM      1  C   UNL     1      30.525  35.222  23.865  1.00  0.00     0.312 C 
ENDROOT
BRANCH   1   2
ATOM      2  N   UNL     1      30.162  36.431  23.129  1.00  0.00    -0.353 N 
ATOM      3  H   UNL     1      30.598  36.418  22.178  1.00  0.00     0.344 HD
ATOM      4  H   UNL     1      30.481  37.280  23.652  1.00  0.00     0.344 HD
ATOM      5  H   UNL     1      29.122  36.469  23.024  1.00  0.00     0.344 HD
ENDBRANCH   1   2
BRANCH   1   6
ATOM      6  C   UNL     1      29.485  34.159  23.680  1.00  0.00     0.096 C 
ATOM      7  O   UNL     1      28.263  34.455  23.732  1.00  0.00    -0.544 OA
ATOM      8  O   UNL     1      29.867  32.854  23.399  1.00  0.00    -0.544 OA
ENDBRANCH   1   6
TORSDOF 2
ENDMDL
MODEL 2
REMARK VINA RESULT:    -2.744      0.148      1.448
REMARK INTER + INTRA:          -2.985
REMARK INTER:                  -2.985
REMARK INTRA:                   0.000
REMARK UNBOUND:                 0.000
REMARK SMILES [NH3+]CC(=O)[O-]
REMARK SMILES IDX 2 1 1 2 3 6 4 7 5 8
REMARK H PARENT 1 3 1 4 1 5
REMARK Flexibility Score: inf
ROOT
ATOM      1  C   UNL     1      30.550  35.270  23.935  1.00  0.00     0.312 C 
ENDROOT
BRANCH   1   2
ATOM      2  N   UNL     1      30.179  36.435  23.135  1.00  0.00    -0.353 N 
ATOM      3  H   UNL     1      30.958  36.686  22.482  1.00  0.00     0.344 HD
ATOM      4  H   UNL     1      29.967  37.247  23.759  1.00  0.00     0.344 HD
ATOM      5  H   UNL     1      29.327  36.207  22.572  1.00  0.00     0.344 HD
ENDBRANCH   1   2
BRANCH   1   6
ATOM      6  C   UNL     1      29.621  34.126  23.665  1.00  0.00     0.096 C 
ATOM      7  O   UNL     1      30.083  32.978  23.432  1.00  0.00    -0.544 OA
ATOM      8  O   UNL     1      28.247  34.319  23.722  1.00  0.00    -0.544 OA
ENDBRANCH   1   6
TORSDOF 2
ENDMDL
MODEL 3
REMARK VINA RESULT:    -2.694     11.507     11.948
REMARK INTER + INTRA:          -2.930
REMARK INTER:                  -2.930
REMARK INTRA:                   0.000
REMARK UNBOUND:                 0.000
REMARK SMILES [NH3+]CC(=O)[O-]
REMARK SMILES IDX 2 1 1 2 3 6 4 7 5 8
REMARK H PARENT 1 3 1 4 1 5
REMARK Flexibility Score: inf
ROOT
ATOM      1  C   UNL     1      31.540  25.399  29.413  1.00  0.00     0.312 C 
ENDROOT
BRANCH   1   2
ATOM      2  N   UNL     1      31.526  25.063  27.991  1.00  0.00    -0.353 N 
ATOM      3  H   UNL     1      31.205  24.076  27.858  1.00  0.00     0.344 HD
ATOM      4  H   UNL     1      32.483  25.181  27.584  1.00  0.00     0.344 HD
ATOM      5  H   UNL     1      30.865  25.703  27.495  1.00  0.00     0.344 HD
ENDBRANCH   1   2
BRANCH   1   6
ATOM      6  C   UNL     1      32.816  24.943  30.052  1.00  0.00     0.096 C 
ATOM      7  O   UNL     1      33.887  25.571  29.842  1.00  0.00    -0.544 OA
ATOM      8  O   UNL     1      32.811  23.857  30.917  1.00  0.00    -0.544 OA
ENDBRANCH   1   6
TORSDOF 2
ENDMDL
MODEL 4
REMARK VINA RESULT:    -2.668     11.505     11.941
REMARK INTER + INTRA:          -2.902
REMARK INTER:                  -2.902
REMARK INTRA:                   0.000
REMARK UNBOUND:                 0.000
REMARK SMILES [NH3+]CC(=O)[O-]
REMARK SMILES IDX 2 1 1 2 3 6 4 7 5 8
REMARK H PARENT 1 3 1 4 1 5
REMARK Flexibility Score: inf
ROOT
ATOM      1  C   UNL     1      31.333  25.512  29.496  1.00  0.00     0.312 C 
ENDROOT
BRANCH   1   2
ATOM      2  N   UNL     1      31.250  24.999  28.130  1.00  0.00    -0.353 N 
ATOM      3  H   UNL     1      30.655  24.138  28.105  1.00  0.00     0.344 HD
ATOM      4  H   UNL     1      32.207  24.778  27.770  1.00  0.00     0.344 HD
ATOM      5  H   UNL     1      30.816  25.728  27.517  1.00  0.00     0.344 HD
ENDBRANCH   1   2
BRANCH   1   6
ATOM      6  C   UNL     1      32.524  24.941  30.203  1.00  0.00     0.096 C 
ATOM      7  O   UNL     1      32.374  24.035  31.064  1.00  0.00    -0.544 OA
ATOM      8  O   UNL     1      33.802  25.373  29.873  1.00  0.00    -0.544 OA
ENDBRANCH   1   6
TORSDOF 2
ENDMDL
MODEL 5
REMARK VINA RESULT:    -2.661     13.027     13.348
REMARK INTER + INTRA:          -2.894
REMARK INTER:                  -2.894
REMARK INTRA:                   0.000
REMARK UNBOUND:                 0.000
REMARK SMILES [NH3+]CC(=O)[O-]
REMARK SMILES IDX 2 1 1 2 3 6 4 7 5 8
REMARK H PARENT 1 3 1 4 1 5
REMARK Flexibility Score: inf
ROOT
ATOM      1  C   UNL     1      27.480  23.146  15.897  1.00  0.00     0.312 C 
ENDROOT
BRANCH   1   2
ATOM      2  N   UNL     1      26.785  23.509  14.664  1.00  0.00    -0.353 N 
ATOM      3  H   UNL     1      27.238  23.041  13.845  1.00  0.00     0.344 HD
ATOM      4  H   UNL     1      26.803  24.547  14.534  1.00  0.00     0.344 HD
ATOM      5  H   UNL     1      25.790  23.192  14.727  1.00  0.00     0.344 HD
ENDBRANCH   1   2
BRANCH   1   6
ATOM      6  C   UNL     1      28.509  24.177  16.247  1.00  0.00     0.096 C 
ATOM      7  O   UNL     1      28.350  25.374  15.893  1.00  0.00    -0.544 OA
ATOM      8  O   UNL     1      29.616  23.824  17.007  1.00  0.00    -0.544 OA
ENDBRANCH   1   6
TORSDOF 2
ENDMDL
MODEL 6
REMARK VINA RESULT:    -2.627     11.211     11.374
REMARK INTER + INTRA:          -2.858
REMARK INTER:                  -2.858
REMARK INTRA:                   0.000
REMARK UNBOUND:                 0.000
REMARK SMILES [NH3+]CC(=O)[O-]
REMARK SMILES IDX 2 1 1 2 3 6 4 7 5 8
REMARK H PARENT 1 3 1 4 1 5
REMARK Flexibility Score: inf
ROOT
ATOM      1  C   UNL     1      34.558  36.800  14.267  1.00  0.00     0.312 C 
ENDROOT
BRANCH   1   2
ATOM      2  N   UNL     1      33.511  37.044  15.258  1.00  0.00    -0.353 N 
ATOM      3  H   UNL     1      33.801  37.813  15.905  1.00  0.00     0.344 HD
ATOM      4  H   UNL     1      33.324  36.172  15.805  1.00  0.00     0.344 HD
ATOM      5  H   UNL     1      32.634  37.330  14.765  1.00  0.00     0.344 HD
ENDBRANCH   1   2
BRANCH   1   6
ATOM      6  C   UNL     1      33.977  36.750  12.887  1.00  0.00     0.096 C 
ATOM      7  O   UNL     1      33.886  37.801  12.201  1.00  0.00    -0.544 OA
ATOM      8  O   UNL     1      33.585  35.534  12.342  1.00  0.00    -0.544 OA
ENDBRANCH   1   6
TORSDOF 2
ENDMDL
MODEL 7
REMARK VINA RESULT:    -2.624     11.069     11.382
REMARK INTER + INTRA:          -2.854
REMARK INTER:                  -2.854
REMARK INTRA:                   0.000
REMARK UNBOUND:                 0.000
REMARK SMILES [NH3+]CC(=O)[O-]
REMARK SMILES IDX 2 1 1 2 3 6 4 7 5 8
REMARK H PARENT 1 3 1 4 1 5
REMARK Flexibility Score: inf
ROOT
ATOM      1  C   UNL     1      34.286  36.912  14.222  1.00  0.00     0.312 C 
ENDROOT
BRANCH   1   2
ATOM      2  N   UNL     1      33.896  37.109  15.617  1.00  0.00    -0.353 N 
ATOM      3  H   UNL     1      34.381  37.949  16.011  1.00  0.00     0.344 HD
ATOM      4  H   UNL     1      34.141  36.263  16.181  1.00  0.00     0.344 HD
ATOM      5  H   UNL     1      32.863  37.261  15.665  1.00  0.00     0.344 HD
ENDBRANCH   1   2
BRANCH   1   6
ATOM      6  C   UNL     1      35.767  37.071  14.060  1.00  0.00     0.096 C 
ATOM      7  O   UNL     1      36.553  36.244  14.591  1.00  0.00    -0.544 OA
ATOM      8  O   UNL     1      36.274  38.101  13.280  1.00  0.00    -0.544 OA
ENDBRANCH   1   6
TORSDOF 2
ENDMDL
MODEL 8
REMARK VINA RESULT:    -2.602      1.791      1.986
REMARK INTER + INTRA:          -2.830
REMARK INTER:                  -2.830
REMARK INTRA:                   0.000
REMARK UNBOUND:                 0.000
REMARK SMILES [NH3+]CC(=O)[O-]
REMARK SMILES IDX 2 1 1 2 3 6 4 7 5 8
REMARK H PARENT 1 3 1 4 1 5
REMARK Flexibility Score: inf
ROOT
ATOM      1  C   UNL     1      29.809  34.941  23.552  1.00  0.00     0.312 C 
ENDROOT
BRANCH   1   2
ATOM      2  N   UNL     1      30.196  36.340  23.376  1.00  0.00    -0.353 N 
ATOM      3  H   UNL     1      30.874  36.429  22.584  1.00  0.00     0.344 HD
ATOM      4  H   UNL     1      30.628  36.706  24.255  1.00  0.00     0.344 HD
ATOM      5  H   UNL     1      29.343  36.905  23.156  1.00  0.00     0.344 HD
ENDBRANCH   1   2
BRANCH   1   6
ATOM      6  C   UNL     1      30.567  34.322  24.686  1.00  0.00     0.096 C 
ATOM      7  O   UNL     1      31.569  34.909  25.172  1.00  0.00    -0.544 OA
ATOM      8  O   UNL     1      30.136  33.124  25.238  1.00  0.00    -0.544 OA
ENDBRANCH   1   6
TORSDOF 2
ENDMDL
MODEL 9
REMARK VINA RESULT:    -2.579      5.202      5.563
REMARK INTER + INTRA:          -2.805
REMARK INTER:                  -2.805
REMARK INTRA:                   0.000
REMARK UNBOUND:                 0.000
REMARK SMILES [NH3+]CC(=O)[O-]
REMARK SMILES IDX 2 1 1 2 3 6 4 7 5 8
REMARK H PARENT 1 3 1 4 1 5
REMARK Flexibility Score: inf
ROOT
ATOM      1  C   UNL     1      29.635  29.434  21.070  1.00  0.00     0.312 C 
ENDROOT
BRANCH   1   2
ATOM      2  N   UNL     1      28.622  28.381  21.097  1.00  0.00    -0.353 N 
ATOM      3  H   UNL     1      27.879  28.615  21.795  1.00  0.00     0.344 HD
ATOM      4  H   UNL     1      29.063  27.464  21.344  1.00  0.00     0.344 HD
ATOM      5  H   UNL     1      28.184  28.303  20.150  1.00  0.00     0.344 HD
ENDBRANCH   1   2
BRANCH   1   6
ATOM      6  C   UNL     1      29.005  30.778  21.270  1.00  0.00     0.096 C 
ATOM      7  O   UNL     1      27.897  31.042  20.735  1.00  0.00    -0.544 OA
ATOM      8  O   UNL     1      29.618  31.718  22.087  1.00  0.00    -0.544 OA
ENDBRANCH   1   6
TORSDOF 2
ENDMDL
