MODEL 1
REMARK VINA RESULT:    -4.190      0.000      0.000
REMARK INTER + INTRA:          -5.409
REMARK INTER:                  -5.048
REMARK INTRA:                  -0.361
REMARK UNBOUND:                -0.361
REMARK SMILES NC(=O)C[C@@H]([NH3+])C(=O)[O-]
REMARK SMILES IDX 4 1 5 2 6 3 7 7 8 8 9 9 2 10 3 11 1 12
REMARK H PARENT 6 4 6 5 6 6 1 13 1 14
REMARK Flexibility Score: inf
ROOT
ATOM      1  C   UNL     1     190.873 193.390  82.700  1.00  0.00     0.171 C 
ENDROOT
BRANCH   1   2
ATOM      2  C   UNL     1     190.674 194.851  82.249  1.00  0.00     0.237 C 
BRANCH   2   3
ATOM      3  N   UNL     1     190.009 195.627  83.302  1.00  0.00    -0.350 N 
ATOM      4  H   UNL     1     190.243 195.244  84.247  1.00  0.00     0.345 HD
ATOM      5  H   UNL     1     188.972 195.593  83.166  1.00  0.00     0.345 HD
ATOM      6  H   UNL     1     190.311 196.627  83.251  1.00  0.00     0.345 HD
ENDBRANCH   2   3
BRANCH   2   7
ATOM      7  C   UNL     1     191.993 195.488  81.892  1.00  0.00     0.100 C 
ATOM      8  O   UNL     1     192.359 196.548  82.464  1.00  0.00    -0.544 OA
ATOM      9  O   UNL     1     192.807 194.918  80.920  1.00  0.00    -0.544 OA
ENDBRANCH   2   7
ENDBRANCH   1   2
BRANCH   1  10
ATOM     10  C   UNL     1     191.138 193.298  84.175  1.00  0.00     0.223 C 
ATOM     11  O   UNL     1     190.179 193.127  84.974  1.00  0.00    -0.275 OA
ATOM     12  N   UNL     1     192.474 193.362  84.676  1.00  0.00    -0.369 N 
ATOM     13  H   UNL     1     192.655 193.282  85.701  1.00  0.00     0.159 HD
ATOM     14  H   UNL     1     193.283 193.483  84.027  1.00  0.00     0.159 HD
ENDBRANCH   1  10
TORSDOF 4
ENDMDL
MODEL 2
REMARK VINA RESULT:    -4.134      1.604      1.947
REMARK INTER + INTRA:          -5.342
REMARK INTER:                  -5.222
REMARK INTRA:                  -0.119
REMARK UNBOUND:                -0.361
REMARK SMILES NC(=O)C[C@@H]([NH3+])C(=O)[O-]
REMARK SMILES IDX 4 1 5 2 6 3 7 7 8 8 9 9 2 10 3 11 1 12
REMARK H PARENT 6 4 6 5 6 6 1 13 1 14
REMARK Flexibility Score: inf
ROOT
ATOM      1  C   UNL     1     191.364 193.473  82.743  1.00  0.00     0.171 C 
ENDROOT
BRANCH   1   2
ATOM      2  C   UNL     1     192.410 194.508  82.284  1.00  0.00     0.237 C 
BRANCH   2   3
ATOM      3  N   UNL     1     193.125 194.022  81.098  1.00  0.00    -0.350 N 
ATOM      4  H   UNL     1     193.906 193.384  81.372  1.00  0.00     0.345 HD
ATOM      5  H   UNL     1     193.516 194.832  80.563  1.00  0.00     0.345 HD
ATOM      6  H   UNL     1     192.464 193.508  80.471  1.00  0.00     0.345 HD
ENDBRANCH   2   3
BRANCH   2   7
ATOM      7  C   UNL     1     191.759 195.835  81.988  1.00  0.00     0.100 C 
ATOM      8  O   UNL     1     191.665 196.243  80.800  1.00  0.00    -0.544 OA
ATOM      9  O   UNL     1     191.271 196.623  83.023  1.00  0.00    -0.544 OA
ENDBRANCH   2   7
ENDBRANCH   1   2
BRANCH   1  10
ATOM     10  C   UNL     1     191.471 193.193  84.215  1.00  0.00     0.223 C 
ATOM     11  O   UNL     1     190.442 192.871  84.867  1.00  0.00    -0.275 OA
ATOM     12  N   UNL     1     192.736 193.251  84.873  1.00  0.00    -0.369 N 
ATOM     13  H   UNL     1     192.808 193.041  85.894  1.00  0.00     0.159 HD
ATOM     14  H   UNL     1     193.602 193.498  84.345  1.00  0.00     0.159 HD
ENDBRANCH   1  10
TORSDOF 4
ENDMDL
MODEL 3
REMARK VINA RESULT:    -4.110      1.138      3.753
REMARK INTER + INTRA:          -5.312
REMARK INTER:                  -4.844
REMARK INTRA:                  -0.468
REMARK UNBOUND:                -0.361
REMARK SMILES NC(=O)C[C@@H]([NH3+])C(=O)[O-]
REMARK SMILES IDX 4 1 5 2 6 3 7 7 8 8 9 9 2 10 3 11 1 12
REMARK H PARENT 6 4 6 5 6 6 1 13 1 14
REMARK Flexibility Score: inf
ROOT
ATOM      1  C   UNL     1     191.359 194.102  82.402  1.00  0.00     0.171 C 
ENDROOT
BRANCH   1   2
ATOM      2  C   UNL     1     191.526 193.058  83.524  1.00  0.00     0.237 C 
BRANCH   2   3
ATOM      3  N   UNL     1     192.387 193.585  84.590  1.00  0.00    -0.350 N 
ATOM      4  H   UNL     1     192.990 194.359  84.230  1.00  0.00     0.345 HD
ATOM      5  H   UNL     1     192.997 192.821  84.963  1.00  0.00     0.345 HD
ATOM      6  H   UNL     1     191.798 193.944  85.377  1.00  0.00     0.345 HD
ENDBRANCH   2   3
BRANCH   2   7
ATOM      7  C   UNL     1     190.187 192.659  84.091  1.00  0.00     0.100 C 
ATOM      8  O   UNL     1     189.616 193.392  84.941  1.00  0.00    -0.544 OA
ATOM      9  O   UNL     1     189.582 191.474  83.690  1.00  0.00    -0.544 OA
ENDBRANCH   2   7
ENDBRANCH   1   2
BRANCH   1  10
ATOM     10  C   UNL     1     191.315 195.500  82.949  1.00  0.00     0.223 C 
ATOM     11  O   UNL     1     192.383 196.158  83.072  1.00  0.00    -0.275 OA
ATOM     12  N   UNL     1     190.068 196.105  83.293  1.00  0.00    -0.369 N 
ATOM     13  H   UNL     1     190.041 197.083  83.658  1.00  0.00     0.159 HD
ATOM     14  H   UNL     1     189.172 195.582  83.179  1.00  0.00     0.159 HD
ENDBRANCH   1  10
TORSDOF 4
ENDMDL
MODEL 4
REMARK VINA RESULT:    -4.009      1.882      3.563
REMARK INTER + INTRA:          -5.190
REMARK INTER:                  -4.946
REMARK INTRA:                  -0.244
REMARK UNBOUND:                -0.361
REMARK SMILES NC(=O)C[C@@H]([NH3+])C(=O)[O-]
REMARK SMILES IDX 4 1 5 2 6 3 7 7 8 8 9 9 2 10 3 11 1 12
REMARK H PARENT 6 4 6 5 6 6 1 13 1 14
REMARK Flexibility Score: inf
ROOT
ATOM      1  C   UNL     1     190.686 194.677  81.480  1.00  0.00     0.171 C 
ENDROOT
BRANCH   1   2
ATOM      2  C   UNL     1     190.946 195.113  82.936  1.00  0.00     0.237 C 
BRANCH   2   3
ATOM      3  N   UNL     1     189.945 196.098  83.362  1.00  0.00    -0.350 N 
ATOM      4  H   UNL     1     189.097 196.052  82.752  1.00  0.00     0.345 HD
ATOM      5  H   UNL     1     190.352 197.061  83.311  1.00  0.00     0.345 HD
ATOM      6  H   UNL     1     189.667 195.915  84.354  1.00  0.00     0.345 HD
ENDBRANCH   2   3
BRANCH   2   7
ATOM      7  C   UNL     1     190.930 193.925  83.864  1.00  0.00     0.100 C 
ATOM      8  O   UNL     1     191.986 193.276  84.080  1.00  0.00    -0.544 OA
ATOM      9  O   UNL     1     189.745 193.530  84.476  1.00  0.00    -0.544 OA
ENDBRANCH   2   7
ENDBRANCH   1   2
BRANCH   1  10
ATOM     10  C   UNL     1     191.948 194.682  80.667  1.00  0.00     0.223 C 
ATOM     11  O   UNL     1     191.981 195.293  79.565  1.00  0.00    -0.275 OA
ATOM     12  N   UNL     1     193.125 194.034  81.150  1.00  0.00    -0.369 N 
ATOM     13  H   UNL     1     194.005 194.054  80.589  1.00  0.00     0.159 HD
ATOM     14  H   UNL     1     193.123 193.540  82.070  1.00  0.00     0.159 HD
ENDBRANCH   1  10
TORSDOF 4
ENDMDL
MODEL 5
REMARK VINA RESULT:    -3.937     17.594     18.201
REMARK INTER + INTRA:          -5.103
REMARK INTER:                  -4.675
REMARK INTRA:                  -0.428
REMARK UNBOUND:                -0.361
REMARK SMILES NC(=O)C[C@@H]([NH3+])C(=O)[O-]
REMARK SMILES IDX 4 1 5 2 6 3 7 7 8 8 9 9 2 10 3 11 1 12
REMARK H PARENT 6 4 6 5 6 6 1 13 1 14
REMARK Flexibility Score: inf
ROOT
ATOM      1  C   UNL     1     186.435 208.063  93.328  1.00  0.00     0.171 C 
ENDROOT
BRANCH   1   2
ATOM      2  C   UNL     1     186.787 208.389  94.793  1.00  0.00     0.237 C 
BRANCH   2   3
ATOM      3  N   UNL     1     185.592 208.292  95.641  1.00  0.00    -0.350 N 
ATOM      4  H   UNL     1     185.227 209.244  95.874  1.00  0.00     0.345 HD
ATOM      5  H   UNL     1     185.827 207.788  96.527  1.00  0.00     0.345 HD
ATOM      6  H   UNL     1     184.848 207.749  95.145  1.00  0.00     0.345 HD
ENDBRANCH   2   3
BRANCH   2   7
ATOM      7  C   UNL     1     187.861 207.463  95.307  1.00  0.00     0.100 C 
ATOM      8  O   UNL     1     188.942 207.932  95.750  1.00  0.00    -0.544 OA
ATOM      9  O   UNL     1     187.670 206.087  95.283  1.00  0.00    -0.544 OA
ENDBRANCH   2   7
ENDBRANCH   1   2
BRANCH   1  10
ATOM     10  C   UNL     1     185.105 207.376  93.217  1.00  0.00     0.223 C 
ATOM     11  O   UNL     1     184.075 208.047  92.942  1.00  0.00    -0.275 OA
ATOM     12  N   UNL     1     185.004 205.961  93.382  1.00  0.00    -0.369 N 
ATOM     13  H   UNL     1     184.079 205.486  93.290  1.00  0.00     0.159 HD
ATOM     14  H   UNL     1     185.850 205.386  93.592  1.00  0.00     0.159 HD
ENDBRANCH   1  10
TORSDOF 4
ENDMDL
MODEL 6
REMARK VINA RESULT:    -3.872     17.835     18.413
REMARK INTER + INTRA:          -5.026
REMARK INTER:                  -4.753
REMARK INTRA:                  -0.273
REMARK UNBOUND:                -0.361
REMARK SMILES NC(=O)C[C@@H]([NH3+])C(=O)[O-]
REMARK SMILES IDX 4 1 5 2 6 3 7 7 8 8 9 9 2 10 3 11 1 12
REMARK H PARENT 6 4 6 5 6 6 1 13 1 14
REMARK Flexibility Score: inf
ROOT
ATOM      1  C   UNL     1     185.858 208.319  93.830  1.00  0.00     0.171 C 
ENDROOT
BRANCH   1   2
ATOM      2  C   UNL     1     184.884 207.171  94.163  1.00  0.00     0.237 C 
BRANCH   2   3
ATOM      3  N   UNL     1     184.661 206.329  92.982  1.00  0.00    -0.350 N 
ATOM      4  H   UNL     1     185.567 206.105  92.511  1.00  0.00     0.345 HD
ATOM      5  H   UNL     1     184.037 206.827  92.305  1.00  0.00     0.345 HD
ATOM      6  H   UNL     1     184.190 205.439  93.264  1.00  0.00     0.345 HD
ENDBRANCH   2   3
BRANCH   2   7
ATOM      7  C   UNL     1     185.409 206.334  95.302  1.00  0.00     0.100 C 
ATOM      8  O   UNL     1     184.618 205.647  96.000  1.00  0.00    -0.544 OA
ATOM      9  O   UNL     1     186.768 206.326  95.598  1.00  0.00    -0.544 OA
ENDBRANCH   2   7
ENDBRANCH   1   2
BRANCH   1  10
ATOM     10  C   UNL     1     185.380 209.127  92.658  1.00  0.00     0.223 C 
ATOM     11  O   UNL     1     184.147 209.209  92.415  1.00  0.00    -0.275 OA
ATOM     12  N   UNL     1     186.311 209.836  91.839  1.00  0.00    -0.369 N 
ATOM     13  H   UNL     1     185.973 210.409  91.034  1.00  0.00     0.159 HD
ATOM     14  H   UNL     1     187.335 209.795  92.037  1.00  0.00     0.159 HD
ENDBRANCH   1  10
TORSDOF 4
ENDMDL
MODEL 7
REMARK VINA RESULT:    -3.863     17.610     17.963
REMARK INTER + INTRA:          -5.015
REMARK INTER:                  -4.699
REMARK INTRA:                  -0.316
REMARK UNBOUND:                -0.361
REMARK SMILES NC(=O)C[C@@H]([NH3+])C(=O)[O-]
REMARK SMILES IDX 4 1 5 2 6 3 7 7 8 8 9 9 2 10 3 11 1 12
REMARK H PARENT 6 4 6 5 6 6 1 13 1 14
REMARK Flexibility Score: inf
ROOT
ATOM      1  C   UNL     1     185.668 207.074  93.815  1.00  0.00     0.171 C 
ENDROOT
BRANCH   1   2
ATOM      2  C   UNL     1     185.988 208.581  93.751  1.00  0.00     0.237 C 
BRANCH   2   3
ATOM      3  N   UNL     1     186.713 209.004  94.955  1.00  0.00    -0.350 N 
ATOM      4  H   UNL     1     187.395 208.269  95.253  1.00  0.00     0.345 HD
ATOM      5  H   UNL     1     186.036 209.179  95.734  1.00  0.00     0.345 HD
ATOM      6  H   UNL     1     187.228 209.894  94.765  1.00  0.00     0.345 HD
ENDBRANCH   2   3
BRANCH   2   7
ATOM      7  C   UNL     1     186.795 208.908  92.520  1.00  0.00     0.100 C 
ATOM      8  O   UNL     1     187.936 208.401  92.359  1.00  0.00    -0.544 OA
ATOM      9  O   UNL     1     186.292 209.781  91.563  1.00  0.00    -0.544 OA
ENDBRANCH   2   7
ENDBRANCH   1   2
BRANCH   1  10
ATOM     10  C   UNL     1     186.223 206.444  95.060  1.00  0.00     0.223 C 
ATOM     11  O   UNL     1     187.469 206.313  95.194  1.00  0.00    -0.275 OA
ATOM     12  N   UNL     1     185.351 206.028  96.112  1.00  0.00    -0.369 N 
ATOM     13  H   UNL     1     185.742 205.604  96.982  1.00  0.00     0.159 HD
ATOM     14  H   UNL     1     184.317 206.147  96.027  1.00  0.00     0.159 HD
ENDBRANCH   1  10
TORSDOF 4
ENDMDL
MODEL 8
REMARK VINA RESULT:    -3.815      2.221      3.029
REMARK INTER + INTRA:          -4.957
REMARK INTER:                  -4.650
REMARK INTRA:                  -0.307
REMARK UNBOUND:                -0.361
REMARK SMILES NC(=O)C[C@@H]([NH3+])C(=O)[O-]
REMARK SMILES IDX 4 1 5 2 6 3 7 7 8 8 9 9 2 10 3 11 1 12
REMARK H PARENT 6 4 6 5 6 6 1 13 1 14
REMARK Flexibility Score: inf
ROOT
ATOM      1  C   UNL     1     191.960 196.016  81.984  1.00  0.00     0.171 C 
ENDROOT
BRANCH   1   2
ATOM      2  C   UNL     1     192.207 195.096  80.772  1.00  0.00     0.237 C 
BRANCH   2   3
ATOM      3  N   UNL     1     193.125 194.009  81.133  1.00  0.00    -0.350 N 
ATOM      4  H   UNL     1     193.925 193.962  80.461  1.00  0.00     0.345 HD
ATOM      5  H   UNL     1     192.614 193.095  81.122  1.00  0.00     0.345 HD
ATOM      6  H   UNL     1     193.495 194.163  82.099  1.00  0.00     0.345 HD
ENDBRANCH   2   3
BRANCH   2   7
ATOM      7  C   UNL     1     190.910 194.527  80.255  1.00  0.00     0.100 C 
ATOM      8  O   UNL     1     189.910 195.274  80.093  1.00  0.00    -0.544 OA
ATOM      9  O   UNL     1     190.805 193.171  79.968  1.00  0.00    -0.544 OA
ENDBRANCH   2   7
ENDBRANCH   1   2
BRANCH   1  10
ATOM     10  C   UNL     1     191.063 195.367  82.998  1.00  0.00     0.223 C 
ATOM     11  O   UNL     1     191.465 194.356  83.633  1.00  0.00    -0.275 OA
ATOM     12  N   UNL     1     189.773 195.911  83.278  1.00  0.00    -0.369 N 
ATOM     13  H   UNL     1     189.159 195.465  83.996  1.00  0.00     0.159 HD
ATOM     14  H   UNL     1     189.430 196.760  82.776  1.00  0.00     0.159 HD
ENDBRANCH   1  10
TORSDOF 4
ENDMDL
