MODEL 1
REMARK VINA RESULT:    -5.069      0.000      0.000
REMARK INTER + INTRA:          -7.450
REMARK INTER:                  -7.143
REMARK INTRA:                  -0.307
REMARK UNBOUND:                -0.307
REMARK SMILES CCCCCCCCC(=O)[O-]
REMARK SMILES IDX 6 1 7 2 8 3 9 4 10 5 11 6 5 7 4 8 3 9 2 10 1 11
REMARK H PARENT
REMARK Flexibility Score: inf
ROOT
ATOM      1  C   UNL     1      62.101 151.817   3.504  1.00  0.00     0.000 C 
ENDROOT
BRANCH   1   2
ATOM      2  C   UNL     1      61.391 151.860   2.146  1.00  0.00     0.006 C 
BRANCH   2   3
ATOM      3  C   UNL     1      60.135 152.734   2.211  1.00  0.00     0.053 C 
BRANCH   3   4
ATOM      4  C   UNL     1      60.120 153.714   1.080  1.00  0.00     0.041 C 
ATOM      5  O   UNL     1      61.164 153.921   0.408  1.00  0.00    -0.550 OA
ATOM      6  O   UNL     1      58.965 154.433   0.798  1.00  0.00    -0.550 OA
ENDBRANCH   3   4
ENDBRANCH   2   3
ENDBRANCH   1   2
BRANCH   1   7
ATOM      7  C   UNL     1      63.610 151.587   3.328  1.00  0.00     0.000 C 
BRANCH   7   8
ATOM      8  C   UNL     1      64.438 152.196   4.470  1.00  0.00    -0.000 C 
BRANCH   8   9
ATOM      9  C   UNL     1      65.189 151.131   5.289  1.00  0.00    -0.000 C 
BRANCH   9  10
ATOM     10  C   UNL     1      64.913 149.703   4.793  1.00  0.00    -0.003 C 
ATOM     11  C   UNL     1      63.981 148.927   5.724  1.00  0.00     0.004 C 
ENDBRANCH   9  10
ENDBRANCH   8   9
ENDBRANCH   7   8
ENDBRANCH   1   7
TORSDOF 7
ENDMDL
MODEL 2
REMARK VINA RESULT:    -4.957      3.529      6.404
REMARK INTER + INTRA:          -7.292
REMARK INTER:                  -7.087
REMARK INTRA:                  -0.205
REMARK UNBOUND:                -0.307
REMARK SMILES CCCCCCCCC(=O)[O-]
REMARK SMILES IDX 6 1 7 2 8 3 9 4 10 5 11 6 5 7 4 8 3 9 2 10 1 11
REMARK H PARENT
REMARK Flexibility Score: inf
ROOT
ATOM      1  C   UNL     1      62.951 151.563   4.006  1.00  0.00     0.000 C 
ENDROOT
BRANCH   1   2
ATOM      2  C   UNL     1      64.446 151.875   4.141  1.00  0.00     0.006 C 
BRANCH   2   3
ATOM      3  C   UNL     1      65.083 151.039   5.255  1.00  0.00     0.053 C 
BRANCH   3   4
ATOM      4  C   UNL     1      64.891 149.579   4.989  1.00  0.00     0.041 C 
ATOM      5  O   UNL     1      64.375 148.838   5.865  1.00  0.00    -0.550 OA
ATOM      6  O   UNL     1      65.328 149.028   3.790  1.00  0.00    -0.550 OA
ENDBRANCH   3   4
ENDBRANCH   2   3
ENDBRANCH   1   2
BRANCH   1   7
ATOM      7  C   UNL     1      62.447 151.887   2.591  1.00  0.00     0.000 C 
BRANCH   7   8
ATOM      8  C   UNL     1      60.914 151.937   2.507  1.00  0.00    -0.000 C 
BRANCH   8   9
ATOM      9  C   UNL     1      60.407 153.084   1.615  1.00  0.00    -0.000 C 
BRANCH   9  10
ATOM     10  C   UNL     1      58.988 153.538   1.989  1.00  0.00    -0.003 C 
ATOM     11  C   UNL     1      58.537 154.769   1.203  1.00  0.00     0.004 C 
ENDBRANCH   9  10
ENDBRANCH   8   9
ENDBRANCH   7   8
ENDBRANCH   1   7
TORSDOF 7
ENDMDL
MODEL 3
REMARK VINA RESULT:    -4.928      3.591      5.585
REMARK INTER + INTRA:          -7.251
REMARK INTER:                  -6.736
REMARK INTRA:                  -0.515
REMARK UNBOUND:                -0.307
REMARK SMILES CCCCCCCCC(=O)[O-]
REMARK SMILES IDX 6 1 7 2 8 3 9 4 10 5 11 6 5 7 4 8 3 9 2 10 1 11
REMARK H PARENT
REMARK Flexibility Score: inf
ROOT
ATOM      1  C   UNL     1      64.950 149.802   4.662  1.00  0.00     0.000 C 
ENDROOT
BRANCH   1   2
ATOM      2  C   UNL     1      64.372 148.886   5.748  1.00  0.00     0.006 C 
BRANCH   2   3
ATOM      3  C   UNL     1      62.955 149.319   6.133  1.00  0.00     0.053 C 
BRANCH   3   4
ATOM      4  C   UNL     1      61.969 148.248   5.786  1.00  0.00     0.041 C 
ATOM      5  O   UNL     1      60.786 148.314   6.209  1.00  0.00    -0.550 OA
ATOM      6  O   UNL     1      62.371 147.151   5.033  1.00  0.00    -0.550 OA
ENDBRANCH   3   4
ENDBRANCH   2   3
ENDBRANCH   1   2
BRANCH   1   7
ATOM      7  C   UNL     1      65.015 151.259   5.148  1.00  0.00     0.000 C 
BRANCH   7   8
ATOM      8  C   UNL     1      64.225 152.219   4.246  1.00  0.00    -0.000 C 
BRANCH   8   9
ATOM      9  C   UNL     1      63.431 151.484   3.152  1.00  0.00    -0.000 C 
BRANCH   9  10
ATOM     10  C   UNL     1      61.914 151.689   3.287  1.00  0.00    -0.003 C 
ATOM     11  C   UNL     1      61.285 152.285   2.028  1.00  0.00     0.004 C 
ENDBRANCH   9  10
ENDBRANCH   8   9
ENDBRANCH   7   8
ENDBRANCH   1   7
TORSDOF 7
ENDMDL
MODEL 4
REMARK VINA RESULT:    -4.899      3.550      6.001
REMARK INTER + INTRA:          -7.211
REMARK INTER:                  -6.848
REMARK INTRA:                  -0.362
REMARK UNBOUND:                -0.307
REMARK SMILES CCCCCCCCC(=O)[O-]
REMARK SMILES IDX 6 1 7 2 8 3 9 4 10 5 11 6 5 7 4 8 3 9 2 10 1 11
REMARK H PARENT
REMARK Flexibility Score: inf
ROOT
ATOM      1  C   UNL     1      64.683 151.355   4.596  1.00  0.00     0.000 C 
ENDROOT
BRANCH   1   2
ATOM      2  C   UNL     1      65.031 149.886   4.331  1.00  0.00     0.006 C 
BRANCH   2   3
ATOM      3  C   UNL     1      64.912 149.054   5.612  1.00  0.00     0.053 C 
BRANCH   3   4
ATOM      4  C   UNL     1      63.474 148.847   5.969  1.00  0.00     0.041 C 
ATOM      5  O   UNL     1      62.756 148.075   5.283  1.00  0.00    -0.550 OA
ATOM      6  O   UNL     1      62.915 149.544   7.033  1.00  0.00    -0.550 OA
ENDBRANCH   3   4
ENDBRANCH   2   3
ENDBRANCH   1   2
BRANCH   1   7
ATOM      7  C   UNL     1      63.840 151.936   3.450  1.00  0.00     0.000 C 
BRANCH   7   8
ATOM      8  C   UNL     1      62.370 151.496   3.515  1.00  0.00    -0.000 C 
BRANCH   8   9
ATOM      9  C   UNL     1      61.566 151.933   2.278  1.00  0.00    -0.000 C 
BRANCH   9  10
ATOM     10  C   UNL     1      60.232 152.598   2.648  1.00  0.00    -0.003 C 
ATOM     11  C   UNL     1      59.680 153.478   1.526  1.00  0.00     0.004 C 
ENDBRANCH   9  10
ENDBRANCH   8   9
ENDBRANCH   7   8
ENDBRANCH   1   7
TORSDOF 7
ENDMDL
MODEL 5
REMARK VINA RESULT:    -4.881      1.174      1.775
REMARK INTER + INTRA:          -7.186
REMARK INTER:                  -6.675
REMARK INTRA:                  -0.511
REMARK UNBOUND:                -0.307
REMARK SMILES CCCCCCCCC(=O)[O-]
REMARK SMILES IDX 6 1 7 2 8 3 9 4 10 5 11 6 5 7 4 8 3 9 2 10 1 11
REMARK H PARENT
REMARK Flexibility Score: inf
ROOT
ATOM      1  C   UNL     1      63.564 151.522   3.250  1.00  0.00     0.000 C 
ENDROOT
BRANCH   1   2
ATOM      2  C   UNL     1      62.072 151.713   3.548  1.00  0.00     0.006 C 
BRANCH   2   3
ATOM      3  C   UNL     1      61.282 151.953   2.258  1.00  0.00     0.053 C 
BRANCH   3   4
ATOM      4  C   UNL     1      60.098 152.829   2.526  1.00  0.00     0.041 C 
ATOM      5  O   UNL     1      59.721 153.041   3.708  1.00  0.00    -0.550 OA
ATOM      6  O   UNL     1      59.381 153.372   1.466  1.00  0.00    -0.550 OA
ENDBRANCH   3   4
ENDBRANCH   2   3
ENDBRANCH   1   2
BRANCH   1   7
ATOM      7  C   UNL     1      64.430 152.259   4.284  1.00  0.00     0.000 C 
BRANCH   7   8
ATOM      8  C   UNL     1      64.910 151.339   5.417  1.00  0.00    -0.000 C 
BRANCH   8   9
ATOM      9  C   UNL     1      65.072 149.878   4.964  1.00  0.00    -0.000 C 
BRANCH   9  10
ATOM     10  C   UNL     1      64.207 148.908   5.784  1.00  0.00    -0.003 C 
ATOM     11  C   UNL     1      63.073 149.614   6.527  1.00  0.00     0.004 C 
ENDBRANCH   9  10
ENDBRANCH   8   9
ENDBRANCH   7   8
ENDBRANCH   1   7
TORSDOF 7
ENDMDL
MODEL 6
REMARK VINA RESULT:    -4.825      4.253      5.042
REMARK INTER + INTRA:          -7.107
REMARK INTER:                  -6.363
REMARK INTRA:                  -0.744
REMARK UNBOUND:                -0.307
REMARK SMILES CCCCCCCCC(=O)[O-]
REMARK SMILES IDX 6 1 7 2 8 3 9 4 10 5 11 6 5 7 4 8 3 9 2 10 1 11
REMARK H PARENT
REMARK Flexibility Score: inf
ROOT
ATOM      1  C   UNL     1      62.490 151.588   5.751  1.00  0.00     0.000 C 
ENDROOT
BRANCH   1   2
ATOM      2  C   UNL     1      61.851 150.350   6.391  1.00  0.00     0.006 C 
BRANCH   2   3
ATOM      3  C   UNL     1      61.506 149.300   5.330  1.00  0.00     0.053 C 
BRANCH   3   4
ATOM      4  C   UNL     1      61.563 147.925   5.918  1.00  0.00     0.041 C 
ATOM      5  O   UNL     1      62.298 147.045   5.400  1.00  0.00    -0.550 OA
ATOM      6  O   UNL     1      60.766 147.602   7.010  1.00  0.00    -0.550 OA
ENDBRANCH   3   4
ENDBRANCH   2   3
ENDBRANCH   1   2
BRANCH   1   7
ATOM      7  C   UNL     1      62.170 151.659   4.250  1.00  0.00     0.000 C 
BRANCH   7   8
ATOM      8  C   UNL     1      63.433 151.695   3.377  1.00  0.00    -0.000 C 
BRANCH   8   9
ATOM      9  C   UNL     1      64.705 151.331   4.161  1.00  0.00    -0.000 C 
BRANCH   9  10
ATOM     10  C   UNL     1      65.067 149.843   4.037  1.00  0.00    -0.003 C 
ATOM     11  C   UNL     1      65.296 149.177   5.395  1.00  0.00     0.004 C 
ENDBRANCH   9  10
ENDBRANCH   8   9
ENDBRANCH   7   8
ENDBRANCH   1   7
TORSDOF 7
ENDMDL
MODEL 7
REMARK VINA RESULT:    -4.811      1.332      2.245
REMARK INTER + INTRA:          -7.087
REMARK INTER:                  -6.772
REMARK INTRA:                  -0.314
REMARK UNBOUND:                -0.307
REMARK SMILES CCCCCCCCC(=O)[O-]
REMARK SMILES IDX 6 1 7 2 8 3 9 4 10 5 11 6 5 7 4 8 3 9 2 10 1 11
REMARK H PARENT
REMARK Flexibility Score: inf
ROOT
ATOM      1  C   UNL     1      61.495 152.312   1.937  1.00  0.00     0.000 C 
ENDROOT
BRANCH   1   2
ATOM      2  C   UNL     1      60.457 153.281   1.359  1.00  0.00     0.006 C 
BRANCH   2   3
ATOM      3  C   UNL     1      59.134 153.189   2.125  1.00  0.00     0.053 C 
BRANCH   3   4
ATOM      4  C   UNL     1      58.446 154.518   2.142  1.00  0.00     0.041 C 
ATOM      5  O   UNL     1      58.150 155.092   1.062  1.00  0.00    -0.550 OA
ATOM      6  O   UNL     1      58.175 155.144   3.352  1.00  0.00    -0.550 OA
ENDBRANCH   3   4
ENDBRANCH   2   3
ENDBRANCH   1   2
BRANCH   1   7
ATOM      7  C   UNL     1      61.130 151.907   3.374  1.00  0.00     0.000 C 
BRANCH   7   8
ATOM      8  C   UNL     1      62.322 151.320   4.144  1.00  0.00    -0.000 C 
BRANCH   8   9
ATOM      9  C   UNL     1      63.668 151.599   3.453  1.00  0.00    -0.000 C 
BRANCH   9  10
ATOM     10  C   UNL     1      64.843 151.627   4.443  1.00  0.00    -0.003 C 
ATOM     11  C   UNL     1      64.999 150.313   5.209  1.00  0.00     0.004 C 
ENDBRANCH   9  10
ENDBRANCH   8   9
ENDBRANCH   7   8
ENDBRANCH   1   7
TORSDOF 7
ENDMDL
MODEL 8
REMARK VINA RESULT:    -4.662      4.354      5.678
REMARK INTER + INTRA:          -6.877
REMARK INTER:                  -6.337
REMARK INTRA:                  -0.540
REMARK UNBOUND:                -0.307
REMARK SMILES CCCCCCCCC(=O)[O-]
REMARK SMILES IDX 6 1 7 2 8 3 9 4 10 5 11 6 5 7 4 8 3 9 2 10 1 11
REMARK H PARENT
REMARK Flexibility Score: inf
ROOT
ATOM      1  C   UNL     1      63.121 149.648   6.529  1.00  0.00     0.000 C 
ENDROOT
BRANCH   1   2
ATOM      2  C   UNL     1      61.673 149.555   6.033  1.00  0.00     0.006 C 
BRANCH   2   3
ATOM      3  C   UNL     1      61.171 148.108   6.074  1.00  0.00     0.053 C 
BRANCH   3   4
ATOM      4  C   UNL     1      60.033 147.977   7.037  1.00  0.00     0.041 C 
ATOM      5  O   UNL     1      59.974 146.992   7.817  1.00  0.00    -0.550 OA
ATOM      6  O   UNL     1      59.012 148.920   7.039  1.00  0.00    -0.550 OA
ENDBRANCH   3   4
ENDBRANCH   2   3
ENDBRANCH   1   2
BRANCH   1   7
ATOM      7  C   UNL     1      64.062 148.820   5.640  1.00  0.00     0.000 C 
BRANCH   7   8
ATOM      8  C   UNL     1      65.059 149.691   4.862  1.00  0.00    -0.000 C 
BRANCH   8   9
ATOM      9  C   UNL     1      65.111 151.138   5.380  1.00  0.00    -0.000 C 
BRANCH   9  10
ATOM     10  C   UNL     1      64.777 152.167   4.289  1.00  0.00    -0.003 C 
ATOM     11  C   UNL     1      63.597 151.740   3.417  1.00  0.00     0.004 C 
ENDBRANCH   9  10
ENDBRANCH   8   9
ENDBRANCH   7   8
ENDBRANCH   1   7
TORSDOF 7
ENDMDL
MODEL 9
REMARK VINA RESULT:    -4.489      3.223      4.280
REMARK INTER + INTRA:          -6.632
REMARK INTER:                  -5.835
REMARK INTRA:                  -0.797
REMARK UNBOUND:                -0.307
REMARK SMILES CCCCCCCCC(=O)[O-]
REMARK SMILES IDX 6 1 7 2 8 3 9 4 10 5 11 6 5 7 4 8 3 9 2 10 1 11
REMARK H PARENT
REMARK Flexibility Score: inf
ROOT
ATOM      1  C   UNL     1      62.726 149.430   5.619  1.00  0.00     0.000 C 
ENDROOT
BRANCH   1   2
ATOM      2  C   UNL     1      62.403 150.126   6.947  1.00  0.00     0.006 C 
BRANCH   2   3
ATOM      3  C   UNL     1      61.114 150.946   6.837  1.00  0.00     0.053 C 
BRANCH   3   4
ATOM      4  C   UNL     1      61.347 152.180   6.024  1.00  0.00     0.041 C 
ATOM      5  O   UNL     1      60.904 152.257   4.849  1.00  0.00    -0.550 OA
ATOM      6  O   UNL     1      62.095 153.227   6.549  1.00  0.00    -0.550 OA
ENDBRANCH   3   4
ENDBRANCH   2   3
ENDBRANCH   1   2
BRANCH   1   7
ATOM      7  C   UNL     1      64.181 148.936   5.596  1.00  0.00     0.000 C 
BRANCH   7   8
ATOM      8  C   UNL     1      65.103 149.849   4.775  1.00  0.00    -0.000 C 
BRANCH   8   9
ATOM      9  C   UNL     1      64.323 150.819   3.871  1.00  0.00    -0.000 C 
BRANCH   9  10
ATOM     10  C   UNL     1      64.622 152.292   4.192  1.00  0.00    -0.003 C 
ATOM     11  C   UNL     1      65.385 152.466   5.505  1.00  0.00     0.004 C 
ENDBRANCH   9  10
ENDBRANCH   8   9
ENDBRANCH   7   8
ENDBRANCH   1   7
TORSDOF 7
ENDMDL
