MODEL 1
REMARK VINA RESULT:    -4.325      0.000      0.000
REMARK INTER + INTRA:          -4.887
REMARK INTER:                  -4.830
REMARK INTRA:                  -0.057
REMARK UNBOUND:                -0.057
REMARK SMILES COc1ccc(C(=O)[O-])cc1
REMARK SMILES IDX 6 1 5 2 10 3 4 4 11 5 3 6 7 7 8 8 9 9 2 10 1 11
REMARK H PARENT
REMARK Flexibility Score: inf
ROOT
ATOM      1  C   UNL     1       7.901   9.904  16.098  1.00  0.00    -0.003 A 
ATOM      2  C   UNL     1       6.924  10.381  16.987  1.00  0.00     0.014 A 
ATOM      3  C   UNL     1       9.048   9.280  16.617  1.00  0.00     0.014 A 
ATOM      4  C   UNL     1       7.091  10.236  18.368  1.00  0.00     0.047 A 
ATOM      5  C   UNL     1       9.214   9.134  17.999  1.00  0.00     0.047 A 
ATOM      6  C   UNL     1       8.232   9.614  18.886  1.00  0.00     0.118 A 
ENDROOT
BRANCH   1   7
ATOM      7  C   UNL     1       7.721  10.060  14.638  1.00  0.00     0.071 C 
ATOM      8  O   UNL     1       7.686   9.050  13.885  1.00  0.00    -0.545 OA
ATOM      9  O   UNL     1       7.589  11.324  14.074  1.00  0.00    -0.545 OA
ENDBRANCH   1   7
BRANCH   6  10
ATOM     10  O   UNL     1       8.351   9.492  20.278  1.00  0.00    -0.497 OA
ATOM     11  C   UNL     1       8.332  10.591  21.185  1.00  0.00     0.278 C 
ENDBRANCH   6  10
TORSDOF 2
ENDMDL
MODEL 2
REMARK VINA RESULT:    -4.298      0.089      1.462
REMARK INTER + INTRA:          -4.857
REMARK INTER:                  -4.802
REMARK INTRA:                  -0.055
REMARK UNBOUND:                -0.057
REMARK SMILES COc1ccc(C(=O)[O-])cc1
REMARK SMILES IDX 6 1 5 2 10 3 4 4 11 5 3 6 7 7 8 8 9 9 2 10 1 11
REMARK H PARENT
REMARK Flexibility Score: inf
ROOT
ATOM      1  C   UNL     1       7.837   9.942  16.071  1.00  0.00    -0.003 A 
ATOM      2  C   UNL     1       8.992   9.347  16.604  1.00  0.00     0.014 A 
ATOM      3  C   UNL     1       6.833  10.388  16.949  1.00  0.00     0.014 A 
ATOM      4  C   UNL     1       9.141   9.203  17.987  1.00  0.00     0.047 A 
ATOM      5  C   UNL     1       6.984  10.243  18.332  1.00  0.00     0.047 A 
ATOM      6  C   UNL     1       8.144   9.647  18.862  1.00  0.00     0.118 A 
ENDROOT
BRANCH   1   7
ATOM      7  C   UNL     1       7.683  10.093  14.608  1.00  0.00     0.071 C 
ATOM      8  O   UNL     1       7.741   9.088  13.849  1.00  0.00    -0.545 OA
ATOM      9  O   UNL     1       7.472  11.348  14.047  1.00  0.00    -0.545 OA
ENDBRANCH   1   7
BRANCH   6  10
ATOM     10  O   UNL     1       8.341   9.479  20.240  1.00  0.00    -0.497 OA
ATOM     11  C   UNL     1       8.383  10.547  21.182  1.00  0.00     0.278 C 
ENDBRANCH   6  10
TORSDOF 2
ENDMDL
MODEL 3
REMARK VINA RESULT:    -4.181      7.850      8.097
REMARK INTER + INTRA:          -4.727
REMARK INTER:                  -4.657
REMARK INTRA:                  -0.070
REMARK UNBOUND:                -0.057
REMARK SMILES COc1ccc(C(=O)[O-])cc1
REMARK SMILES IDX 6 1 5 2 10 3 4 4 11 5 3 6 7 7 8 8 9 9 2 10 1 11
REMARK H PARENT
REMARK Flexibility Score: inf
ROOT
ATOM      1  C   UNL     1       7.152   2.415  19.018  1.00  0.00    -0.003 A 
ATOM      2  C   UNL     1       8.509   2.384  19.381  1.00  0.00     0.014 A 
ATOM      3  C   UNL     1       6.191   2.713  19.999  1.00  0.00     0.014 A 
ATOM      4  C   UNL     1       8.896   2.647  20.698  1.00  0.00     0.047 A 
ATOM      5  C   UNL     1       6.580   2.977  21.317  1.00  0.00     0.047 A 
ATOM      6  C   UNL     1       7.941   2.945  21.676  1.00  0.00     0.118 A 
ENDROOT
BRANCH   1   7
ATOM      7  C   UNL     1       6.746   2.135  17.623  1.00  0.00     0.071 C 
ATOM      8  O   UNL     1       5.526   2.053  17.315  1.00  0.00    -0.545 OA
ATOM      9  O   UNL     1       7.704   1.959  16.631  1.00  0.00    -0.545 OA
ENDBRANCH   1   7
BRANCH   6  10
ATOM     10  O   UNL     1       8.381   3.202  22.982  1.00  0.00    -0.497 OA
ATOM     11  C   UNL     1       9.657   2.822  23.489  1.00  0.00     0.278 C 
ENDBRANCH   6  10
TORSDOF 2
ENDMDL
MODEL 4
REMARK VINA RESULT:    -4.148      9.801     12.180
REMARK INTER + INTRA:          -4.689
REMARK INTER:                  -4.620
REMARK INTRA:                  -0.069
REMARK UNBOUND:                -0.057
REMARK SMILES COc1ccc(C(=O)[O-])cc1
REMARK SMILES IDX 6 1 5 2 10 3 4 4 11 5 3 6 7 7 8 8 9 9 2 10 1 11
REMARK H PARENT
REMARK Flexibility Score: inf
ROOT
ATOM      1  C   UNL     1      14.340  10.335   8.906  1.00  0.00    -0.003 A 
ATOM      2  C   UNL     1      14.506   8.988   8.545  1.00  0.00     0.014 A 
ATOM      3  C   UNL     1      13.915  11.254   7.931  1.00  0.00     0.014 A 
ATOM      4  C   UNL     1      14.251   8.568   7.236  1.00  0.00     0.047 A 
ATOM      5  C   UNL     1      13.659  10.833   6.621  1.00  0.00     0.047 A 
ATOM      6  C   UNL     1      13.827   9.481   6.264  1.00  0.00     0.118 A 
ENDROOT
BRANCH   1   7
ATOM      7  C   UNL     1      14.611  10.776  10.292  1.00  0.00     0.071 C 
ATOM      8  O   UNL     1      14.549  11.996  10.600  1.00  0.00    -0.545 OA
ATOM      9  O   UNL     1      14.939   9.849  11.275  1.00  0.00    -0.545 OA
ENDBRANCH   1   7
BRANCH   6  10
ATOM     10  O   UNL     1      13.584   9.010   4.966  1.00  0.00    -0.497 OA
ATOM     11  C   UNL     1      14.236   7.885   4.385  1.00  0.00     0.278 C 
ENDBRANCH   6  10
TORSDOF 2
ENDMDL
MODEL 5
REMARK VINA RESULT:    -4.128      9.825     12.144
REMARK INTER + INTRA:          -4.667
REMARK INTER:                  -4.602
REMARK INTRA:                  -0.065
REMARK UNBOUND:                -0.057
REMARK SMILES COc1ccc(C(=O)[O-])cc1
REMARK SMILES IDX 6 1 5 2 10 3 4 4 11 5 3 6 7 7 8 8 9 9 2 10 1 11
REMARK H PARENT
REMARK Flexibility Score: inf
ROOT
ATOM      1  C   UNL     1      14.347  10.294   8.885  1.00  0.00    -0.003 A 
ATOM      2  C   UNL     1      13.871  11.194   7.917  1.00  0.00     0.014 A 
ATOM      3  C   UNL     1      14.552   8.951   8.525  1.00  0.00     0.014 A 
ATOM      4  C   UNL     1      13.607  10.759   6.615  1.00  0.00     0.047 A 
ATOM      5  C   UNL     1      14.288   8.517   7.221  1.00  0.00     0.047 A 
ATOM      6  C   UNL     1      13.811   9.423   6.254  1.00  0.00     0.118 A 
ENDROOT
BRANCH   1   7
ATOM      7  C   UNL     1      14.626  10.758  10.262  1.00  0.00     0.071 C 
ATOM      8  O   UNL     1      14.606  11.986  10.542  1.00  0.00    -0.545 OA
ATOM      9  O   UNL     1      14.914   9.843  11.269  1.00  0.00    -0.545 OA
ENDBRANCH   1   7
BRANCH   6  10
ATOM     10  O   UNL     1      13.531   9.037   4.936  1.00  0.00    -0.497 OA
ATOM     11  C   UNL     1      14.126   7.920   4.281  1.00  0.00     0.278 C 
ENDBRANCH   6  10
TORSDOF 2
ENDMDL
MODEL 6
REMARK VINA RESULT:    -4.099      6.945      7.950
REMARK INTER + INTRA:          -4.635
REMARK INTER:                  -4.580
REMARK INTRA:                  -0.055
REMARK UNBOUND:                -0.057
REMARK SMILES COc1ccc(C(=O)[O-])cc1
REMARK SMILES IDX 6 1 5 2 10 3 4 4 11 5 3 6 7 7 8 8 9 9 2 10 1 11
REMARK H PARENT
REMARK Flexibility Score: inf
ROOT
ATOM      1  C   UNL     1       8.716   2.866  19.577  1.00  0.00    -0.003 A 
ATOM      2  C   UNL     1       9.145   4.203  19.609  1.00  0.00     0.014 A 
ATOM      3  C   UNL     1       9.348   1.928  20.412  1.00  0.00     0.014 A 
ATOM      4  C   UNL     1      10.184   4.594  20.458  1.00  0.00     0.047 A 
ATOM      5  C   UNL     1      10.388   2.320  21.262  1.00  0.00     0.047 A 
ATOM      6  C   UNL     1      10.814   3.662  21.290  1.00  0.00     0.118 A 
ENDROOT
BRANCH   1   7
ATOM      7  C   UNL     1       7.616   2.455  18.677  1.00  0.00     0.071 C 
ATOM      8  O   UNL     1       6.453   2.272  19.128  1.00  0.00    -0.545 OA
ATOM      9  O   UNL     1       7.849   2.264  17.320  1.00  0.00    -0.545 OA
ENDBRANCH   1   7
BRANCH   6  10
ATOM     10  O   UNL     1      11.851   4.105  22.123  1.00  0.00    -0.497 OA
ATOM     11  C   UNL     1      13.039   3.366  22.390  1.00  0.00     0.278 C 
ENDBRANCH   6  10
TORSDOF 2
ENDMDL
MODEL 7
REMARK VINA RESULT:    -4.025      7.094      9.055
REMARK INTER + INTRA:          -4.552
REMARK INTER:                  -4.498
REMARK INTRA:                  -0.054
REMARK UNBOUND:                -0.057
REMARK SMILES COc1ccc(C(=O)[O-])cc1
REMARK SMILES IDX 6 1 5 2 10 3 4 4 11 5 3 6 7 7 8 8 9 9 2 10 1 11
REMARK H PARENT
REMARK Flexibility Score: inf
ROOT
ATOM      1  C   UNL     1      10.972   3.519  21.447  1.00  0.00    -0.003 A 
ATOM      2  C   UNL     1      10.437   2.221  21.398  1.00  0.00     0.014 A 
ATOM      3  C   UNL     1      10.491   4.488  20.550  1.00  0.00     0.014 A 
ATOM      4  C   UNL     1       9.440   1.900  20.471  1.00  0.00     0.047 A 
ATOM      5  C   UNL     1       9.493   4.166  19.624  1.00  0.00     0.047 A 
ATOM      6  C   UNL     1       8.959   2.864  19.578  1.00  0.00     0.118 A 
ENDROOT
BRANCH   1   7
ATOM      7  C   UNL     1      12.026   3.855  22.428  1.00  0.00     0.071 C 
ATOM      8  O   UNL     1      13.175   3.345  22.335  1.00  0.00    -0.545 OA
ATOM      9  O   UNL     1      11.765   4.739  23.469  1.00  0.00    -0.545 OA
ENDBRANCH   1   7
BRANCH   6  10
ATOM     10  O   UNL     1       7.959   2.492  18.669  1.00  0.00    -0.497 OA
ATOM     11  C   UNL     1       6.617   2.181  19.033  1.00  0.00     0.278 C 
ENDBRANCH   6  10
TORSDOF 2
ENDMDL
MODEL 8
REMARK VINA RESULT:    -3.966     10.380     12.349
REMARK INTER + INTRA:          -4.486
REMARK INTER:                  -4.429
REMARK INTRA:                  -0.057
REMARK UNBOUND:                -0.057
REMARK SMILES COc1ccc(C(=O)[O-])cc1
REMARK SMILES IDX 6 1 5 2 10 3 4 4 11 5 3 6 7 7 8 8 9 9 2 10 1 11
REMARK H PARENT
REMARK Flexibility Score: inf
ROOT
ATOM      1  C   UNL     1      14.207   8.617   8.274  1.00  0.00    -0.003 A 
ATOM      2  C   UNL     1      15.102   8.166   7.290  1.00  0.00     0.014 A 
ATOM      3  C   UNL     1      12.924   8.047   8.341  1.00  0.00     0.014 A 
ATOM      4  C   UNL     1      14.721   7.163   6.392  1.00  0.00     0.047 A 
ATOM      5  C   UNL     1      12.544   7.044   7.443  1.00  0.00     0.047 A 
ATOM      6  C   UNL     1      13.445   6.594   6.459  1.00  0.00     0.118 A 
ENDROOT
BRANCH   1   7
ATOM      7  C   UNL     1      14.613   9.678   9.222  1.00  0.00     0.071 C 
ATOM      8  O   UNL     1      14.605   9.465  10.464  1.00  0.00    -0.545 OA
ATOM      9  O   UNL     1      15.010  10.926   8.756  1.00  0.00    -0.545 OA
ENDBRANCH   1   7
BRANCH   6  10
ATOM     10  O   UNL     1      13.112   5.593   5.536  1.00  0.00    -0.497 OA
ATOM     11  C   UNL     1      13.858   4.394   5.347  1.00  0.00     0.278 C 
ENDBRANCH   6  10
TORSDOF 2
ENDMDL
MODEL 9
REMARK VINA RESULT:    -3.965      0.911      4.934
REMARK INTER + INTRA:          -4.486
REMARK INTER:                  -4.432
REMARK INTRA:                  -0.054
REMARK UNBOUND:                -0.057
REMARK SMILES COc1ccc(C(=O)[O-])cc1
REMARK SMILES IDX 6 1 5 2 10 3 4 4 11 5 3 6 7 7 8 8 9 9 2 10 1 11
REMARK H PARENT
REMARK Flexibility Score: inf
ROOT
ATOM      1  C   UNL     1       8.014   9.669  18.918  1.00  0.00    -0.003 A 
ATOM      2  C   UNL     1       9.070   9.184  18.129  1.00  0.00     0.014 A 
ATOM      3  C   UNL     1       6.889  10.225  18.284  1.00  0.00     0.014 A 
ATOM      4  C   UNL     1       9.002   9.254  16.734  1.00  0.00     0.047 A 
ATOM      5  C   UNL     1       6.821  10.293  16.889  1.00  0.00     0.047 A 
ATOM      6  C   UNL     1       7.882   9.806  16.102  1.00  0.00     0.118 A 
ENDROOT
BRANCH   1   7
ATOM      7  C   UNL     1       8.090   9.594  20.394  1.00  0.00     0.071 C 
ATOM      8  O   UNL     1       7.627   8.597  21.010  1.00  0.00    -0.545 OA
ATOM      9  O   UNL     1       8.672  10.625  21.123  1.00  0.00    -0.545 OA
ENDBRANCH   1   7
BRANCH   6  10
ATOM     10  O   UNL     1       7.862   9.852  14.700  1.00  0.00    -0.497 OA
ATOM     11  C   UNL     1       7.500  11.000  13.939  1.00  0.00     0.278 C 
ENDBRANCH   6  10
TORSDOF 2
ENDMDL
