MODEL 1
REMARK VINA RESULT:    -2.902      0.000      0.000
REMARK INTER + INTRA:          -3.712
REMARK INTER:                  -3.580
REMARK INTRA:                  -0.131
REMARK UNBOUND:                -0.131
REMARK SMILES CCCCCC(=O)[O-]
REMARK SMILES IDX 4 1 5 2 6 3 7 4 8 5 3 6 2 7 1 8
REMARK H PARENT
REMARK Flexibility Score: inf
ROOT
ATOM      1  C   UNL     1       0.991  -0.230   8.649  1.00  0.00     0.006 C 
ENDROOT
BRANCH   1   2
ATOM      2  C   UNL     1      -0.131   0.025   7.638  1.00  0.00     0.053 C 
BRANCH   2   3
ATOM      3  C   UNL     1      -1.184   0.903   8.234  1.00  0.00     0.041 C 
ATOM      4  O   UNL     1      -2.380   0.513   8.286  1.00  0.00    -0.550 OA
ATOM      5  O   UNL     1      -0.837   2.133   8.779  1.00  0.00    -0.550 OA
ENDBRANCH   2   3
ENDBRANCH   1   2
BRANCH   1   6
ATOM      6  C   UNL     1       1.262  -1.731   8.804  1.00  0.00     0.000 C 
BRANCH   6   7
ATOM      7  C   UNL     1       0.137  -2.562   8.176  1.00  0.00    -0.003 C 
ATOM      8  C   UNL     1       0.479  -4.049   8.184  1.00  0.00     0.004 C 
ENDBRANCH   6   7
ENDBRANCH   1   6
TORSDOF 4
ENDMDL
MODEL 2
REMARK VINA RESULT:    -2.886      2.613      3.843
REMARK INTER + INTRA:          -3.692
REMARK INTER:                  -3.546
REMARK INTRA:                  -0.147
REMARK UNBOUND:                -0.131
REMARK SMILES CCCCCC(=O)[O-]
REMARK SMILES IDX 4 1 5 2 6 3 7 4 8 5 3 6 2 7 1 8
REMARK H PARENT
REMARK Flexibility Score: inf
ROOT
ATOM      1  C   UNL     1      -0.293   0.278   7.686  1.00  0.00     0.006 C 
ENDROOT
BRANCH   1   2
ATOM      2  C   UNL     1       0.057  -1.129   8.179  1.00  0.00     0.053 C 
BRANCH   2   3
ATOM      3  C   UNL     1       1.441  -1.158   8.743  1.00  0.00     0.041 C 
ATOM      4  O   UNL     1       2.018  -2.258   8.949  1.00  0.00    -0.550 OA
ATOM      5  O   UNL     1       2.114   0.030   8.995  1.00  0.00    -0.550 OA
ENDBRANCH   2   3
ENDBRANCH   1   2
BRANCH   1   6
ATOM      6  C   UNL     1      -1.521   0.830   8.419  1.00  0.00     0.000 C 
BRANCH   6   7
ATOM      7  C   UNL     1      -2.447  -0.305   8.872  1.00  0.00    -0.003 C 
ATOM      8  C   UNL     1      -3.881  -0.065   8.408  1.00  0.00     0.004 C 
ENDBRANCH   6   7
ENDBRANCH   1   6
TORSDOF 4
ENDMDL
MODEL 3
REMARK VINA RESULT:    -2.885      1.202      1.612
REMARK INTER + INTRA:          -3.691
REMARK INTER:                  -3.548
REMARK INTRA:                  -0.143
REMARK UNBOUND:                -0.131
REMARK SMILES CCCCCC(=O)[O-]
REMARK SMILES IDX 4 1 5 2 6 3 7 4 8 5 3 6 2 7 1 8
REMARK H PARENT
REMARK Flexibility Score: inf
ROOT
ATOM      1  C   UNL     1       0.040  -0.493   7.855  1.00  0.00     0.006 C 
ENDROOT
BRANCH   1   2
ATOM      2  C   UNL     1      -0.887   0.724   7.922  1.00  0.00     0.053 C 
BRANCH   2   3
ATOM      3  C   UNL     1      -2.149   0.382   8.648  1.00  0.00     0.041 C 
ATOM      4  O   UNL     1      -2.408  -0.815   8.940  1.00  0.00    -0.550 OA
ATOM      5  O   UNL     1      -3.017   1.391   9.047  1.00  0.00    -0.550 OA
ENDBRANCH   2   3
ENDBRANCH   1   2
BRANCH   1   6
ATOM      6  C   UNL     1       1.281  -0.290   8.732  1.00  0.00     0.000 C 
BRANCH   6   7
ATOM      7  C   UNL     1       1.927  -1.632   9.092  1.00  0.00    -0.003 C 
ATOM      8  C   UNL     1       1.035  -2.801   8.682  1.00  0.00     0.004 C 
ENDBRANCH   6   7
ENDBRANCH   1   6
TORSDOF 4
ENDMDL
MODEL 4
REMARK VINA RESULT:    -2.820      2.096      3.253
REMARK INTER + INTRA:          -3.611
REMARK INTER:                  -3.467
REMARK INTRA:                  -0.143
REMARK UNBOUND:                -0.131
REMARK SMILES CCCCCC(=O)[O-]
REMARK SMILES IDX 4 1 5 2 6 3 7 4 8 5 3 6 2 7 1 8
REMARK H PARENT
REMARK Flexibility Score: inf
ROOT
ATOM      1  C   UNL     1      -1.827   0.581   8.593  1.00  0.00     0.006 C 
ENDROOT
BRANCH   1   2
ATOM      2  C   UNL     1      -2.473  -0.724   9.066  1.00  0.00     0.053 C 
BRANCH   2   3
ATOM      3  C   UNL     1      -3.927  -0.746   8.718  1.00  0.00     0.041 C 
ATOM      4  O   UNL     1      -4.491   0.294   8.288  1.00  0.00    -0.550 OA
ATOM      5  O   UNL     1      -4.649  -1.928   8.821  1.00  0.00    -0.550 OA
ENDBRANCH   2   3
ENDBRANCH   1   2
BRANCH   1   6
ATOM      6  C   UNL     1      -0.573   0.304   7.757  1.00  0.00     0.000 C 
BRANCH   6   7
ATOM      7  C   UNL     1       0.030  -1.062   8.103  1.00  0.00    -0.003 C 
ATOM      8  C   UNL     1       1.347  -0.908   8.859  1.00  0.00     0.004 C 
ENDBRANCH   6   7
ENDBRANCH   1   6
TORSDOF 4
ENDMDL
MODEL 5
REMARK VINA RESULT:    -2.819      2.026      2.539
REMARK INTER + INTRA:          -3.610
REMARK INTER:                  -3.456
REMARK INTRA:                  -0.153
REMARK UNBOUND:                -0.131
REMARK SMILES CCCCCC(=O)[O-]
REMARK SMILES IDX 4 1 5 2 6 3 7 4 8 5 3 6 2 7 1 8
REMARK H PARENT
REMARK Flexibility Score: inf
ROOT
ATOM      1  C   UNL     1      -0.273   0.223   7.633  1.00  0.00     0.006 C 
ENDROOT
BRANCH   1   2
ATOM      2  C   UNL     1      -0.450   1.567   8.346  1.00  0.00     0.053 C 
BRANCH   2   3
ATOM      3  C   UNL     1       0.672   2.494   8.002  1.00  0.00     0.041 C 
ATOM      4  O   UNL     1       0.433   3.604   7.458  1.00  0.00    -0.550 OA
ATOM      5  O   UNL     1       1.979   2.154   8.328  1.00  0.00    -0.550 OA
ENDBRANCH   2   3
ENDBRANCH   1   2
BRANCH   1   6
ATOM      6  C   UNL     1      -0.483  -0.946   8.603  1.00  0.00     0.000 C 
BRANCH   6   7
ATOM      7  C   UNL     1       0.614  -2.004   8.435  1.00  0.00    -0.003 C 
ATOM      8  C   UNL     1       1.925  -1.544   9.067  1.00  0.00     0.004 C 
ENDBRANCH   6   7
ENDBRANCH   1   6
TORSDOF 4
ENDMDL
MODEL 6
REMARK VINA RESULT:    -2.794     12.256     12.668
REMARK INTER + INTRA:          -3.578
REMARK INTER:                  -3.487
REMARK INTRA:                  -0.091
REMARK UNBOUND:                -0.131
REMARK SMILES CCCCCC(=O)[O-]
REMARK SMILES IDX 4 1 5 2 6 3 7 4 8 5 3 6 2 7 1 8
REMARK H PARENT
REMARK Flexibility Score: inf
ROOT
ATOM      1  C   UNL     1       2.902  -1.068  -3.650  1.00  0.00     0.006 C 
ENDROOT
BRANCH   1   2
ATOM      2  C   UNL     1       4.196  -1.033  -2.832  1.00  0.00     0.053 C 
BRANCH   2   3
ATOM      3  C   UNL     1       5.362  -0.708  -3.709  1.00  0.00     0.041 C 
ATOM      4  O   UNL     1       5.746   0.485  -3.836  1.00  0.00    -0.550 OA
ATOM      5  O   UNL     1       6.057  -1.726  -4.348  1.00  0.00    -0.550 OA
ENDBRANCH   2   3
ENDBRANCH   1   2
BRANCH   1   6
ATOM      6  C   UNL     1       1.671  -1.048  -2.736  1.00  0.00     0.000 C 
BRANCH   6   7
ATOM      7  C   UNL     1       0.760  -2.249  -3.013  1.00  0.00    -0.003 C 
ATOM      8  C   UNL     1       0.941  -3.334  -1.955  1.00  0.00     0.004 C 
ENDBRANCH   6   7
ENDBRANCH   1   6
TORSDOF 4
ENDMDL
MODEL 7
REMARK VINA RESULT:    -2.770      2.742      3.797
REMARK INTER + INTRA:          -3.549
REMARK INTER:                  -3.380
REMARK INTRA:                  -0.169
REMARK UNBOUND:                -0.131
REMARK SMILES CCCCCC(=O)[O-]
REMARK SMILES IDX 4 1 5 2 6 3 7 4 8 5 3 6 2 7 1 8
REMARK H PARENT
REMARK Flexibility Score: inf
ROOT
ATOM      1  C   UNL     1       1.764   0.398   9.354  1.00  0.00     0.006 C 
ENDROOT
BRANCH   1   2
ATOM      2  C   UNL     1       3.215   0.822   9.109  1.00  0.00     0.053 C 
BRANCH   2   3
ATOM      3  C   UNL     1       3.264   2.106   8.345  1.00  0.00     0.041 C 
ATOM      4  O   UNL     1       2.286   2.897   8.373  1.00  0.00    -0.550 OA
ATOM      5  O   UNL     1       4.411   2.454   7.642  1.00  0.00    -0.550 OA
ENDBRANCH   2   3
ENDBRANCH   1   2
BRANCH   1   6
ATOM      6  C   UNL     1       1.512  -1.025   8.841  1.00  0.00     0.000 C 
BRANCH   6   7
ATOM      7  C   UNL     1       0.177  -1.111   8.093  1.00  0.00    -0.003 C 
ATOM      8  C   UNL     1      -0.315   0.273   7.681  1.00  0.00     0.004 C 
ENDBRANCH   6   7
ENDBRANCH   1   6
TORSDOF 4
ENDMDL
MODEL 8
REMARK VINA RESULT:    -2.751     11.559     12.005
REMARK INTER + INTRA:          -3.526
REMARK INTER:                  -3.337
REMARK INTRA:                  -0.189
REMARK UNBOUND:                -0.131
REMARK SMILES CCCCCC(=O)[O-]
REMARK SMILES IDX 4 1 5 2 6 3 7 4 8 5 3 6 2 7 1 8
REMARK H PARENT
REMARK Flexibility Score: inf
ROOT
ATOM      1  C   UNL     1       2.735  -1.166  -3.647  1.00  0.00     0.006 C 
ENDROOT
BRANCH   1   2
ATOM      2  C   UNL     1       1.553  -1.265  -2.678  1.00  0.00     0.053 C 
BRANCH   2   3
ATOM      3  C   UNL     1       1.006  -2.657  -2.660  1.00  0.00     0.041 C 
ATOM      4  O   UNL     1       1.631  -3.575  -2.068  1.00  0.00    -0.550 OA
ATOM      5  O   UNL     1      -0.219  -2.930  -3.255  1.00  0.00    -0.550 OA
ENDBRANCH   2   3
ENDBRANCH   1   2
BRANCH   1   6
ATOM      6  C   UNL     1       4.029  -0.814  -2.904  1.00  0.00     0.000 C 
BRANCH   6   7
ATOM      7  C   UNL     1       5.164  -1.767  -3.294  1.00  0.00    -0.003 C 
ATOM      8  C   UNL     1       5.063  -3.087  -2.533  1.00  0.00     0.004 C 
ENDBRANCH   6   7
ENDBRANCH   1   6
TORSDOF 4
ENDMDL
MODEL 9
REMARK VINA RESULT:    -2.725     11.091     12.199
REMARK INTER + INTRA:          -3.493
REMARK INTER:                  -3.258
REMARK INTRA:                  -0.235
REMARK UNBOUND:                -0.131
REMARK SMILES CCCCCC(=O)[O-]
REMARK SMILES IDX 4 1 5 2 6 3 7 4 8 5 3 6 2 7 1 8
REMARK H PARENT
REMARK Flexibility Score: inf
ROOT
ATOM      1  C   UNL     1     -10.237  -6.395   3.889  1.00  0.00     0.006 C 
ENDROOT
BRANCH   1   2
ATOM      2  C   UNL     1      -9.568  -7.607   3.233  1.00  0.00     0.053 C 
BRANCH   2   3
ATOM      3  C   UNL     1      -8.219  -7.239   2.705  1.00  0.00     0.041 C 
ATOM      4  O   UNL     1      -7.361  -6.719   3.467  1.00  0.00    -0.550 OA
ATOM      5  O   UNL     1      -7.889  -7.517   1.385  1.00  0.00    -0.550 OA
ENDBRANCH   2   3
ENDBRANCH   1   2
BRANCH   1   6
ATOM      6  C   UNL     1     -10.764  -6.746   5.286  1.00  0.00     0.000 C 
BRANCH   6   7
ATOM      7  C   UNL     1      -9.609  -7.014   6.258  1.00  0.00    -0.003 C 
ATOM      8  C   UNL     1      -8.837  -5.733   6.564  1.00  0.00     0.004 C 
ENDBRANCH   6   7
ENDBRANCH   1   6
TORSDOF 4
ENDMDL
