MODEL 1
REMARK VINA RESULT:    -0.169      0.000      0.000
REMARK INTER + INTRA:          -0.273
REMARK INTER:                  -0.208
REMARK INTRA:                  -0.065
REMARK UNBOUND:                -0.065
REMARK SMILES [NH3+][C@@H](Cc1ccc(O)cc1)C(=O)[O-]
REMARK SMILES IDX 3 1 2 2 1 3 11 7 12 8 13 9 4 10 5 11 10 12 6 13 9 14 7 15
REMARK SMILES IDX 8 16
REMARK H PARENT 1 4 1 5 1 6 8 17
REMARK Flexibility Score: inf
ROOT
ATOM      1  C   UNL     1       9.449  40.870  34.374  1.00  0.00     0.107 C 
ENDROOT
BRANCH   1   2
ATOM      2  C   UNL     1       8.042  40.343  34.021  1.00  0.00     0.232 C 
BRANCH   2   3
ATOM      3  N   UNL     1       7.604  40.817  32.702  1.00  0.00    -0.350 N 
ATOM      4  H   UNL     1       8.065  41.730  32.481  1.00  0.00     0.345 HD
ATOM      5  H   UNL     1       7.847  40.122  31.958  1.00  0.00     0.345 HD
ATOM      6  H   UNL     1       6.570  40.974  32.702  1.00  0.00     0.345 HD
ENDBRANCH   2   3
BRANCH   2   7
ATOM      7  C   UNL     1       7.061  40.776  35.077  1.00  0.00     0.099 C 
ATOM      8  O   UNL     1       7.336  41.741  35.839  1.00  0.00    -0.544 OA
ATOM      9  O   UNL     1       5.838  40.129  35.206  1.00  0.00    -0.544 OA
ENDBRANCH   2   7
ENDBRANCH   1   2
BRANCH   1  10
ATOM     10  C   UNL     1      10.134  40.003  35.400  1.00  0.00    -0.041 A 
ATOM     11  C   UNL     1      10.274  40.445  36.726  1.00  0.00     0.008 A 
ATOM     12  C   UNL     1      10.670  38.760  35.029  1.00  0.00     0.008 A 
ATOM     13  C   UNL     1      10.931  39.649  37.669  1.00  0.00     0.046 A 
ATOM     14  C   UNL     1      11.325  37.964  35.974  1.00  0.00     0.046 A 
ATOM     15  C   UNL     1      11.457  38.407  37.297  1.00  0.00     0.115 A 
BRANCH  15  16
ATOM     16  O   UNL     1      12.109  37.624  38.247  1.00  0.00    -0.508 OA
ATOM     17  H   UNL     1      12.567  36.756  37.994  1.00  0.00     0.293 HD
ENDBRANCH  15  16
ENDBRANCH   1  10
TORSDOF 5
ENDMDL
MODEL 2
REMARK VINA RESULT:    -0.056      0.100      1.348
REMARK INTER + INTRA:          -0.134
REMARK INTER:                   0.013
REMARK INTRA:                  -0.147
REMARK UNBOUND:                -0.065
REMARK SMILES [NH3+][C@@H](Cc1ccc(O)cc1)C(=O)[O-]
REMARK SMILES IDX 3 1 2 2 1 3 11 7 12 8 13 9 4 10 5 11 10 12 6 13 9 14 7 15
REMARK SMILES IDX 8 16
REMARK H PARENT 1 4 1 5 1 6 8 17
REMARK Flexibility Score: inf
ROOT
ATOM      1  C   UNL     1       9.424  40.847  34.479  1.00  0.00     0.107 C 
ENDROOT
BRANCH   1   2
ATOM      2  C   UNL     1       8.029  40.286  34.129  1.00  0.00     0.232 C 
BRANCH   2   3
ATOM      3  N   UNL     1       7.611  40.689  32.780  1.00  0.00    -0.350 N 
ATOM      4  H   UNL     1       7.638  39.863  32.138  1.00  0.00     0.345 HD
ATOM      5  H   UNL     1       6.641  41.081  32.793  1.00  0.00     0.345 HD
ATOM      6  H   UNL     1       8.268  41.409  32.401  1.00  0.00     0.345 HD
ENDBRANCH   2   3
BRANCH   2   7
ATOM      7  C   UNL     1       7.025  40.761  35.144  1.00  0.00     0.099 C 
ATOM      8  O   UNL     1       7.296  41.734  35.897  1.00  0.00    -0.544 OA
ATOM      9  O   UNL     1       5.783  40.144  35.245  1.00  0.00    -0.544 OA
ENDBRANCH   2   7
ENDBRANCH   1   2
BRANCH   1  10
ATOM     10  C   UNL     1      10.151  39.970  35.466  1.00  0.00    -0.041 A 
ATOM     11  C   UNL     1      10.657  38.720  35.071  1.00  0.00     0.008 A 
ATOM     12  C   UNL     1      10.299  40.380  36.801  1.00  0.00     0.008 A 
ATOM     13  C   UNL     1      11.310  37.899  35.995  1.00  0.00     0.046 A 
ATOM     14  C   UNL     1      10.954  39.558  37.723  1.00  0.00     0.046 A 
ATOM     15  C   UNL     1      11.462  38.315  37.322  1.00  0.00     0.115 A 
BRANCH  15  16
ATOM     16  O   UNL     1      12.115  37.486  38.231  1.00  0.00    -0.508 OA
ATOM     17  H   UNL     1      11.631  37.092  39.029  1.00  0.00     0.293 HD
ENDBRANCH  15  16
ENDBRANCH   1  10
TORSDOF 5
ENDMDL
MODEL 3
REMARK VINA RESULT:     0.473      1.882      4.999
REMARK INTER + INTRA:           0.519
REMARK INTER:                   0.243
REMARK INTRA:                   0.276
REMARK UNBOUND:                -0.065
REMARK SMILES [NH3+][C@@H](Cc1ccc(O)cc1)C(=O)[O-]
REMARK SMILES IDX 3 1 2 2 1 3 11 7 12 8 13 9 4 10 5 11 10 12 6 13 9 14 7 15
REMARK SMILES IDX 8 16
REMARK H PARENT 1 4 1 5 1 6 8 17
REMARK Flexibility Score: inf
ROOT
ATOM      1  C   UNL     1      10.654  40.486  35.613  1.00  0.00     0.107 C 
ENDROOT
BRANCH   1   2
ATOM      2  C   UNL     1      11.269  39.070  35.637  1.00  0.00     0.232 C 
BRANCH   2   3
ATOM      3  N   UNL     1      10.427  38.106  34.917  1.00  0.00    -0.350 N 
ATOM      4  H   UNL     1       9.986  37.443  35.595  1.00  0.00     0.345 HD
ATOM      5  H   UNL     1       9.674  38.598  34.381  1.00  0.00     0.345 HD
ATOM      6  H   UNL     1      11.010  37.545  34.255  1.00  0.00     0.345 HD
ENDBRANCH   2   3
BRANCH   2   7
ATOM      7  C   UNL     1      11.459  38.627  37.063  1.00  0.00     0.099 C 
ATOM      8  O   UNL     1      12.120  37.586  37.319  1.00  0.00    -0.544 OA
ATOM      9  O   UNL     1      10.925  39.373  38.107  1.00  0.00    -0.544 OA
ENDBRANCH   2   7
ENDBRANCH   1   2
BRANCH   1  10
ATOM     10  C   UNL     1       9.306  40.503  34.939  1.00  0.00    -0.041 A 
ATOM     11  C   UNL     1       8.129  40.573  35.702  1.00  0.00     0.008 A 
ATOM     12  C   UNL     1       9.215  40.411  33.540  1.00  0.00     0.008 A 
ATOM     13  C   UNL     1       6.879  40.564  35.074  1.00  0.00     0.046 A 
ATOM     14  C   UNL     1       7.964  40.404  32.914  1.00  0.00     0.046 A 
ATOM     15  C   UNL     1       6.793  40.481  33.680  1.00  0.00     0.115 A 
BRANCH  15  16
ATOM     16  O   UNL     1       5.542  40.473  33.068  1.00  0.00    -0.508 OA
ATOM     17  H   UNL     1       5.145  41.313  32.664  1.00  0.00     0.293 HD
ENDBRANCH  15  16
ENDBRANCH   1  10
TORSDOF 5
ENDMDL
MODEL 4
REMARK VINA RESULT:     0.749      2.225      4.908
REMARK INTER + INTRA:           0.859
REMARK INTER:                   0.839
REMARK INTRA:                   0.020
REMARK UNBOUND:                -0.065
REMARK SMILES [NH3+][C@@H](Cc1ccc(O)cc1)C(=O)[O-]
REMARK SMILES IDX 3 1 2 2 1 3 11 7 12 8 13 9 4 10 5 11 10 12 6 13 9 14 7 15
REMARK SMILES IDX 8 16
REMARK H PARENT 1 4 1 5 1 6 8 17
REMARK Flexibility Score: inf
ROOT
ATOM      1  C   UNL     1      11.380  39.456  34.677  1.00  0.00     0.107 C 
ENDROOT
BRANCH   1   2
ATOM      2  C   UNL     1      12.068  39.521  36.056  1.00  0.00     0.232 C 
BRANCH   2   3
ATOM      3  N   UNL     1      13.531  39.563  35.926  1.00  0.00    -0.350 N 
ATOM      4  H   UNL     1      13.919  40.327  36.526  1.00  0.00     0.345 HD
ATOM      5  H   UNL     1      13.956  38.652  36.214  1.00  0.00     0.345 HD
ATOM      6  H   UNL     1      13.797  39.770  34.936  1.00  0.00     0.345 HD
ENDBRANCH   2   3
BRANCH   2   7
ATOM      7  C   UNL     1      11.658  38.332  36.882  1.00  0.00     0.099 C 
ATOM      8  O   UNL     1      11.893  38.308  38.119  1.00  0.00    -0.544 OA
ATOM      9  O   UNL     1      10.998  37.261  36.290  1.00  0.00    -0.544 OA
ENDBRANCH   2   7
ENDBRANCH   1   2
BRANCH   1  10
ATOM     10  C   UNL     1       9.968  39.984  34.727  1.00  0.00    -0.041 A 
ATOM     11  C   UNL     1       9.497  40.650  35.870  1.00  0.00     0.008 A 
ATOM     12  C   UNL     1       9.100  39.783  33.641  1.00  0.00     0.008 A 
ATOM     13  C   UNL     1       8.180  41.117  35.922  1.00  0.00     0.046 A 
ATOM     14  C   UNL     1       7.784  40.252  33.694  1.00  0.00     0.046 A 
ATOM     15  C   UNL     1       7.321  40.921  34.835  1.00  0.00     0.115 A 
BRANCH  15  16
ATOM     16  O   UNL     1       6.011  41.392  34.900  1.00  0.00    -0.508 OA
ATOM     17  H   UNL     1       5.796  42.374  34.778  1.00  0.00     0.293 HD
ENDBRANCH  15  16
ENDBRANCH   1  10
TORSDOF 5
ENDMDL
MODEL 5
REMARK VINA RESULT:     1.642      2.053      5.314
REMARK INTER + INTRA:           1.961
REMARK INTER:                   1.913
REMARK INTRA:                   0.048
REMARK UNBOUND:                -0.065
REMARK SMILES [NH3+][C@@H](Cc1ccc(O)cc1)C(=O)[O-]
REMARK SMILES IDX 3 1 2 2 1 3 11 7 12 8 13 9 4 10 5 11 10 12 6 13 9 14 7 15
REMARK SMILES IDX 8 16
REMARK H PARENT 1 4 1 5 1 6 8 17
REMARK Flexibility Score: inf
ROOT
ATOM      1  C   UNL     1      10.649  40.514  35.206  1.00  0.00     0.107 C 
ENDROOT
BRANCH   1   2
ATOM      2  C   UNL     1      11.331  39.130  35.146  1.00  0.00     0.232 C 
BRANCH   2   3
ATOM      3  N   UNL     1      10.351  38.042  35.266  1.00  0.00    -0.350 N 
ATOM      4  H   UNL     1       9.653  38.273  36.009  1.00  0.00     0.345 HD
ATOM      5  H   UNL     1       9.850  37.892  34.359  1.00  0.00     0.345 HD
ATOM      6  H   UNL     1      10.832  37.156  35.544  1.00  0.00     0.345 HD
ENDBRANCH   2   3
BRANCH   2   7
ATOM      7  C   UNL     1      12.356  39.025  36.242  1.00  0.00     0.099 C 
ATOM      8  O   UNL     1      13.305  39.852  36.303  1.00  0.00    -0.544 OA
ATOM      9  O   UNL     1      12.253  38.030  37.207  1.00  0.00    -0.544 OA
ENDBRANCH   2   7
ENDBRANCH   1   2
BRANCH   1  10
ATOM     10  C   UNL     1       9.240  40.470  34.671  1.00  0.00    -0.041 A 
ATOM     11  C   UNL     1       9.004  40.316  33.295  1.00  0.00     0.008 A 
ATOM     12  C   UNL     1       8.149  40.619  35.543  1.00  0.00     0.008 A 
ATOM     13  C   UNL     1       7.696  40.300  32.801  1.00  0.00     0.046 A 
ATOM     14  C   UNL     1       6.842  40.601  35.048  1.00  0.00     0.046 A 
ATOM     15  C   UNL     1       6.612  40.441  33.674  1.00  0.00     0.115 A 
BRANCH  15  16
ATOM     16  O   UNL     1       5.315  40.423  33.168  1.00  0.00    -0.508 OA
ATOM     17  H   UNL     1       4.896  39.570  32.816  1.00  0.00     0.293 HD
ENDBRANCH  15  16
ENDBRANCH   1  10
TORSDOF 5
ENDMDL
