MODEL 1
REMARK VINA RESULT:    -5.755      0.000      0.000
REMARK INTER + INTRA:          -6.385
REMARK INTER:                  -6.596
REMARK INTRA:                   0.210
REMARK UNBOUND:                 0.210
REMARK SMILES COc1cc(C(=O)[O-])ccc1O
REMARK SMILES IDX 5 1 9 2 4 3 10 4 3 5 11 6 6 7 7 8 8 9 2 10 1 11 12 12
REMARK H PARENT 12 13
REMARK Flexibility Score: inf
ROOT
ATOM      1  C   UNL     1     137.520 137.042 138.340  1.00  0.00     0.001 A 
ATOM      2  C   UNL     1     137.461 135.651 138.152  1.00  0.00     0.014 A 
ATOM      3  C   UNL     1     137.606 137.881 137.213  1.00  0.00     0.060 A 
ATOM      4  C   UNL     1     137.487 135.109 136.866  1.00  0.00     0.051 A 
ATOM      5  C   UNL     1     137.632 137.337 135.913  1.00  0.00     0.161 A 
ATOM      6  C   UNL     1     137.573 135.947 135.747  1.00  0.00     0.157 A 
ENDROOT
BRANCH   1   7
ATOM      7  C   UNL     1     137.493 137.610 139.706  1.00  0.00     0.072 C 
ATOM      8  O   UNL     1     136.559 138.377 140.062  1.00  0.00    -0.545 OA
ATOM      9  O   UNL     1     138.499 137.306 140.616  1.00  0.00    -0.545 OA
ENDBRANCH   1   7
BRANCH   5  10
ATOM     10  O   UNL     1     137.716 138.143 134.766  1.00  0.00    -0.493 OA
ATOM     11  C   UNL     1     136.724 138.201 133.746  1.00  0.00     0.278 C 
ENDBRANCH   5  10
BRANCH   6  12
ATOM     12  O   UNL     1     137.598 135.404 134.464  1.00  0.00    -0.504 OA
ATOM     13  H   UNL     1     137.662 134.404 134.311  1.00  0.00     0.293 HD
ENDBRANCH   6  12
TORSDOF 3
ENDMDL
MODEL 2
REMARK VINA RESULT:    -5.749      1.909      2.444
REMARK INTER + INTRA:          -6.379
REMARK INTER:                  -6.554
REMARK INTRA:                   0.175
REMARK UNBOUND:                 0.210
REMARK SMILES COc1cc(C(=O)[O-])ccc1O
REMARK SMILES IDX 5 1 9 2 4 3 10 4 3 5 11 6 6 7 7 8 8 9 2 10 1 11 12 12
REMARK H PARENT 12 13
REMARK Flexibility Score: inf
ROOT
ATOM      1  C   UNL     1     136.231 137.314 138.347  1.00  0.00     0.001 A 
ATOM      2  C   UNL     1     137.463 137.966 138.179  1.00  0.00     0.014 A 
ATOM      3  C   UNL     1     135.476 136.975 137.209  1.00  0.00     0.060 A 
ATOM      4  C   UNL     1     137.931 138.275 136.901  1.00  0.00     0.051 A 
ATOM      5  C   UNL     1     135.945 137.285 135.917  1.00  0.00     0.161 A 
ATOM      6  C   UNL     1     137.177 137.937 135.771  1.00  0.00     0.157 A 
ENDROOT
BRANCH   1   7
ATOM      7  C   UNL     1     135.739 136.990 139.705  1.00  0.00     0.072 C 
ATOM      8  O   UNL     1     135.503 135.797 140.034  1.00  0.00    -0.545 OA
ATOM      9  O   UNL     1     135.530 137.999 140.638  1.00  0.00    -0.545 OA
ENDBRANCH   1   7
BRANCH   5  10
ATOM     10  O   UNL     1     135.220 136.962 134.758  1.00  0.00    -0.493 OA
ATOM     11  C   UNL     1     135.659 136.046 133.760  1.00  0.00     0.278 C 
ENDBRANCH   5  10
BRANCH   6  12
ATOM     12  O   UNL     1     137.648 138.245 134.495  1.00  0.00    -0.504 OA
ATOM     13  H   UNL     1     137.383 139.103 134.025  1.00  0.00     0.293 HD
ENDBRANCH   6  12
TORSDOF 3
ENDMDL
MODEL 3
REMARK VINA RESULT:    -5.660      1.886      2.374
REMARK INTER + INTRA:          -6.277
REMARK INTER:                  -6.411
REMARK INTRA:                   0.134
REMARK UNBOUND:                 0.210
REMARK SMILES COc1cc(C(=O)[O-])ccc1O
REMARK SMILES IDX 5 1 9 2 4 3 10 4 3 5 11 6 6 7 7 8 8 9 2 10 1 11 12 12
REMARK H PARENT 12 13
REMARK Flexibility Score: inf
ROOT
ATOM      1  C   UNL     1     136.649 136.201 138.103  1.00  0.00     0.001 A 
ATOM      2  C   UNL     1     135.450 136.897 137.878  1.00  0.00     0.014 A 
ATOM      3  C   UNL     1     137.363 135.698 137.000  1.00  0.00     0.060 A 
ATOM      4  C   UNL     1     134.974 137.087 136.580  1.00  0.00     0.051 A 
ATOM      5  C   UNL     1     136.886 135.887 135.687  1.00  0.00     0.161 A 
ATOM      6  C   UNL     1     135.687 136.584 135.485  1.00  0.00     0.157 A 
ENDROOT
BRANCH   1   7
ATOM      7  C   UNL     1     137.148 136.002 139.482  1.00  0.00     0.072 C 
ATOM      8  O   UNL     1     138.145 136.647 139.901  1.00  0.00    -0.545 OA
ATOM      9  O   UNL     1     136.522 135.100 140.335  1.00  0.00    -0.545 OA
ENDBRANCH   1   7
BRANCH   5  10
ATOM     10  O   UNL     1     137.572 135.400 134.563  1.00  0.00    -0.493 OA
ATOM     11  C   UNL     1     138.198 136.220 133.581  1.00  0.00     0.278 C 
ENDBRANCH   5  10
BRANCH   6  12
ATOM     12  O   UNL     1     135.210 136.776 134.189  1.00  0.00    -0.504 OA
ATOM     13  H   UNL     1     134.954 137.695 133.848  1.00  0.00     0.293 HD
ENDBRANCH   6  12
TORSDOF 3
ENDMDL
MODEL 4
REMARK VINA RESULT:    -5.640      1.653      5.027
REMARK INTER + INTRA:          -6.254
REMARK INTER:                  -6.229
REMARK INTRA:                  -0.025
REMARK UNBOUND:                 0.210
REMARK SMILES COc1cc(C(=O)[O-])ccc1O
REMARK SMILES IDX 5 1 9 2 4 3 10 4 3 5 11 6 6 7 7 8 8 9 2 10 1 11 12 12
REMARK H PARENT 12 13
REMARK Flexibility Score: inf
ROOT
ATOM      1  C   UNL     1     136.908 136.134 136.899  1.00  0.00     0.001 A 
ATOM      2  C   UNL     1     135.699 136.841 137.000  1.00  0.00     0.014 A 
ATOM      3  C   UNL     1     137.564 135.729 138.076  1.00  0.00     0.060 A 
ATOM      4  C   UNL     1     135.157 137.138 138.251  1.00  0.00     0.051 A 
ATOM      5  C   UNL     1     137.020 136.027 139.341  1.00  0.00     0.161 A 
ATOM      6  C   UNL     1     135.813 136.734 139.421  1.00  0.00     0.157 A 
ENDROOT
BRANCH   1   7
ATOM      7  C   UNL     1     137.480 135.823 135.569  1.00  0.00     0.072 C 
ATOM      8  O   UNL     1     138.037 134.713 135.355  1.00  0.00    -0.545 OA
ATOM      9  O   UNL     1     137.409 136.751 134.537  1.00  0.00    -0.545 OA
ENDBRANCH   1   7
BRANCH   5  10
ATOM     10  O   UNL     1     137.646 135.638 140.537  1.00  0.00    -0.493 OA
ATOM     11  C   UNL     1     138.475 136.485 141.326  1.00  0.00     0.278 C 
ENDBRANCH   5  10
BRANCH   6  12
ATOM     12  O   UNL     1     135.268 137.031 140.669  1.00  0.00    -0.504 OA
ATOM     13  H   UNL     1     134.518 136.479 141.067  1.00  0.00     0.293 HD
ENDBRANCH   6  12
TORSDOF 3
ENDMDL
MODEL 5
REMARK VINA RESULT:    -5.640      1.966      2.205
REMARK INTER + INTRA:          -6.253
REMARK INTER:                  -6.209
REMARK INTRA:                  -0.045
REMARK UNBOUND:                 0.210
REMARK SMILES COc1cc(C(=O)[O-])ccc1O
REMARK SMILES IDX 5 1 9 2 4 3 10 4 3 5 11 6 6 7 7 8 8 9 2 10 1 11 12 12
REMARK H PARENT 12 13
REMARK Flexibility Score: inf
ROOT
ATOM      1  C   UNL     1     136.150 136.722 139.570  1.00  0.00     0.001 A 
ATOM      2  C   UNL     1     137.222 135.816 139.522  1.00  0.00     0.014 A 
ATOM      3  C   UNL     1     135.626 137.225 138.365  1.00  0.00     0.060 A 
ATOM      4  C   UNL     1     137.759 135.420 138.296  1.00  0.00     0.051 A 
ATOM      5  C   UNL     1     136.166 136.828 137.125  1.00  0.00     0.161 A 
ATOM      6  C   UNL     1     137.235 135.923 137.099  1.00  0.00     0.157 A 
ENDROOT
BRANCH   1   7
ATOM      7  C   UNL     1     135.586 137.139 140.873  1.00  0.00     0.072 C 
ATOM      8  O   UNL     1     135.695 138.331 141.267  1.00  0.00    -0.545 OA
ATOM      9  O   UNL     1     134.925 136.222 141.681  1.00  0.00    -0.545 OA
ENDBRANCH   1   7
BRANCH   5  10
ATOM     10  O   UNL     1     135.668 137.308 135.903  1.00  0.00    -0.493 OA
ATOM     11  C   UNL     1     134.689 136.641 135.112  1.00  0.00     0.278 C 
ENDBRANCH   5  10
BRANCH   6  12
ATOM     12  O   UNL     1     137.773 135.525 135.876  1.00  0.00    -0.504 OA
ATOM     13  H   UNL     1     138.600 134.943 135.824  1.00  0.00     0.293 HD
ENDBRANCH   6  12
TORSDOF 3
ENDMDL
MODEL 6
REMARK VINA RESULT:    -5.634      1.211      4.436
REMARK INTER + INTRA:          -6.247
REMARK INTER:                  -6.265
REMARK INTRA:                   0.017
REMARK UNBOUND:                 0.210
REMARK SMILES COc1cc(C(=O)[O-])ccc1O
REMARK SMILES IDX 5 1 9 2 4 3 10 4 3 5 11 6 6 7 7 8 8 9 2 10 1 11 12 12
REMARK H PARENT 12 13
REMARK Flexibility Score: inf
ROOT
ATOM      1  C   UNL     1     137.362 137.143 136.592  1.00  0.00     0.001 A 
ATOM      2  C   UNL     1     137.374 135.743 136.708  1.00  0.00     0.014 A 
ATOM      3  C   UNL     1     137.284 137.924 137.760  1.00  0.00     0.060 A 
ATOM      4  C   UNL     1     137.309 135.136 137.962  1.00  0.00     0.051 A 
ATOM      5  C   UNL     1     137.218 137.315 139.029  1.00  0.00     0.161 A 
ATOM      6  C   UNL     1     137.231 135.917 139.123  1.00  0.00     0.157 A 
ENDROOT
BRANCH   1   7
ATOM      7  C   UNL     1     137.430 137.781 135.259  1.00  0.00     0.072 C 
ATOM      8  O   UNL     1     137.743 138.996 135.145  1.00  0.00    -0.545 OA
ATOM      9  O   UNL     1     137.151 137.048 134.111  1.00  0.00    -0.545 OA
ENDBRANCH   1   7
BRANCH   5  10
ATOM     10  O   UNL     1     137.140 138.062 140.216  1.00  0.00    -0.493 OA
ATOM     11  C   UNL     1     135.948 138.256 140.971  1.00  0.00     0.278 C 
ENDBRANCH   5  10
BRANCH   6  12
ATOM     12  O   UNL     1     137.166 135.308 140.375  1.00  0.00    -0.504 OA
ATOM     13  H   UNL     1     137.783 134.545 140.627  1.00  0.00     0.293 HD
ENDBRANCH   6  12
TORSDOF 3
ENDMDL
MODEL 7
REMARK VINA RESULT:    -5.615      1.653      2.100
REMARK INTER + INTRA:          -6.225
REMARK INTER:                  -6.184
REMARK INTRA:                  -0.041
REMARK UNBOUND:                 0.210
REMARK SMILES COc1cc(C(=O)[O-])ccc1O
REMARK SMILES IDX 5 1 9 2 4 3 10 4 3 5 11 6 6 7 7 8 8 9 2 10 1 11 12 12
REMARK H PARENT 12 13
REMARK Flexibility Score: inf
ROOT
ATOM      1  C   UNL     1     137.049 137.440 139.449  1.00  0.00     0.001 A 
ATOM      2  C   UNL     1     135.719 136.991 139.395  1.00  0.00     0.014 A 
ATOM      3  C   UNL     1     137.751 137.643 138.246  1.00  0.00     0.060 A 
ATOM      4  C   UNL     1     135.103 136.750 138.167  1.00  0.00     0.051 A 
ATOM      5  C   UNL     1     137.131 137.400 137.003  1.00  0.00     0.161 A 
ATOM      6  C   UNL     1     135.804 136.953 136.972  1.00  0.00     0.157 A 
ENDROOT
BRANCH   1   7
ATOM      7  C   UNL     1     137.698 137.693 140.754  1.00  0.00     0.072 C 
ATOM      8  O   UNL     1     138.714 137.034 141.103  1.00  0.00    -0.545 OA
ATOM      9  O   UNL     1     137.195 138.661 141.615  1.00  0.00    -0.545 OA
ENDBRANCH   1   7
BRANCH   5  10
ATOM     10  O   UNL     1     137.800 137.592 135.783  1.00  0.00    -0.493 OA
ATOM     11  C   UNL     1     137.723 138.778 134.998  1.00  0.00     0.278 C 
ENDBRANCH   5  10
BRANCH   6  12
ATOM     12  O   UNL     1     135.186 136.712 135.746  1.00  0.00    -0.504 OA
ATOM     13  H   UNL     1     135.669 136.865 134.868  1.00  0.00     0.293 HD
ENDBRANCH   6  12
TORSDOF 3
ENDMDL
MODEL 8
REMARK VINA RESULT:    -5.607      1.942      4.975
REMARK INTER + INTRA:          -6.216
REMARK INTER:                  -6.215
REMARK INTRA:                  -0.001
REMARK UNBOUND:                 0.210
REMARK SMILES COc1cc(C(=O)[O-])ccc1O
REMARK SMILES IDX 5 1 9 2 4 3 10 4 3 5 11 6 6 7 7 8 8 9 2 10 1 11 12 12
REMARK H PARENT 12 13
REMARK Flexibility Score: inf
ROOT
ATOM      1  C   UNL     1     136.166 137.018 136.533  1.00  0.00     0.001 A 
ATOM      2  C   UNL     1     137.346 137.776 136.616  1.00  0.00     0.014 A 
ATOM      3  C   UNL     1     135.540 136.595 137.720  1.00  0.00     0.060 A 
ATOM      4  C   UNL     1     137.890 138.103 137.859  1.00  0.00     0.051 A 
ATOM      5  C   UNL     1     136.087 136.923 138.977  1.00  0.00     0.161 A 
ATOM      6  C   UNL     1     137.265 137.679 139.038  1.00  0.00     0.157 A 
ENDROOT
BRANCH   1   7
ATOM      7  C   UNL     1     135.594 136.674 135.212  1.00  0.00     0.072 C 
ATOM      8  O   UNL     1     134.347 136.692 135.029  1.00  0.00    -0.545 OA
ATOM      9  O   UNL     1     136.424 136.325 134.154  1.00  0.00    -0.545 OA
ENDBRANCH   1   7
BRANCH   5  10
ATOM     10  O   UNL     1     135.491 136.519 140.182  1.00  0.00    -0.493 OA
ATOM     11  C   UNL     1     135.929 135.416 140.970  1.00  0.00     0.278 C 
ENDBRANCH   5  10
BRANCH   6  12
ATOM     12  O   UNL     1     137.811 138.008 140.278  1.00  0.00    -0.504 OA
ATOM     13  H   UNL     1     137.801 138.959 140.628  1.00  0.00     0.293 HD
ENDBRANCH   6  12
TORSDOF 3
ENDMDL
MODEL 9
REMARK VINA RESULT:    -3.698      2.013      2.298
REMARK INTER + INTRA:          -4.028
REMARK INTER:                  -3.946
REMARK INTRA:                  -0.082
REMARK UNBOUND:                 0.210
REMARK SMILES COc1cc(C(=O)[O-])ccc1O
REMARK SMILES IDX 5 1 9 2 4 3 10 4 3 5 11 6 6 7 7 8 8 9 2 10 1 11 12 12
REMARK H PARENT 12 13
REMARK Flexibility Score: inf
ROOT
ATOM      1  C   UNL     1     136.191 137.339 137.111  1.00  0.00     0.001 A 
ATOM      2  C   UNL     1     134.989 136.642 136.910  1.00  0.00     0.014 A 
ATOM      3  C   UNL     1     136.947 137.736 135.993  1.00  0.00     0.060 A 
ATOM      4  C   UNL     1     134.550 136.347 135.619  1.00  0.00     0.051 A 
ATOM      5  C   UNL     1     136.507 137.439 134.686  1.00  0.00     0.161 A 
ATOM      6  C   UNL     1     135.305 136.742 134.507  1.00  0.00     0.157 A 
ENDROOT
BRANCH   1   7
ATOM      7  C   UNL     1     136.652 137.649 138.483  1.00  0.00     0.072 C 
ATOM      8  O   UNL     1     137.596 138.462 138.674  1.00  0.00    -0.545 OA
ATOM      9  O   UNL     1     136.050 137.047 139.582  1.00  0.00    -0.545 OA
ENDBRANCH   1   7
BRANCH   5  10
ATOM     10  O   UNL     1     137.234 137.819 133.547  1.00  0.00    -0.493 OA
ATOM     11  C   UNL     1     138.526 138.418 133.576  1.00  0.00     0.278 C 
ENDBRANCH   5  10
BRANCH   6  12
ATOM     12  O   UNL     1     134.864 136.447 133.218  1.00  0.00    -0.504 OA
ATOM     13  H   UNL     1     134.860 137.146 132.485  1.00  0.00     0.293 HD
ENDBRANCH   6  12
TORSDOF 3
ENDMDL
