MODEL 1
REMARK VINA RESULT:    -4.249      0.000      0.000
REMARK INTER + INTRA:         -15.134
REMARK INTER:                 -11.203
REMARK INTRA:                  -3.931
REMARK UNBOUND:                -3.931
REMARK SMILES CCCCCCCCCCCCCCCCCCCCCCCCCCCCCC(=O)[O-]
REMARK SMILES IDX 16 1 17 2 18 3 19 4 20 5 21 6 22 7 23 8 24 9 25 10 26 11
REMARK SMILES IDX 27 12 28 13 29 14 30 15 31 16 32 17 15 18 14 19 13 20 12 21
REMARK SMILES IDX 11 22 10 23 9 24 8 25 7 26 6 27 5 28 4 29 3 30 2 31 1 32
REMARK H PARENT
REMARK Flexibility Score: inf
ROOT
ATOM      1  C   UNL     1      84.706 124.474 132.402  1.00  0.00     0.000 C 
ENDROOT
BRANCH   1   2
ATOM      2  C   UNL     1      84.509 123.131 133.124  1.00  0.00     0.000 C 
BRANCH   2   3
ATOM      3  C   UNL     1      84.256 121.964 132.154  1.00  0.00     0.000 C 
BRANCH   3   4
ATOM      4  C   UNL     1      83.434 122.358 130.905  1.00  0.00     0.000 C 
BRANCH   4   5
ATOM      5  C   UNL     1      84.297 122.805 129.711  1.00  0.00     0.000 C 
BRANCH   5   6
ATOM      6  C   UNL     1      83.495 123.596 128.666  1.00  0.00     0.000 C 
BRANCH   6   7
ATOM      7  C   UNL     1      84.139 124.965 128.397  1.00  0.00     0.000 C 
BRANCH   7   8
ATOM      8  C   UNL     1      83.923 125.948 129.566  1.00  0.00     0.000 C 
BRANCH   8   9
ATOM      9  C   UNL     1      82.459 126.032 130.039  1.00  0.00     0.000 C 
BRANCH   9  10
ATOM     10  C   UNL     1      82.068 127.364 130.702  1.00  0.00     0.000 C 
BRANCH  10  11
ATOM     11  C   UNL     1      82.093 127.288 132.240  1.00  0.00     0.000 C 
BRANCH  11  12
ATOM     12  C   UNL     1      83.000 128.357 132.878  1.00  0.00     0.000 C 
BRANCH  12  13
ATOM     13  C   UNL     1      82.424 129.786 132.791  1.00  0.00     0.006 C 
BRANCH  13  14
ATOM     14  C   UNL     1      82.683 130.427 131.419  1.00  0.00     0.053 C 
BRANCH  14  15
ATOM     15  C   UNL     1      83.496 131.679 131.542  1.00  0.00     0.041 C 
ATOM     16  O   UNL     1      83.057 132.771 131.092  1.00  0.00    -0.550 OA
ATOM     17  O   UNL     1      84.764 131.627 132.105  1.00  0.00    -0.550 OA
ENDBRANCH  14  15
ENDBRANCH  13  14
ENDBRANCH  12  13
ENDBRANCH  11  12
ENDBRANCH  10  11
ENDBRANCH   9  10
ENDBRANCH   8   9
ENDBRANCH   7   8
ENDBRANCH   6   7
ENDBRANCH   5   6
ENDBRANCH   4   5
ENDBRANCH   3   4
ENDBRANCH   2   3
ENDBRANCH   1   2
BRANCH   1  18
ATOM     18  C   UNL     1      86.181 124.904 132.327  1.00  0.00     0.000 C 
BRANCH  18  19
ATOM     19  C   UNL     1      87.160 123.722 132.163  1.00  0.00     0.000 C 
BRANCH  19  20
ATOM     20  C   UNL     1      87.826 123.706 130.776  1.00  0.00     0.000 C 
BRANCH  20  21
ATOM     21  C   UNL     1      88.525 122.370 130.457  1.00  0.00     0.000 C 
BRANCH  21  22
ATOM     22  C   UNL     1      88.155 121.195 131.384  1.00  0.00     0.000 C 
BRANCH  22  23
ATOM     23  C   UNL     1      87.155 120.219 130.742  1.00  0.00     0.000 C 
BRANCH  23  24
ATOM     24  C   UNL     1      87.219 120.230 129.205  1.00  0.00    -0.000 C 
BRANCH  24  25
ATOM     25  C   UNL     1      86.111 119.422 128.502  1.00  0.00    -0.000 C 
BRANCH  25  26
ATOM     26  C   UNL     1      84.798 119.263 129.300  1.00  0.00    -0.000 C 
BRANCH  26  27
ATOM     27  C   UNL     1      83.512 119.135 128.455  1.00  0.00    -0.000 C 
BRANCH  27  28
ATOM     28  C   UNL     1      83.720 119.273 126.930  1.00  0.00    -0.000 C 
BRANCH  28  29
ATOM     29  C   UNL     1      83.502 120.702 126.395  1.00  0.00    -0.000 C 
BRANCH  29  30
ATOM     30  C   UNL     1      84.781 121.548 126.256  1.00  0.00    -0.000 C 
BRANCH  30  31
ATOM     31  C   UNL     1      85.007 122.159 124.861  1.00  0.00    -0.003 C 
ATOM     32  C   UNL     1      84.270 123.481 124.659  1.00  0.00     0.004 C 
ENDBRANCH  30  31
ENDBRANCH  29  30
ENDBRANCH  28  29
ENDBRANCH  27  28
ENDBRANCH  26  27
ENDBRANCH  25  26
ENDBRANCH  24  25
ENDBRANCH  23  24
ENDBRANCH  22  23
ENDBRANCH  21  22
ENDBRANCH  20  21
ENDBRANCH  19  20
ENDBRANCH  18  19
ENDBRANCH   1  18
TORSDOF 28
ENDMDL
MODEL 2
REMARK VINA RESULT:    -3.217      4.143      6.406
REMARK INTER + INTRA:         -12.414
REMARK INTER:                  -8.788
REMARK INTRA:                  -3.626
REMARK UNBOUND:                -3.931
REMARK SMILES CCCCCCCCCCCCCCCCCCCCCCCCCCCCCC(=O)[O-]
REMARK SMILES IDX 16 1 17 2 18 3 19 4 20 5 21 6 22 7 23 8 24 9 25 10 26 11
REMARK SMILES IDX 27 12 28 13 29 14 30 15 31 16 32 17 15 18 14 19 13 20 12 21
REMARK SMILES IDX 11 22 10 23 9 24 8 25 7 26 6 27 5 28 4 29 3 30 2 31 1 32
REMARK H PARENT
REMARK Flexibility Score: inf
ROOT
ATOM      1  C   UNL     1      87.212 124.016 129.771  1.00  0.00     0.000 C 
ENDROOT
BRANCH   1   2
ATOM      2  C   UNL     1      88.205 122.848 129.875  1.00  0.00     0.000 C 
BRANCH   2   3
ATOM      3  C   UNL     1      88.505 122.449 131.330  1.00  0.00     0.000 C 
BRANCH   3   4
ATOM      4  C   UNL     1      87.621 121.295 131.856  1.00  0.00     0.000 C 
BRANCH   4   5
ATOM      5  C   UNL     1      86.650 121.717 132.973  1.00  0.00     0.000 C 
BRANCH   5   6
ATOM      6  C   UNL     1      85.399 122.424 132.432  1.00  0.00     0.000 C 
BRANCH   6   7
ATOM      7  C   UNL     1      85.364 123.897 132.869  1.00  0.00     0.000 C 
BRANCH   7   8
ATOM      8  C   UNL     1      83.926 124.454 132.922  1.00  0.00     0.000 C 
BRANCH   8   9
ATOM      9  C   UNL     1      82.855 123.437 132.480  1.00  0.00     0.000 C 
BRANCH   9  10
ATOM     10  C   UNL     1      82.746 123.232 130.959  1.00  0.00     0.000 C 
BRANCH  10  11
ATOM     11  C   UNL     1      82.055 121.907 130.590  1.00  0.00     0.000 C 
BRANCH  11  12
ATOM     12  C   UNL     1      82.825 120.671 131.089  1.00  0.00     0.000 C 
BRANCH  12  13
ATOM     13  C   UNL     1      83.600 119.935 129.975  1.00  0.00     0.006 C 
BRANCH  13  14
ATOM     14  C   UNL     1      84.915 120.649 129.623  1.00  0.00     0.053 C 
BRANCH  14  15
ATOM     15  C   UNL     1      85.756 119.825 128.698  1.00  0.00     0.041 C 
ATOM     16  O   UNL     1      85.455 119.727 127.479  1.00  0.00    -0.550 OA
ATOM     17  O   UNL     1      86.842 119.117 129.198  1.00  0.00    -0.550 OA
ENDBRANCH  14  15
ENDBRANCH  13  14
ENDBRANCH  12  13
ENDBRANCH  11  12
ENDBRANCH  10  11
ENDBRANCH   9  10
ENDBRANCH   8   9
ENDBRANCH   7   8
ENDBRANCH   6   7
ENDBRANCH   5   6
ENDBRANCH   4   5
ENDBRANCH   3   4
ENDBRANCH   2   3
ENDBRANCH   1   2
BRANCH   1  18
ATOM     18  C   UNL     1      87.115 124.596 128.349  1.00  0.00     0.000 C 
BRANCH  18  19
ATOM     19  C   UNL     1      86.039 125.693 128.203  1.00  0.00     0.000 C 
BRANCH  19  20
ATOM     20  C   UNL     1      84.884 125.512 129.203  1.00  0.00     0.000 C 
BRANCH  20  21
ATOM     21  C   UNL     1      83.718 124.681 128.635  1.00  0.00     0.000 C 
BRANCH  21  22
ATOM     22  C   UNL     1      83.756 124.446 127.112  1.00  0.00     0.000 C 
BRANCH  22  23
ATOM     23  C   UNL     1      82.412 123.956 126.548  1.00  0.00     0.000 C 
BRANCH  23  24
ATOM     24  C   UNL     1      81.905 122.683 127.246  1.00  0.00    -0.000 C 
BRANCH  24  25
ATOM     25  C   UNL     1      82.762 121.425 127.009  1.00  0.00    -0.000 C 
BRANCH  25  26
ATOM     26  C   UNL     1      81.987 120.169 126.557  1.00  0.00    -0.000 C 
BRANCH  26  27
ATOM     27  C   UNL     1      82.063 119.840 125.050  1.00  0.00    -0.000 C 
BRANCH  27  28
ATOM     28  C   UNL     1      81.876 121.053 124.110  1.00  0.00    -0.000 C 
BRANCH  28  29
ATOM     29  C   UNL     1      82.687 120.963 122.802  1.00  0.00    -0.000 C 
BRANCH  29  30
ATOM     30  C   UNL     1      83.929 121.871 122.741  1.00  0.00    -0.000 C 
BRANCH  30  31
ATOM     31  C   UNL     1      84.142 122.764 123.976  1.00  0.00    -0.003 C 
ATOM     32  C   UNL     1      85.304 122.306 124.854  1.00  0.00     0.004 C 
ENDBRANCH  30  31
ENDBRANCH  29  30
ENDBRANCH  28  29
ENDBRANCH  27  28
ENDBRANCH  26  27
ENDBRANCH  25  26
ENDBRANCH  24  25
ENDBRANCH  23  24
ENDBRANCH  22  23
ENDBRANCH  21  22
ENDBRANCH  20  21
ENDBRANCH  19  20
ENDBRANCH  18  19
ENDBRANCH   1  18
TORSDOF 28
ENDMDL
MODEL 3
REMARK VINA RESULT:    -3.167      1.395      4.785
REMARK INTER + INTRA:         -12.281
REMARK INTER:                  -9.119
REMARK INTRA:                  -3.162
REMARK UNBOUND:                -3.931
REMARK SMILES CCCCCCCCCCCCCCCCCCCCCCCCCCCCCC(=O)[O-]
REMARK SMILES IDX 16 1 17 2 18 3 19 4 20 5 21 6 22 7 23 8 24 9 25 10 26 11
REMARK SMILES IDX 27 12 28 13 29 14 30 15 31 16 32 17 15 18 14 19 13 20 12 21
REMARK SMILES IDX 11 22 10 23 9 24 8 25 7 26 6 27 5 28 4 29 3 30 2 31 1 32
REMARK H PARENT
REMARK Flexibility Score: inf
ROOT
ATOM      1  C   UNL     1      85.116 124.054 126.814  1.00  0.00     0.000 C 
ENDROOT
BRANCH   1   2
ATOM      2  C   UNL     1      83.991 124.274 127.837  1.00  0.00     0.000 C 
BRANCH   2   3
ATOM      3  C   UNL     1      83.143 123.012 128.071  1.00  0.00     0.000 C 
BRANCH   3   4
ATOM      4  C   UNL     1      81.884 123.258 128.935  1.00  0.00     0.000 C 
BRANCH   4   5
ATOM      5  C   UNL     1      82.045 122.823 130.403  1.00  0.00     0.000 C 
BRANCH   5   6
ATOM      6  C   UNL     1      82.046 124.013 131.375  1.00  0.00     0.000 C 
BRANCH   6   7
ATOM      7  C   UNL     1      82.557 123.592 132.762  1.00  0.00     0.000 C 
BRANCH   7   8
ATOM      8  C   UNL     1      83.894 124.274 133.120  1.00  0.00     0.000 C 
BRANCH   8   9
ATOM      9  C   UNL     1      84.133 125.596 132.364  1.00  0.00     0.000 C 
BRANCH   9  10
ATOM     10  C   UNL     1      83.709 126.863 133.125  1.00  0.00     0.000 C 
BRANCH  10  11
ATOM     11  C   UNL     1      82.203 127.154 132.994  1.00  0.00     0.000 C 
BRANCH  11  12
ATOM     12  C   UNL     1      81.908 128.432 132.186  1.00  0.00     0.000 C 
BRANCH  12  13
ATOM     13  C   UNL     1      82.450 129.718 132.846  1.00  0.00     0.006 C 
BRANCH  13  14
ATOM     14  C   UNL     1      81.990 130.982 132.102  1.00  0.00     0.053 C 
BRANCH  14  15
ATOM     15  C   UNL     1      83.154 131.757 131.566  1.00  0.00     0.041 C 
ATOM     16  O   UNL     1      83.085 132.313 130.438  1.00  0.00    -0.550 OA
ATOM     17  O   UNL     1      84.337 131.817 132.291  1.00  0.00    -0.550 OA
ENDBRANCH  14  15
ENDBRANCH  13  14
ENDBRANCH  12  13
ENDBRANCH  11  12
ENDBRANCH  10  11
ENDBRANCH   9  10
ENDBRANCH   8   9
ENDBRANCH   7   8
ENDBRANCH   6   7
ENDBRANCH   5   6
ENDBRANCH   4   5
ENDBRANCH   3   4
ENDBRANCH   2   3
ENDBRANCH   1   2
BRANCH   1  18
ATOM     18  C   UNL     1      84.799 122.938 125.803  1.00  0.00     0.000 C 
BRANCH  18  19
ATOM     19  C   UNL     1      83.780 123.357 124.722  1.00  0.00     0.000 C 
BRANCH  19  20
ATOM     20  C   UNL     1      82.452 122.592 124.845  1.00  0.00     0.000 C 
BRANCH  20  21
ATOM     21  C   UNL     1      82.530 121.155 124.292  1.00  0.00     0.000 C 
BRANCH  21  22
ATOM     22  C   UNL     1      82.997 120.086 125.299  1.00  0.00     0.000 C 
BRANCH  22  23
ATOM     23  C   UNL     1      81.876 119.627 126.247  1.00  0.00     0.000 C 
BRANCH  23  24
ATOM     24  C   UNL     1      82.413 118.875 127.478  1.00  0.00    -0.000 C 
BRANCH  24  25
ATOM     25  C   UNL     1      83.363 119.691 128.375  1.00  0.00    -0.000 C 
BRANCH  25  26
ATOM     26  C   UNL     1      84.853 119.652 127.972  1.00  0.00    -0.000 C 
BRANCH  26  27
ATOM     27  C   UNL     1      85.727 120.799 128.524  1.00  0.00    -0.000 C 
BRANCH  27  28
ATOM     28  C   UNL     1      87.136 120.372 128.998  1.00  0.00    -0.000 C 
BRANCH  28  29
ATOM     29  C   UNL     1      87.863 121.438 129.841  1.00  0.00    -0.000 C 
BRANCH  29  30
ATOM     30  C   UNL     1      87.075 121.956 131.059  1.00  0.00    -0.000 C 
BRANCH  30  31
ATOM     31  C   UNL     1      86.704 123.449 131.005  1.00  0.00    -0.003 C 
ATOM     32  C   UNL     1      87.285 124.166 129.788  1.00  0.00     0.004 C 
ENDBRANCH  30  31
ENDBRANCH  29  30
ENDBRANCH  28  29
ENDBRANCH  27  28
ENDBRANCH  26  27
ENDBRANCH  25  26
ENDBRANCH  24  25
ENDBRANCH  23  24
ENDBRANCH  22  23
ENDBRANCH  21  22
ENDBRANCH  20  21
ENDBRANCH  19  20
ENDBRANCH  18  19
ENDBRANCH   1  18
TORSDOF 28
ENDMDL
MODEL 4
REMARK VINA RESULT:    -2.985      1.225      2.488
REMARK INTER + INTRA:         -11.801
REMARK INTER:                  -8.773
REMARK INTRA:                  -3.029
REMARK UNBOUND:                -3.931
REMARK SMILES CCCCCCCCCCCCCCCCCCCCCCCCCCCCCC(=O)[O-]
REMARK SMILES IDX 16 1 17 2 18 3 19 4 20 5 21 6 22 7 23 8 24 9 25 10 26 11
REMARK SMILES IDX 27 12 28 13 29 14 30 15 31 16 32 17 15 18 14 19 13 20 12 21
REMARK SMILES IDX 11 22 10 23 9 24 8 25 7 26 6 27 5 28 4 29 3 30 2 31 1 32
REMARK H PARENT
REMARK Flexibility Score: inf
ROOT
ATOM      1  C   UNL     1      85.886 124.220 131.897  1.00  0.00     0.000 C 
ENDROOT
BRANCH   1   2
ATOM      2  C   UNL     1      86.123 122.782 132.385  1.00  0.00     0.000 C 
BRANCH   2   3
ATOM      3  C   UNL     1      84.867 122.149 133.009  1.00  0.00     0.000 C 
BRANCH   3   4
ATOM      4  C   UNL     1      83.980 121.393 131.993  1.00  0.00     0.000 C 
BRANCH   4   5
ATOM      5  C   UNL     1      83.388 122.294 130.896  1.00  0.00     0.000 C 
BRANCH   5   6
ATOM      6  C   UNL     1      82.047 122.921 131.306  1.00  0.00     0.000 C 
BRANCH   6   7
ATOM      7  C   UNL     1      82.132 123.537 132.711  1.00  0.00     0.000 C 
BRANCH   7   8
ATOM      8  C   UNL     1      81.875 125.058 132.696  1.00  0.00     0.000 C 
BRANCH   8   9
ATOM      9  C   UNL     1      82.932 125.853 131.904  1.00  0.00     0.000 C 
BRANCH   9  10
ATOM     10  C   UNL     1      82.572 127.326 131.643  1.00  0.00     0.000 C 
BRANCH  10  11
ATOM     11  C   UNL     1      82.748 128.208 132.893  1.00  0.00     0.000 C 
BRANCH  11  12
ATOM     12  C   UNL     1      82.523 129.705 132.606  1.00  0.00     0.000 C 
BRANCH  12  13
ATOM     13  C   UNL     1      83.346 130.234 131.413  1.00  0.00     0.006 C 
BRANCH  13  14
ATOM     14  C   UNL     1      84.020 131.578 131.731  1.00  0.00     0.053 C 
BRANCH  14  15
ATOM     15  C   UNL     1      83.090 132.728 131.495  1.00  0.00     0.041 C 
ATOM     16  O   UNL     1      83.128 133.366 130.409  1.00  0.00    -0.550 OA
ATOM     17  O   UNL     1      82.219 133.130 132.499  1.00  0.00    -0.550 OA
ENDBRANCH  14  15
ENDBRANCH  13  14
ENDBRANCH  12  13
ENDBRANCH  11  12
ENDBRANCH  10  11
ENDBRANCH   9  10
ENDBRANCH   8   9
ENDBRANCH   7   8
ENDBRANCH   6   7
ENDBRANCH   5   6
ENDBRANCH   4   5
ENDBRANCH   3   4
ENDBRANCH   2   3
ENDBRANCH   1   2
BRANCH   1  18
ATOM     18  C   UNL     1      86.941 124.690 130.880  1.00  0.00     0.000 C 
BRANCH  18  19
ATOM     19  C   UNL     1      87.302 123.621 129.827  1.00  0.00     0.000 C 
BRANCH  19  20
ATOM     20  C   UNL     1      88.652 122.945 130.123  1.00  0.00     0.000 C 
BRANCH  20  21
ATOM     21  C   UNL     1      88.562 121.407 130.155  1.00  0.00     0.000 C 
BRANCH  21  22
ATOM     22  C   UNL     1      87.136 120.831 130.254  1.00  0.00     0.000 C 
BRANCH  22  23
ATOM     23  C   UNL     1      86.828 119.801 129.155  1.00  0.00     0.000 C 
BRANCH  23  24
ATOM     24  C   UNL     1      85.447 119.147 129.326  1.00  0.00    -0.000 C 
BRANCH  24  25
ATOM     25  C   UNL     1      84.362 119.653 128.357  1.00  0.00    -0.000 C 
BRANCH  25  26
ATOM     26  C   UNL     1      84.884 120.282 127.047  1.00  0.00    -0.000 C 
BRANCH  26  27
ATOM     27  C   UNL     1      83.820 120.961 126.158  1.00  0.00    -0.000 C 
BRANCH  27  28
ATOM     28  C   UNL     1      83.162 122.216 126.777  1.00  0.00    -0.000 C 
BRANCH  28  29
ATOM     29  C   UNL     1      84.036 123.484 126.701  1.00  0.00    -0.000 C 
BRANCH  29  30
ATOM     30  C   UNL     1      84.680 123.912 128.032  1.00  0.00    -0.000 C 
BRANCH  30  31
ATOM     31  C   UNL     1      84.193 125.265 128.583  1.00  0.00    -0.003 C 
ATOM     32  C   UNL     1      85.241 126.370 128.469  1.00  0.00     0.004 C 
ENDBRANCH  30  31
ENDBRANCH  29  30
ENDBRANCH  28  29
ENDBRANCH  27  28
ENDBRANCH  26  27
ENDBRANCH  25  26
ENDBRANCH  24  25
ENDBRANCH  23  24
ENDBRANCH  22  23
ENDBRANCH  21  22
ENDBRANCH  20  21
ENDBRANCH  19  20
ENDBRANCH  18  19
ENDBRANCH   1  18
TORSDOF 28
ENDMDL
MODEL 5
REMARK VINA RESULT:    -2.749      3.930      6.885
REMARK INTER + INTRA:         -11.180
REMARK INTER:                  -8.427
REMARK INTRA:                  -2.753
REMARK UNBOUND:                -3.931
REMARK SMILES CCCCCCCCCCCCCCCCCCCCCCCCCCCCCC(=O)[O-]
REMARK SMILES IDX 16 1 17 2 18 3 19 4 20 5 21 6 22 7 23 8 24 9 25 10 26 11
REMARK SMILES IDX 27 12 28 13 29 14 30 15 31 16 32 17 15 18 14 19 13 20 12 21
REMARK SMILES IDX 11 22 10 23 9 24 8 25 7 26 6 27 5 28 4 29 3 30 2 31 1 32
REMARK H PARENT
REMARK Flexibility Score: inf
ROOT
ATOM      1  C   UNL     1      86.450 124.387 129.401  1.00  0.00     0.000 C 
ENDROOT
BRANCH   1   2
ATOM      2  C   UNL     1      87.721 123.621 129.800  1.00  0.00     0.000 C 
BRANCH   2   3
ATOM      3  C   UNL     1      88.043 123.741 131.300  1.00  0.00     0.000 C 
BRANCH   3   4
ATOM      4  C   UNL     1      87.349 122.672 132.175  1.00  0.00     0.000 C 
BRANCH   4   5
ATOM      5  C   UNL     1      86.194 123.225 133.029  1.00  0.00     0.000 C 
BRANCH   5   6
ATOM      6  C   UNL     1      84.861 122.513 132.752  1.00  0.00     0.000 C 
BRANCH   6   7
ATOM      7  C   UNL     1      83.763 123.522 132.383  1.00  0.00     0.000 C 
BRANCH   7   8
ATOM      8  C   UNL     1      82.401 122.837 132.142  1.00  0.00     0.000 C 
BRANCH   8   9
ATOM      9  C   UNL     1      82.473 121.298 132.173  1.00  0.00     0.000 C 
BRANCH   9  10
ATOM     10  C   UNL     1      81.875 120.598 130.940  1.00  0.00     0.000 C 
BRANCH  10  11
ATOM     11  C   UNL     1      82.664 119.340 130.535  1.00  0.00     0.000 C 
BRANCH  11  12
ATOM     12  C   UNL     1      83.733 119.623 129.462  1.00  0.00     0.000 C 
BRANCH  12  13
ATOM     13  C   UNL     1      84.833 120.599 129.930  1.00  0.00     0.006 C 
BRANCH  13  14
ATOM     14  C   UNL     1      86.072 119.857 130.456  1.00  0.00     0.053 C 
BRANCH  14  15
ATOM     15  C   UNL     1      87.138 119.758 129.408  1.00  0.00     0.041 C 
ATOM     16  O   UNL     1      87.000 118.974 128.431  1.00  0.00    -0.550 OA
ATOM     17  O   UNL     1      88.310 120.490 129.543  1.00  0.00    -0.550 OA
ENDBRANCH  14  15
ENDBRANCH  13  14
ENDBRANCH  12  13
ENDBRANCH  11  12
ENDBRANCH  10  11
ENDBRANCH   9  10
ENDBRANCH   8   9
ENDBRANCH   7   8
ENDBRANCH   6   7
ENDBRANCH   5   6
ENDBRANCH   4   5
ENDBRANCH   3   4
ENDBRANCH   2   3
ENDBRANCH   1   2
BRANCH   1  18
ATOM     18  C   UNL     1      86.692 125.404 128.272  1.00  0.00     0.000 C 
BRANCH  18  19
ATOM     19  C   UNL     1      85.466 126.292 127.970  1.00  0.00     0.000 C 
BRANCH  19  20
ATOM     20  C   UNL     1      84.692 126.670 129.245  1.00  0.00     0.000 C 
BRANCH  20  21
ATOM     21  C   UNL     1      83.522 125.713 129.545  1.00  0.00     0.000 C 
BRANCH  21  22
ATOM     22  C   UNL     1      83.495 124.420 128.707  1.00  0.00     0.000 C 
BRANCH  22  23
ATOM     23  C   UNL     1      82.069 123.960 128.361  1.00  0.00     0.000 C 
BRANCH  23  24
ATOM     24  C   UNL     1      81.875 122.445 128.544  1.00  0.00    -0.000 C 
BRANCH  24  25
ATOM     25  C   UNL     1      81.908 121.623 127.242  1.00  0.00    -0.000 C 
BRANCH  25  26
ATOM     26  C   UNL     1      81.960 122.448 125.937  1.00  0.00    -0.000 C 
BRANCH  26  27
ATOM     27  C   UNL     1      83.217 122.244 125.064  1.00  0.00    -0.000 C 
BRANCH  27  28
ATOM     28  C   UNL     1      82.931 121.942 123.575  1.00  0.00    -0.000 C 
BRANCH  28  29
ATOM     29  C   UNL     1      82.286 120.564 123.328  1.00  0.00    -0.000 C 
BRANCH  29  30
ATOM     30  C   UNL     1      82.015 120.226 121.850  1.00  0.00    -0.000 C 
BRANCH  30  31
ATOM     31  C   UNL     1      83.121 120.660 120.872  1.00  0.00    -0.003 C 
ATOM     32  C   UNL     1      83.977 119.495 120.381  1.00  0.00     0.004 C 
ENDBRANCH  30  31
ENDBRANCH  29  30
ENDBRANCH  28  29
ENDBRANCH  27  28
ENDBRANCH  26  27
ENDBRANCH  25  26
ENDBRANCH  24  25
ENDBRANCH  23  24
ENDBRANCH  22  23
ENDBRANCH  21  22
ENDBRANCH  20  21
ENDBRANCH  19  20
ENDBRANCH  18  19
ENDBRANCH   1  18
TORSDOF 28
ENDMDL
MODEL 6
REMARK VINA RESULT:    -2.723      3.080      8.584
REMARK INTER + INTRA:         -11.111
REMARK INTER:                  -9.644
REMARK INTRA:                  -1.467
REMARK UNBOUND:                -3.931
REMARK SMILES CCCCCCCCCCCCCCCCCCCCCCCCCCCCCC(=O)[O-]
REMARK SMILES IDX 16 1 17 2 18 3 19 4 20 5 21 6 22 7 23 8 24 9 25 10 26 11
REMARK SMILES IDX 27 12 28 13 29 14 30 15 31 16 32 17 15 18 14 19 13 20 12 21
REMARK SMILES IDX 11 22 10 23 9 24 8 25 7 26 6 27 5 28 4 29 3 30 2 31 1 32
REMARK H PARENT
REMARK Flexibility Score: inf
ROOT
ATOM      1  C   UNL     1      86.805 124.478 130.629  1.00  0.00     0.000 C 
ENDROOT
BRANCH   1   2
ATOM      2  C   UNL     1      88.126 123.744 130.913  1.00  0.00     0.000 C 
BRANCH   2   3
ATOM      3  C   UNL     1      87.976 122.213 130.880  1.00  0.00     0.000 C 
BRANCH   3   4
ATOM      4  C   UNL     1      88.036 121.610 129.458  1.00  0.00     0.000 C 
BRANCH   4   5
ATOM      5  C   UNL     1      87.550 120.152 129.382  1.00  0.00     0.000 C 
BRANCH   5   6
ATOM      6  C   UNL     1      86.214 120.012 128.637  1.00  0.00     0.000 C 
BRANCH   6   7
ATOM      7  C   UNL     1      85.312 118.966 129.311  1.00  0.00     0.000 C 
BRANCH   7   8
ATOM      8  C   UNL     1      83.817 119.218 129.027  1.00  0.00     0.000 C 
BRANCH   8   9
ATOM      9  C   UNL     1      83.556 119.923 127.682  1.00  0.00     0.000 C 
BRANCH   9  10
ATOM     10  C   UNL     1      83.535 118.992 126.457  1.00  0.00     0.000 C 
BRANCH  10  11
ATOM     11  C   UNL     1      82.690 119.557 125.300  1.00  0.00     0.000 C 
BRANCH  11  12
ATOM     12  C   UNL     1      81.884 120.807 125.702  1.00  0.00     0.000 C 
BRANCH  12  13
ATOM     13  C   UNL     1      82.239 122.061 124.877  1.00  0.00     0.006 C 
BRANCH  13  14
ATOM     14  C   UNL     1      83.532 121.871 124.069  1.00  0.00     0.053 C 
BRANCH  14  15
ATOM     15  C   UNL     1      84.702 122.515 124.747  1.00  0.00     0.041 C 
ATOM     16  O   UNL     1      85.770 122.725 124.113  1.00  0.00    -0.550 OA
ATOM     17  O   UNL     1      84.630 122.831 126.098  1.00  0.00    -0.550 OA
ENDBRANCH  14  15
ENDBRANCH  13  14
ENDBRANCH  12  13
ENDBRANCH  11  12
ENDBRANCH  10  11
ENDBRANCH   9  10
ENDBRANCH   8   9
ENDBRANCH   7   8
ENDBRANCH   6   7
ENDBRANCH   5   6
ENDBRANCH   4   5
ENDBRANCH   3   4
ENDBRANCH   2   3
ENDBRANCH   1   2
BRANCH   1  18
ATOM     18  C   UNL     1      85.566 123.659 131.027  1.00  0.00     0.000 C 
BRANCH  18  19
ATOM     19  C   UNL     1      84.983 122.821 129.869  1.00  0.00     0.000 C 
BRANCH  19  20
ATOM     20  C   UNL     1      83.603 123.330 129.420  1.00  0.00     0.000 C 
BRANCH  20  21
ATOM     21  C   UNL     1      83.579 124.847 129.147  1.00  0.00     0.000 C 
BRANCH  21  22
ATOM     22  C   UNL     1      82.841 125.694 130.201  1.00  0.00     0.000 C 
BRANCH  22  23
ATOM     23  C   UNL     1      82.019 124.844 131.185  1.00  0.00     0.000 C 
BRANCH  23  24
ATOM     24  C   UNL     1      82.333 125.171 132.656  1.00  0.00    -0.000 C 
BRANCH  24  25
ATOM     25  C   UNL     1      81.875 126.565 133.124  1.00  0.00    -0.000 C 
BRANCH  25  26
ATOM     26  C   UNL     1      82.644 127.756 132.512  1.00  0.00    -0.000 C 
BRANCH  26  27
ATOM     27  C   UNL     1      82.075 128.314 131.189  1.00  0.00    -0.000 C 
BRANCH  27  28
ATOM     28  C   UNL     1      82.924 129.427 130.534  1.00  0.00    -0.000 C 
BRANCH  28  29
ATOM     29  C   UNL     1      82.232 130.803 130.497  1.00  0.00    -0.000 C 
BRANCH  29  30
ATOM     30  C   UNL     1      81.990 131.449 131.874  1.00  0.00    -0.000 C 
BRANCH  30  31
ATOM     31  C   UNL     1      83.031 132.504 132.288  1.00  0.00    -0.003 C 
ATOM     32  C   UNL     1      84.468 131.994 132.202  1.00  0.00     0.004 C 
ENDBRANCH  30  31
ENDBRANCH  29  30
ENDBRANCH  28  29
ENDBRANCH  27  28
ENDBRANCH  26  27
ENDBRANCH  25  26
ENDBRANCH  24  25
ENDBRANCH  23  24
ENDBRANCH  22  23
ENDBRANCH  21  22
ENDBRANCH  20  21
ENDBRANCH  19  20
ENDBRANCH  18  19
ENDBRANCH   1  18
TORSDOF 28
ENDMDL
MODEL 7
REMARK VINA RESULT:    -2.590      1.340      5.008
REMARK INTER + INTRA:         -10.762
REMARK INTER:                  -8.428
REMARK INTRA:                  -2.334
REMARK UNBOUND:                -3.931
REMARK SMILES CCCCCCCCCCCCCCCCCCCCCCCCCCCCCC(=O)[O-]
REMARK SMILES IDX 16 1 17 2 18 3 19 4 20 5 21 6 22 7 23 8 24 9 25 10 26 11
REMARK SMILES IDX 27 12 28 13 29 14 30 15 31 16 32 17 15 18 14 19 13 20 12 21
REMARK SMILES IDX 11 22 10 23 9 24 8 25 7 26 6 27 5 28 4 29 3 30 2 31 1 32
REMARK H PARENT
REMARK Flexibility Score: inf
ROOT
ATOM      1  C   UNL     1      82.522 121.091 124.970  1.00  0.00     0.000 C 
ENDROOT
BRANCH   1   2
ATOM      2  C   UNL     1      82.716 119.658 125.490  1.00  0.00     0.000 C 
BRANCH   2   3
ATOM      3  C   UNL     1      82.391 119.519 126.988  1.00  0.00     0.000 C 
BRANCH   3   4
ATOM      4  C   UNL     1      81.875 120.823 127.638  1.00  0.00     0.000 C 
BRANCH   4   5
ATOM      5  C   UNL     1      82.977 121.652 128.321  1.00  0.00     0.000 C 
BRANCH   5   6
ATOM      6  C   UNL     1      82.410 122.748 129.237  1.00  0.00     0.000 C 
BRANCH   6   7
ATOM      7  C   UNL     1      83.374 123.057 130.393  1.00  0.00     0.000 C 
BRANCH   7   8
ATOM      8  C   UNL     1      82.648 123.126 131.752  1.00  0.00     0.000 C 
BRANCH   8   9
ATOM      9  C   UNL     1      82.617 124.540 132.363  1.00  0.00     0.000 C 
BRANCH   9  10
ATOM     10  C   UNL     1      81.893 125.597 131.511  1.00  0.00     0.000 C 
BRANCH  10  11
ATOM     11  C   UNL     1      82.509 127.000 131.660  1.00  0.00     0.000 C 
BRANCH  11  12
ATOM     12  C   UNL     1      81.882 127.811 132.809  1.00  0.00     0.000 C 
BRANCH  12  13
ATOM     13  C   UNL     1      82.543 129.189 133.023  1.00  0.00     0.006 C 
BRANCH  13  14
ATOM     14  C   UNL     1      82.240 130.157 131.868  1.00  0.00     0.053 C 
BRANCH  14  15
ATOM     15  C   UNL     1      83.325 131.176 131.708  1.00  0.00     0.041 C 
ATOM     16  O   UNL     1      84.420 131.044 132.318  1.00  0.00    -0.550 OA
ATOM     17  O   UNL     1      83.105 132.303 130.926  1.00  0.00    -0.550 OA
ENDBRANCH  14  15
ENDBRANCH  13  14
ENDBRANCH  12  13
ENDBRANCH  11  12
ENDBRANCH  10  11
ENDBRANCH   9  10
ENDBRANCH   8   9
ENDBRANCH   7   8
ENDBRANCH   6   7
ENDBRANCH   5   6
ENDBRANCH   4   5
ENDBRANCH   3   4
ENDBRANCH   2   3
ENDBRANCH   1   2
BRANCH   1  18
ATOM     18  C   UNL     1      83.362 121.394 123.717  1.00  0.00     0.000 C 
BRANCH  18  19
ATOM     19  C   UNL     1      83.908 122.837 123.676  1.00  0.00     0.000 C 
BRANCH  19  20
ATOM     20  C   UNL     1      85.299 122.951 124.323  1.00  0.00     0.000 C 
BRANCH  20  21
ATOM     21  C   UNL     1      85.268 123.640 125.701  1.00  0.00     0.000 C 
BRANCH  21  22
ATOM     22  C   UNL     1      84.931 122.720 126.891  1.00  0.00     0.000 C 
BRANCH  22  23
ATOM     23  C   UNL     1      85.870 121.506 126.994  1.00  0.00     0.000 C 
BRANCH  23  24
ATOM     24  C   UNL     1      85.806 120.824 128.371  1.00  0.00    -0.000 C 
BRANCH  24  25
ATOM     25  C   UNL     1      87.092 120.932 129.212  1.00  0.00    -0.000 C 
BRANCH  25  26
ATOM     26  C   UNL     1      86.903 120.787 130.738  1.00  0.00    -0.000 C 
BRANCH  26  27
ATOM     27  C   UNL     1      87.626 121.838 131.607  1.00  0.00    -0.000 C 
BRANCH  27  28
ATOM     28  C   UNL     1      87.812 123.218 130.936  1.00  0.00    -0.000 C 
BRANCH  28  29
ATOM     29  C   UNL     1      87.119 124.376 131.682  1.00  0.00    -0.000 C 
BRANCH  29  30
ATOM     30  C   UNL     1      86.068 125.145 130.861  1.00  0.00    -0.000 C 
BRANCH  30  31
ATOM     31  C   UNL     1      86.123 124.898 129.343  1.00  0.00    -0.003 C 
ATOM     32  C   UNL     1      85.232 125.851 128.549  1.00  0.00     0.004 C 
ENDBRANCH  30  31
ENDBRANCH  29  30
ENDBRANCH  28  29
ENDBRANCH  27  28
ENDBRANCH  26  27
ENDBRANCH  25  26
ENDBRANCH  24  25
ENDBRANCH  23  24
ENDBRANCH  22  23
ENDBRANCH  21  22
ENDBRANCH  20  21
ENDBRANCH  19  20
ENDBRANCH  18  19
ENDBRANCH   1  18
TORSDOF 28
ENDMDL
