MODEL 1
REMARK VINA RESULT:    -4.636      0.000      0.000
REMARK INTER + INTRA:          -4.998
REMARK INTER:                  -4.907
REMARK INTRA:                  -0.091
REMARK UNBOUND:                -0.091
REMARK SMILES C=C(C)[C@H]1CC=C(C)C(=O)C1
REMARK SMILES IDX 8 1 7 2 6 3 5 4 4 5 11 6 9 7 10 8 2 9 1 10 3 11
REMARK H PARENT
REMARK Flexibility Score: inf
ROOT
ATOM      1  C   UNL     1       8.072 -21.880  20.578  1.00  0.00     0.048 C 
ATOM      2  C   UNL     1       7.995 -21.324  21.972  1.00  0.00    -0.012 C 
ATOM      3  C   UNL     1       7.106 -20.356  22.259  1.00  0.00    -0.019 C 
ATOM      4  C   UNL     1       7.000 -19.751  23.633  1.00  0.00     0.036 C 
ATOM      5  C   UNL     1       7.331 -20.788  24.723  1.00  0.00     0.025 C 
ATOM      6  C   UNL     1       8.717 -21.409  24.465  1.00  0.00     0.089 C 
ATOM      7  C   UNL     1       8.810 -21.928  23.057  1.00  0.00     0.158 C 
ATOM      8  O   UNL     1       9.619 -22.860  22.797  1.00  0.00    -0.295 OA
ENDROOT
BRANCH   5   9
ATOM      9  C   UNL     1       7.245 -20.180  26.116  1.00  0.00    -0.077 C 
ATOM     10  C   UNL     1       6.907 -20.947  27.165  1.00  0.00     0.008 C 
ATOM     11  C   UNL     1       7.533 -18.720  26.355  1.00  0.00     0.039 C 
ENDBRANCH   5   9
TORSDOF 1
ENDMDL
MODEL 2
REMARK VINA RESULT:    -4.609      3.426      4.932
REMARK INTER + INTRA:          -4.969
REMARK INTER:                  -4.876
REMARK INTRA:                  -0.093
REMARK UNBOUND:                -0.091
REMARK SMILES C=C(C)[C@H]1CC=C(C)C(=O)C1
REMARK SMILES IDX 8 1 7 2 6 3 5 4 4 5 11 6 9 7 10 8 2 9 1 10 3 11
REMARK H PARENT
REMARK Flexibility Score: inf
ROOT
ATOM      1  C   UNL     1       7.495 -14.454  24.045  1.00  0.00     0.048 C 
ATOM      2  C   UNL     1       7.325 -15.905  24.398  1.00  0.00    -0.012 C 
ATOM      3  C   UNL     1       7.090 -16.806  23.428  1.00  0.00    -0.019 C 
ATOM      4  C   UNL     1       6.893 -18.269  23.727  1.00  0.00     0.036 C 
ATOM      5  C   UNL     1       7.730 -18.703  24.944  1.00  0.00     0.025 C 
ATOM      6  C   UNL     1       7.411 -17.812  26.158  1.00  0.00     0.089 C 
ATOM      7  C   UNL     1       7.539 -16.358  25.795  1.00  0.00     0.158 C 
ATOM      8  O   UNL     1       7.795 -15.519  26.701  1.00  0.00    -0.295 OA
ENDROOT
BRANCH   5   9
ATOM      9  C   UNL     1       7.523 -20.176  25.266  1.00  0.00    -0.077 C 
ATOM     10  C   UNL     1       7.801 -21.112  24.343  1.00  0.00     0.008 C 
ATOM     11  C   UNL     1       7.010 -20.623  26.611  1.00  0.00     0.039 C 
ENDBRANCH   5   9
TORSDOF 1
ENDMDL
MODEL 3
REMARK VINA RESULT:    -4.548      5.157      6.093
REMARK INTER + INTRA:          -4.904
REMARK INTER:                  -4.812
REMARK INTRA:                  -0.092
REMARK UNBOUND:                -0.091
REMARK SMILES C=C(C)[C@H]1CC=C(C)C(=O)C1
REMARK SMILES IDX 8 1 7 2 6 3 5 4 4 5 11 6 9 7 10 8 2 9 1 10 3 11
REMARK H PARENT
REMARK Flexibility Score: inf
ROOT
ATOM      1  C   UNL     1       5.951 -13.804  19.661  1.00  0.00     0.048 C 
ATOM      2  C   UNL     1       6.477 -14.343  20.962  1.00  0.00    -0.012 C 
ATOM      3  C   UNL     1       6.261 -13.666  22.103  1.00  0.00    -0.019 C 
ATOM      4  C   UNL     1       6.781 -14.151  23.431  1.00  0.00     0.036 C 
ATOM      5  C   UNL     1       6.810 -15.690  23.485  1.00  0.00     0.025 C 
ATOM      6  C   UNL     1       7.620 -16.251  22.302  1.00  0.00     0.089 C 
ATOM      7  C   UNL     1       7.123 -15.680  21.003  1.00  0.00     0.158 C 
ATOM      8  O   UNL     1       7.296 -16.333  19.938  1.00  0.00    -0.295 OA
ENDROOT
BRANCH   5   9
ATOM      9  C   UNL     1       7.353 -16.189  24.817  1.00  0.00    -0.077 C 
ATOM     10  C   UNL     1       7.094 -17.443  25.221  1.00  0.00     0.008 C 
ATOM     11  C   UNL     1       8.187 -15.303  25.708  1.00  0.00     0.039 C 
ENDBRANCH   5   9
TORSDOF 1
ENDMDL
MODEL 4
REMARK VINA RESULT:    -4.523      3.573      4.911
REMARK INTER + INTRA:          -4.878
REMARK INTER:                  -4.780
REMARK INTRA:                  -0.098
REMARK UNBOUND:                -0.091
REMARK SMILES C=C(C)[C@H]1CC=C(C)C(=O)C1
REMARK SMILES IDX 8 1 7 2 6 3 5 4 4 5 11 6 9 7 10 8 2 9 1 10 3 11
REMARK H PARENT
REMARK Flexibility Score: inf
ROOT
ATOM      1  C   UNL     1       7.301 -20.754  24.722  1.00  0.00     0.048 C 
ATOM      2  C   UNL     1       7.377 -19.276  24.458  1.00  0.00    -0.012 C 
ATOM      3  C   UNL     1       7.426 -18.824  23.193  1.00  0.00    -0.019 C 
ATOM      4  C   UNL     1       7.521 -17.356  22.872  1.00  0.00     0.036 C 
ATOM      5  C   UNL     1       6.781 -16.510  23.925  1.00  0.00     0.025 C 
ATOM      6  C   UNL     1       7.306 -16.833  25.336  1.00  0.00     0.089 C 
ATOM      7  C   UNL     1       7.271 -18.316  25.586  1.00  0.00     0.158 C 
ATOM      8  O   UNL     1       7.189 -18.738  26.771  1.00  0.00    -0.295 OA
ENDROOT
BRANCH   5   9
ATOM      9  C   UNL     1       6.887 -15.023  23.620  1.00  0.00    -0.077 C 
ATOM     10  C   UNL     1       7.756 -14.256  24.300  1.00  0.00     0.008 C 
ATOM     11  C   UNL     1       6.035 -14.376  22.557  1.00  0.00     0.039 C 
ENDBRANCH   5   9
TORSDOF 1
ENDMDL
MODEL 5
REMARK VINA RESULT:    -4.503      5.973      6.869
REMARK INTER + INTRA:          -4.857
REMARK INTER:                  -4.761
REMARK INTRA:                  -0.096
REMARK UNBOUND:                -0.091
REMARK SMILES C=C(C)[C@H]1CC=C(C)C(=O)C1
REMARK SMILES IDX 8 1 7 2 6 3 5 4 4 5 11 6 9 7 10 8 2 9 1 10 3 11
REMARK H PARENT
REMARK Flexibility Score: inf
ROOT
ATOM      1  C   UNL     1       7.363 -14.981  18.067  1.00  0.00     0.048 C 
ATOM      2  C   UNL     1       7.114 -15.139  19.541  1.00  0.00    -0.012 C 
ATOM      3  C   UNL     1       7.776 -16.083  20.234  1.00  0.00    -0.019 C 
ATOM      4  C   UNL     1       7.552 -16.296  21.708  1.00  0.00     0.036 C 
ATOM      5  C   UNL     1       7.213 -14.970  22.414  1.00  0.00     0.025 C 
ATOM      6  C   UNL     1       6.008 -14.295  21.734  1.00  0.00     0.089 C 
ATOM      7  C   UNL     1       6.237 -14.175  20.252  1.00  0.00     0.158 C 
ATOM      8  O   UNL     1       5.643 -13.267  19.610  1.00  0.00    -0.295 OA
ENDROOT
BRANCH   5   9
ATOM      9  C   UNL     1       6.966 -15.179  23.902  1.00  0.00    -0.077 C 
ATOM     10  C   UNL     1       5.924 -15.919  24.314  1.00  0.00     0.008 C 
ATOM     11  C   UNL     1       7.874 -14.572  24.942  1.00  0.00     0.039 C 
ENDBRANCH   5   9
TORSDOF 1
ENDMDL
MODEL 6
REMARK VINA RESULT:    -4.431      4.489      6.338
REMARK INTER + INTRA:          -4.780
REMARK INTER:                  -4.684
REMARK INTRA:                  -0.096
REMARK UNBOUND:                -0.091
REMARK SMILES C=C(C)[C@H]1CC=C(C)C(=O)C1
REMARK SMILES IDX 8 1 7 2 6 3 5 4 4 5 11 6 9 7 10 8 2 9 1 10 3 11
REMARK H PARENT
REMARK Flexibility Score: inf
ROOT
ATOM      1  C   UNL     1       7.462 -18.499  26.566  1.00  0.00     0.048 C 
ATOM      2  C   UNL     1       7.427 -17.551  25.399  1.00  0.00    -0.012 C 
ATOM      3  C   UNL     1       7.139 -18.014  24.169  1.00  0.00    -0.019 C 
ATOM      4  C   UNL     1       7.109 -17.113  22.964  1.00  0.00     0.036 C 
ATOM      5  C   UNL     1       6.639 -15.696  23.343  1.00  0.00     0.025 C 
ATOM      6  C   UNL     1       7.516 -15.127  24.474  1.00  0.00     0.089 C 
ATOM      7  C   UNL     1       7.586 -16.092  25.625  1.00  0.00     0.158 C 
ATOM      8  O   UNL     1       7.822 -15.653  26.783  1.00  0.00    -0.295 OA
ENDROOT
BRANCH   5   9
ATOM      9  C   UNL     1       6.623 -14.772  22.133  1.00  0.00    -0.077 C 
ATOM     10  C   UNL     1       6.265 -13.485  22.274  1.00  0.00     0.008 C 
ATOM     11  C   UNL     1       7.007 -15.266  20.761  1.00  0.00     0.039 C 
ENDBRANCH   5   9
TORSDOF 1
ENDMDL
MODEL 7
REMARK VINA RESULT:    -4.381      4.060      5.170
REMARK INTER + INTRA:          -4.728
REMARK INTER:                  -4.635
REMARK INTRA:                  -0.093
REMARK UNBOUND:                -0.091
REMARK SMILES C=C(C)[C@H]1CC=C(C)C(=O)C1
REMARK SMILES IDX 8 1 7 2 6 3 5 4 4 5 11 6 9 7 10 8 2 9 1 10 3 11
REMARK H PARENT
REMARK Flexibility Score: inf
ROOT
ATOM      1  C   UNL     1       6.013 -13.886  21.732  1.00  0.00     0.048 C 
ATOM      2  C   UNL     1       6.490 -15.047  22.560  1.00  0.00    -0.012 C 
ATOM      3  C   UNL     1       5.964 -15.261  23.779  1.00  0.00    -0.019 C 
ATOM      4  C   UNL     1       6.419 -16.397  24.657  1.00  0.00     0.036 C 
ATOM      5  C   UNL     1       6.835 -17.617  23.813  1.00  0.00     0.025 C 
ATOM      6  C   UNL     1       7.905 -17.213  22.782  1.00  0.00     0.089 C 
ATOM      7  C   UNL     1       7.447 -16.025  21.982  1.00  0.00     0.158 C 
ATOM      8  O   UNL     1       7.915 -15.845  20.825  1.00  0.00    -0.295 OA
ENDROOT
BRANCH   5   9
ATOM      9  C   UNL     1       7.314 -18.764  24.691  1.00  0.00    -0.077 C 
ATOM     10  C   UNL     1       7.448 -19.996  24.174  1.00  0.00     0.008 C 
ATOM     11  C   UNL     1       7.649 -18.554  26.146  1.00  0.00     0.039 C 
ENDBRANCH   5   9
TORSDOF 1
ENDMDL
MODEL 8
REMARK VINA RESULT:    -4.348      5.425      6.222
REMARK INTER + INTRA:          -4.693
REMARK INTER:                  -4.594
REMARK INTRA:                  -0.099
REMARK UNBOUND:                -0.091
REMARK SMILES C=C(C)[C@H]1CC=C(C)C(=O)C1
REMARK SMILES IDX 8 1 7 2 6 3 5 4 4 5 11 6 9 7 10 8 2 9 1 10 3 11
REMARK H PARENT
REMARK Flexibility Score: inf
ROOT
ATOM      1  C   UNL     1       6.734 -15.150  19.941  1.00  0.00     0.048 C 
ATOM      2  C   UNL     1       7.181 -15.390  21.356  1.00  0.00    -0.012 C 
ATOM      3  C   UNL     1       8.052 -16.380  21.624  1.00  0.00    -0.019 C 
ATOM      4  C   UNL     1       8.518 -16.675  23.025  1.00  0.00     0.036 C 
ATOM      5  C   UNL     1       8.587 -15.389  23.869  1.00  0.00     0.025 C 
ATOM      6  C   UNL     1       7.230 -14.663  23.848  1.00  0.00     0.089 C 
ATOM      7  C   UNL     1       6.760 -14.460  22.434  1.00  0.00     0.158 C 
ATOM      8  O   UNL     1       5.972 -13.510  22.178  1.00  0.00    -0.295 OA
ENDROOT
BRANCH   5   9
ATOM      9  C   UNL     1       9.040 -15.681  25.292  1.00  0.00    -0.077 C 
ATOM     10  C   UNL     1       8.204 -15.468  26.322  1.00  0.00     0.008 C 
ATOM     11  C   UNL     1      10.420 -16.213  25.585  1.00  0.00     0.039 C 
ENDBRANCH   5   9
TORSDOF 1
ENDMDL
MODEL 9
REMARK VINA RESULT:    -4.291      1.764      2.588
REMARK INTER + INTRA:          -4.633
REMARK INTER:                  -4.537
REMARK INTRA:                  -0.096
REMARK UNBOUND:                -0.091
REMARK SMILES C=C(C)[C@H]1CC=C(C)C(=O)C1
REMARK SMILES IDX 8 1 7 2 6 3 5 4 4 5 11 6 9 7 10 8 2 9 1 10 3 11
REMARK H PARENT
REMARK Flexibility Score: inf
ROOT
ATOM      1  C   UNL     1       8.759 -22.573  21.923  1.00  0.00     0.048 C 
ATOM      2  C   UNL     1       8.163 -21.442  22.713  1.00  0.00    -0.012 C 
ATOM      3  C   UNL     1       8.277 -21.429  24.053  1.00  0.00    -0.019 C 
ATOM      4  C   UNL     1       7.684 -20.330  24.895  1.00  0.00     0.036 C 
ATOM      5  C   UNL     1       7.703 -18.986  24.144  1.00  0.00     0.025 C 
ATOM      6  C   UNL     1       6.997 -19.123  22.783  1.00  0.00     0.089 C 
ATOM      7  C   UNL     1       7.562 -20.281  22.008  1.00  0.00     0.158 C 
ATOM      8  O   UNL     1       7.486 -20.275  20.750  1.00  0.00    -0.295 OA
ENDROOT
BRANCH   5   9
ATOM      9  C   UNL     1       7.088 -17.872  24.980  1.00  0.00    -0.077 C 
ATOM     10  C   UNL     1       7.300 -17.830  26.305  1.00  0.00     0.008 C 
ATOM     11  C   UNL     1       6.238 -16.796  24.352  1.00  0.00     0.039 C 
ENDBRANCH   5   9
TORSDOF 1
ENDMDL
