MODEL 1
REMARK VINA RESULT:    -3.050      0.000      0.000
REMARK INTER + INTRA:          -4.943
REMARK INTER:                  -4.119
REMARK INTRA:                  -0.823
REMARK UNBOUND:                -0.823
REMARK SMILES CC(=O)CCC=C(C)CCC=C(C)C
REMARK SMILES IDX 7 1 6 2 8 3 9 4 10 5 11 6 13 7 12 8 14 9 5 10 4 11 2 12 3 13
REMARK SMILES IDX 1 14
REMARK H PARENT
REMARK Flexibility Score: inf
ROOT
ATOM      1  C   UNL     1     170.104 170.517 148.078  1.00  0.00    -0.077 C 
ATOM      2  C   UNL     1     169.597 171.660 147.566  1.00  0.00    -0.028 C 
ATOM      3  C   UNL     1     169.525 169.169 147.719  1.00  0.00     0.039 C 
ENDROOT
BRANCH   1   4
ATOM      4  C   UNL     1     171.278 170.589 149.029  1.00  0.00     0.034 C 
BRANCH   4   5
ATOM      5  C   UNL     1     171.011 171.602 150.148  1.00  0.00     0.032 C 
BRANCH   5   6
ATOM      6  C   UNL     1     170.712 170.898 151.449  1.00  0.00    -0.028 C 
ATOM      7  C   UNL     1     168.231 171.087 151.164  1.00  0.00     0.039 C 
ATOM      8  C   UNL     1     169.467 170.637 151.906  1.00  0.00    -0.080 C 
ATOM      9  C   UNL     1     169.324 169.888 153.206  1.00  0.00     0.039 C 
ENDBRANCH   5   6
ENDBRANCH   4   5
ENDBRANCH   1   4
BRANCH   2  10
ATOM     10  C   UNL     1     168.427 171.688 146.612  1.00  0.00     0.035 C 
BRANCH  10  11
ATOM     11  C   UNL     1     168.876 172.056 145.194  1.00  0.00     0.079 C 
BRANCH  11  12
ATOM     12  C   UNL     1     167.710 172.026 144.241  1.00  0.00     0.130 C 
ATOM     13  O   UNL     1     166.575 171.925 144.683  1.00  0.00    -0.300 OA
ATOM     14  C   UNL     1     167.911 172.107 142.757  1.00  0.00     0.087 C 
ENDBRANCH  11  12
ENDBRANCH  10  11
ENDBRANCH   2  10
TORSDOF 6
ENDMDL
MODEL 2
REMARK VINA RESULT:    -2.986      1.756      2.719
REMARK INTER + INTRA:          -4.856
REMARK INTER:                  -3.338
REMARK INTRA:                  -1.519
REMARK UNBOUND:                -0.823
REMARK SMILES CC(=O)CCC=C(C)CCC=C(C)C
REMARK SMILES IDX 7 1 6 2 8 3 9 4 10 5 11 6 13 7 12 8 14 9 5 10 4 11 2 12 3 13
REMARK SMILES IDX 1 14
REMARK H PARENT
REMARK Flexibility Score: inf
ROOT
ATOM      1  C   UNL     1     170.122 168.754 147.459  1.00  0.00    -0.077 C 
ATOM      2  C   UNL     1     170.311 169.897 146.764  1.00  0.00    -0.028 C 
ATOM      3  C   UNL     1     168.760 168.108 147.555  1.00  0.00     0.039 C 
ENDROOT
BRANCH   1   4
ATOM      4  C   UNL     1     171.299 168.107 148.154  1.00  0.00     0.034 C 
BRANCH   4   5
ATOM      5  C   UNL     1     172.012 169.110 149.068  1.00  0.00     0.032 C 
BRANCH   5   6
ATOM      6  C   UNL     1     171.208 169.359 150.320  1.00  0.00    -0.028 C 
ATOM      7  C   UNL     1     170.964 171.811 149.869  1.00  0.00     0.039 C 
ATOM      8  C   UNL     1     170.709 170.562 150.680  1.00  0.00    -0.080 C 
ATOM      9  C   UNL     1     169.888 170.650 151.942  1.00  0.00     0.039 C 
ENDBRANCH   5   6
ENDBRANCH   4   5
ENDBRANCH   1   4
BRANCH   2  10
ATOM     10  C   UNL     1     169.197 170.616 146.040  1.00  0.00     0.035 C 
BRANCH  10  11
ATOM     11  C   UNL     1     168.774 171.882 146.790  1.00  0.00     0.079 C 
BRANCH  11  12
ATOM     12  C   UNL     1     167.461 171.669 147.497  1.00  0.00     0.130 C 
ATOM     13  O   UNL     1     166.416 171.816 146.880  1.00  0.00    -0.300 OA
ATOM     14  C   UNL     1     167.405 171.290 148.947  1.00  0.00     0.087 C 
ENDBRANCH  11  12
ENDBRANCH  10  11
ENDBRANCH   2  10
TORSDOF 6
ENDMDL
MODEL 3
REMARK VINA RESULT:    -2.966     22.470     23.411
REMARK INTER + INTRA:          -4.829
REMARK INTER:                  -3.949
REMARK INTRA:                  -0.881
REMARK UNBOUND:                -0.823
REMARK SMILES CC(=O)CCC=C(C)CCC=C(C)C
REMARK SMILES IDX 7 1 6 2 8 3 9 4 10 5 11 6 13 7 12 8 14 9 5 10 4 11 2 12 3 13
REMARK SMILES IDX 1 14
REMARK H PARENT
REMARK Flexibility Score: inf
ROOT
ATOM      1  C   UNL     1     153.748 153.546 147.917  1.00  0.00    -0.077 C 
ATOM      2  C   UNL     1     154.495 152.455 147.641  1.00  0.00    -0.028 C 
ATOM      3  C   UNL     1     153.957 154.849 147.181  1.00  0.00     0.039 C 
ENDROOT
BRANCH   1   4
ATOM      4  C   UNL     1     152.678 153.462 148.983  1.00  0.00     0.034 C 
BRANCH   4   5
ATOM      5  C   UNL     1     153.035 152.400 150.030  1.00  0.00     0.032 C 
BRANCH   5   6
ATOM      6  C   UNL     1     153.277 153.036 151.376  1.00  0.00    -0.028 C 
ATOM      7  C   UNL     1     155.769 152.994 151.127  1.00  0.00     0.039 C 
ATOM      8  C   UNL     1     154.499 153.332 151.872  1.00  0.00    -0.080 C 
ATOM      9  C   UNL     1     154.584 154.005 153.218  1.00  0.00     0.039 C 
ENDBRANCH   5   6
ENDBRANCH   4   5
ENDBRANCH   1   4
BRANCH   2  10
ATOM     10  C   UNL     1     155.585 152.444 146.596  1.00  0.00     0.035 C 
BRANCH  10  11
ATOM     11  C   UNL     1     155.076 151.876 145.269  1.00  0.00     0.079 C 
BRANCH  11  12
ATOM     12  C   UNL     1     155.528 152.731 144.114  1.00  0.00     0.130 C 
ATOM     13  O   UNL     1     155.918 153.870 144.326  1.00  0.00    -0.300 OA
ATOM     14  C   UNL     1     155.499 152.221 142.704  1.00  0.00     0.087 C 
ENDBRANCH  11  12
ENDBRANCH  10  11
ENDBRANCH   2  10
TORSDOF 6
ENDMDL
MODEL 4
REMARK VINA RESULT:    -2.960     21.850     23.741
REMARK INTER + INTRA:          -4.822
REMARK INTER:                  -3.652
REMARK INTRA:                  -1.170
REMARK UNBOUND:                -0.823
REMARK SMILES CC(=O)CCC=C(C)CCC=C(C)C
REMARK SMILES IDX 7 1 6 2 8 3 9 4 10 5 11 6 13 7 12 8 14 9 5 10 4 11 2 12 3 13
REMARK SMILES IDX 1 14
REMARK H PARENT
REMARK Flexibility Score: inf
ROOT
ATOM      1  C   UNL     1     157.210 153.916 140.983  1.00  0.00    -0.077 C 
ATOM      2  C   UNL     1     156.918 152.623 141.242  1.00  0.00    -0.028 C 
ATOM      3  C   UNL     1     157.705 154.843 142.069  1.00  0.00     0.039 C 
ENDROOT
BRANCH   1   4
ATOM      4  C   UNL     1     157.041 154.447 139.577  1.00  0.00     0.034 C 
BRANCH   4   5
ATOM      5  C   UNL     1     155.857 155.418 139.501  1.00  0.00     0.032 C 
BRANCH   5   6
ATOM      6  C   UNL     1     154.568 154.674 139.256  1.00  0.00    -0.028 C 
ATOM      7  C   UNL     1     153.769 154.961 141.612  1.00  0.00     0.039 C 
ATOM      8  C   UNL     1     153.609 154.482 140.188  1.00  0.00    -0.080 C 
ATOM      9  C   UNL     1     152.353 153.752 139.786  1.00  0.00     0.039 C 
ENDBRANCH   5   6
ENDBRANCH   4   5
ENDBRANCH   1   4
BRANCH   2  10
ATOM     10  C   UNL     1     157.055 152.005 142.612  1.00  0.00     0.035 C 
BRANCH  10  11
ATOM     11  C   UNL     1     155.699 151.919 143.320  1.00  0.00     0.079 C 
BRANCH  11  12
ATOM     12  C   UNL     1     155.855 152.143 144.801  1.00  0.00     0.130 C 
ATOM     13  O   UNL     1     154.928 151.876 145.551  1.00  0.00    -0.300 OA
ATOM     14  C   UNL     1     157.123 152.700 145.378  1.00  0.00     0.087 C 
ENDBRANCH  11  12
ENDBRANCH  10  11
ENDBRANCH   2  10
TORSDOF 6
ENDMDL
MODEL 5
REMARK VINA RESULT:    -2.960      1.216      1.767
REMARK INTER + INTRA:          -4.821
REMARK INTER:                  -3.803
REMARK INTRA:                  -1.018
REMARK UNBOUND:                -0.823
REMARK SMILES CC(=O)CCC=C(C)CCC=C(C)C
REMARK SMILES IDX 7 1 6 2 8 3 9 4 10 5 11 6 13 7 12 8 14 9 5 10 4 11 2 12 3 13
REMARK SMILES IDX 1 14
REMARK H PARENT
REMARK Flexibility Score: inf
ROOT
ATOM      1  C   UNL     1     169.489 169.805 147.382  1.00  0.00    -0.077 C 
ATOM      2  C   UNL     1     169.932 170.787 146.568  1.00  0.00    -0.028 C 
ATOM      3  C   UNL     1     168.064 169.781 147.881  1.00  0.00     0.039 C 
ENDROOT
BRANCH   1   4
ATOM      4  C   UNL     1     170.439 168.705 147.801  1.00  0.00     0.034 C 
BRANCH   4   5
ATOM      5  C   UNL     1     171.600 169.273 148.626  1.00  0.00     0.032 C 
BRANCH   5   6
ATOM      6  C   UNL     1     171.215 169.395 150.080  1.00  0.00    -0.028 C 
ATOM      7  C   UNL     1     170.958 171.884 149.968  1.00  0.00     0.039 C 
ATOM      8  C   UNL     1     170.899 170.559 150.690  1.00  0.00    -0.080 C 
ATOM      9  C   UNL     1     170.494 170.520 152.142  1.00  0.00     0.039 C 
ENDBRANCH   5   6
ENDBRANCH   4   5
ENDBRANCH   1   4
BRANCH   2  10
ATOM     10  C   UNL     1     169.059 171.926 146.098  1.00  0.00     0.035 C 
BRANCH  10  11
ATOM     11  C   UNL     1     168.703 171.776 144.616  1.00  0.00     0.079 C 
BRANCH  11  12
ATOM     12  C   UNL     1     167.213 171.874 144.413  1.00  0.00     0.130 C 
ATOM     13  O   UNL     1     166.467 171.763 145.375  1.00  0.00    -0.300 OA
ATOM     14  C   UNL     1     166.621 172.095 143.053  1.00  0.00     0.087 C 
ENDBRANCH  11  12
ENDBRANCH  10  11
ENDBRANCH   2  10
TORSDOF 6
ENDMDL
MODEL 6
REMARK VINA RESULT:    -2.935      3.670      7.149
REMARK INTER + INTRA:          -4.789
REMARK INTER:                  -3.434
REMARK INTRA:                  -1.355
REMARK UNBOUND:                -0.823
REMARK SMILES CC(=O)CCC=C(C)CCC=C(C)C
REMARK SMILES IDX 7 1 6 2 8 3 9 4 10 5 11 6 13 7 12 8 14 9 5 10 4 11 2 12 3 13
REMARK SMILES IDX 1 14
REMARK H PARENT
REMARK Flexibility Score: inf
ROOT
ATOM      1  C   UNL     1     166.019 170.780 144.823  1.00  0.00    -0.077 C 
ATOM      2  C   UNL     1     166.547 171.743 145.611  1.00  0.00    -0.028 C 
ATOM      3  C   UNL     1     166.391 169.327 145.002  1.00  0.00     0.039 C 
ENDROOT
BRANCH   1   4
ATOM      4  C   UNL     1     165.034 171.165 143.742  1.00  0.00     0.034 C 
BRANCH   4   5
ATOM      5  C   UNL     1     165.732 171.943 142.621  1.00  0.00     0.032 C 
BRANCH   5   6
ATOM      6  C   UNL     1     166.498 171.009 141.717  1.00  0.00    -0.028 C 
ATOM      7  C   UNL     1     168.732 171.802 142.526  1.00  0.00     0.039 C 
ATOM      8  C   UNL     1     167.846 170.917 141.681  1.00  0.00    -0.080 C 
ATOM      9  C   UNL     1     168.471 169.907 140.753  1.00  0.00     0.039 C 
ENDBRANCH   5   6
ENDBRANCH   4   5
ENDBRANCH   1   4
BRANCH   2  10
ATOM     10  C   UNL     1     167.537 171.456 146.713  1.00  0.00     0.035 C 
BRANCH  10  11
ATOM     11  C   UNL     1     168.961 171.830 146.291  1.00  0.00     0.079 C 
BRANCH  11  12
ATOM     12  C   UNL     1     169.881 170.642 146.407  1.00  0.00     0.130 C 
ATOM     13  O   UNL     1     170.364 170.360 147.494  1.00  0.00    -0.300 OA
ATOM     14  C   UNL     1     170.227 169.801 145.215  1.00  0.00     0.087 C 
ENDBRANCH  11  12
ENDBRANCH  10  11
ENDBRANCH   2  10
TORSDOF 6
ENDMDL
MODEL 7
REMARK VINA RESULT:    -2.904     21.413     23.213
REMARK INTER + INTRA:          -4.746
REMARK INTER:                  -3.424
REMARK INTRA:                  -1.322
REMARK UNBOUND:                -0.823
REMARK SMILES CC(=O)CCC=C(C)CCC=C(C)C
REMARK SMILES IDX 7 1 6 2 8 3 9 4 10 5 11 6 13 7 12 8 14 9 5 10 4 11 2 12 3 13
REMARK SMILES IDX 1 14
REMARK H PARENT
REMARK Flexibility Score: inf
ROOT
ATOM      1  C   UNL     1     157.601 153.230 144.237  1.00  0.00    -0.077 C 
ATOM      2  C   UNL     1     156.984 152.242 144.921  1.00  0.00    -0.028 C 
ATOM      3  C   UNL     1     157.467 154.676 144.654  1.00  0.00     0.039 C 
ENDROOT
BRANCH   1   4
ATOM      4  C   UNL     1     158.445 152.883 143.032  1.00  0.00     0.034 C 
BRANCH   4   5
ATOM      5  C   UNL     1     157.572 152.349 141.891  1.00  0.00     0.032 C 
BRANCH   5   6
ATOM      6  C   UNL     1     156.967 153.484 141.103  1.00  0.00    -0.028 C 
ATOM      7  C   UNL     1     154.649 153.047 141.946  1.00  0.00     0.039 C 
ATOM      8  C   UNL     1     155.660 153.826 141.137  1.00  0.00    -0.080 C 
ATOM      9  C   UNL     1     155.207 155.013 140.325  1.00  0.00     0.039 C 
ENDBRANCH   5   6
ENDBRANCH   4   5
ENDBRANCH   1   4
BRANCH   2  10
ATOM     10  C   UNL     1     156.121 152.492 146.134  1.00  0.00     0.035 C 
BRANCH  10  11
ATOM     11  C   UNL     1     154.633 152.355 145.795  1.00  0.00     0.079 C 
BRANCH  11  12
ATOM     12  C   UNL     1     153.897 153.634 146.097  1.00  0.00     0.130 C 
ATOM     13  O   UNL     1     153.521 153.856 147.238  1.00  0.00    -0.300 OA
ATOM     14  C   UNL     1     153.605 154.641 145.024  1.00  0.00     0.087 C 
ENDBRANCH  11  12
ENDBRANCH  10  11
ENDBRANCH   2  10
TORSDOF 6
ENDMDL
MODEL 8
REMARK VINA RESULT:    -2.894      4.957      8.504
REMARK INTER + INTRA:          -4.733
REMARK INTER:                  -3.558
REMARK INTRA:                  -1.175
REMARK UNBOUND:                -0.823
REMARK SMILES CC(=O)CCC=C(C)CCC=C(C)C
REMARK SMILES IDX 7 1 6 2 8 3 9 4 10 5 11 6 13 7 12 8 14 9 5 10 4 11 2 12 3 13
REMARK SMILES IDX 1 14
REMARK H PARENT
REMARK Flexibility Score: inf
ROOT
ATOM      1  C   UNL     1     166.827 170.019 140.899  1.00  0.00    -0.077 C 
ATOM      2  C   UNL     1     167.053 171.328 141.143  1.00  0.00    -0.028 C 
ATOM      3  C   UNL     1     166.332 169.091 141.983  1.00  0.00     0.039 C 
ENDROOT
BRANCH   1   4
ATOM      4  C   UNL     1     167.074 169.471 139.511  1.00  0.00     0.034 C 
BRANCH   4   5
ATOM      5  C   UNL     1     168.271 168.514 139.508  1.00  0.00     0.032 C 
BRANCH   5   6
ATOM      6  C   UNL     1     169.552 169.258 139.222  1.00  0.00    -0.028 C 
ATOM      7  C   UNL     1     170.275 169.257 141.620  1.00  0.00     0.039 C 
ATOM      8  C   UNL     1     170.474 169.577 140.157  1.00  0.00    -0.080 C 
ATOM      9  C   UNL     1     171.727 170.288 139.715  1.00  0.00     0.039 C 
ENDBRANCH   5   6
ENDBRANCH   4   5
ENDBRANCH   1   4
BRANCH   2  10
ATOM     10  C   UNL     1     166.837 171.964 142.495  1.00  0.00     0.035 C 
BRANCH  10  11
ATOM     11  C   UNL     1     168.159 172.124 143.251  1.00  0.00     0.079 C 
BRANCH  11  12
ATOM     12  C   UNL     1     168.005 171.706 144.690  1.00  0.00     0.130 C 
ATOM     13  O   UNL     1     168.968 171.768 145.440  1.00  0.00    -0.300 OA
ATOM     14  C   UNL     1     166.696 171.203 145.222  1.00  0.00     0.087 C 
ENDBRANCH  11  12
ENDBRANCH  10  11
ENDBRANCH   2  10
TORSDOF 6
ENDMDL
MODEL 9
REMARK VINA RESULT:    -2.854      2.335      3.601
REMARK INTER + INTRA:          -4.679
REMARK INTER:                  -3.186
REMARK INTRA:                  -1.493
REMARK UNBOUND:                -0.823
REMARK SMILES CC(=O)CCC=C(C)CCC=C(C)C
REMARK SMILES IDX 7 1 6 2 8 3 9 4 10 5 11 6 13 7 12 8 14 9 5 10 4 11 2 12 3 13
REMARK SMILES IDX 1 14
REMARK H PARENT
REMARK Flexibility Score: inf
ROOT
ATOM      1  C   UNL     1     170.976 170.109 151.265  1.00  0.00    -0.077 C 
ATOM      2  C   UNL     1     170.828 171.381 150.836  1.00  0.00    -0.028 C 
ATOM      3  C   UNL     1     171.347 168.997 150.312  1.00  0.00     0.039 C 
ENDROOT
BRANCH   1   4
ATOM      4  C   UNL     1     170.769 169.791 152.729  1.00  0.00     0.034 C 
BRANCH   4   5
ATOM      5  C   UNL     1     169.389 170.266 153.200  1.00  0.00     0.032 C 
BRANCH   5   6
ATOM      6  C   UNL     1     168.292 169.503 152.499  1.00  0.00    -0.028 C 
ATOM      7  C   UNL     1     167.240 171.569 151.552  1.00  0.00     0.039 C 
ATOM      8  C   UNL     1     167.335 170.073 151.734  1.00  0.00    -0.080 C 
ATOM      9  C   UNL     1     166.326 169.177 151.063  1.00  0.00     0.039 C 
ENDBRANCH   5   6
ENDBRANCH   4   5
ENDBRANCH   1   4
BRANCH   2  10
ATOM     10  C   UNL     1     171.013 171.793 149.396  1.00  0.00     0.035 C 
BRANCH  10  11
ATOM     11  C   UNL     1     169.670 172.125 148.737  1.00  0.00     0.079 C 
BRANCH  11  12
ATOM     12  C   UNL     1     169.305 171.078 147.717  1.00  0.00     0.130 C 
ATOM     13  O   UNL     1     169.698 171.197 146.566  1.00  0.00    -0.300 OA
ATOM     14  C   UNL     1     168.456 169.895 148.079  1.00  0.00     0.087 C 
ENDBRANCH  11  12
ENDBRANCH  10  11
ENDBRANCH   2  10
TORSDOF 6
ENDMDL
