MODEL 1
REMARK VINA RESULT:    -5.819      0.000      0.000
REMARK INTER + INTRA:         -13.892
REMARK INTER:                 -12.622
REMARK INTRA:                  -1.270
REMARK UNBOUND:                -1.270
REMARK SMILES C[C@H]1O[C@H](OC[C@H]2O[C@@H](Oc3c(-c4ccc(OCCO)c(OCCO)c4)oc4cc(OCCO)cc(O)c4c3=O)[C@H](O)[C@H](O)[C@@H]2O)[C@@H](O)[C@@H](O)[C@H]1O
REMARK SMILES IDX 11 1 12 2 27 3 28 4 29 5 30 6 35 7 36 8 38 9 39 10 40 11
REMARK SMILES IDX 10 12 9 13 7 14 45 15 8 16 43 17 41 18 6 19 5 20 4 21 1 22
REMARK SMILES IDX 2 23 51 24 3 25 49 26 47 27 52 28 50 30 48 32 46 34 44 36
REMARK SMILES IDX 42 38 13 40 26 41 14 42 21 43 15 44 16 45 22 46 23 47 24 48
REMARK SMILES IDX 25 49 17 51 18 52 19 53 20 54 37 56 31 58 32 59 33 60 34 61
REMARK H PARENT 52 29 50 31 48 33 46 35 44 37 42 39 25 50 20 55 37 57 34 62
REMARK Flexibility Score: inf
ROOT
ATOM      1  C   UNL     1      -9.188  31.695   6.855  1.00  0.00     0.214 A 
ATOM      2  C   UNL     1      -8.110  31.914   5.979  1.00  0.00     0.180 A 
ATOM      3  O   UNL     1      -7.796  33.161   5.628  1.00  0.00    -0.452 OA
ATOM      4  C   UNL     1      -8.508  34.214   6.009  1.00  0.00     0.146 A 
ATOM      5  C   UNL     1      -8.006  35.499   5.769  1.00  0.00     0.094 A 
ATOM      6  C   UNL     1      -8.683  36.629   6.232  1.00  0.00     0.126 A 
ATOM      7  C   UNL     1      -9.959  36.471   6.805  1.00  0.00     0.093 A 
ATOM      8  C   UNL     1     -10.508  35.198   7.003  1.00  0.00     0.134 A 
ATOM      9  C   UNL     1      -9.738  34.049   6.698  1.00  0.00     0.111 A 
ATOM     10  C   UNL     1     -10.041  32.754   7.167  1.00  0.00     0.239 A 
ATOM     11  O   UNL     1     -10.971  32.554   7.993  1.00  0.00    -0.285 OA
ENDROOT
BRANCH   1  12
ATOM     12  O   UNL     1      -9.265  30.517   7.604  1.00  0.00    -0.454 OA
BRANCH  12  13
ATOM     13  C   UNL     1     -10.184  29.510   7.190  1.00  0.00     0.339 C 
ATOM     14  C   UNL     1     -12.368  28.775   7.977  1.00  0.00     0.180 C 
ATOM     15  C   UNL     1     -12.043  27.313   7.460  1.00  0.00     0.177 C 
ATOM     16  O   UNL     1     -11.480  29.843   7.658  1.00  0.00    -0.332 OA
ATOM     17  C   UNL     1     -10.596  27.113   6.926  1.00  0.00     0.180 C 
ATOM     18  C   UNL     1      -9.683  28.124   7.610  1.00  0.00     0.214 C 
BRANCH  14  19
ATOM     19  C   UNL     1     -12.632  28.825   9.500  1.00  0.00     0.198 C 
BRANCH  19  20
ATOM     20  O   UNL     1     -11.830  27.879  10.180  1.00  0.00    -0.347 OA
BRANCH  20  21
ATOM     21  C   UNL     1     -11.885  28.065  11.583  1.00  0.00     0.281 C 
ATOM     22  C   UNL     1     -12.626  26.953  14.259  1.00  0.00     0.041 C 
ATOM     23  C   UNL     1     -11.215  27.093  13.639  1.00  0.00     0.150 C 
ATOM     24  C   UNL     1     -10.389  28.340  14.106  1.00  0.00     0.174 C 
ATOM     25  O   UNL     1     -11.241  26.966  12.226  1.00  0.00    -0.344 OA
ATOM     26  C   UNL     1     -10.025  29.243  12.892  1.00  0.00     0.179 C 
ATOM     27  C   UNL     1     -11.208  29.429  11.923  1.00  0.00     0.202 C 
BRANCH  24  28
ATOM     28  O   UNL     1     -11.037  29.061  15.125  1.00  0.00    -0.388 OA
ATOM     29  H   UNL     1     -10.349  29.435  15.725  1.00  0.00     0.211 HD
ENDBRANCH  24  28
BRANCH  26  30
ATOM     30  O   UNL     1      -9.464  30.474  13.281  1.00  0.00    -0.387 OA
ATOM     31  H   UNL     1      -8.556  30.308  13.658  1.00  0.00     0.211 HD
ENDBRANCH  26  30
BRANCH  27  32
ATOM     32  O   UNL     1     -12.162  30.301  12.465  1.00  0.00    -0.385 OA
ATOM     33  H   UNL     1     -13.046  30.007  12.118  1.00  0.00     0.211 HD
ENDBRANCH  27  32
ENDBRANCH  20  21
ENDBRANCH  19  20
ENDBRANCH  14  19
BRANCH  15  34
ATOM     34  O   UNL     1     -12.997  26.876   6.525  1.00  0.00    -0.387 OA
ATOM     35  H   UNL     1     -12.855  25.901   6.379  1.00  0.00     0.211 HD
ENDBRANCH  15  34
BRANCH  17  36
ATOM     36  O   UNL     1     -10.536  27.291   5.526  1.00  0.00    -0.387 OA
ATOM     37  H   UNL     1      -9.844  27.979   5.340  1.00  0.00     0.211 HD
ENDBRANCH  17  36
BRANCH  18  38
ATOM     38  O   UNL     1      -8.359  27.933   7.207  1.00  0.00    -0.384 OA
ATOM     39  H   UNL     1      -8.111  28.728   6.656  1.00  0.00     0.211 HD
ENDBRANCH  18  38
ENDBRANCH  12  13
ENDBRANCH   1  12
BRANCH   2  40
ATOM     40  C   UNL     1      -7.265  30.788   5.488  1.00  0.00     0.025 A 
ATOM     41  C   UNL     1      -5.961  30.590   5.975  1.00  0.00     0.062 A 
ATOM     42  C   UNL     1      -7.792  29.858   4.584  1.00  0.00     0.016 A 
ATOM     43  C   UNL     1      -5.182  29.496   5.570  1.00  0.00     0.162 A 
ATOM     44  C   UNL     1      -7.014  28.783   4.137  1.00  0.00     0.051 A 
ATOM     45  C   UNL     1      -5.707  28.590   4.613  1.00  0.00     0.161 A 
BRANCH  43  46
ATOM     46  O   UNL     1      -3.927  29.368   6.196  1.00  0.00    -0.487 OA
BRANCH  46  47
ATOM     47  C   UNL     1      -3.591  29.664   7.553  1.00  0.00     0.258 C 
BRANCH  47  48
ATOM     48  C   UNL     1      -2.922  28.473   8.245  1.00  0.00     0.197 C 
BRANCH  48  49
ATOM     49  O   UNL     1      -1.552  28.456   7.957  1.00  0.00    -0.393 OA
ATOM     50  H   UNL     1      -1.147  27.765   8.539  1.00  0.00     0.210 HD
ENDBRANCH  48  49
ENDBRANCH  47  48
ENDBRANCH  46  47
ENDBRANCH  43  46
BRANCH  45  51
ATOM     51  O   UNL     1      -4.935  27.501   4.184  1.00  0.00    -0.487 OA
BRANCH  51  52
ATOM     52  C   UNL     1      -4.580  27.211   2.836  1.00  0.00     0.258 C 
BRANCH  52  53
ATOM     53  C   UNL     1      -3.807  28.386   2.264  1.00  0.00     0.197 C 
BRANCH  53  54
ATOM     54  O   UNL     1      -4.430  28.840   1.099  1.00  0.00    -0.393 OA
ATOM     55  H   UNL     1      -4.964  28.092   0.743  1.00  0.00     0.210 HD
ENDBRANCH  53  54
ENDBRANCH  52  53
ENDBRANCH  51  52
ENDBRANCH  45  51
ENDBRANCH   2  40
BRANCH   8  56
ATOM     56  O   UNL     1     -11.819  35.137   7.489  1.00  0.00    -0.507 OA
ATOM     57  H   UNL     1     -12.264  34.308   7.834  1.00  0.00     0.293 HD
ENDBRANCH   8  56
BRANCH   6  58
ATOM     58  O   UNL     1      -8.009  37.869   6.161  1.00  0.00    -0.491 OA
BRANCH  58  59
ATOM     59  C   UNL     1      -8.415  39.093   6.792  1.00  0.00     0.257 C 
BRANCH  59  60
ATOM     60  C   UNL     1      -9.784  39.507   6.259  1.00  0.00     0.197 C 
BRANCH  60  61
ATOM     61  O   UNL     1     -10.770  39.298   7.240  1.00  0.00    -0.393 OA
ATOM     62  H   UNL     1     -10.873  38.318   7.334  1.00  0.00     0.210 HD
ENDBRANCH  60  61
ENDBRANCH  59  60
ENDBRANCH  58  59
ENDBRANCH   6  58
TORSDOF 25
ENDMDL
MODEL 2
REMARK VINA RESULT:    -5.583      0.894      2.567
REMARK INTER + INTRA:         -13.380
REMARK INTER:                 -13.215
REMARK INTRA:                  -0.165
REMARK UNBOUND:                -1.270
REMARK SMILES C[C@H]1O[C@H](OC[C@H]2O[C@@H](Oc3c(-c4ccc(OCCO)c(OCCO)c4)oc4cc(OCCO)cc(O)c4c3=O)[C@H](O)[C@H](O)[C@@H]2O)[C@@H](O)[C@@H](O)[C@H]1O
REMARK SMILES IDX 11 1 12 2 27 3 28 4 29 5 30 6 35 7 36 8 38 9 39 10 40 11
REMARK SMILES IDX 10 12 9 13 7 14 45 15 8 16 43 17 41 18 6 19 5 20 4 21 1 22
REMARK SMILES IDX 2 23 51 24 3 25 49 26 47 27 52 28 50 30 48 32 46 34 44 36
REMARK SMILES IDX 42 38 13 40 26 41 14 42 21 43 15 44 16 45 22 46 23 47 24 48
REMARK SMILES IDX 25 49 17 51 18 52 19 53 20 54 37 56 31 58 32 59 33 60 34 61
REMARK H PARENT 52 29 50 31 48 33 46 35 44 37 42 39 25 50 20 55 37 57 34 62
REMARK Flexibility Score: inf
ROOT
ATOM      1  C   UNL     1      -8.638  31.971   6.683  1.00  0.00     0.214 A 
ATOM      2  C   UNL     1      -7.328  32.316   6.304  1.00  0.00     0.180 A 
ATOM      3  O   UNL     1      -7.060  33.572   5.948  1.00  0.00    -0.452 OA
ATOM      4  C   UNL     1      -7.998  34.508   5.859  1.00  0.00     0.146 A 
ATOM      5  C   UNL     1      -7.614  35.842   5.675  1.00  0.00     0.094 A 
ATOM      6  C   UNL     1      -8.564  36.864   5.665  1.00  0.00     0.126 A 
ATOM      7  C   UNL     1      -9.930  36.524   5.681  1.00  0.00     0.093 A 
ATOM      8  C   UNL     1     -10.340  35.191   5.806  1.00  0.00     0.134 A 
ATOM      9  C   UNL     1      -9.371  34.176   6.000  1.00  0.00     0.111 A 
ATOM     10  C   UNL     1      -9.673  32.883   6.474  1.00  0.00     0.239 A 
ATOM     11  O   UNL     1     -10.831  32.579   6.865  1.00  0.00    -0.285 OA
ENDROOT
BRANCH   1  12
ATOM     12  O   UNL     1      -8.872  30.850   7.485  1.00  0.00    -0.454 OA
BRANCH  12  13
ATOM     13  C   UNL     1      -9.734  29.830   6.990  1.00  0.00     0.339 C 
ATOM     14  C   UNL     1     -11.929  28.998   7.635  1.00  0.00     0.180 C 
ATOM     15  C   UNL     1     -11.530  27.567   7.087  1.00  0.00     0.177 C 
ATOM     16  O   UNL     1     -11.063  30.105   7.400  1.00  0.00    -0.332 OA
ATOM     17  C   UNL     1     -10.051  27.432   6.623  1.00  0.00     0.180 C 
ATOM     18  C   UNL     1      -9.208  28.447   7.389  1.00  0.00     0.214 C 
BRANCH  14  19
ATOM     19  C   UNL     1     -12.274  28.986   9.143  1.00  0.00     0.198 C 
BRANCH  19  20
ATOM     20  O   UNL     1     -11.296  28.273   9.875  1.00  0.00    -0.347 OA
BRANCH  20  21
ATOM     21  C   UNL     1     -11.575  28.286  11.264  1.00  0.00     0.281 C 
ATOM     22  C   UNL     1     -12.750  26.875  13.625  1.00  0.00     0.041 C 
ATOM     23  C   UNL     1     -11.256  27.048  13.260  1.00  0.00     0.150 C 
ATOM     24  C   UNL     1     -10.504  28.202  14.006  1.00  0.00     0.174 C 
ATOM     25  O   UNL     1     -11.054  27.097  11.856  1.00  0.00    -0.344 OA
ATOM     26  C   UNL     1      -9.939  29.237  12.990  1.00  0.00     0.179 C 
ATOM     27  C   UNL     1     -10.948  29.577  11.876  1.00  0.00     0.202 C 
BRANCH  24  28
ATOM     28  O   UNL     1     -11.301  28.812  14.992  1.00  0.00    -0.388 OA
ATOM     29  H   UNL     1     -12.233  28.514  14.865  1.00  0.00     0.211 HD
ENDBRANCH  24  28
BRANCH  26  30
ATOM     30  O   UNL     1      -9.437  30.393  13.616  1.00  0.00    -0.387 OA
ATOM     31  H   UNL     1      -8.931  30.928  12.942  1.00  0.00     0.211 HD
ENDBRANCH  26  30
BRANCH  27  32
ATOM     32  O   UNL     1     -11.968  30.403  12.366  1.00  0.00    -0.385 OA
ATOM     33  H   UNL     1     -12.526  29.842  12.968  1.00  0.00     0.211 HD
ENDBRANCH  27  32
ENDBRANCH  20  21
ENDBRANCH  19  20
ENDBRANCH  14  19
BRANCH  15  34
ATOM     34  O   UNL     1     -12.418  27.133   6.089  1.00  0.00    -0.387 OA
ATOM     35  H   UNL     1     -12.169  27.589   5.240  1.00  0.00     0.211 HD
ENDBRANCH  15  34
BRANCH  17  36
ATOM     36  O   UNL     1      -9.924  27.661   5.235  1.00  0.00    -0.387 OA
ATOM     37  H   UNL     1     -10.840  27.757   4.862  1.00  0.00     0.211 HD
ENDBRANCH  17  36
BRANCH  18  38
ATOM     38  O   UNL     1      -7.860  28.312   7.049  1.00  0.00    -0.384 OA
ATOM     39  H   UNL     1      -7.433  29.198   7.222  1.00  0.00     0.211 HD
ENDBRANCH  18  38
ENDBRANCH  12  13
ENDBRANCH   1  12
BRANCH   2  40
ATOM     40  C   UNL     1      -6.216  31.324   6.357  1.00  0.00     0.025 A 
ATOM     41  C   UNL     1      -6.229  30.172   5.552  1.00  0.00     0.062 A 
ATOM     42  C   UNL     1      -5.098  31.568   7.162  1.00  0.00     0.016 A 
ATOM     43  C   UNL     1      -5.157  29.266   5.546  1.00  0.00     0.162 A 
ATOM     44  C   UNL     1      -4.037  30.654   7.200  1.00  0.00     0.051 A 
ATOM     45  C   UNL     1      -4.053  29.496   6.405  1.00  0.00     0.161 A 
BRANCH  43  46
ATOM     46  O   UNL     1      -5.259  28.199   4.632  1.00  0.00    -0.487 OA
BRANCH  46  47
ATOM     47  C   UNL     1      -5.295  28.268   3.205  1.00  0.00     0.258 C 
BRANCH  47  48
ATOM     48  C   UNL     1      -3.894  28.442   2.609  1.00  0.00     0.197 C 
BRANCH  48  49
ATOM     49  O   UNL     1      -3.947  28.331   1.215  1.00  0.00    -0.393 OA
ATOM     50  H   UNL     1      -3.197  28.869   0.858  1.00  0.00     0.210 HD
ENDBRANCH  48  49
ENDBRANCH  47  48
ENDBRANCH  46  47
ENDBRANCH  43  46
BRANCH  45  51
ATOM     51  O   UNL     1      -2.981  28.592   6.424  1.00  0.00    -0.487 OA
BRANCH  51  52
ATOM     52  C   UNL     1      -2.051  28.426   7.488  1.00  0.00     0.258 C 
BRANCH  52  53
ATOM     53  C   UNL     1      -2.663  27.524   8.545  1.00  0.00     0.197 C 
BRANCH  53  54
ATOM     54  O   UNL     1      -2.305  27.976   9.817  1.00  0.00    -0.393 OA
ATOM     55  H   UNL     1      -2.771  27.404  10.472  1.00  0.00     0.210 HD
ENDBRANCH  53  54
ENDBRANCH  52  53
ENDBRANCH  51  52
ENDBRANCH  45  51
ENDBRANCH   2  40
BRANCH   8  56
ATOM     56  O   UNL     1     -11.713  34.934   5.716  1.00  0.00    -0.507 OA
ATOM     57  H   UNL     1     -12.302  35.224   4.960  1.00  0.00     0.293 HD
ENDBRANCH   8  56
BRANCH   6  58
ATOM     58  O   UNL     1      -8.093  38.196   5.710  1.00  0.00    -0.491 OA
BRANCH  58  59
ATOM     59  C   UNL     1      -8.617  39.255   6.524  1.00  0.00     0.257 C 
BRANCH  59  60
ATOM     60  C   UNL     1     -10.142  39.246   6.445  1.00  0.00     0.197 C 
BRANCH  60  61
ATOM     61  O   UNL     1     -10.694  39.566   7.698  1.00  0.00    -0.393 OA
ATOM     62  H   UNL     1     -10.554  38.777   8.280  1.00  0.00     0.210 HD
ENDBRANCH  60  61
ENDBRANCH  59  60
ENDBRANCH  58  59
ENDBRANCH   6  58
TORSDOF 25
ENDMDL
MODEL 3
REMARK VINA RESULT:    -5.263      1.827      3.316
REMARK INTER + INTRA:         -12.688
REMARK INTER:                 -12.247
REMARK INTRA:                  -0.441
REMARK UNBOUND:                -1.270
REMARK SMILES C[C@H]1O[C@H](OC[C@H]2O[C@@H](Oc3c(-c4ccc(OCCO)c(OCCO)c4)oc4cc(OCCO)cc(O)c4c3=O)[C@H](O)[C@H](O)[C@@H]2O)[C@@H](O)[C@@H](O)[C@H]1O
REMARK SMILES IDX 11 1 12 2 27 3 28 4 29 5 30 6 35 7 36 8 38 9 39 10 40 11
REMARK SMILES IDX 10 12 9 13 7 14 45 15 8 16 43 17 41 18 6 19 5 20 4 21 1 22
REMARK SMILES IDX 2 23 51 24 3 25 49 26 47 27 52 28 50 30 48 32 46 34 44 36
REMARK SMILES IDX 42 38 13 40 26 41 14 42 21 43 15 44 16 45 22 46 23 47 24 48
REMARK SMILES IDX 25 49 17 51 18 52 19 53 20 54 37 56 31 58 32 59 33 60 34 61
REMARK H PARENT 52 29 50 31 48 33 46 35 44 37 42 39 25 50 20 55 37 57 34 62
REMARK Flexibility Score: inf
ROOT
ATOM      1  C   UNL     1      -8.412  31.840   6.452  1.00  0.00     0.214 A 
ATOM      2  C   UNL     1      -7.075  32.221   6.241  1.00  0.00     0.180 A 
ATOM      3  O   UNL     1      -6.788  33.503   6.014  1.00  0.00    -0.452 OA
ATOM      4  C   UNL     1      -7.724  34.437   5.899  1.00  0.00     0.146 A 
ATOM      5  C   UNL     1      -7.341  35.783   5.861  1.00  0.00     0.094 A 
ATOM      6  C   UNL     1      -8.299  36.798   5.829  1.00  0.00     0.126 A 
ATOM      7  C   UNL     1      -9.654  36.451   5.674  1.00  0.00     0.093 A 
ATOM      8  C   UNL     1     -10.057  35.109   5.651  1.00  0.00     0.134 A 
ATOM      9  C   UNL     1      -9.099  34.088   5.868  1.00  0.00     0.111 A 
ATOM     10  C   UNL     1      -9.431  32.760   6.205  1.00  0.00     0.239 A 
ATOM     11  O   UNL     1     -10.620  32.419   6.448  1.00  0.00    -0.285 OA
ENDROOT
BRANCH   1  12
ATOM     12  O   UNL     1      -8.714  30.658   7.136  1.00  0.00    -0.454 OA
BRANCH  12  13
ATOM     13  C   UNL     1      -9.394  29.623   6.432  1.00  0.00     0.339 C 
ATOM     14  C   UNL     1     -11.664  28.745   6.478  1.00  0.00     0.180 C 
ATOM     15  C   UNL     1     -11.105  27.324   6.057  1.00  0.00     0.177 C 
ATOM     16  O   UNL     1     -10.789  29.869   6.477  1.00  0.00    -0.332 OA
ATOM     17  C   UNL     1      -9.553  27.220   6.000  1.00  0.00     0.180 C 
ATOM     18  C   UNL     1      -8.964  28.249   6.958  1.00  0.00     0.214 C 
BRANCH  14  19
ATOM     19  C   UNL     1     -12.393  28.720   7.842  1.00  0.00     0.198 C 
BRANCH  19  20
ATOM     20  O   UNL     1     -11.496  29.011   8.895  1.00  0.00    -0.347 OA
BRANCH  20  21
ATOM     21  C   UNL     1     -11.995  30.040   9.732  1.00  0.00     0.281 C 
ATOM     22  C   UNL     1     -13.125  30.820  12.389  1.00  0.00     0.041 C 
ATOM     23  C   UNL     1     -11.692  31.056  11.852  1.00  0.00     0.150 C 
ATOM     24  C   UNL     1     -11.411  32.484  11.270  1.00  0.00     0.174 C 
ATOM     25  O   UNL     1     -11.281  30.026  10.967  1.00  0.00    -0.344 OA
ATOM     26  C   UNL     1     -10.984  32.393   9.777  1.00  0.00     0.179 C 
ATOM     27  C   UNL     1     -11.847  31.399   8.977  1.00  0.00     0.202 C 
BRANCH  24  28
ATOM     28  O   UNL     1     -12.495  33.361  11.457  1.00  0.00    -0.388 OA
ATOM     29  H   UNL     1     -12.839  33.237  12.373  1.00  0.00     0.211 HD
ENDBRANCH  24  28
BRANCH  26  30
ATOM     30  O   UNL     1     -10.920  33.654   9.153  1.00  0.00    -0.387 OA
ATOM     31  H   UNL     1     -11.795  33.837   8.710  1.00  0.00     0.211 HD
ENDBRANCH  26  30
BRANCH  27  32
ATOM     32  O   UNL     1     -13.118  31.934   8.728  1.00  0.00    -0.385 OA
ATOM     33  H   UNL     1     -12.975  32.830   8.321  1.00  0.00     0.211 HD
ENDBRANCH  27  32
ENDBRANCH  20  21
ENDBRANCH  19  20
ENDBRANCH  14  19
BRANCH  15  34
ATOM     34  O   UNL     1     -11.690  26.876   4.860  1.00  0.00    -0.387 OA
ATOM     35  H   UNL     1     -10.994  26.382   4.348  1.00  0.00     0.211 HD
ENDBRANCH  15  34
BRANCH  17  36
ATOM     36  O   UNL     1      -9.070  27.457   4.693  1.00  0.00    -0.387 OA
ATOM     37  H   UNL     1      -8.510  28.276   4.724  1.00  0.00     0.211 HD
ENDBRANCH  17  36
BRANCH  18  38
ATOM     38  O   UNL     1      -7.571  28.142   6.987  1.00  0.00    -0.384 OA
ATOM     39  H   UNL     1      -7.357  27.369   7.582  1.00  0.00     0.211 HD
ENDBRANCH  18  38
ENDBRANCH  12  13
ENDBRANCH   1  12
BRANCH   2  40
ATOM     40  C   UNL     1      -5.961  31.234   6.335  1.00  0.00     0.025 A 
ATOM     41  C   UNL     1      -5.904  30.117   5.482  1.00  0.00     0.062 A 
ATOM     42  C   UNL     1      -4.907  31.449   7.231  1.00  0.00     0.016 A 
ATOM     43  C   UNL     1      -4.826  29.219   5.518  1.00  0.00     0.162 A 
ATOM     44  C   UNL     1      -3.844  30.541   7.308  1.00  0.00     0.051 A 
ATOM     45  C   UNL     1      -3.791  29.418   6.466  1.00  0.00     0.161 A 
BRANCH  43  46
ATOM     46  O   UNL     1      -4.850  28.191   4.554  1.00  0.00    -0.487 OA
BRANCH  46  47
ATOM     47  C   UNL     1      -4.909  28.325   3.133  1.00  0.00     0.258 C 
BRANCH  47  48
ATOM     48  C   UNL     1      -3.514  28.306   2.502  1.00  0.00     0.197 C 
BRANCH  48  49
ATOM     49  O   UNL     1      -3.521  29.014   1.295  1.00  0.00    -0.393 OA
ATOM     50  H   UNL     1      -2.743  28.695   0.773  1.00  0.00     0.210 HD
ENDBRANCH  48  49
ENDBRANCH  47  48
ENDBRANCH  46  47
ENDBRANCH  43  46
BRANCH  45  51
ATOM     51  O   UNL     1      -2.715  28.520   6.526  1.00  0.00    -0.487 OA
BRANCH  51  52
ATOM     52  C   UNL     1      -1.953  28.211   7.687  1.00  0.00     0.258 C 
BRANCH  52  53
ATOM     53  C   UNL     1      -2.757  27.277   8.574  1.00  0.00     0.197 C 
BRANCH  53  54
ATOM     54  O   UNL     1      -2.545  27.599   9.916  1.00  0.00    -0.393 OA
ATOM     55  H   UNL     1      -3.173  28.323  10.146  1.00  0.00     0.210 HD
ENDBRANCH  53  54
ENDBRANCH  52  53
ENDBRANCH  51  52
ENDBRANCH  45  51
ENDBRANCH   2  40
BRANCH   8  56
ATOM     56  O   UNL     1     -11.409  34.853   5.398  1.00  0.00    -0.507 OA
ATOM     57  H   UNL     1     -11.754  34.085   4.855  1.00  0.00     0.293 HD
ENDBRANCH   8  56
BRANCH   6  58
ATOM     58  O   UNL     1      -7.853  38.124   6.027  1.00  0.00    -0.491 OA
BRANCH  58  59
ATOM     59  C   UNL     1      -8.662  39.242   6.423  1.00  0.00     0.257 C 
BRANCH  59  60
ATOM     60  C   UNL     1     -10.073  39.068   5.865  1.00  0.00     0.197 C 
BRANCH  60  61
ATOM     61  O   UNL     1     -11.021  39.537   6.791  1.00  0.00    -0.393 OA
ATOM     62  H   UNL     1     -10.533  40.116   7.429  1.00  0.00     0.210 HD
ENDBRANCH  60  61
ENDBRANCH  59  60
ENDBRANCH  58  59
ENDBRANCH   6  58
TORSDOF 25
ENDMDL
MODEL 4
REMARK VINA RESULT:    -4.476      2.714      9.877
REMARK INTER + INTRA:         -10.981
REMARK INTER:                 -11.600
REMARK INTRA:                   0.619
REMARK UNBOUND:                -1.270
REMARK SMILES C[C@H]1O[C@H](OC[C@H]2O[C@@H](Oc3c(-c4ccc(OCCO)c(OCCO)c4)oc4cc(OCCO)cc(O)c4c3=O)[C@H](O)[C@H](O)[C@@H]2O)[C@@H](O)[C@@H](O)[C@H]1O
REMARK SMILES IDX 11 1 12 2 27 3 28 4 29 5 30 6 35 7 36 8 38 9 39 10 40 11
REMARK SMILES IDX 10 12 9 13 7 14 45 15 8 16 43 17 41 18 6 19 5 20 4 21 1 22
REMARK SMILES IDX 2 23 51 24 3 25 49 26 47 27 52 28 50 30 48 32 46 34 44 36
REMARK SMILES IDX 42 38 13 40 26 41 14 42 21 43 15 44 16 45 22 46 23 47 24 48
REMARK SMILES IDX 25 49 17 51 18 52 19 53 20 54 37 56 31 58 32 59 33 60 34 61
REMARK H PARENT 52 29 50 31 48 33 46 35 44 37 42 39 25 50 20 55 37 57 34 62
REMARK Flexibility Score: inf
ROOT
ATOM      1  C   UNL     1     -11.918  34.602   7.942  1.00  0.00     0.214 A 
ATOM      2  C   UNL     1     -11.983  35.303   9.160  1.00  0.00     0.180 A 
ATOM      3  O   UNL     1     -11.766  34.652  10.302  1.00  0.00    -0.452 OA
ATOM      4  C   UNL     1     -11.567  33.340  10.353  1.00  0.00     0.146 A 
ATOM      5  C   UNL     1     -11.151  32.760  11.558  1.00  0.00     0.094 A 
ATOM      6  C   UNL     1     -10.847  31.400  11.628  1.00  0.00     0.126 A 
ATOM      7  C   UNL     1     -11.116  30.583  10.514  1.00  0.00     0.093 A 
ATOM      8  C   UNL     1     -11.588  31.132   9.314  1.00  0.00     0.134 A 
ATOM      9  C   UNL     1     -11.720  32.537   9.193  1.00  0.00     0.111 A 
ATOM     10  C   UNL     1     -11.848  33.209   7.960  1.00  0.00     0.239 A 
ATOM     11  O   UNL     1     -11.740  32.599   6.863  1.00  0.00    -0.285 OA
ENDROOT
BRANCH   1  12
ATOM     12  O   UNL     1     -11.670  35.280   6.745  1.00  0.00    -0.454 OA
BRANCH  12  13
ATOM     13  C   UNL     1     -10.361  35.215   6.189  1.00  0.00     0.339 C 
ATOM     14  C   UNL     1      -8.764  33.418   5.805  1.00  0.00     0.180 C 
ATOM     15  C   UNL     1      -7.580  34.455   5.979  1.00  0.00     0.177 C 
ATOM     16  O   UNL     1     -10.107  33.892   5.750  1.00  0.00    -0.332 OA
ATOM     17  C   UNL     1      -8.018  35.884   6.413  1.00  0.00     0.180 C 
ATOM     18  C   UNL     1      -9.332  35.776   7.178  1.00  0.00     0.214 C 
BRANCH  14  19
ATOM     19  C   UNL     1      -8.714  32.273   6.844  1.00  0.00     0.198 C 
BRANCH  19  20
ATOM     20  O   UNL     1      -9.534  31.194   6.442  1.00  0.00    -0.347 OA
BRANCH  20  21
ATOM     21  C   UNL     1      -8.790  29.995   6.315  1.00  0.00     0.281 C 
ATOM     22  C   UNL     1      -8.139  27.289   7.409  1.00  0.00     0.041 C 
ATOM     23  C   UNL     1      -9.021  27.639   6.186  1.00  0.00     0.150 C 
ATOM     24  C   UNL     1      -8.322  27.519   4.789  1.00  0.00     0.174 C 
ATOM     25  O   UNL     1      -9.683  28.884   6.348  1.00  0.00    -0.344 OA
ATOM     26  C   UNL     1      -8.332  28.889   4.050  1.00  0.00     0.179 C 
ATOM     27  C   UNL     1      -7.978  30.063   4.983  1.00  0.00     0.202 C 
BRANCH  24  28
ATOM     28  O   UNL     1      -7.026  26.980   4.882  1.00  0.00    -0.388 OA
ATOM     29  H   UNL     1      -7.029  26.093   4.449  1.00  0.00     0.211 HD
ENDBRANCH  24  28
BRANCH  26  30
ATOM     30  O   UNL     1      -7.540  28.884   2.887  1.00  0.00    -0.387 OA
ATOM     31  H   UNL     1      -6.800  29.543   3.000  1.00  0.00     0.211 HD
ENDBRANCH  26  30
BRANCH  27  32
ATOM     32  O   UNL     1      -6.607  30.070   5.273  1.00  0.00    -0.385 OA
ATOM     33  H   UNL     1      -6.399  29.191   5.691  1.00  0.00     0.211 HD
ENDBRANCH  27  32
ENDBRANCH  20  21
ENDBRANCH  19  20
ENDBRANCH  14  19
BRANCH  15  34
ATOM     34  O   UNL     1      -6.762  34.497   4.837  1.00  0.00    -0.387 OA
ATOM     35  H   UNL     1      -7.260  34.983   4.124  1.00  0.00     0.211 HD
ENDBRANCH  15  34
BRANCH  17  36
ATOM     36  O   UNL     1      -8.187  36.731   5.295  1.00  0.00    -0.387 OA
ATOM     37  H   UNL     1      -7.906  36.223   4.489  1.00  0.00     0.211 HD
ENDBRANCH  17  36
BRANCH  18  38
ATOM     38  O   UNL     1      -9.726  37.032   7.644  1.00  0.00    -0.384 OA
ATOM     39  H   UNL     1      -9.412  37.698   6.968  1.00  0.00     0.211 HD
ENDBRANCH  18  38
ENDBRANCH  12  13
ENDBRANCH   1  12
BRANCH   2  40
ATOM     40  C   UNL     1     -12.218  36.775   9.198  1.00  0.00     0.025 A 
ATOM     41  C   UNL     1     -12.434  37.509   8.018  1.00  0.00     0.062 A 
ATOM     42  C   UNL     1     -12.303  37.440  10.426  1.00  0.00     0.016 A 
ATOM     43  C   UNL     1     -12.721  38.881   8.047  1.00  0.00     0.162 A 
ATOM     44  C   UNL     1     -12.549  38.818  10.472  1.00  0.00     0.051 A 
ATOM     45  C   UNL     1     -12.753  39.555   9.294  1.00  0.00     0.161 A 
BRANCH  43  46
ATOM     46  O   UNL     1     -13.000  39.478   6.801  1.00  0.00    -0.487 OA
BRANCH  46  47
ATOM     47  C   UNL     1     -12.077  40.087   5.896  1.00  0.00     0.258 C 
BRANCH  47  48
ATOM     48  C   UNL     1     -11.054  39.080   5.364  1.00  0.00     0.197 C 
BRANCH  48  49
ATOM     49  O   UNL     1      -9.780  39.380   5.861  1.00  0.00    -0.393 OA
ATOM     50  H   UNL     1      -9.683  40.364   5.822  1.00  0.00     0.210 HD
ENDBRANCH  48  49
ENDBRANCH  47  48
ENDBRANCH  46  47
ENDBRANCH  43  46
BRANCH  45  51
ATOM     51  O   UNL     1     -13.022  40.931   9.339  1.00  0.00    -0.487 OA
BRANCH  51  52
ATOM     52  C   UNL     1     -12.085  41.972   9.086  1.00  0.00     0.258 C 
BRANCH  52  53
ATOM     53  C   UNL     1     -12.807  43.146   8.449  1.00  0.00     0.197 C 
BRANCH  53  54
ATOM     54  O   UNL     1     -12.432  43.262   7.109  1.00  0.00    -0.393 OA
ATOM     55  H   UNL     1     -12.468  42.359   6.717  1.00  0.00     0.210 HD
ENDBRANCH  53  54
ENDBRANCH  52  53
ENDBRANCH  51  52
ENDBRANCH  45  51
ENDBRANCH   2  40
BRANCH   8  56
ATOM     56  O   UNL     1     -11.920  30.238   8.290  1.00  0.00    -0.507 OA
ATOM     57  H   UNL     1     -12.838  29.874   8.122  1.00  0.00     0.293 HD
ENDBRANCH   8  56
BRANCH   6  58
ATOM     58  O   UNL     1     -10.215  30.931  12.802  1.00  0.00    -0.491 OA
BRANCH  58  59
ATOM     59  C   UNL     1      -8.987  31.423  13.360  1.00  0.00     0.257 C 
BRANCH  59  60
ATOM     60  C   UNL     1      -8.613  30.582  14.579  1.00  0.00     0.197 C 
BRANCH  60  61
ATOM     61  O   UNL     1      -9.537  29.535  14.747  1.00  0.00    -0.393 OA
ATOM     62  H   UNL     1      -9.861  29.590  15.681  1.00  0.00     0.210 HD
ENDBRANCH  60  61
ENDBRANCH  59  60
ENDBRANCH  58  59
ENDBRANCH   6  58
TORSDOF 25
ENDMDL
MODEL 5
REMARK VINA RESULT:    -3.990      1.981      7.440
REMARK INTER + INTRA:          -9.926
REMARK INTER:                  -9.522
REMARK INTRA:                  -0.403
REMARK UNBOUND:                -1.270
REMARK SMILES C[C@H]1O[C@H](OC[C@H]2O[C@@H](Oc3c(-c4ccc(OCCO)c(OCCO)c4)oc4cc(OCCO)cc(O)c4c3=O)[C@H](O)[C@H](O)[C@@H]2O)[C@@H](O)[C@@H](O)[C@H]1O
REMARK SMILES IDX 11 1 12 2 27 3 28 4 29 5 30 6 35 7 36 8 38 9 39 10 40 11
REMARK SMILES IDX 10 12 9 13 7 14 45 15 8 16 43 17 41 18 6 19 5 20 4 21 1 22
REMARK SMILES IDX 2 23 51 24 3 25 49 26 47 27 52 28 50 30 48 32 46 34 44 36
REMARK SMILES IDX 42 38 13 40 26 41 14 42 21 43 15 44 16 45 22 46 23 47 24 48
REMARK SMILES IDX 25 49 17 51 18 52 19 53 20 54 37 56 31 58 32 59 33 60 34 61
REMARK H PARENT 52 29 50 31 48 33 46 35 44 37 42 39 25 50 20 55 37 57 34 62
REMARK Flexibility Score: inf
ROOT
ATOM      1  C   UNL     1      -9.530  31.094   6.805  1.00  0.00     0.214 A 
ATOM      2  C   UNL     1      -8.514  31.788   6.122  1.00  0.00     0.180 A 
ATOM      3  O   UNL     1      -7.487  31.108   5.613  1.00  0.00    -0.452 OA
ATOM      4  C   UNL     1      -7.334  29.801   5.790  1.00  0.00     0.146 A 
ATOM      5  C   UNL     1      -6.344  29.127   5.064  1.00  0.00     0.094 A 
ATOM      6  C   UNL     1      -6.211  27.740   5.156  1.00  0.00     0.126 A 
ATOM      7  C   UNL     1      -6.977  27.044   6.110  1.00  0.00     0.093 A 
ATOM      8  C   UNL     1      -7.933  27.706   6.890  1.00  0.00     0.134 A 
ATOM      9  C   UNL     1      -8.192  29.081   6.662  1.00  0.00     0.111 A 
ATOM     10  C   UNL     1      -9.340  29.751   7.129  1.00  0.00     0.239 A 
ATOM     11  O   UNL     1     -10.280  29.131   7.696  1.00  0.00    -0.285 OA
ENDROOT
BRANCH   1  12
ATOM     12  O   UNL     1     -10.805  31.652   6.935  1.00  0.00    -0.454 OA
BRANCH  12  13
ATOM     13  C   UNL     1     -11.161  32.247   8.179  1.00  0.00     0.339 C 
ATOM     14  C   UNL     1     -11.563  31.387  10.422  1.00  0.00     0.180 C 
ATOM     15  C   UNL     1     -12.578  32.576  10.678  1.00  0.00     0.177 C 
ATOM     16  O   UNL     1     -10.774  31.384   9.235  1.00  0.00    -0.332 OA
ATOM     17  C   UNL     1     -12.864  33.471   9.438  1.00  0.00     0.180 C 
ATOM     18  C   UNL     1     -12.642  32.641   8.179  1.00  0.00     0.214 C 
BRANCH  14  19
ATOM     19  C   UNL     1     -12.229  29.996  10.544  1.00  0.00     0.198 C 
BRANCH  19  20
ATOM     20  O   UNL     1     -13.123  29.963  11.639  1.00  0.00    -0.347 OA
BRANCH  20  21
ATOM     21  C   UNL     1     -12.596  29.211  12.718  1.00  0.00     0.281 C 
ATOM     22  C   UNL     1     -13.123  27.425  15.058  1.00  0.00     0.041 C 
ATOM     23  C   UNL     1     -12.572  27.038  13.665  1.00  0.00     0.150 C 
ATOM     24  C   UNL     1     -11.016  26.876  13.571  1.00  0.00     0.174 C 
ATOM     25  O   UNL     1     -13.086  27.873  12.640  1.00  0.00    -0.344 OA
ATOM     26  C   UNL     1     -10.422  27.869  12.531  1.00  0.00     0.179 C 
ATOM     27  C   UNL     1     -11.038  29.277  12.644  1.00  0.00     0.202 C 
BRANCH  24  28
ATOM     28  O   UNL     1     -10.389  26.987  14.826  1.00  0.00    -0.388 OA
ATOM     29  H   UNL     1     -11.031  26.702  15.519  1.00  0.00     0.211 HD
ENDBRANCH  24  28
BRANCH  26  30
ATOM     30  O   UNL     1      -9.015  27.907  12.559  1.00  0.00    -0.387 OA
ATOM     31  H   UNL     1      -8.702  27.542  13.433  1.00  0.00     0.211 HD
ENDBRANCH  26  30
BRANCH  27  32
ATOM     32  O   UNL     1     -10.546  29.945  13.773  1.00  0.00    -0.385 OA
ATOM     33  H   UNL     1     -11.288  30.510  14.116  1.00  0.00     0.211 HD
ENDBRANCH  27  32
ENDBRANCH  20  21
ENDBRANCH  19  20
ENDBRANCH  14  19
BRANCH  15  34
ATOM     34  O   UNL     1     -12.194  33.348  11.787  1.00  0.00    -0.387 OA
ATOM     35  H   UNL     1     -11.894  34.236  11.450  1.00  0.00     0.211 HD
ENDBRANCH  15  34
BRANCH  17  36
ATOM     36  O   UNL     1     -12.020  34.604   9.416  1.00  0.00    -0.387 OA
ATOM     37  H   UNL     1     -12.031  34.968   8.492  1.00  0.00     0.211 HD
ENDBRANCH  17  36
BRANCH  18  38
ATOM     38  O   UNL     1     -12.955  33.391   7.043  1.00  0.00    -0.384 OA
ATOM     39  H   UNL     1     -12.086  33.632   6.612  1.00  0.00     0.211 HD
ENDBRANCH  18  38
ENDBRANCH  12  13
ENDBRANCH   1  12
BRANCH   2  40
ATOM     40  C   UNL     1      -8.596  33.258   5.891  1.00  0.00     0.025 A 
ATOM     41  C   UNL     1      -9.412  34.076   6.693  1.00  0.00     0.062 A 
ATOM     42  C   UNL     1      -7.796  33.861   4.914  1.00  0.00     0.016 A 
ATOM     43  C   UNL     1      -9.446  35.469   6.528  1.00  0.00     0.162 A 
ATOM     44  C   UNL     1      -7.848  35.245   4.708  1.00  0.00     0.051 A 
ATOM     45  C   UNL     1      -8.671  36.063   5.499  1.00  0.00     0.161 A 
BRANCH  43  46
ATOM     46  O   UNL     1     -10.240  36.179   7.450  1.00  0.00    -0.487 OA
BRANCH  46  47
ATOM     47  C   UNL     1     -11.576  36.655   7.272  1.00  0.00     0.258 C 
BRANCH  47  48
ATOM     48  C   UNL     1     -11.863  37.880   8.145  1.00  0.00     0.197 C 
BRANCH  48  49
ATOM     49  O   UNL     1     -11.585  39.053   7.434  1.00  0.00    -0.393 OA
ATOM     50  H   UNL     1     -11.795  38.868   6.485  1.00  0.00     0.210 HD
ENDBRANCH  48  49
ENDBRANCH  47  48
ENDBRANCH  46  47
ENDBRANCH  43  46
BRANCH  45  51
ATOM     51  O   UNL     1      -8.707  37.452   5.310  1.00  0.00    -0.487 OA
BRANCH  51  52
ATOM     52  C   UNL     1      -7.742  38.383   5.790  1.00  0.00     0.258 C 
BRANCH  52  53
ATOM     53  C   UNL     1      -8.251  39.004   7.078  1.00  0.00     0.197 C 
BRANCH  53  54
ATOM     54  O   UNL     1      -7.556  40.187   7.340  1.00  0.00    -0.393 OA
ATOM     55  H   UNL     1      -7.026  40.398   6.536  1.00  0.00     0.210 HD
ENDBRANCH  53  54
ENDBRANCH  52  53
ENDBRANCH  51  52
ENDBRANCH  45  51
ENDBRANCH   2  40
BRANCH   8  56
ATOM     56  O   UNL     1      -8.581  26.957   7.878  1.00  0.00    -0.507 OA
ATOM     57  H   UNL     1      -8.911  27.323   8.751  1.00  0.00     0.293 HD
ENDBRANCH   8  56
BRANCH   6  58
ATOM     58  O   UNL     1      -5.356  27.103   4.228  1.00  0.00    -0.491 OA
BRANCH  58  59
ATOM     59  C   UNL     1      -4.910  27.642   2.975  1.00  0.00     0.257 C 
BRANCH  59  60
ATOM     60  C   UNL     1      -3.593  28.385   3.184  1.00  0.00     0.197 C 
BRANCH  60  61
ATOM     61  O   UNL     1      -2.904  28.502   1.964  1.00  0.00    -0.393 OA
ATOM     62  H   UNL     1      -2.022  28.070   2.093  1.00  0.00     0.210 HD
ENDBRANCH  60  61
ENDBRANCH  59  60
ENDBRANCH  58  59
ENDBRANCH   6  58
TORSDOF 25
ENDMDL
MODEL 6
REMARK VINA RESULT:    -3.821      1.869      6.895
REMARK INTER + INTRA:          -9.559
REMARK INTER:                  -7.141
REMARK INTRA:                  -2.417
REMARK UNBOUND:                -1.270
REMARK SMILES C[C@H]1O[C@H](OC[C@H]2O[C@@H](Oc3c(-c4ccc(OCCO)c(OCCO)c4)oc4cc(OCCO)cc(O)c4c3=O)[C@H](O)[C@H](O)[C@@H]2O)[C@@H](O)[C@@H](O)[C@H]1O
REMARK SMILES IDX 11 1 12 2 27 3 28 4 29 5 30 6 35 7 36 8 38 9 39 10 40 11
REMARK SMILES IDX 10 12 9 13 7 14 45 15 8 16 43 17 41 18 6 19 5 20 4 21 1 22
REMARK SMILES IDX 2 23 51 24 3 25 49 26 47 27 52 28 50 30 48 32 46 34 44 36
REMARK SMILES IDX 42 38 13 40 26 41 14 42 21 43 15 44 16 45 22 46 23 47 24 48
REMARK SMILES IDX 25 49 17 51 18 52 19 53 20 54 37 56 31 58 32 59 33 60 34 61
REMARK H PARENT 52 29 50 31 48 33 46 35 44 37 42 39 25 50 20 55 37 57 34 62
REMARK Flexibility Score: inf
ROOT
ATOM      1  C   UNL     1      -9.223  32.497   7.688  1.00  0.00     0.214 A 
ATOM      2  C   UNL     1     -10.306  32.879   8.502  1.00  0.00     0.180 A 
ATOM      3  O   UNL     1     -10.863  34.077   8.329  1.00  0.00    -0.452 OA
ATOM      4  C   UNL     1     -10.390  34.970   7.469  1.00  0.00     0.146 A 
ATOM      5  C   UNL     1     -11.140  36.122   7.200  1.00  0.00     0.094 A 
ATOM      6  C   UNL     1     -10.720  37.040   6.237  1.00  0.00     0.126 A 
ATOM      7  C   UNL     1      -9.450  36.880   5.651  1.00  0.00     0.093 A 
ATOM      8  C   UNL     1      -8.654  35.766   5.948  1.00  0.00     0.134 A 
ATOM      9  C   UNL     1      -9.166  34.744   6.786  1.00  0.00     0.111 A 
ATOM     10  C   UNL     1      -8.613  33.450   6.873  1.00  0.00     0.239 A 
ATOM     11  O   UNL     1      -7.678  33.082   6.113  1.00  0.00    -0.285 OA
ENDROOT
BRANCH   1  12
ATOM     12  O   UNL     1      -8.920  31.146   7.499  1.00  0.00    -0.454 OA
BRANCH  12  13
ATOM     13  C   UNL     1      -9.981  30.253   7.175  1.00  0.00     0.339 C 
ATOM     14  C   UNL     1     -10.272  27.839   7.305  1.00  0.00     0.180 C 
ATOM     15  C   UNL     1     -11.259  27.908   6.067  1.00  0.00     0.177 C 
ATOM     16  O   UNL     1      -9.815  29.049   7.904  1.00  0.00    -0.332 OA
ATOM     17  C   UNL     1     -11.379  29.309   5.402  1.00  0.00     0.180 C 
ATOM     18  C   UNL     1     -10.087  30.079   5.656  1.00  0.00     0.214 C 
BRANCH  14  19
ATOM     19  C   UNL     1      -9.033  26.955   7.032  1.00  0.00     0.198 C 
BRANCH  19  20
ATOM     20  O   UNL     1      -8.769  26.875   5.645  1.00  0.00    -0.347 OA
BRANCH  20  21
ATOM     21  C   UNL     1      -7.426  27.218   5.351  1.00  0.00     0.281 C 
ATOM     22  C   UNL     1      -5.076  26.918   3.526  1.00  0.00     0.041 C 
ATOM     23  C   UNL     1      -6.041  28.122   3.652  1.00  0.00     0.150 C 
ATOM     24  C   UNL     1      -5.528  29.315   4.528  1.00  0.00     0.174 C 
ATOM     25  O   UNL     1      -7.351  27.715   4.016  1.00  0.00    -0.344 OA
ATOM     26  C   UNL     1      -6.491  29.574   5.722  1.00  0.00     0.179 C 
ATOM     27  C   UNL     1      -6.949  28.269   6.402  1.00  0.00     0.202 C 
BRANCH  24  28
ATOM     28  O   UNL     1      -4.199  29.136   4.951  1.00  0.00    -0.388 OA
ATOM     29  H   UNL     1      -3.722  29.993   4.844  1.00  0.00     0.211 HD
ENDBRANCH  24  28
BRANCH  26  30
ATOM     30  O   UNL     1      -5.970  30.496   6.650  1.00  0.00    -0.387 OA
ATOM     31  H   UNL     1      -5.617  29.994   7.436  1.00  0.00     0.211 HD
ENDBRANCH  26  30
BRANCH  27  32
ATOM     32  O   UNL     1      -5.914  27.722   7.172  1.00  0.00    -0.385 OA
ATOM     33  H   UNL     1      -6.200  27.789   8.122  1.00  0.00     0.211 HD
ENDBRANCH  27  32
ENDBRANCH  20  21
ENDBRANCH  19  20
ENDBRANCH  14  19
BRANCH  15  34
ATOM     34  O   UNL     1     -12.523  27.387   6.390  1.00  0.00    -0.387 OA
ATOM     35  H   UNL     1     -12.946  27.999   7.051  1.00  0.00     0.211 HD
ENDBRANCH  15  34
BRANCH  17  36
ATOM     36  O   UNL     1     -12.474  30.034   5.924  1.00  0.00    -0.387 OA
ATOM     37  H   UNL     1     -12.388  30.034   6.914  1.00  0.00     0.211 HD
ENDBRANCH  17  36
BRANCH  18  38
ATOM     38  O   UNL     1     -10.128  31.319   5.015  1.00  0.00    -0.384 OA
ATOM     39  H   UNL     1     -10.475  31.974   5.685  1.00  0.00     0.211 HD
ENDBRANCH  18  38
ENDBRANCH  12  13
ENDBRANCH   1  12
BRANCH   2  40
ATOM     40  C   UNL     1     -10.891  31.945   9.506  1.00  0.00     0.025 A 
ATOM     41  C   UNL     1     -10.335  31.817  10.791  1.00  0.00     0.062 A 
ATOM     42  C   UNL     1     -12.057  31.232   9.205  1.00  0.00     0.016 A 
ATOM     43  C   UNL     1     -10.916  30.991  11.765  1.00  0.00     0.162 A 
ATOM     44  C   UNL     1     -12.628  30.372  10.151  1.00  0.00     0.051 A 
ATOM     45  C   UNL     1     -12.068  30.234  11.432  1.00  0.00     0.161 A 
BRANCH  43  46
ATOM     46  O   UNL     1     -10.310  31.018  13.037  1.00  0.00    -0.487 OA
BRANCH  46  47
ATOM     47  C   UNL     1      -8.937  30.788  13.357  1.00  0.00     0.258 C 
BRANCH  47  48
ATOM     48  C   UNL     1      -8.655  31.013  14.846  1.00  0.00     0.197 C 
BRANCH  48  49
ATOM     49  O   UNL     1      -7.752  32.070  15.011  1.00  0.00    -0.393 OA
ATOM     50  H   UNL     1      -7.122  32.027  14.250  1.00  0.00     0.210 HD
ENDBRANCH  48  49
ENDBRANCH  47  48
ENDBRANCH  46  47
ENDBRANCH  43  46
BRANCH  45  51
ATOM     51  O   UNL     1     -12.651  29.390  12.389  1.00  0.00    -0.487 OA
BRANCH  51  52
ATOM     52  C   UNL     1     -12.304  28.029  12.621  1.00  0.00     0.258 C 
BRANCH  52  53
ATOM     53  C   UNL     1     -11.358  27.565  11.529  1.00  0.00     0.197 C 
BRANCH  53  54
ATOM     54  O   UNL     1     -10.057  27.491  12.029  1.00  0.00    -0.393 OA
ATOM     55  H   UNL     1      -9.895  26.553  12.286  1.00  0.00     0.210 HD
ENDBRANCH  53  54
ENDBRANCH  52  53
ENDBRANCH  51  52
ENDBRANCH  45  51
ENDBRANCH   2  40
BRANCH   8  56
ATOM     56  O   UNL     1      -7.369  35.734   5.396  1.00  0.00    -0.507 OA
ATOM     57  H   UNL     1      -6.623  35.145   5.713  1.00  0.00     0.293 HD
ENDBRANCH   8  56
BRANCH   6  58
ATOM     58  O   UNL     1     -11.632  38.049   5.853  1.00  0.00    -0.491 OA
BRANCH  58  59
ATOM     59  C   UNL     1     -11.454  39.464   6.019  1.00  0.00     0.257 C 
BRANCH  59  60
ATOM     60  C   UNL     1     -12.251  39.935   7.233  1.00  0.00     0.197 C 
BRANCH  60  61
ATOM     61  O   UNL     1     -11.405  40.060   8.349  1.00  0.00    -0.393 OA
ATOM     62  H   UNL     1     -10.482  40.135   7.999  1.00  0.00     0.210 HD
ENDBRANCH  60  61
ENDBRANCH  59  60
ENDBRANCH  58  59
ENDBRANCH   6  58
TORSDOF 25
ENDMDL
MODEL 7
REMARK VINA RESULT:    -3.501      2.233      3.966
REMARK INTER + INTRA:          -8.865
REMARK INTER:                  -6.959
REMARK INTRA:                  -1.906
REMARK UNBOUND:                -1.270
REMARK SMILES C[C@H]1O[C@H](OC[C@H]2O[C@@H](Oc3c(-c4ccc(OCCO)c(OCCO)c4)oc4cc(OCCO)cc(O)c4c3=O)[C@H](O)[C@H](O)[C@@H]2O)[C@@H](O)[C@@H](O)[C@H]1O
REMARK SMILES IDX 11 1 12 2 27 3 28 4 29 5 30 6 35 7 36 8 38 9 39 10 40 11
REMARK SMILES IDX 10 12 9 13 7 14 45 15 8 16 43 17 41 18 6 19 5 20 4 21 1 22
REMARK SMILES IDX 2 23 51 24 3 25 49 26 47 27 52 28 50 30 48 32 46 34 44 36
REMARK SMILES IDX 42 38 13 40 26 41 14 42 21 43 15 44 16 45 22 46 23 47 24 48
REMARK SMILES IDX 25 49 17 51 18 52 19 53 20 54 37 56 31 58 32 59 33 60 34 61
REMARK H PARENT 52 29 50 31 48 33 46 35 44 37 42 39 25 50 20 55 37 57 34 62
REMARK Flexibility Score: inf
ROOT
ATOM      1  C   UNL     1      -8.032  32.020   5.035  1.00  0.00     0.214 A 
ATOM      2  C   UNL     1      -7.371  31.939   6.274  1.00  0.00     0.180 A 
ATOM      3  O   UNL     1      -7.816  32.662   7.302  1.00  0.00    -0.452 OA
ATOM      4  C   UNL     1      -8.818  33.525   7.190  1.00  0.00     0.146 A 
ATOM      5  C   UNL     1      -9.356  34.097   8.349  1.00  0.00     0.094 A 
ATOM      6  C   UNL     1     -10.467  34.940   8.281  1.00  0.00     0.126 A 
ATOM      7  C   UNL     1     -10.943  35.338   7.017  1.00  0.00     0.093 A 
ATOM      8  C   UNL     1     -10.383  34.824   5.840  1.00  0.00     0.134 A 
ATOM      9  C   UNL     1      -9.377  33.829   5.921  1.00  0.00     0.111 A 
ATOM     10  C   UNL     1      -8.997  33.009   4.840  1.00  0.00     0.239 A 
ATOM     11  O   UNL     1      -9.616  33.036   3.743  1.00  0.00    -0.285 OA
ENDROOT
BRANCH   1  12
ATOM     12  O   UNL     1      -7.922  30.984   4.103  1.00  0.00    -0.454 OA
BRANCH  12  13
ATOM     13  C   UNL     1      -8.928  29.975   4.090  1.00  0.00     0.339 C 
ATOM     14  C   UNL     1     -10.103  28.724   5.816  1.00  0.00     0.180 C 
ATOM     15  C   UNL     1     -10.249  27.508   4.811  1.00  0.00     0.177 C 
ATOM     16  O   UNL     1      -9.595  29.967   5.340  1.00  0.00    -0.332 OA
ATOM     17  C   UNL     1      -9.505  27.684   3.457  1.00  0.00     0.180 C 
ATOM     18  C   UNL     1      -8.328  28.629   3.670  1.00  0.00     0.214 C 
BRANCH  14  19
ATOM     19  C   UNL     1      -9.313  28.353   7.093  1.00  0.00     0.198 C 
BRANCH  19  20
ATOM     20  O   UNL     1     -10.132  27.644   8.001  1.00  0.00    -0.347 OA
BRANCH  20  21
ATOM     21  C   UNL     1     -10.627  28.490   9.024  1.00  0.00     0.281 C 
ATOM     22  C   UNL     1     -11.487  31.234   9.847  1.00  0.00     0.041 C 
ATOM     23  C   UNL     1     -12.376  30.007   9.531  1.00  0.00     0.150 C 
ATOM     24  C   UNL     1     -12.888  29.201  10.773  1.00  0.00     0.174 C 
ATOM     25  O   UNL     1     -11.791  29.166   8.550  1.00  0.00    -0.344 OA
ATOM     26  C   UNL     1     -12.397  27.726  10.710  1.00  0.00     0.179 C 
ATOM     27  C   UNL     1     -10.921  27.615  10.283  1.00  0.00     0.202 C 
BRANCH  24  28
ATOM     28  O   UNL     1     -12.548  29.819  11.990  1.00  0.00    -0.388 OA
ATOM     29  H   UNL     1     -12.015  30.624  11.790  1.00  0.00     0.211 HD
ENDBRANCH  24  28
BRANCH  26  30
ATOM     30  O   UNL     1     -12.655  27.017  11.899  1.00  0.00    -0.387 OA
ATOM     31  H   UNL     1     -12.124  26.173  11.890  1.00  0.00     0.211 HD
ENDBRANCH  26  30
BRANCH  27  32
ATOM     32  O   UNL     1     -10.072  28.001  11.328  1.00  0.00    -0.385 OA
ATOM     33  H   UNL     1      -9.324  28.510  10.914  1.00  0.00     0.211 HD
ENDBRANCH  27  32
ENDBRANCH  20  21
ENDBRANCH  19  20
ENDBRANCH  14  19
BRANCH  15  34
ATOM     34  O   UNL     1     -11.597  27.166   4.612  1.00  0.00    -0.387 OA
ATOM     35  H   UNL     1     -11.754  27.106   3.631  1.00  0.00     0.211 HD
ENDBRANCH  15  34
BRANCH  17  36
ATOM     36  O   UNL     1     -10.362  28.208   2.464  1.00  0.00    -0.387 OA
ATOM     37  H   UNL     1      -9.958  28.002   1.580  1.00  0.00     0.211 HD
ENDBRANCH  17  36
BRANCH  18  38
ATOM     38  O   UNL     1      -7.592  28.760   2.490  1.00  0.00    -0.384 OA
ATOM     39  H   UNL     1      -8.244  28.999   1.772  1.00  0.00     0.211 HD
ENDBRANCH  18  38
ENDBRANCH  12  13
ENDBRANCH   1  12
BRANCH   2  40
ATOM     40  C   UNL     1      -6.225  31.008   6.484  1.00  0.00     0.025 A 
ATOM     41  C   UNL     1      -6.270  29.682   6.019  1.00  0.00     0.062 A 
ATOM     42  C   UNL     1      -5.049  31.469   7.086  1.00  0.00     0.016 A 
ATOM     43  C   UNL     1      -5.173  28.818   6.153  1.00  0.00     0.162 A 
ATOM     44  C   UNL     1      -3.958  30.608   7.265  1.00  0.00     0.051 A 
ATOM     45  C   UNL     1      -4.005  29.279   6.811  1.00  0.00     0.161 A 
BRANCH  43  46
ATOM     46  O   UNL     1      -5.319  27.543   5.569  1.00  0.00    -0.487 OA
BRANCH  46  47
ATOM     47  C   UNL     1      -5.251  27.202   4.184  1.00  0.00     0.258 C 
BRANCH  47  48
ATOM     48  C   UNL     1      -4.228  28.062   3.436  1.00  0.00     0.197 C 
BRANCH  48  49
ATOM     49  O   UNL     1      -4.820  28.646   2.310  1.00  0.00    -0.393 OA
ATOM     50  H   UNL     1      -5.593  29.172   2.636  1.00  0.00     0.210 HD
ENDBRANCH  48  49
ENDBRANCH  47  48
ENDBRANCH  46  47
ENDBRANCH  43  46
BRANCH  45  51
ATOM     51  O   UNL     1      -2.906  28.423   6.968  1.00  0.00    -0.487 OA
BRANCH  51  52
ATOM     52  C   UNL     1      -2.894  27.212   7.717  1.00  0.00     0.258 C 
BRANCH  52  53
ATOM     53  C   UNL     1      -1.792  27.285   8.759  1.00  0.00     0.197 C 
BRANCH  53  54
ATOM     54  O   UNL     1      -2.221  28.042   9.851  1.00  0.00    -0.393 OA
ATOM     55  H   UNL     1      -2.747  27.444  10.432  1.00  0.00     0.210 HD
ENDBRANCH  53  54
ENDBRANCH  52  53
ENDBRANCH  51  52
ENDBRANCH  45  51
ENDBRANCH   2  40
BRANCH   8  56
ATOM     56  O   UNL     1     -10.851  35.345   4.630  1.00  0.00    -0.507 OA
ATOM     57  H   UNL     1     -11.390  36.185   4.537  1.00  0.00     0.293 HD
ENDBRANCH   8  56
BRANCH   6  58
ATOM     58  O   UNL     1     -11.097  35.292   9.496  1.00  0.00    -0.491 OA
BRANCH  58  59
ATOM     59  C   UNL     1     -12.427  35.811   9.644  1.00  0.00     0.257 C 
BRANCH  59  60
ATOM     60  C   UNL     1     -12.368  37.335   9.728  1.00  0.00     0.197 C 
BRANCH  60  61
ATOM     61  O   UNL     1     -12.424  37.749  11.071  1.00  0.00    -0.393 OA
ATOM     62  H   UNL     1     -12.721  36.965  11.597  1.00  0.00     0.210 HD
ENDBRANCH  60  61
ENDBRANCH  59  60
ENDBRANCH  58  59
ENDBRANCH   6  58
TORSDOF 25
ENDMDL
MODEL 8
REMARK VINA RESULT:    -3.340      2.261      8.073
REMARK INTER + INTRA:          -8.515
REMARK INTER:                  -7.715
REMARK INTRA:                  -0.800
REMARK UNBOUND:                -1.270
REMARK SMILES C[C@H]1O[C@H](OC[C@H]2O[C@@H](Oc3c(-c4ccc(OCCO)c(OCCO)c4)oc4cc(OCCO)cc(O)c4c3=O)[C@H](O)[C@H](O)[C@@H]2O)[C@@H](O)[C@@H](O)[C@H]1O
REMARK SMILES IDX 11 1 12 2 27 3 28 4 29 5 30 6 35 7 36 8 38 9 39 10 40 11
REMARK SMILES IDX 10 12 9 13 7 14 45 15 8 16 43 17 41 18 6 19 5 20 4 21 1 22
REMARK SMILES IDX 2 23 51 24 3 25 49 26 47 27 52 28 50 30 48 32 46 34 44 36
REMARK SMILES IDX 42 38 13 40 26 41 14 42 21 43 15 44 16 45 22 46 23 47 24 48
REMARK SMILES IDX 25 49 17 51 18 52 19 53 20 54 37 56 31 58 32 59 33 60 34 61
REMARK H PARENT 52 29 50 31 48 33 46 35 44 37 42 39 25 50 20 55 37 57 34 62
REMARK Flexibility Score: inf
ROOT
ATOM      1  C   UNL     1     -10.038  30.405   7.624  1.00  0.00     0.214 A 
ATOM      2  C   UNL     1      -9.624  29.062   7.671  1.00  0.00     0.180 A 
ATOM      3  O   UNL     1     -10.089  28.268   8.636  1.00  0.00    -0.452 OA
ATOM      4  C   UNL     1     -10.873  28.709   9.612  1.00  0.00     0.146 A 
ATOM      5  C   UNL     1     -11.479  27.783  10.471  1.00  0.00     0.094 A 
ATOM      6  C   UNL     1     -12.378  28.202  11.452  1.00  0.00     0.126 A 
ATOM      7  C   UNL     1     -12.547  29.581  11.678  1.00  0.00     0.093 A 
ATOM      8  C   UNL     1     -11.906  30.528  10.870  1.00  0.00     0.134 A 
ATOM      9  C   UNL     1     -11.140  30.096   9.759  1.00  0.00     0.111 A 
ATOM     10  C   UNL     1     -10.746  30.940   8.701  1.00  0.00     0.239 A 
ATOM     11  O   UNL     1     -11.154  32.129   8.621  1.00  0.00    -0.285 OA
ENDROOT
BRANCH   1  12
ATOM     12  O   UNL     1      -9.974  31.126   6.427  1.00  0.00    -0.454 OA
BRANCH  12  13
ATOM     13  C   UNL     1      -9.125  32.267   6.369  1.00  0.00     0.339 C 
ATOM     14  C   UNL     1      -9.502  34.672   6.436  1.00  0.00     0.180 C 
ATOM     15  C   UNL     1      -8.213  34.882   5.539  1.00  0.00     0.177 C 
ATOM     16  O   UNL     1      -9.793  33.375   6.949  1.00  0.00    -0.332 OA
ATOM     17  C   UNL     1      -7.556  33.571   5.018  1.00  0.00     0.180 C 
ATOM     18  C   UNL     1      -8.629  32.491   4.936  1.00  0.00     0.214 C 
BRANCH  14  19
ATOM     19  C   UNL     1     -10.788  35.212   5.769  1.00  0.00     0.198 C 
BRANCH  19  20
ATOM     20  O   UNL     1     -10.888  36.613   5.932  1.00  0.00    -0.347 OA
BRANCH  20  21
ATOM     21  C   UNL     1     -11.664  36.950   7.068  1.00  0.00     0.281 C 
ATOM     22  C   UNL     1     -13.116  36.020   9.511  1.00  0.00     0.041 C 
ATOM     23  C   UNL     1     -11.744  36.732   9.427  1.00  0.00     0.150 C 
ATOM     24  C   UNL     1     -11.762  38.275   9.697  1.00  0.00     0.174 C 
ATOM     25  O   UNL     1     -11.049  36.405   8.234  1.00  0.00    -0.344 OA
ATOM     26  C   UNL     1     -11.228  39.055   8.461  1.00  0.00     0.179 C 
ATOM     27  C   UNL     1     -11.784  38.505   7.134  1.00  0.00     0.202 C 
BRANCH  24  28
ATOM     28  O   UNL     1     -13.028  38.733  10.103  1.00  0.00    -0.388 OA
ATOM     29  H   UNL     1     -12.959  39.048  11.036  1.00  0.00     0.211 HD
ENDBRANCH  24  28
BRANCH  26  30
ATOM     30  O   UNL     1     -11.416  40.445   8.574  1.00  0.00    -0.387 OA
ATOM     31  H   UNL     1     -10.905  40.898   7.846  1.00  0.00     0.211 HD
ENDBRANCH  26  30
BRANCH  27  32
ATOM     32  O   UNL     1     -13.125  38.877   6.965  1.00  0.00    -0.385 OA
ATOM     33  H   UNL     1     -13.136  39.866   6.864  1.00  0.00     0.211 HD
ENDBRANCH  27  32
ENDBRANCH  20  21
ENDBRANCH  19  20
ENDBRANCH  14  19
BRANCH  15  34
ATOM     34  O   UNL     1      -7.271  35.705   6.178  1.00  0.00    -0.387 OA
ATOM     35  H   UNL     1      -7.769  36.421   6.658  1.00  0.00     0.211 HD
ENDBRANCH  15  34
BRANCH  17  36
ATOM     36  O   UNL     1      -6.515  33.143   5.873  1.00  0.00    -0.387 OA
ATOM     37  H   UNL     1      -6.239  32.236   5.578  1.00  0.00     0.211 HD
ENDBRANCH  17  36
BRANCH  18  38
ATOM     38  O   UNL     1      -8.092  31.314   4.408  1.00  0.00    -0.384 OA
ATOM     39  H   UNL     1      -7.162  31.240   4.764  1.00  0.00     0.211 HD
ENDBRANCH  18  38
ENDBRANCH  12  13
ENDBRANCH   1  12
BRANCH   2  40
ATOM     40  C   UNL     1      -8.732  28.486   6.625  1.00  0.00     0.025 A 
ATOM     41  C   UNL     1      -9.241  28.076   5.379  1.00  0.00     0.062 A 
ATOM     42  C   UNL     1      -7.351  28.415   6.842  1.00  0.00     0.016 A 
ATOM     43  C   UNL     1      -8.401  27.595   4.364  1.00  0.00     0.162 A 
ATOM     44  C   UNL     1      -6.503  27.898   5.855  1.00  0.00     0.051 A 
ATOM     45  C   UNL     1      -7.010  27.478   4.614  1.00  0.00     0.161 A 
BRANCH  43  46
ATOM     46  O   UNL     1      -9.027  27.298   3.137  1.00  0.00    -0.487 OA
BRANCH  46  47
ATOM     47  C   UNL     1     -10.375  26.877   2.920  1.00  0.00     0.258 C 
BRANCH  47  48
ATOM     48  C   UNL     1     -11.334  28.067   2.828  1.00  0.00     0.197 C 
BRANCH  48  49
ATOM     49  O   UNL     1     -12.058  28.010   1.632  1.00  0.00    -0.393 OA
ATOM     50  H   UNL     1     -12.589  28.844   1.580  1.00  0.00     0.210 HD
ENDBRANCH  48  49
ENDBRANCH  47  48
ENDBRANCH  46  47
ENDBRANCH  43  46
BRANCH  45  51
ATOM     51  O   UNL     1      -6.159  26.982   3.616  1.00  0.00    -0.487 OA
BRANCH  51  52
ATOM     52  C   UNL     1      -4.775  27.284   3.477  1.00  0.00     0.258 C 
BRANCH  52  53
ATOM     53  C   UNL     1      -4.591  28.248   2.319  1.00  0.00     0.197 C 
BRANCH  53  54
ATOM     54  O   UNL     1      -3.236  28.344   1.993  1.00  0.00    -0.393 OA
ATOM     55  H   UNL     1      -3.152  29.035   1.295  1.00  0.00     0.210 HD
ENDBRANCH  53  54
ENDBRANCH  52  53
ENDBRANCH  51  52
ENDBRANCH  45  51
ENDBRANCH   2  40
BRANCH   8  56
ATOM     56  O   UNL     1     -12.053  31.874  11.223  1.00  0.00    -0.507 OA
ATOM     57  H   UNL     1     -12.759  32.487  10.863  1.00  0.00     0.293 HD
ENDBRANCH   8  56
BRANCH   6  58
ATOM     58  O   UNL     1     -13.125  27.206  12.122  1.00  0.00    -0.491 OA
BRANCH  58  59
ATOM     59  C   UNL     1     -13.040  26.875  13.517  1.00  0.00     0.257 C 
BRANCH  59  60
ATOM     60  C   UNL     1     -11.620  27.136  14.013  1.00  0.00     0.197 C 
BRANCH  60  61
ATOM     61  O   UNL     1     -11.640  28.047  15.083  1.00  0.00    -0.393 OA
ATOM     62  H   UNL     1     -11.615  27.510  15.914  1.00  0.00     0.210 HD
ENDBRANCH  60  61
ENDBRANCH  59  60
ENDBRANCH  58  59
ENDBRANCH   6  58
TORSDOF 25
ENDMDL
MODEL 9
REMARK VINA RESULT:    -3.053      2.122      8.808
REMARK INTER + INTRA:          -7.894
REMARK INTER:                  -6.888
REMARK INTRA:                  -1.006
REMARK UNBOUND:                -1.270
REMARK SMILES C[C@H]1O[C@H](OC[C@H]2O[C@@H](Oc3c(-c4ccc(OCCO)c(OCCO)c4)oc4cc(OCCO)cc(O)c4c3=O)[C@H](O)[C@H](O)[C@@H]2O)[C@@H](O)[C@@H](O)[C@H]1O
REMARK SMILES IDX 11 1 12 2 27 3 28 4 29 5 30 6 35 7 36 8 38 9 39 10 40 11
REMARK SMILES IDX 10 12 9 13 7 14 45 15 8 16 43 17 41 18 6 19 5 20 4 21 1 22
REMARK SMILES IDX 2 23 51 24 3 25 49 26 47 27 52 28 50 30 48 32 46 34 44 36
REMARK SMILES IDX 42 38 13 40 26 41 14 42 21 43 15 44 16 45 22 46 23 47 24 48
REMARK SMILES IDX 25 49 17 51 18 52 19 53 20 54 37 56 31 58 32 59 33 60 34 61
REMARK H PARENT 52 29 50 31 48 33 46 35 44 37 42 39 25 50 20 55 37 57 34 62
REMARK Flexibility Score: inf
ROOT
ATOM      1  C   UNL     1      -8.622  29.829   5.581  1.00  0.00     0.214 A 
ATOM      2  C   UNL     1      -8.687  29.029   6.737  1.00  0.00     0.180 A 
ATOM      3  O   UNL     1      -7.653  28.249   7.051  1.00  0.00    -0.452 OA
ATOM      4  C   UNL     1      -6.582  28.130   6.275  1.00  0.00     0.146 A 
ATOM      5  C   UNL     1      -5.459  27.452   6.763  1.00  0.00     0.094 A 
ATOM      6  C   UNL     1      -4.284  27.383   6.013  1.00  0.00     0.126 A 
ATOM      7  C   UNL     1      -4.292  27.864   4.689  1.00  0.00     0.093 A 
ATOM      8  C   UNL     1      -5.424  28.495   4.158  1.00  0.00     0.134 A 
ATOM      9  C   UNL     1      -6.550  28.725   4.986  1.00  0.00     0.111 A 
ATOM     10  C   UNL     1      -7.582  29.633   4.673  1.00  0.00     0.239 A 
ATOM     11  O   UNL     1      -7.509  30.392   3.670  1.00  0.00    -0.285 OA
ENDROOT
BRANCH   1  12
ATOM     12  O   UNL     1      -9.425  30.967   5.461  1.00  0.00    -0.454 OA
BRANCH  12  13
ATOM     13  C   UNL     1      -8.847  32.237   5.746  1.00  0.00     0.339 C 
ATOM     14  C   UNL     1      -9.463  34.101   7.186  1.00  0.00     0.180 C 
ATOM     15  C   UNL     1      -8.748  35.093   6.179  1.00  0.00     0.177 C 
ATOM     16  O   UNL     1      -9.325  32.695   6.999  1.00  0.00    -0.332 OA
ATOM     17  C   UNL     1      -8.228  34.435   4.869  1.00  0.00     0.180 C 
ATOM     18  C   UNL     1      -9.074  33.201   4.577  1.00  0.00     0.214 C 
BRANCH  14  19
ATOM     19  C   UNL     1     -10.970  34.405   7.356  1.00  0.00     0.198 C 
BRANCH  19  20
ATOM     20  O   UNL     1     -11.293  35.664   6.801  1.00  0.00    -0.347 OA
BRANCH  20  21
ATOM     21  C   UNL     1     -11.412  36.659   7.803  1.00  0.00     0.281 C 
ATOM     22  C   UNL     1     -11.540  39.568   8.483  1.00  0.00     0.041 C 
ATOM     23  C   UNL     1     -12.699  38.543   8.444  1.00  0.00     0.150 C 
ATOM     24  C   UNL     1     -13.122  37.943   9.828  1.00  0.00     0.174 C 
ATOM     25  O   UNL     1     -12.485  37.537   7.467  1.00  0.00    -0.344 OA
ATOM     26  C   UNL     1     -12.955  36.396   9.830  1.00  0.00     0.179 C 
ATOM     27  C   UNL     1     -11.636  35.947   9.174  1.00  0.00     0.202 C 
BRANCH  24  28
ATOM     28  O   UNL     1     -12.447  38.549  10.903  1.00  0.00    -0.388 OA
ATOM     29  H   UNL     1     -13.097  38.704  11.629  1.00  0.00     0.211 HD
ENDBRANCH  24  28
BRANCH  26  30
ATOM     30  O   UNL     1     -13.124  35.834  11.110  1.00  0.00    -0.387 OA
ATOM     31  H   UNL     1     -13.472  34.904  11.008  1.00  0.00     0.211 HD
ENDBRANCH  26  30
BRANCH  27  32
ATOM     32  O   UNL     1     -10.548  36.206  10.018  1.00  0.00    -0.385 OA
ATOM     33  H   UNL     1      -9.763  36.369   9.429  1.00  0.00     0.211 HD
ENDBRANCH  27  32
ENDBRANCH  20  21
ENDBRANCH  19  20
ENDBRANCH  14  19
BRANCH  15  34
ATOM     34  O   UNL     1      -7.736  35.830   6.816  1.00  0.00    -0.387 OA
ATOM     35  H   UNL     1      -6.902  35.286   6.793  1.00  0.00     0.211 HD
ENDBRANCH  15  34
BRANCH  17  36
ATOM     36  O   UNL     1      -6.870  34.063   4.985  1.00  0.00    -0.387 OA
ATOM     37  H   UNL     1      -6.813  33.085   4.823  1.00  0.00     0.211 HD
ENDBRANCH  17  36
BRANCH  18  38
ATOM     38  O   UNL     1      -8.682  32.619   3.369  1.00  0.00    -0.384 OA
ATOM     39  H   UNL     1      -9.218  33.062   2.652  1.00  0.00     0.211 HD
ENDBRANCH  18  38
ENDBRANCH  12  13
ENDBRANCH   1  12
BRANCH   2  40
ATOM     40  C   UNL     1      -9.858  29.086   7.657  1.00  0.00     0.025 A 
ATOM     41  C   UNL     1      -9.970  28.207   8.750  1.00  0.00     0.062 A 
ATOM     42  C   UNL     1     -10.835  30.074   7.489  1.00  0.00     0.016 A 
ATOM     43  C   UNL     1     -11.033  28.296   9.660  1.00  0.00     0.162 A 
ATOM     44  C   UNL     1     -11.926  30.151   8.364  1.00  0.00     0.051 A 
ATOM     45  C   UNL     1     -12.045  29.267   9.449  1.00  0.00     0.161 A 
BRANCH  43  46
ATOM     46  O   UNL     1     -10.981  27.412  10.756  1.00  0.00    -0.487 OA
BRANCH  46  47
ATOM     47  C   UNL     1      -9.933  27.269  11.716  1.00  0.00     0.258 C 
BRANCH  47  48
ATOM     48  C   UNL     1      -9.635  28.589  12.432  1.00  0.00     0.197 C 
BRANCH  48  49
ATOM     49  O   UNL     1     -10.033  28.511  13.772  1.00  0.00    -0.393 OA
ATOM     50  H   UNL     1      -9.298  28.896  14.311  1.00  0.00     0.210 HD
ENDBRANCH  48  49
ENDBRANCH  47  48
ENDBRANCH  46  47
ENDBRANCH  43  46
BRANCH  45  51
ATOM     51  O   UNL     1     -13.124  29.358  10.340  1.00  0.00    -0.487 OA
BRANCH  51  52
ATOM     52  C   UNL     1     -13.090  29.955  11.632  1.00  0.00     0.258 C 
BRANCH  52  53
ATOM     53  C   UNL     1     -13.009  31.463  11.479  1.00  0.00     0.197 C 
BRANCH  53  54
ATOM     54  O   UNL     1     -11.707  31.897  11.740  1.00  0.00    -0.393 OA
ATOM     55  H   UNL     1     -11.751  32.867  11.908  1.00  0.00     0.210 HD
ENDBRANCH  53  54
ENDBRANCH  52  53
ENDBRANCH  51  52
ENDBRANCH  45  51
ENDBRANCH   2  40
BRANCH   8  56
ATOM     56  O   UNL     1      -5.378  28.855   2.807  1.00  0.00    -0.507 OA
ATOM     57  H   UNL     1      -5.504  28.223   2.040  1.00  0.00     0.293 HD
ENDBRANCH   8  56
BRANCH   6  58
ATOM     58  O   UNL     1      -3.125  26.892   6.656  1.00  0.00    -0.491 OA
BRANCH  58  59
ATOM     59  C   UNL     1      -2.784  27.066   8.039  1.00  0.00     0.257 C 
BRANCH  59  60
ATOM     60  C   UNL     1      -2.112  28.424   8.227  1.00  0.00     0.197 C 
BRANCH  60  61
ATOM     61  O   UNL     1      -2.967  29.452   7.793  1.00  0.00    -0.393 OA
ATOM     62  H   UNL     1      -3.834  29.027   7.576  1.00  0.00     0.210 HD
ENDBRANCH  60  61
ENDBRANCH  59  60
ENDBRANCH  58  59
ENDBRANCH   6  58
TORSDOF 25
ENDMDL
