MODEL 1
REMARK VINA RESULT:     6.574      0.000      0.000
REMARK INTER + INTRA:          16.029
REMARK INTER:                  16.565
REMARK INTRA:                  -0.536
REMARK UNBOUND:                -0.536
REMARK SMILES CCCCCCCCCCCCCCCCCCCCCCCCCCCC(=O)[O-]
REMARK SMILES IDX 15 1 16 2 17 3 18 4 19 5 20 6 21 7 22 8 23 9 24 10 25 11
REMARK SMILES IDX 26 12 27 13 28 14 29 15 30 16 14 17 13 18 12 19 11 20 10 21
REMARK SMILES IDX 9 22 8 23 7 24 6 25 5 26 4 27 3 28 2 29 1 30
REMARK H PARENT
REMARK Flexibility Score: inf
ROOT
ATOM      1  C   UNL     1     -30.043 -22.548 -30.460  1.00  0.00     0.000 C 
ENDROOT
BRANCH   1   2
ATOM      2  C   UNL     1     -30.751 -21.400 -29.722  1.00  0.00     0.000 C 
BRANCH   2   3
ATOM      3  C   UNL     1     -30.365 -20.017 -30.272  1.00  0.00     0.000 C 
BRANCH   3   4
ATOM      4  C   UNL     1     -29.299 -20.084 -31.377  1.00  0.00     0.000 C 
BRANCH   4   5
ATOM      5  C   UNL     1     -27.838 -20.008 -30.896  1.00  0.00     0.000 C 
BRANCH   5   6
ATOM      6  C   UNL     1     -27.679 -19.875 -29.367  1.00  0.00     0.000 C 
BRANCH   6   7
ATOM      7  C   UNL     1     -27.433 -21.231 -28.676  1.00  0.00     0.000 C 
BRANCH   7   8
ATOM      8  C   UNL     1     -26.192 -21.214 -27.768  1.00  0.00     0.000 C 
BRANCH   8   9
ATOM      9  C   UNL     1     -26.532 -20.908 -26.298  1.00  0.00     0.000 C 
BRANCH   9  10
ATOM     10  C   UNL     1     -25.395 -20.177 -25.568  1.00  0.00     0.000 C 
BRANCH  10  11
ATOM     11  C   UNL     1     -25.222 -20.656 -24.115  1.00  0.00     0.000 C 
BRANCH  11  12
ATOM     12  C   UNL     1     -26.510 -21.276 -23.538  1.00  0.00     0.006 C 
BRANCH  12  13
ATOM     13  C   UNL     1     -26.481 -21.449 -22.011  1.00  0.00     0.053 C 
BRANCH  13  14
ATOM     14  C   UNL     1     -26.745 -22.859 -21.585  1.00  0.00     0.041 C 
ATOM     15  O   UNL     1     -25.788 -23.664 -21.431  1.00  0.00    -0.550 OA
ATOM     16  O   UNL     1     -28.049 -23.283 -21.351  1.00  0.00    -0.550 OA
ENDBRANCH  13  14
ENDBRANCH  12  13
ENDBRANCH  11  12
ENDBRANCH  10  11
ENDBRANCH   9  10
ENDBRANCH   8   9
ENDBRANCH   7   8
ENDBRANCH   6   7
ENDBRANCH   5   6
ENDBRANCH   4   5
ENDBRANCH   3   4
ENDBRANCH   2   3
ENDBRANCH   1   2
BRANCH   1  17
ATOM     17  C   UNL     1     -30.765 -22.988 -31.754  1.00  0.00     0.000 C 
BRANCH  17  18
ATOM     18  C   UNL     1     -30.379 -22.125 -32.969  1.00  0.00     0.000 C 
BRANCH  18  19
ATOM     19  C   UNL     1     -31.500 -22.036 -34.022  1.00  0.00     0.000 C 
BRANCH  19  20
ATOM     20  C   UNL     1     -31.690 -23.299 -34.882  1.00  0.00     0.000 C 
BRANCH  20  21
ATOM     21  C   UNL     1     -33.142 -23.490 -35.354  1.00  0.00     0.000 C 
BRANCH  21  22
ATOM     22  C   UNL     1     -33.828 -22.155 -35.695  1.00  0.00    -0.000 C 
BRANCH  22  23
ATOM     23  C   UNL     1     -33.231 -21.437 -36.927  1.00  0.00    -0.000 C 
BRANCH  23  24
ATOM     24  C   UNL     1     -33.077 -22.348 -38.160  1.00  0.00    -0.000 C 
BRANCH  24  25
ATOM     25  C   UNL     1     -31.632 -22.496 -38.669  1.00  0.00    -0.000 C 
BRANCH  25  26
ATOM     26  C   UNL     1     -31.189 -23.942 -38.982  1.00  0.00    -0.000 C 
BRANCH  26  27
ATOM     27  C   UNL     1     -32.319 -24.988 -38.984  1.00  0.00    -0.000 C 
BRANCH  27  28
ATOM     28  C   UNL     1     -31.805 -26.429 -38.841  1.00  0.00    -0.000 C 
BRANCH  28  29
ATOM     29  C   UNL     1     -32.954 -27.436 -38.971  1.00  0.00    -0.003 C 
ATOM     30  C   UNL     1     -32.474 -28.859 -38.698  1.00  0.00     0.004 C 
ENDBRANCH  28  29
ENDBRANCH  27  28
ENDBRANCH  26  27
ENDBRANCH  25  26
ENDBRANCH  24  25
ENDBRANCH  23  24
ENDBRANCH  22  23
ENDBRANCH  21  22
ENDBRANCH  20  21
ENDBRANCH  19  20
ENDBRANCH  18  19
ENDBRANCH  17  18
ENDBRANCH   1  17
TORSDOF 26
ENDMDL
MODEL 2
REMARK VINA RESULT:     7.064      4.970     12.698
REMARK INTER + INTRA:          17.264
REMARK INTER:                  18.613
REMARK INTRA:                  -1.349
REMARK UNBOUND:                -0.536
REMARK SMILES CCCCCCCCCCCCCCCCCCCCCCCCCCCC(=O)[O-]
REMARK SMILES IDX 15 1 16 2 17 3 18 4 19 5 20 6 21 7 22 8 23 9 24 10 25 11
REMARK SMILES IDX 26 12 27 13 28 14 29 15 30 16 14 17 13 18 12 19 11 20 10 21
REMARK SMILES IDX 9 22 8 23 7 24 6 25 5 26 4 27 3 28 2 29 1 30
REMARK H PARENT
REMARK Flexibility Score: inf
ROOT
ATOM      1  C   UNL     1     -30.985 -19.878 -32.872  1.00  0.00     0.000 C 
ENDROOT
BRANCH   1   2
ATOM      2  C   UNL     1     -32.268 -20.380 -33.556  1.00  0.00     0.000 C 
BRANCH   2   3
ATOM      3  C   UNL     1     -32.005 -20.947 -34.960  1.00  0.00     0.000 C 
BRANCH   3   4
ATOM      4  C   UNL     1     -32.320 -22.446 -35.074  1.00  0.00     0.000 C 
BRANCH   4   5
ATOM      5  C   UNL     1     -33.562 -22.803 -35.912  1.00  0.00     0.000 C 
BRANCH   5   6
ATOM      6  C   UNL     1     -33.842 -21.830 -37.077  1.00  0.00     0.000 C 
BRANCH   6   7
ATOM      7  C   UNL     1     -33.676 -22.494 -38.457  1.00  0.00     0.000 C 
BRANCH   7   8
ATOM      8  C   UNL     1     -32.304 -22.207 -39.089  1.00  0.00     0.000 C 
BRANCH   8   9
ATOM      9  C   UNL     1     -31.318 -23.379 -38.933  1.00  0.00     0.000 C 
BRANCH   9  10
ATOM     10  C   UNL     1     -32.014 -24.749 -38.994  1.00  0.00     0.000 C 
BRANCH  10  11
ATOM     11  C   UNL     1     -31.647 -25.652 -37.802  1.00  0.00     0.000 C 
BRANCH  11  12
ATOM     12  C   UNL     1     -32.887 -26.211 -37.078  1.00  0.00     0.006 C 
BRANCH  12  13
ATOM     13  C   UNL     1     -33.525 -27.415 -37.790  1.00  0.00     0.053 C 
BRANCH  13  14
ATOM     14  C   UNL     1     -32.508 -28.349 -38.368  1.00  0.00     0.041 C 
ATOM     15  O   UNL     1     -32.869 -29.289 -39.125  1.00  0.00    -0.550 OA
ATOM     16  O   UNL     1     -31.159 -28.176 -38.078  1.00  0.00    -0.550 OA
ENDBRANCH  13  14
ENDBRANCH  12  13
ENDBRANCH  11  12
ENDBRANCH  10  11
ENDBRANCH   9  10
ENDBRANCH   8   9
ENDBRANCH   7   8
ENDBRANCH   6   7
ENDBRANCH   5   6
ENDBRANCH   4   5
ENDBRANCH   3   4
ENDBRANCH   2   3
ENDBRANCH   1   2
BRANCH   1  17
ATOM     17  C   UNL     1     -29.697 -20.533 -33.419  1.00  0.00     0.000 C 
BRANCH  17  18
ATOM     18  C   UNL     1     -29.327 -21.825 -32.668  1.00  0.00     0.000 C 
BRANCH  18  19
ATOM     19  C   UNL     1     -30.548 -22.530 -32.049  1.00  0.00     0.000 C 
BRANCH  19  20
ATOM     20  C   UNL     1     -30.390 -22.935 -30.571  1.00  0.00     0.000 C 
BRANCH  20  21
ATOM     21  C   UNL     1     -29.753 -21.828 -29.712  1.00  0.00     0.000 C 
BRANCH  21  22
ATOM     22  C   UNL     1     -30.010 -22.033 -28.208  1.00  0.00    -0.000 C 
BRANCH  22  23
ATOM     23  C   UNL     1     -28.999 -22.978 -27.519  1.00  0.00    -0.000 C 
BRANCH  23  24
ATOM     24  C   UNL     1     -27.532 -22.532 -27.672  1.00  0.00    -0.000 C 
BRANCH  24  25
ATOM     25  C   UNL     1     -27.255 -21.084 -27.228  1.00  0.00    -0.000 C 
BRANCH  25  26
ATOM     26  C   UNL     1     -26.899 -20.910 -25.735  1.00  0.00    -0.000 C 
BRANCH  26  27
ATOM     27  C   UNL     1     -28.019 -21.278 -24.746  1.00  0.00    -0.000 C 
BRANCH  27  28
ATOM     28  C   UNL     1     -27.631 -22.422 -23.797  1.00  0.00    -0.000 C 
BRANCH  28  29
ATOM     29  C   UNL     1     -27.630 -21.948 -22.339  1.00  0.00    -0.003 C 
ATOM     30  C   UNL     1     -26.390 -22.441 -21.598  1.00  0.00     0.004 C 
ENDBRANCH  28  29
ENDBRANCH  27  28
ENDBRANCH  26  27
ENDBRANCH  25  26
ENDBRANCH  24  25
ENDBRANCH  23  24
ENDBRANCH  22  23
ENDBRANCH  21  22
ENDBRANCH  20  21
ENDBRANCH  19  20
ENDBRANCH  18  19
ENDBRANCH  17  18
ENDBRANCH   1  17
TORSDOF 26
ENDMDL
MODEL 3
REMARK VINA RESULT:     7.268      5.054     13.191
REMARK INTER + INTRA:          17.780
REMARK INTER:                  19.423
REMARK INTRA:                  -1.643
REMARK UNBOUND:                -0.536
REMARK SMILES CCCCCCCCCCCCCCCCCCCCCCCCCCCC(=O)[O-]
REMARK SMILES IDX 15 1 16 2 17 3 18 4 19 5 20 6 21 7 22 8 23 9 24 10 25 11
REMARK SMILES IDX 26 12 27 13 28 14 29 15 30 16 14 17 13 18 12 19 11 20 10 21
REMARK SMILES IDX 9 22 8 23 7 24 6 25 5 26 4 27 3 28 2 29 1 30
REMARK H PARENT
REMARK Flexibility Score: inf
ROOT
ATOM      1  C   UNL     1     -30.540 -21.909 -31.193  1.00  0.00     0.000 C 
ENDROOT
BRANCH   1   2
ATOM      2  C   UNL     1     -29.328 -21.361 -31.965  1.00  0.00     0.000 C 
BRANCH   2   3
ATOM      3  C   UNL     1     -29.714 -20.254 -32.960  1.00  0.00     0.000 C 
BRANCH   3   4
ATOM      4  C   UNL     1     -31.205 -19.886 -32.904  1.00  0.00     0.000 C 
BRANCH   4   5
ATOM      5  C   UNL     1     -32.125 -20.700 -33.834  1.00  0.00     0.000 C 
BRANCH   5   6
ATOM      6  C   UNL     1     -31.413 -21.840 -34.593  1.00  0.00     0.000 C 
BRANCH   6   7
ATOM      7  C   UNL     1     -32.160 -23.183 -34.483  1.00  0.00     0.000 C 
BRANCH   7   8
ATOM      8  C   UNL     1     -32.689 -23.677 -35.839  1.00  0.00     0.000 C 
BRANCH   8   9
ATOM      9  C   UNL     1     -32.501 -22.644 -36.965  1.00  0.00     0.000 C 
BRANCH   9  10
ATOM     10  C   UNL     1     -32.123 -23.293 -38.306  1.00  0.00     0.000 C 
BRANCH  10  11
ATOM     11  C   UNL     1     -31.185 -24.502 -38.133  1.00  0.00     0.000 C 
BRANCH  11  12
ATOM     12  C   UNL     1     -31.702 -25.761 -38.857  1.00  0.00     0.006 C 
BRANCH  12  13
ATOM     13  C   UNL     1     -32.765 -26.536 -38.062  1.00  0.00     0.053 C 
BRANCH  13  14
ATOM     14  C   UNL     1     -32.915 -27.951 -38.527  1.00  0.00     0.041 C 
ATOM     15  O   UNL     1     -34.063 -28.452 -38.669  1.00  0.00    -0.550 OA
ATOM     16  O   UNL     1     -31.789 -28.715 -38.812  1.00  0.00    -0.550 OA
ENDBRANCH  13  14
ENDBRANCH  12  13
ENDBRANCH  11  12
ENDBRANCH  10  11
ENDBRANCH   9  10
ENDBRANCH   8   9
ENDBRANCH   7   8
ENDBRANCH   6   7
ENDBRANCH   5   6
ENDBRANCH   4   5
ENDBRANCH   3   4
ENDBRANCH   2   3
ENDBRANCH   1   2
BRANCH   1  17
ATOM     17  C   UNL     1     -30.337 -21.933 -29.661  1.00  0.00     0.000 C 
BRANCH  17  18
ATOM     18  C   UNL     1     -29.215 -22.894 -29.230  1.00  0.00     0.000 C 
BRANCH  18  19
ATOM     19  C   UNL     1     -29.253 -23.226 -27.726  1.00  0.00     0.000 C 
BRANCH  19  20
ATOM     20  C   UNL     1     -28.228 -22.466 -26.863  1.00  0.00     0.000 C 
BRANCH  20  21
ATOM     21  C   UNL     1     -27.097 -21.833 -27.693  1.00  0.00     0.000 C 
BRANCH  21  22
ATOM     22  C   UNL     1     -26.549 -20.545 -27.052  1.00  0.00    -0.000 C 
BRANCH  22  23
ATOM     23  C   UNL     1     -25.280 -20.759 -26.195  1.00  0.00    -0.000 C 
BRANCH  23  24
ATOM     24  C   UNL     1     -25.552 -20.761 -24.679  1.00  0.00    -0.000 C 
BRANCH  24  25
ATOM     25  C   UNL     1     -27.030 -20.568 -24.294  1.00  0.00    -0.000 C 
BRANCH  25  26
ATOM     26  C   UNL     1     -27.634 -21.689 -23.420  1.00  0.00    -0.000 C 
BRANCH  26  27
ATOM     27  C   UNL     1     -26.962 -21.885 -22.048  1.00  0.00    -0.000 C 
BRANCH  27  28
ATOM     28  C   UNL     1     -26.852 -23.362 -21.640  1.00  0.00    -0.000 C 
BRANCH  28  29
ATOM     29  C   UNL     1     -25.384 -23.799 -21.559  1.00  0.00    -0.003 C 
ATOM     30  C   UNL     1     -25.076 -24.892 -22.580  1.00  0.00     0.004 C 
ENDBRANCH  28  29
ENDBRANCH  27  28
ENDBRANCH  26  27
ENDBRANCH  25  26
ENDBRANCH  24  25
ENDBRANCH  23  24
ENDBRANCH  22  23
ENDBRANCH  21  22
ENDBRANCH  20  21
ENDBRANCH  19  20
ENDBRANCH  18  19
ENDBRANCH  17  18
ENDBRANCH   1  17
TORSDOF 26
ENDMDL
MODEL 4
REMARK VINA RESULT:     7.364      1.942      3.247
REMARK INTER + INTRA:          18.020
REMARK INTER:                  19.695
REMARK INTRA:                  -1.675
REMARK UNBOUND:                -0.536
REMARK SMILES CCCCCCCCCCCCCCCCCCCCCCCCCCCC(=O)[O-]
REMARK SMILES IDX 15 1 16 2 17 3 18 4 19 5 20 6 21 7 22 8 23 9 24 10 25 11
REMARK SMILES IDX 26 12 27 13 28 14 29 15 30 16 14 17 13 18 12 19 11 20 10 21
REMARK SMILES IDX 9 22 8 23 7 24 6 25 5 26 4 27 3 28 2 29 1 30
REMARK H PARENT
REMARK Flexibility Score: inf
ROOT
ATOM      1  C   UNL     1     -29.459 -20.865 -30.414  1.00  0.00     0.000 C 
ENDROOT
BRANCH   1   2
ATOM      2  C   UNL     1     -29.654 -22.020 -29.418  1.00  0.00     0.000 C 
BRANCH   2   3
ATOM      3  C   UNL     1     -28.655 -21.969 -28.250  1.00  0.00     0.000 C 
BRANCH   3   4
ATOM      4  C   UNL     1     -27.444 -21.066 -28.533  1.00  0.00     0.000 C 
BRANCH   4   5
ATOM      5  C   UNL     1     -26.360 -21.046 -27.439  1.00  0.00     0.000 C 
BRANCH   5   6
ATOM      6  C   UNL     1     -26.886 -20.694 -26.031  1.00  0.00     0.000 C 
BRANCH   6   7
ATOM      7  C   UNL     1     -25.767 -20.658 -24.972  1.00  0.00     0.000 C 
BRANCH   7   8
ATOM      8  C   UNL     1     -26.313 -20.704 -23.535  1.00  0.00     0.000 C 
BRANCH   8   9
ATOM      9  C   UNL     1     -25.617 -21.766 -22.666  1.00  0.00     0.000 C 
BRANCH   9  10
ATOM     10  C   UNL     1     -26.602 -22.542 -21.778  1.00  0.00     0.000 C 
BRANCH  10  11
ATOM     11  C   UNL     1     -26.285 -24.047 -21.720  1.00  0.00     0.000 C 
BRANCH  11  12
ATOM     12  C   UNL     1     -24.791 -24.348 -21.950  1.00  0.00     0.006 C 
BRANCH  12  13
ATOM     13  C   UNL     1     -24.539 -25.479 -22.960  1.00  0.00     0.053 C 
BRANCH  13  14
ATOM     14  C   UNL     1     -23.086 -25.656 -23.276  1.00  0.00     0.041 C 
ATOM     15  O   UNL     1     -22.531 -24.921 -24.135  1.00  0.00    -0.550 OA
ATOM     16  O   UNL     1     -22.343 -26.628 -22.615  1.00  0.00    -0.550 OA
ENDBRANCH  13  14
ENDBRANCH  12  13
ENDBRANCH  11  12
ENDBRANCH  10  11
ENDBRANCH   9  10
ENDBRANCH   8   9
ENDBRANCH   7   8
ENDBRANCH   6   7
ENDBRANCH   5   6
ENDBRANCH   4   5
ENDBRANCH   3   4
ENDBRANCH   2   3
ENDBRANCH   1   2
BRANCH   1  17
ATOM     17  C   UNL     1     -30.744 -20.047 -30.671  1.00  0.00     0.000 C 
BRANCH  17  18
ATOM     18  C   UNL     1     -31.250 -20.182 -32.118  1.00  0.00     0.000 C 
BRANCH  18  19
ATOM     19  C   UNL     1     -30.113 -20.398 -33.134  1.00  0.00     0.000 C 
BRANCH  19  20
ATOM     20  C   UNL     1     -30.267 -21.638 -34.034  1.00  0.00     0.000 C 
BRANCH  20  21
ATOM     21  C   UNL     1     -31.489 -22.498 -33.666  1.00  0.00     0.000 C 
BRANCH  21  22
ATOM     22  C   UNL     1     -32.135 -23.156 -34.898  1.00  0.00    -0.000 C 
BRANCH  22  23
ATOM     23  C   UNL     1     -32.717 -22.148 -35.918  1.00  0.00    -0.000 C 
BRANCH  23  24
ATOM     24  C   UNL     1     -33.006 -22.765 -37.299  1.00  0.00    -0.000 C 
BRANCH  24  25
ATOM     25  C   UNL     1     -31.768 -22.926 -38.200  1.00  0.00    -0.000 C 
BRANCH  25  26
ATOM     26  C   UNL     1     -31.702 -24.246 -38.998  1.00  0.00    -0.000 C 
BRANCH  26  27
ATOM     27  C   UNL     1     -31.396 -25.503 -38.163  1.00  0.00    -0.000 C 
BRANCH  27  28
ATOM     28  C   UNL     1     -32.655 -26.150 -37.567  1.00  0.00    -0.000 C 
BRANCH  28  29
ATOM     29  C   UNL     1     -33.028 -27.427 -38.330  1.00  0.00    -0.003 C 
ATOM     30  C   UNL     1     -31.782 -28.167 -38.810  1.00  0.00     0.004 C 
ENDBRANCH  28  29
ENDBRANCH  27  28
ENDBRANCH  26  27
ENDBRANCH  25  26
ENDBRANCH  24  25
ENDBRANCH  23  24
ENDBRANCH  22  23
ENDBRANCH  21  22
ENDBRANCH  20  21
ENDBRANCH  19  20
ENDBRANCH  18  19
ENDBRANCH  17  18
ENDBRANCH   1  17
TORSDOF 26
ENDMDL
MODEL 5
REMARK VINA RESULT:     7.385      1.375      2.055
REMARK INTER + INTRA:          18.073
REMARK INTER:                  19.605
REMARK INTRA:                  -1.533
REMARK UNBOUND:                -0.536
REMARK SMILES CCCCCCCCCCCCCCCCCCCCCCCCCCCC(=O)[O-]
REMARK SMILES IDX 15 1 16 2 17 3 18 4 19 5 20 6 21 7 22 8 23 9 24 10 25 11
REMARK SMILES IDX 26 12 27 13 28 14 29 15 30 16 14 17 13 18 12 19 11 20 10 21
REMARK SMILES IDX 9 22 8 23 7 24 6 25 5 26 4 27 3 28 2 29 1 30
REMARK H PARENT
REMARK Flexibility Score: inf
ROOT
ATOM      1  C   UNL     1     -29.867 -21.118 -32.236  1.00  0.00     0.000 C 
ENDROOT
BRANCH   1   2
ATOM      2  C   UNL     1     -30.641 -22.442 -32.133  1.00  0.00     0.000 C 
BRANCH   2   3
ATOM      3  C   UNL     1     -30.494 -23.107 -30.755  1.00  0.00     0.000 C 
BRANCH   3   4
ATOM      4  C   UNL     1     -30.010 -22.137 -29.667  1.00  0.00     0.000 C 
BRANCH   4   5
ATOM      5  C   UNL     1     -29.625 -22.784 -28.323  1.00  0.00     0.000 C 
BRANCH   5   6
ATOM      6  C   UNL     1     -28.180 -22.491 -27.868  1.00  0.00     0.000 C 
BRANCH   6   7
ATOM      7  C   UNL     1     -27.831 -20.991 -27.929  1.00  0.00     0.000 C 
BRANCH   7   8
ATOM      8  C   UNL     1     -26.316 -20.736 -27.890  1.00  0.00     0.000 C 
BRANCH   8   9
ATOM      9  C   UNL     1     -25.654 -21.265 -26.605  1.00  0.00     0.000 C 
BRANCH   9  10
ATOM     10  C   UNL     1     -25.789 -20.290 -25.425  1.00  0.00     0.000 C 
BRANCH  10  11
ATOM     11  C   UNL     1     -27.166 -20.377 -24.741  1.00  0.00     0.000 C 
BRANCH  11  12
ATOM     12  C   UNL     1     -27.514 -21.810 -24.290  1.00  0.00     0.006 C 
BRANCH  12  13
ATOM     13  C   UNL     1     -27.966 -21.902 -22.824  1.00  0.00     0.053 C 
BRANCH  13  14
ATOM     14  C   UNL     1     -26.889 -22.413 -21.919  1.00  0.00     0.041 C 
ATOM     15  O   UNL     1     -26.597 -23.639 -21.912  1.00  0.00    -0.550 OA
ATOM     16  O   UNL     1     -26.201 -21.534 -21.089  1.00  0.00    -0.550 OA
ENDBRANCH  13  14
ENDBRANCH  12  13
ENDBRANCH  11  12
ENDBRANCH  10  11
ENDBRANCH   9  10
ENDBRANCH   8   9
ENDBRANCH   7   8
ENDBRANCH   6   7
ENDBRANCH   5   6
ENDBRANCH   4   5
ENDBRANCH   3   4
ENDBRANCH   2   3
ENDBRANCH   1   2
BRANCH   1  17
ATOM     17  C   UNL     1     -30.414 -20.165 -33.322  1.00  0.00     0.000 C 
BRANCH  17  18
ATOM     18  C   UNL     1     -31.916 -19.875 -33.150  1.00  0.00     0.000 C 
BRANCH  18  19
ATOM     19  C   UNL     1     -32.706 -19.995 -34.468  1.00  0.00     0.000 C 
BRANCH  19  20
ATOM     20  C   UNL     1     -32.985 -21.436 -34.934  1.00  0.00     0.000 C 
BRANCH  20  21
ATOM     21  C   UNL     1     -34.042 -21.510 -36.051  1.00  0.00     0.000 C 
BRANCH  21  22
ATOM     22  C   UNL     1     -34.007 -20.279 -36.974  1.00  0.00    -0.000 C 
BRANCH  22  23
ATOM     23  C   UNL     1     -34.028 -20.622 -38.482  1.00  0.00    -0.000 C 
BRANCH  23  24
ATOM     24  C   UNL     1     -33.664 -22.087 -38.788  1.00  0.00    -0.000 C 
BRANCH  24  25
ATOM     25  C   UNL     1     -32.226 -22.482 -38.403  1.00  0.00    -0.000 C 
BRANCH  25  26
ATOM     26  C   UNL     1     -32.085 -23.848 -37.698  1.00  0.00    -0.000 C 
BRANCH  26  27
ATOM     27  C   UNL     1     -32.562 -25.062 -38.518  1.00  0.00    -0.000 C 
BRANCH  27  28
ATOM     28  C   UNL     1     -31.502 -26.169 -38.623  1.00  0.00    -0.000 C 
BRANCH  28  29
ATOM     29  C   UNL     1     -32.062 -27.511 -38.136  1.00  0.00    -0.003 C 
ATOM     30  C   UNL     1     -33.501 -27.712 -38.605  1.00  0.00     0.004 C 
ENDBRANCH  28  29
ENDBRANCH  27  28
ENDBRANCH  26  27
ENDBRANCH  25  26
ENDBRANCH  24  25
ENDBRANCH  23  24
ENDBRANCH  22  23
ENDBRANCH  21  22
ENDBRANCH  20  21
ENDBRANCH  19  20
ENDBRANCH  18  19
ENDBRANCH  17  18
ENDBRANCH   1  17
TORSDOF 26
ENDMDL
MODEL 6
REMARK VINA RESULT:     7.412      4.852     12.810
REMARK INTER + INTRA:          18.141
REMARK INTER:                  18.143
REMARK INTRA:                  -0.003
REMARK UNBOUND:                -0.536
REMARK SMILES CCCCCCCCCCCCCCCCCCCCCCCCCCCC(=O)[O-]
REMARK SMILES IDX 15 1 16 2 17 3 18 4 19 5 20 6 21 7 22 8 23 9 24 10 25 11
REMARK SMILES IDX 26 12 27 13 28 14 29 15 30 16 14 17 13 18 12 19 11 20 10 21
REMARK SMILES IDX 9 22 8 23 7 24 6 25 5 26 4 27 3 28 2 29 1 30
REMARK H PARENT
REMARK Flexibility Score: inf
ROOT
ATOM      1  C   UNL     1     -30.047 -22.525 -30.520  1.00  0.00     0.000 C 
ENDROOT
BRANCH   1   2
ATOM      2  C   UNL     1     -30.861 -23.758 -30.947  1.00  0.00     0.000 C 
BRANCH   2   3
ATOM      3  C   UNL     1     -31.757 -23.481 -32.165  1.00  0.00     0.000 C 
BRANCH   3   4
ATOM      4  C   UNL     1     -31.150 -22.458 -33.139  1.00  0.00     0.000 C 
BRANCH   4   5
ATOM      5  C   UNL     1     -31.326 -22.779 -34.635  1.00  0.00     0.000 C 
BRANCH   5   6
ATOM      6  C   UNL     1     -32.785 -22.705 -35.133  1.00  0.00     0.000 C 
BRANCH   6   7
ATOM      7  C   UNL     1     -33.071 -21.427 -35.943  1.00  0.00     0.000 C 
BRANCH   7   8
ATOM      8  C   UNL     1     -33.924 -21.698 -37.193  1.00  0.00     0.000 C 
BRANCH   8   9
ATOM      9  C   UNL     1     -33.306 -22.761 -38.119  1.00  0.00     0.000 C 
BRANCH   9  10
ATOM     10  C   UNL     1     -31.773 -22.814 -38.017  1.00  0.00     0.000 C 
BRANCH  10  11
ATOM     11  C   UNL     1     -31.176 -24.039 -38.734  1.00  0.00     0.000 C 
BRANCH  11  12
ATOM     12  C   UNL     1     -32.246 -25.077 -39.125  1.00  0.00     0.006 C 
BRANCH  12  13
ATOM     13  C   UNL     1     -32.606 -26.048 -37.989  1.00  0.00     0.053 C 
BRANCH  13  14
ATOM     14  C   UNL     1     -32.581 -27.480 -38.425  1.00  0.00     0.041 C 
ATOM     15  O   UNL     1     -31.485 -28.093 -38.520  1.00  0.00    -0.550 OA
ATOM     16  O   UNL     1     -33.769 -28.140 -38.717  1.00  0.00    -0.550 OA
ENDBRANCH  13  14
ENDBRANCH  12  13
ENDBRANCH  11  12
ENDBRANCH  10  11
ENDBRANCH   9  10
ENDBRANCH   8   9
ENDBRANCH   7   8
ENDBRANCH   6   7
ENDBRANCH   5   6
ENDBRANCH   4   5
ENDBRANCH   3   4
ENDBRANCH   2   3
ENDBRANCH   1   2
BRANCH   1  17
ATOM     17  C   UNL     1     -30.916 -21.277 -30.246  1.00  0.00     0.000 C 
BRANCH  17  18
ATOM     18  C   UNL     1     -30.467 -20.053 -31.065  1.00  0.00     0.000 C 
BRANCH  18  19
ATOM     19  C   UNL     1     -29.335 -20.379 -32.058  1.00  0.00     0.000 C 
BRANCH  19  20
ATOM     20  C   UNL     1     -27.915 -20.048 -31.562  1.00  0.00     0.000 C 
BRANCH  20  21
ATOM     21  C   UNL     1     -27.838 -19.875 -30.035  1.00  0.00     0.000 C 
BRANCH  21  22
ATOM     22  C   UNL     1     -26.916 -20.915 -29.373  1.00  0.00    -0.000 C 
BRANCH  22  23
ATOM     23  C   UNL     1     -26.630 -20.641 -27.878  1.00  0.00    -0.000 C 
BRANCH  23  24
ATOM     24  C   UNL     1     -25.128 -20.585 -27.537  1.00  0.00    -0.000 C 
BRANCH  24  25
ATOM     25  C   UNL     1     -24.814 -20.616 -26.030  1.00  0.00    -0.000 C 
BRANCH  25  26
ATOM     26  C   UNL     1     -26.046 -20.579 -25.100  1.00  0.00    -0.000 C 
BRANCH  26  27
ATOM     27  C   UNL     1     -25.870 -21.298 -23.750  1.00  0.00    -0.000 C 
BRANCH  27  28
ATOM     28  C   UNL     1     -27.205 -21.712 -23.111  1.00  0.00    -0.000 C 
BRANCH  28  29
ATOM     29  C   UNL     1     -26.992 -22.226 -21.683  1.00  0.00    -0.003 C 
ATOM     30  C   UNL     1     -26.676 -23.719 -21.674  1.00  0.00     0.004 C 
ENDBRANCH  28  29
ENDBRANCH  27  28
ENDBRANCH  26  27
ENDBRANCH  25  26
ENDBRANCH  24  25
ENDBRANCH  23  24
ENDBRANCH  22  23
ENDBRANCH  21  22
ENDBRANCH  20  21
ENDBRANCH  19  20
ENDBRANCH  18  19
ENDBRANCH  17  18
ENDBRANCH   1  17
TORSDOF 26
ENDMDL
MODEL 7
REMARK VINA RESULT:     8.455      4.634     13.129
REMARK INTER + INTRA:          20.770
REMARK INTER:                  21.427
REMARK INTRA:                  -0.657
REMARK UNBOUND:                -0.536
REMARK SMILES CCCCCCCCCCCCCCCCCCCCCCCCCCCC(=O)[O-]
REMARK SMILES IDX 15 1 16 2 17 3 18 4 19 5 20 6 21 7 22 8 23 9 24 10 25 11
REMARK SMILES IDX 26 12 27 13 28 14 29 15 30 16 14 17 13 18 12 19 11 20 10 21
REMARK SMILES IDX 9 22 8 23 7 24 6 25 5 26 4 27 3 28 2 29 1 30
REMARK H PARENT
REMARK Flexibility Score: inf
ROOT
ATOM      1  C   UNL     1     -31.151 -20.023 -31.011  1.00  0.00     0.000 C 
ENDROOT
BRANCH   1   2
ATOM      2  C   UNL     1     -31.358 -20.073 -32.534  1.00  0.00     0.000 C 
BRANCH   2   3
ATOM      3  C   UNL     1     -30.119 -20.593 -33.281  1.00  0.00     0.000 C 
BRANCH   3   4
ATOM      4  C   UNL     1     -30.431 -21.771 -34.218  1.00  0.00     0.000 C 
BRANCH   4   5
ATOM      5  C   UNL     1     -31.912 -22.190 -34.287  1.00  0.00     0.000 C 
BRANCH   5   6
ATOM      6  C   UNL     1     -32.846 -21.124 -34.897  1.00  0.00     0.000 C 
BRANCH   6   7
ATOM      7  C   UNL     1     -33.565 -21.621 -36.166  1.00  0.00     0.000 C 
BRANCH   7   8
ATOM      8  C   UNL     1     -34.125 -20.470 -37.017  1.00  0.00     0.000 C 
BRANCH   8   9
ATOM      9  C   UNL     1     -33.963 -20.712 -38.529  1.00  0.00     0.000 C 
BRANCH   9  10
ATOM     10  C   UNL     1     -33.440 -22.122 -38.849  1.00  0.00     0.000 C 
BRANCH  10  11
ATOM     11  C   UNL     1     -31.906 -22.214 -38.773  1.00  0.00     0.000 C 
BRANCH  11  12
ATOM     12  C   UNL     1     -31.423 -23.466 -38.015  1.00  0.00     0.006 C 
BRANCH  12  13
ATOM     13  C   UNL     1     -31.541 -24.763 -38.832  1.00  0.00     0.053 C 
BRANCH  13  14
ATOM     14  C   UNL     1     -32.173 -25.877 -38.056  1.00  0.00     0.041 C 
ATOM     15  O   UNL     1     -32.293 -25.790 -36.805  1.00  0.00    -0.550 OA
ATOM     16  O   UNL     1     -32.639 -27.009 -38.717  1.00  0.00    -0.550 OA
ENDBRANCH  13  14
ENDBRANCH  12  13
ENDBRANCH  11  12
ENDBRANCH  10  11
ENDBRANCH   9  10
ENDBRANCH   8   9
ENDBRANCH   7   8
ENDBRANCH   6   7
ENDBRANCH   5   6
ENDBRANCH   4   5
ENDBRANCH   3   4
ENDBRANCH   2   3
ENDBRANCH   1   2
BRANCH   1  17
ATOM     17  C   UNL     1     -29.793 -20.603 -30.554  1.00  0.00     0.000 C 
BRANCH  17  18
ATOM     18  C   UNL     1     -29.913 -22.046 -30.030  1.00  0.00     0.000 C 
BRANCH  18  19
ATOM     19  C   UNL     1     -29.980 -22.123 -28.493  1.00  0.00     0.000 C 
BRANCH  19  20
ATOM     20  C   UNL     1     -28.900 -23.002 -27.835  1.00  0.00     0.000 C 
BRANCH  20  21
ATOM     21  C   UNL     1     -27.622 -22.220 -27.485  1.00  0.00     0.000 C 
BRANCH  21  22
ATOM     22  C   UNL     1     -27.772 -21.399 -26.192  1.00  0.00    -0.000 C 
BRANCH  22  23
ATOM     23  C   UNL     1     -26.841 -20.166 -26.117  1.00  0.00    -0.000 C 
BRANCH  23  24
ATOM     24  C   UNL     1     -25.363 -20.522 -25.871  1.00  0.00    -0.000 C 
BRANCH  24  25
ATOM     25  C   UNL     1     -24.932 -20.482 -24.394  1.00  0.00    -0.000 C 
BRANCH  25  26
ATOM     26  C   UNL     1     -25.366 -21.699 -23.549  1.00  0.00    -0.000 C 
BRANCH  26  27
ATOM     27  C   UNL     1     -26.141 -21.362 -22.261  1.00  0.00    -0.000 C 
BRANCH  27  28
ATOM     28  C   UNL     1     -27.263 -22.366 -21.955  1.00  0.00    -0.000 C 
BRANCH  28  29
ATOM     29  C   UNL     1     -26.724 -23.567 -21.171  1.00  0.00    -0.003 C 
ATOM     30  C   UNL     1     -25.814 -24.431 -22.039  1.00  0.00     0.004 C 
ENDBRANCH  28  29
ENDBRANCH  27  28
ENDBRANCH  26  27
ENDBRANCH  25  26
ENDBRANCH  24  25
ENDBRANCH  23  24
ENDBRANCH  22  23
ENDBRANCH  21  22
ENDBRANCH  20  21
ENDBRANCH  19  20
ENDBRANCH  18  19
ENDBRANCH  17  18
ENDBRANCH   1  17
TORSDOF 26
ENDMDL
