MODEL 1
REMARK VINA RESULT:    -2.840      0.000      0.000
REMARK INTER + INTRA:          -4.527
REMARK INTER:                  -3.836
REMARK INTRA:                  -0.692
REMARK UNBOUND:                -0.692
REMARK SMILES CCCCCCC=CC(=O)[O-]
REMARK SMILES IDX 5 1 6 2 7 3 8 4 9 5 10 6 11 7 4 8 3 9 2 10 1 11
REMARK H PARENT
REMARK Flexibility Score: inf
ROOT
ATOM      1  C   UNL     1      19.069   8.458  24.128  1.00  0.00     0.004 C 
ENDROOT
BRANCH   1   2
ATOM      2  C   UNL     1      17.985   7.537  23.554  1.00  0.00     0.027 C 
BRANCH   2   3
ATOM      3  C   UNL     1      17.154   8.251  22.526  1.00  0.00    -0.025 C 
ATOM      4  C   UNL     1      17.280   9.565  22.315  1.00  0.00     0.020 C 
BRANCH   4   5
ATOM      5  C   UNL     1      16.467  10.287  21.324  1.00  0.00     0.064 C 
ATOM      6  O   UNL     1      16.829  11.407  20.876  1.00  0.00    -0.545 OA
ATOM      7  O   UNL     1      15.279   9.724  20.875  1.00  0.00    -0.545 OA
ENDBRANCH   4   5
ENDBRANCH   2   3
ENDBRANCH   1   2
BRANCH   1   8
ATOM      8  C   UNL     1      20.472   7.923  23.805  1.00  0.00     0.000 C 
BRANCH   8   9
ATOM      9  C   UNL     1      21.090   8.590  22.567  1.00  0.00    -0.000 C 
BRANCH   9  10
ATOM     10  C   UNL     1      20.984  10.122  22.606  1.00  0.00    -0.003 C 
ATOM     11  C   UNL     1      20.574  10.680  21.247  1.00  0.00     0.004 C 
ENDBRANCH   9  10
ENDBRANCH   8   9
ENDBRANCH   1   8
TORSDOF 6
ENDMDL
MODEL 2
REMARK VINA RESULT:    -1.797     16.050     17.137
REMARK INTER + INTRA:          -3.119
REMARK INTER:                  -3.119
REMARK INTRA:                  -0.000
REMARK UNBOUND:                -0.692
REMARK SMILES CCCCCCC=CC(=O)[O-]
REMARK SMILES IDX 5 1 6 2 7 3 8 4 9 5 10 6 11 7 4 8 3 9 2 10 1 11
REMARK H PARENT
REMARK Flexibility Score: inf
ROOT
ATOM      1  C   UNL     1      11.605  19.270  31.380  1.00  0.00     0.004 C 
ENDROOT
BRANCH   1   2
ATOM      2  C   UNL     1      12.872  18.838  32.127  1.00  0.00     0.027 C 
BRANCH   2   3
ATOM      3  C   UNL     1      12.817  19.245  33.572  1.00  0.00    -0.025 C 
ATOM      4  C   UNL     1      12.168  20.345  33.964  1.00  0.00     0.020 C 
BRANCH   4   5
ATOM      5  C   UNL     1      12.113  20.771  35.371  1.00  0.00     0.064 C 
ATOM      6  O   UNL     1      11.738  21.931  35.687  1.00  0.00    -0.545 OA
ATOM      7  O   UNL     1      12.483  19.879  36.370  1.00  0.00    -0.545 OA
ENDBRANCH   4   5
ENDBRANCH   2   3
ENDBRANCH   1   2
BRANCH   1   8
ATOM      8  C   UNL     1      11.754  20.695  30.825  1.00  0.00     0.000 C 
BRANCH   8   9
ATOM      9  C   UNL     1      10.448  21.238  30.226  1.00  0.00    -0.000 C 
BRANCH   9  10
ATOM     10  C   UNL     1       9.631  20.153  29.508  1.00  0.00    -0.003 C 
ATOM     11  C   UNL     1       8.388  20.744  28.852  1.00  0.00     0.004 C 
ENDBRANCH   9  10
ENDBRANCH   8   9
ENDBRANCH   1   8
TORSDOF 6
ENDMDL
MODEL 3
REMARK VINA RESULT:    -1.464     15.594     16.394
REMARK INTER + INTRA:          -2.670
REMARK INTER:                  -2.395
REMARK INTRA:                  -0.275
REMARK UNBOUND:                -0.692
REMARK SMILES CCCCCCC=CC(=O)[O-]
REMARK SMILES IDX 5 1 6 2 7 3 8 4 9 5 10 6 11 7 4 8 3 9 2 10 1 11
REMARK H PARENT
REMARK Flexibility Score: inf
ROOT
ATOM      1  C   UNL     1      12.685  18.983  32.350  1.00  0.00     0.004 C 
ENDROOT
BRANCH   1   2
ATOM      2  C   UNL     1      12.099  20.218  31.656  1.00  0.00     0.027 C 
BRANCH   2   3
ATOM      3  C   UNL     1      11.121  19.828  30.585  1.00  0.00    -0.025 C 
ATOM      4  C   UNL     1      10.211  20.690  30.121  1.00  0.00     0.020 C 
BRANCH   4   5
ATOM      5  C   UNL     1       9.234  20.325  29.084  1.00  0.00     0.064 C 
ATOM      6  O   UNL     1       9.498  19.447  28.220  1.00  0.00    -0.545 OA
ATOM      7  O   UNL     1       7.999  20.960  29.055  1.00  0.00    -0.545 OA
ENDBRANCH   4   5
ENDBRANCH   2   3
ENDBRANCH   1   2
BRANCH   1   8
ATOM      8  C   UNL     1      13.115  19.313  33.788  1.00  0.00     0.000 C 
BRANCH   8   9
ATOM      9  C   UNL     1      11.925  19.627  34.706  1.00  0.00    -0.000 C 
BRANCH   9  10
ATOM     10  C   UNL     1      12.088  20.960  35.451  1.00  0.00    -0.003 C 
ATOM     11  C   UNL     1      12.198  22.126  34.474  1.00  0.00     0.004 C 
ENDBRANCH   9  10
ENDBRANCH   8   9
ENDBRANCH   1   8
TORSDOF 6
ENDMDL
MODEL 4
REMARK VINA RESULT:    -1.097     15.833     16.742
REMARK INTER + INTRA:          -2.174
REMARK INTER:                  -1.928
REMARK INTRA:                  -0.245
REMARK UNBOUND:                -0.692
REMARK SMILES CCCCCCC=CC(=O)[O-]
REMARK SMILES IDX 5 1 6 2 7 3 8 4 9 5 10 6 11 7 4 8 3 9 2 10 1 11
REMARK H PARENT
REMARK Flexibility Score: inf
ROOT
ATOM      1  C   UNL     1      11.753  20.740  31.681  1.00  0.00     0.004 C 
ENDROOT
BRANCH   1   2
ATOM      2  C   UNL     1      11.345  20.340  30.258  1.00  0.00     0.027 C 
BRANCH   2   3
ATOM      3  C   UNL     1      10.005  20.913  29.895  1.00  0.00    -0.025 C 
ATOM      4  C   UNL     1       9.142  20.242  29.125  1.00  0.00     0.020 C 
BRANCH   4   5
ATOM      5  C   UNL     1       7.832  20.790  28.745  1.00  0.00     0.064 C 
ATOM      6  O   UNL     1       6.870  20.802  29.559  1.00  0.00    -0.545 OA
ATOM      7  O   UNL     1       7.649  21.301  27.466  1.00  0.00    -0.545 OA
ENDBRANCH   4   5
ENDBRANCH   2   3
ENDBRANCH   1   2
BRANCH   1   8
ATOM      8  C   UNL     1      12.428  19.568  32.409  1.00  0.00     0.000 C 
BRANCH   8   9
ATOM      9  C   UNL     1      12.603  19.825  33.913  1.00  0.00    -0.000 C 
BRANCH   9  10
ATOM     10  C   UNL     1      12.386  21.298  34.290  1.00  0.00    -0.003 C 
ATOM     11  C   UNL     1      11.748  21.424  35.669  1.00  0.00     0.004 C 
ENDBRANCH   9  10
ENDBRANCH   8   9
ENDBRANCH   1   8
TORSDOF 6
ENDMDL
MODEL 5
REMARK VINA RESULT:    -0.972     16.203     17.423
REMARK INTER + INTRA:          -2.005
REMARK INTER:                  -1.784
REMARK INTRA:                  -0.221
REMARK UNBOUND:                -0.692
REMARK SMILES CCCCCCC=CC(=O)[O-]
REMARK SMILES IDX 5 1 6 2 7 3 8 4 9 5 10 6 11 7 4 8 3 9 2 10 1 11
REMARK H PARENT
REMARK Flexibility Score: inf
ROOT
ATOM      1  C   UNL     1      11.644  20.734  31.100  1.00  0.00     0.004 C 
ENDROOT
BRANCH   1   2
ATOM      2  C   UNL     1      12.361  19.549  31.757  1.00  0.00     0.027 C 
BRANCH   2   3
ATOM      3  C   UNL     1      12.297  19.637  33.256  1.00  0.00    -0.025 C 
ATOM      4  C   UNL     1      12.171  20.811  33.882  1.00  0.00     0.020 C 
BRANCH   4   5
ATOM      5  C   UNL     1      12.121  20.922  35.348  1.00  0.00     0.064 C 
ATOM      6  O   UNL     1      12.473  19.963  36.086  1.00  0.00    -0.545 OA
ATOM      7  O   UNL     1      11.676  22.102  35.929  1.00  0.00    -0.545 OA
ENDBRANCH   4   5
ENDBRANCH   2   3
ENDBRANCH   1   2
BRANCH   1   8
ATOM      8  C   UNL     1      10.985  20.313  29.778  1.00  0.00     0.000 C 
BRANCH   8   9
ATOM      9  C   UNL     1       9.453  20.262  29.869  1.00  0.00    -0.000 C 
BRANCH   9  10
ATOM     10  C   UNL     1       8.766  20.873  28.638  1.00  0.00    -0.003 C 
ATOM     11  C   UNL     1       7.248  20.798  28.761  1.00  0.00     0.004 C 
ENDBRANCH   9  10
ENDBRANCH   8   9
ENDBRANCH   1   8
TORSDOF 6
ENDMDL
MODEL 6
REMARK VINA RESULT:    -0.797     22.524     23.268
REMARK INTER + INTRA:          -1.768
REMARK INTER:                  -1.161
REMARK INTRA:                  -0.607
REMARK UNBOUND:                -0.692
REMARK SMILES CCCCCCC=CC(=O)[O-]
REMARK SMILES IDX 5 1 6 2 7 3 8 4 9 5 10 6 11 7 4 8 3 9 2 10 1 11
REMARK H PARENT
REMARK Flexibility Score: inf
ROOT
ATOM      1  C   UNL     1      19.438  25.361  37.674  1.00  0.00     0.004 C 
ENDROOT
BRANCH   1   2
ATOM      2  C   UNL     1      18.053  24.900  38.143  1.00  0.00     0.027 C 
BRANCH   2   3
ATOM      3  C   UNL     1      18.150  24.069  39.392  1.00  0.00    -0.025 C 
ATOM      4  C   UNL     1      18.658  22.833  39.372  1.00  0.00     0.020 C 
BRANCH   4   5
ATOM      5  C   UNL     1      18.750  21.997  40.578  1.00  0.00     0.064 C 
ATOM      6  O   UNL     1      19.860  21.761  41.125  1.00  0.00    -0.545 OA
ATOM      7  O   UNL     1      17.593  21.457  41.124  1.00  0.00    -0.545 OA
ENDBRANCH   4   5
ENDBRANCH   2   3
ENDBRANCH   1   2
BRANCH   1   8
ATOM      8  C   UNL     1      19.696  26.821  38.078  1.00  0.00     0.000 C 
BRANCH   8   9
ATOM      9  C   UNL     1      20.876  26.968  39.049  1.00  0.00    -0.000 C 
BRANCH   9  10
ATOM     10  C   UNL     1      20.471  26.728  40.512  1.00  0.00    -0.003 C 
ATOM     11  C   UNL     1      20.986  25.382  41.011  1.00  0.00     0.004 C 
ENDBRANCH   9  10
ENDBRANCH   8   9
ENDBRANCH   1   8
TORSDOF 6
ENDMDL
MODEL 7
REMARK VINA RESULT:    -0.679     16.272     17.235
REMARK INTER + INTRA:          -1.609
REMARK INTER:                  -1.445
REMARK INTRA:                  -0.163
REMARK UNBOUND:                -0.692
REMARK SMILES CCCCCCC=CC(=O)[O-]
REMARK SMILES IDX 5 1 6 2 7 3 8 4 9 5 10 6 11 7 4 8 3 9 2 10 1 11
REMARK H PARENT
REMARK Flexibility Score: inf
ROOT
ATOM      1  C   UNL     1      12.756  18.548  31.808  1.00  0.00     0.004 C 
ENDROOT
BRANCH   1   2
ATOM      2  C   UNL     1      12.892  18.669  33.331  1.00  0.00     0.027 C 
BRANCH   2   3
ATOM      3  C   UNL     1      12.826  20.104  33.771  1.00  0.00    -0.025 C 
ATOM      4  C   UNL     1      12.018  20.495  34.762  1.00  0.00     0.020 C 
BRANCH   4   5
ATOM      5  C   UNL     1      11.926  21.896  35.199  1.00  0.00     0.064 C 
ATOM      6  O   UNL     1      11.520  22.193  36.354  1.00  0.00    -0.545 OA
ATOM      7  O   UNL     1      12.291  22.910  34.323  1.00  0.00    -0.545 OA
ENDBRANCH   4   5
ENDBRANCH   2   3
ENDBRANCH   1   2
BRANCH   1   8
ATOM      8  C   UNL     1      11.433  19.162  31.326  1.00  0.00     0.000 C 
BRANCH   8   9
ATOM      9  C   UNL     1      11.612  20.568  30.735  1.00  0.00    -0.000 C 
BRANCH   9  10
ATOM     10  C   UNL     1      10.294  21.168  30.224  1.00  0.00    -0.003 C 
ATOM     11  C   UNL     1       9.493  20.141  29.431  1.00  0.00     0.004 C 
ENDBRANCH   9  10
ENDBRANCH   8   9
ENDBRANCH   1   8
TORSDOF 6
ENDMDL
MODEL 8
REMARK VINA RESULT:    -0.645     16.121     17.060
REMARK INTER + INTRA:          -1.563
REMARK INTER:                  -0.883
REMARK INTRA:                  -0.680
REMARK UNBOUND:                -0.692
REMARK SMILES CCCCCCC=CC(=O)[O-]
REMARK SMILES IDX 5 1 6 2 7 3 8 4 9 5 10 6 11 7 4 8 3 9 2 10 1 11
REMARK H PARENT
REMARK Flexibility Score: inf
ROOT
ATOM      1  C   UNL     1       2.924  12.832  24.212  1.00  0.00     0.004 C 
ENDROOT
BRANCH   1   2
ATOM      2  C   UNL     1       1.392  12.800  24.166  1.00  0.00     0.027 C 
BRANCH   2   3
ATOM      3  C   UNL     1       0.875  11.391  24.242  1.00  0.00    -0.025 C 
ATOM      4  C   UNL     1       1.670  10.372  24.586  1.00  0.00     0.020 C 
BRANCH   4   5
ATOM      5  C   UNL     1       1.190   8.984  24.652  1.00  0.00     0.064 C 
ATOM      6  O   UNL     1       0.879   8.352  23.607  1.00  0.00    -0.545 OA
ATOM      7  O   UNL     1       1.074   8.358  25.887  1.00  0.00    -0.545 OA
ENDBRANCH   4   5
ENDBRANCH   2   3
ENDBRANCH   1   2
BRANCH   1   8
ATOM      8  C   UNL     1       3.501  13.372  22.894  1.00  0.00     0.000 C 
BRANCH   8   9
ATOM      9  C   UNL     1       2.700  12.916  21.665  1.00  0.00    -0.000 C 
BRANCH   9  10
ATOM     10  C   UNL     1       3.154  11.546  21.138  1.00  0.00    -0.003 C 
ATOM     11  C   UNL     1       1.959  10.635  20.878  1.00  0.00     0.004 C 
ENDBRANCH   9  10
ENDBRANCH   8   9
ENDBRANCH   1   8
TORSDOF 6
ENDMDL
MODEL 9
REMARK VINA RESULT:    -0.432     23.097     23.821
REMARK INTER + INTRA:          -1.275
REMARK INTER:                  -0.759
REMARK INTRA:                  -0.515
REMARK UNBOUND:                -0.692
REMARK SMILES CCCCCCC=CC(=O)[O-]
REMARK SMILES IDX 5 1 6 2 7 3 8 4 9 5 10 6 11 7 4 8 3 9 2 10 1 11
REMARK H PARENT
REMARK Flexibility Score: inf
ROOT
ATOM      1  C   UNL     1      18.336  26.629  40.322  1.00  0.00     0.004 C 
ENDROOT
BRANCH   1   2
ATOM      2  C   UNL     1      17.601  25.544  41.119  1.00  0.00     0.027 C 
BRANCH   2   3
ATOM      3  C   UNL     1      18.374  24.256  41.125  1.00  0.00    -0.025 C 
ATOM      4  C   UNL     1      18.727  23.648  39.988  1.00  0.00     0.020 C 
BRANCH   4   5
ATOM      5  C   UNL     1      19.471  22.379  39.970  1.00  0.00     0.064 C 
ATOM      6  O   UNL     1      19.178  21.463  39.155  1.00  0.00    -0.545 OA
ATOM      7  O   UNL     1      20.513  22.184  40.868  1.00  0.00    -0.545 OA
ENDBRANCH   4   5
ENDBRANCH   2   3
ENDBRANCH   1   2
BRANCH   1   8
ATOM      8  C   UNL     1      19.575  27.125  41.083  1.00  0.00     0.000 C 
BRANCH   8   9
ATOM      9  C   UNL     1      20.881  26.884  40.311  1.00  0.00    -0.000 C 
BRANCH   9  10
ATOM     10  C   UNL     1      20.702  27.015  38.791  1.00  0.00    -0.003 C 
ATOM     11  C   UNL     1      20.860  25.665  38.100  1.00  0.00     0.004 C 
ENDBRANCH   9  10
ENDBRANCH   8   9
ENDBRANCH   1   8
TORSDOF 6
ENDMDL
