MODEL 1
REMARK VINA RESULT:    -3.901      0.000      0.000
REMARK INTER + INTRA:          -5.488
REMARK INTER:                  -5.156
REMARK INTRA:                  -0.332
REMARK UNBOUND:                -0.332
REMARK SMILES C=CCC[C@@H](O)CCC
REMARK SMILES IDX 4 1 5 2 7 3 8 4 9 5 6 6 3 8 2 9 1 10
REMARK H PARENT 6 7
REMARK Flexibility Score: inf
ROOT
ATOM      1  C   UNL     1     122.100 117.982 115.307  1.00  0.00     0.036 C 
ENDROOT
BRANCH   1   2
ATOM      2  C   UNL     1     120.579 118.264 115.248  1.00  0.00     0.114 C 
BRANCH   2   3
ATOM      3  C   UNL     1     119.729 117.018 115.594  1.00  0.00     0.031 C 
BRANCH   3   4
ATOM      4  C   UNL     1     119.629 116.689 117.099  1.00  0.00    -0.001 C 
ATOM      5  C   UNL     1     119.305 117.918 117.948  1.00  0.00     0.004 C 
ENDBRANCH   3   4
ENDBRANCH   2   3
BRANCH   2   6
ATOM      6  O   UNL     1     120.192 118.822 114.016  1.00  0.00    -0.393 OA
ATOM      7  H   UNL     1     120.728 118.390 113.301  1.00  0.00     0.210 HD
ENDBRANCH   2   6
ENDBRANCH   1   2
BRANCH   1   8
ATOM      8  C   UNL     1     122.749 118.655 116.525  1.00  0.00     0.029 C 
BRANCH   8   9
ATOM      9  C   UNL     1     123.760 119.686 116.104  1.00  0.00    -0.035 C 
ATOM     10  C   UNL     1     123.473 120.625 115.197  1.00  0.00     0.004 C 
ENDBRANCH   8   9
ENDBRANCH   1   8
TORSDOF 6
ENDMDL
MODEL 2
REMARK VINA RESULT:    -3.868      1.905      4.066
REMARK INTER + INTRA:          -5.444
REMARK INTER:                  -4.785
REMARK INTRA:                  -0.659
REMARK UNBOUND:                -0.332
REMARK SMILES C=CCC[C@@H](O)CCC
REMARK SMILES IDX 4 1 5 2 7 3 8 4 9 5 6 6 3 8 2 9 1 10
REMARK H PARENT 6 7
REMARK Flexibility Score: inf
ROOT
ATOM      1  C   UNL     1     122.333 116.350 115.764  1.00  0.00     0.036 C 
ENDROOT
BRANCH   1   2
ATOM      2  C   UNL     1     123.656 116.889 115.168  1.00  0.00     0.114 C 
BRANCH   2   3
ATOM      3  C   UNL     1     124.203 118.112 115.941  1.00  0.00     0.031 C 
BRANCH   3   4
ATOM      4  C   UNL     1     124.560 119.335 115.068  1.00  0.00    -0.001 C 
ATOM      5  C   UNL     1     123.676 120.546 115.366  1.00  0.00     0.004 C 
ENDBRANCH   3   4
ENDBRANCH   2   3
BRANCH   2   6
ATOM      6  O   UNL     1     123.544 117.161 113.792  1.00  0.00    -0.393 OA
ATOM      7  H   UNL     1     123.097 116.386 113.362  1.00  0.00     0.210 HD
ENDBRANCH   2   6
ENDBRANCH   1   2
BRANCH   1   8
ATOM      8  C   UNL     1     121.509 117.473 116.410  1.00  0.00     0.029 C 
BRANCH   8   9
ATOM      9  C   UNL     1     120.350 117.870 115.537  1.00  0.00    -0.035 C 
ATOM     10  C   UNL     1     120.487 118.757 114.547  1.00  0.00     0.004 C 
ENDBRANCH   8   9
ENDBRANCH   1   8
TORSDOF 6
ENDMDL
MODEL 3
REMARK VINA RESULT:    -3.833      2.115      2.685
REMARK INTER + INTRA:          -5.397
REMARK INTER:                  -4.926
REMARK INTRA:                  -0.471
REMARK UNBOUND:                -0.332
REMARK SMILES C=CCC[C@@H](O)CCC
REMARK SMILES IDX 4 1 5 2 7 3 8 4 9 5 6 6 3 8 2 9 1 10
REMARK H PARENT 6 7
REMARK Flexibility Score: inf
ROOT
ATOM      1  C   UNL     1     124.356 117.445 116.009  1.00  0.00     0.036 C 
ENDROOT
BRANCH   1   2
ATOM      2  C   UNL     1     123.182 117.248 115.019  1.00  0.00     0.114 C 
BRANCH   2   3
ATOM      3  C   UNL     1     121.877 116.807 115.723  1.00  0.00     0.031 C 
BRANCH   3   4
ATOM      4  C   UNL     1     120.602 117.549 115.268  1.00  0.00    -0.001 C 
ATOM      5  C   UNL     1     120.914 118.854 114.535  1.00  0.00     0.004 C 
ENDBRANCH   3   4
ENDBRANCH   2   3
BRANCH   2   6
ATOM      6  O   UNL     1     123.517 116.375 113.968  1.00  0.00    -0.393 OA
ATOM      7  H   UNL     1     123.064 115.507 114.133  1.00  0.00     0.210 HD
ENDBRANCH   2   6
ENDBRANCH   1   2
BRANCH   1   8
ATOM      8  C   UNL     1     125.247 118.625 115.595  1.00  0.00     0.029 C 
BRANCH   8   9
ATOM      9  C   UNL     1     124.438 119.725 114.964  1.00  0.00    -0.035 C 
ATOM     10  C   UNL     1     123.868 120.687 115.694  1.00  0.00     0.004 C 
ENDBRANCH   8   9
ENDBRANCH   1   8
TORSDOF 6
ENDMDL
MODEL 4
REMARK VINA RESULT:    -3.649      1.738      3.695
REMARK INTER + INTRA:          -5.154
REMARK INTER:                  -4.569
REMARK INTRA:                  -0.585
REMARK UNBOUND:                -0.332
REMARK SMILES C=CCC[C@@H](O)CCC
REMARK SMILES IDX 4 1 5 2 7 3 8 4 9 5 6 6 3 8 2 9 1 10
REMARK H PARENT 6 7
REMARK Flexibility Score: inf
ROOT
ATOM      1  C   UNL     1     121.981 118.803 114.960  1.00  0.00     0.036 C 
ENDROOT
BRANCH   1   2
ATOM      2  C   UNL     1     122.777 117.481 115.077  1.00  0.00     0.114 C 
BRANCH   2   3
ATOM      3  C   UNL     1     123.634 117.414 116.363  1.00  0.00     0.031 C 
BRANCH   3   4
ATOM      4  C   UNL     1     123.440 118.592 117.344  1.00  0.00    -0.001 C 
ATOM      5  C   UNL     1     122.677 118.186 118.604  1.00  0.00     0.004 C 
ENDBRANCH   3   4
ENDBRANCH   2   3
BRANCH   2   6
ATOM      6  O   UNL     1     123.553 117.228 113.931  1.00  0.00    -0.393 OA
ATOM      7  H   UNL     1     123.729 118.095 113.481  1.00  0.00     0.210 HD
ENDBRANCH   2   6
ENDBRANCH   1   2
BRANCH   1   8
ATOM      8  C   UNL     1     120.481 118.539 114.755  1.00  0.00     0.029 C 
BRANCH   8   9
ATOM      9  C   UNL     1     120.041 117.300 115.486  1.00  0.00    -0.035 C 
ATOM     10  C   UNL     1     119.544 117.354 116.725  1.00  0.00     0.004 C 
ENDBRANCH   8   9
ENDBRANCH   1   8
TORSDOF 6
ENDMDL
MODEL 5
REMARK VINA RESULT:    -3.603     15.314     16.532
REMARK INTER + INTRA:          -5.093
REMARK INTER:                  -4.686
REMARK INTRA:                  -0.407
REMARK UNBOUND:                -0.332
REMARK SMILES C=CCC[C@@H](O)CCC
REMARK SMILES IDX 4 1 5 2 7 3 8 4 9 5 6 6 3 8 2 9 1 10
REMARK H PARENT 6 7
REMARK Flexibility Score: inf
ROOT
ATOM      1  C   UNL     1     109.191 117.843 126.962  1.00  0.00     0.036 C 
ENDROOT
BRANCH   1   2
ATOM      2  C   UNL     1     110.213 118.824 127.585  1.00  0.00     0.114 C 
BRANCH   2   3
ATOM      3  C   UNL     1     111.102 118.155 128.661  1.00  0.00     0.031 C 
BRANCH   3   4
ATOM      4  C   UNL     1     110.556 116.827 129.231  1.00  0.00    -0.001 C 
ATOM      5  C   UNL     1     110.157 116.941 130.702  1.00  0.00     0.004 C 
ENDBRANCH   3   4
ENDBRANCH   2   3
BRANCH   2   6
ATOM      6  O   UNL     1     109.596 119.987 128.081  1.00  0.00    -0.393 OA
ATOM      7  H   UNL     1     109.860 120.092 129.033  1.00  0.00     0.210 HD
ENDBRANCH   2   6
ENDBRANCH   1   2
BRANCH   1   8
ATOM      8  C   UNL     1     109.262 117.857 125.428  1.00  0.00     0.029 C 
BRANCH   8   9
ATOM      9  C   UNL     1     109.605 116.496 124.886  1.00  0.00    -0.035 C 
ATOM     10  C   UNL     1     110.133 115.543 125.659  1.00  0.00     0.004 C 
ENDBRANCH   8   9
ENDBRANCH   1   8
TORSDOF 6
ENDMDL
MODEL 6
REMARK VINA RESULT:    -3.593     14.282     15.685
REMARK INTER + INTRA:          -5.081
REMARK INTER:                  -4.758
REMARK INTRA:                  -0.322
REMARK UNBOUND:                -0.332
REMARK SMILES C=CCC[C@@H](O)CCC
REMARK SMILES IDX 4 1 5 2 7 3 8 4 9 5 6 6 3 8 2 9 1 10
REMARK H PARENT 6 7
REMARK Flexibility Score: inf
ROOT
ATOM      1  C   UNL     1     117.176 129.061 126.229  1.00  0.00     0.036 C 
ENDROOT
BRANCH   1   2
ATOM      2  C   UNL     1     117.969 130.228 125.593  1.00  0.00     0.114 C 
BRANCH   2   3
ATOM      3  C   UNL     1     117.078 131.452 125.277  1.00  0.00     0.031 C 
BRANCH   3   4
ATOM      4  C   UNL     1     115.557 131.188 125.325  1.00  0.00    -0.001 C 
ATOM      5  C   UNL     1     114.903 131.280 123.946  1.00  0.00     0.004 C 
ENDBRANCH   3   4
ENDBRANCH   2   3
BRANCH   2   6
ATOM      6  O   UNL     1     118.695 129.817 124.460  1.00  0.00    -0.393 OA
ATOM      7  H   UNL     1     119.514 129.351 124.774  1.00  0.00     0.210 HD
ENDBRANCH   2   6
ENDBRANCH   1   2
BRANCH   1   8
ATOM      8  C   UNL     1     117.539 127.716 125.583  1.00  0.00     0.029 C 
BRANCH   8   9
ATOM      9  C   UNL     1     116.415 126.725 125.718  1.00  0.00    -0.035 C 
ATOM     10  C   UNL     1     115.429 126.896 126.603  1.00  0.00     0.004 C 
ENDBRANCH   8   9
ENDBRANCH   1   8
TORSDOF 6
ENDMDL
MODEL 7
REMARK VINA RESULT:    -3.553     15.691     17.213
REMARK INTER + INTRA:          -5.027
REMARK INTER:                  -4.719
REMARK INTRA:                  -0.308
REMARK UNBOUND:                -0.332
REMARK SMILES C=CCC[C@@H](O)CCC
REMARK SMILES IDX 4 1 5 2 7 3 8 4 9 5 6 6 3 8 2 9 1 10
REMARK H PARENT 6 7
REMARK Flexibility Score: inf
ROOT
ATOM      1  C   UNL     1     109.574 116.010 128.940  1.00  0.00     0.036 C 
ENDROOT
BRANCH   1   2
ATOM      2  C   UNL     1     110.600 116.613 129.928  1.00  0.00     0.114 C 
BRANCH   2   3
ATOM      3  C   UNL     1     111.400 115.531 130.691  1.00  0.00     0.031 C 
BRANCH   3   4
ATOM      4  C   UNL     1     112.931 115.731 130.700  1.00  0.00    -0.001 C 
ATOM      5  C   UNL     1     113.396 116.749 129.660  1.00  0.00     0.004 C 
ENDBRANCH   3   4
ENDBRANCH   2   3
BRANCH   2   6
ATOM      6  O   UNL     1     110.006 117.530 130.814  1.00  0.00    -0.393 OA
ATOM      7  H   UNL     1     109.303 117.051 131.326  1.00  0.00     0.210 HD
ENDBRANCH   2   6
ENDBRANCH   1   2
BRANCH   1   8
ATOM      8  C   UNL     1     109.597 116.741 127.589  1.00  0.00     0.029 C 
BRANCH   8   9
ATOM      9  C   UNL     1     110.382 115.969 126.565  1.00  0.00    -0.035 C 
ATOM     10  C   UNL     1     109.924 115.779 125.324  1.00  0.00     0.004 C 
ENDBRANCH   8   9
ENDBRANCH   1   8
TORSDOF 6
ENDMDL
MODEL 8
REMARK VINA RESULT:    -3.548      0.898      4.234
REMARK INTER + INTRA:          -5.021
REMARK INTER:                  -4.803
REMARK INTRA:                  -0.218
REMARK UNBOUND:                -0.332
REMARK SMILES C=CCC[C@@H](O)CCC
REMARK SMILES IDX 4 1 5 2 7 3 8 4 9 5 6 6 3 8 2 9 1 10
REMARK H PARENT 6 7
REMARK Flexibility Score: inf
ROOT
ATOM      1  C   UNL     1     121.444 118.036 116.057  1.00  0.00     0.036 C 
ENDROOT
BRANCH   1   2
ATOM      2  C   UNL     1     121.866 118.759 114.756  1.00  0.00     0.114 C 
BRANCH   2   3
ATOM      3  C   UNL     1     122.682 120.045 115.026  1.00  0.00     0.031 C 
BRANCH   3   4
ATOM      4  C   UNL     1     123.980 119.841 115.837  1.00  0.00    -0.001 C 
ATOM      5  C   UNL     1     124.960 118.892 115.147  1.00  0.00     0.004 C 
ENDBRANCH   3   4
ENDBRANCH   2   3
BRANCH   2   6
ATOM      6  O   UNL     1     120.769 119.016 113.914  1.00  0.00    -0.393 OA
ATOM      7  H   UNL     1     120.855 119.944 113.572  1.00  0.00     0.210 HD
ENDBRANCH   2   6
ENDBRANCH   1   2
BRANCH   1   8
ATOM      8  C   UNL     1     120.314 117.028 115.800  1.00  0.00     0.029 C 
BRANCH   8   9
ATOM      9  C   UNL     1     119.243 117.129 116.851  1.00  0.00    -0.035 C 
ATOM     10  C   UNL     1     119.412 117.854 117.960  1.00  0.00     0.004 C 
ENDBRANCH   8   9
ENDBRANCH   1   8
TORSDOF 6
ENDMDL
MODEL 9
REMARK VINA RESULT:    -3.545     15.367     16.703
REMARK INTER + INTRA:          -5.016
REMARK INTER:                  -4.545
REMARK INTRA:                  -0.471
REMARK UNBOUND:                -0.332
REMARK SMILES C=CCC[C@@H](O)CCC
REMARK SMILES IDX 4 1 5 2 7 3 8 4 9 5 6 6 3 8 2 9 1 10
REMARK H PARENT 6 7
REMARK Flexibility Score: inf
ROOT
ATOM      1  C   UNL     1     111.484 118.201 128.223  1.00  0.00     0.036 C 
ENDROOT
BRANCH   1   2
ATOM      2  C   UNL     1     109.966 118.464 128.083  1.00  0.00     0.114 C 
BRANCH   2   3
ATOM      3  C   UNL     1     109.312 117.605 126.975  1.00  0.00     0.031 C 
BRANCH   3   4
ATOM      4  C   UNL     1     109.938 116.208 126.771  1.00  0.00    -0.001 C 
ATOM      5  C   UNL     1     109.949 115.778 125.304  1.00  0.00     0.004 C 
ENDBRANCH   3   4
ENDBRANCH   2   3
BRANCH   2   6
ATOM      6  O   UNL     1     109.680 119.830 127.908  1.00  0.00    -0.393 OA
ATOM      7  H   UNL     1     109.501 120.223 128.802  1.00  0.00     0.210 HD
ENDBRANCH   2   6
ENDBRANCH   1   2
BRANCH   1   8
ATOM      8  C   UNL     1     111.875 117.930 129.683  1.00  0.00     0.029 C 
BRANCH   8   9
ATOM      9  C   UNL     1     110.887 117.015 130.352  1.00  0.00    -0.035 C 
ATOM     10  C   UNL     1     111.080 115.694 130.411  1.00  0.00     0.004 C 
ENDBRANCH   8   9
ENDBRANCH   1   8
TORSDOF 6
ENDMDL
