MODEL 1
REMARK VINA RESULT:    -4.840      0.000      0.000
REMARK INTER + INTRA:          -9.900
REMARK INTER:                  -9.084
REMARK INTRA:                  -0.815
REMARK UNBOUND:                -0.815
REMARK SMILES CCCCCCCCC=CCCCCCCCC(=O)[O-]
REMARK SMILES IDX 10 1 9 2 11 3 12 4 13 5 14 6 15 7 16 8 17 9 18 10 19 11
REMARK SMILES IDX 20 12 8 13 7 14 6 15 5 16 4 17 3 18 2 19 1 20
REMARK H PARENT
REMARK Flexibility Score: inf
ROOT
ATOM      1  C   UNL     1      -0.022  -5.311  -1.408  1.00  0.00    -0.031 C 
ATOM      2  C   UNL     1       0.750  -4.232  -1.603  1.00  0.00    -0.031 C 
ENDROOT
BRANCH   1   3
ATOM      3  C   UNL     1       0.339  -6.653  -1.981  1.00  0.00     0.027 C 
BRANCH   3   4
ATOM      4  C   UNL     1      -0.830  -7.639  -1.869  1.00  0.00     0.004 C 
BRANCH   4   5
ATOM      5  C   UNL     1      -0.433  -8.871  -1.042  1.00  0.00     0.000 C 
BRANCH   5   6
ATOM      6  C   UNL     1      -1.641  -9.570  -0.398  1.00  0.00     0.000 C 
BRANCH   6   7
ATOM      7  C   UNL     1      -1.228 -10.715   0.543  1.00  0.00     0.000 C 
BRANCH   7   8
ATOM      8  C   UNL     1      -1.981 -10.678   1.882  1.00  0.00     0.006 C 
BRANCH   8   9
ATOM      9  C   UNL     1      -2.200  -9.251   2.400  1.00  0.00     0.053 C 
BRANCH   9  10
ATOM     10  C   UNL     1      -2.500  -9.267   3.866  1.00  0.00     0.041 C 
ATOM     11  O   UNL     1      -2.976 -10.302   4.403  1.00  0.00    -0.550 OA
ATOM     12  O   UNL     1      -2.300  -8.124   4.629  1.00  0.00    -0.550 OA
ENDBRANCH   9  10
ENDBRANCH   8   9
ENDBRANCH   7   8
ENDBRANCH   6   7
ENDBRANCH   5   6
ENDBRANCH   4   5
ENDBRANCH   3   4
ENDBRANCH   1   3
BRANCH   2  13
ATOM     13  C   UNL     1       0.394  -2.889  -1.023  1.00  0.00     0.027 C 
BRANCH  13  14
ATOM     14  C   UNL     1       0.548  -1.752  -2.042  1.00  0.00     0.004 C 
BRANCH  14  15
ATOM     15  C   UNL     1       1.566  -2.095  -3.143  1.00  0.00     0.000 C 
BRANCH  15  16
ATOM     16  C   UNL     1       2.914  -1.385  -2.943  1.00  0.00     0.000 C 
BRANCH  16  17
ATOM     17  C   UNL     1       2.957  -0.550  -1.652  1.00  0.00    -0.000 C 
BRANCH  17  18
ATOM     18  C   UNL     1       4.391  -0.290  -1.166  1.00  0.00    -0.000 C 
BRANCH  18  19
ATOM     19  C   UNL     1       5.449  -0.672  -2.212  1.00  0.00    -0.003 C 
ATOM     20  C   UNL     1       6.851  -0.304  -1.736  1.00  0.00     0.004 C 
ENDBRANCH  18  19
ENDBRANCH  17  18
ENDBRANCH  16  17
ENDBRANCH  15  16
ENDBRANCH  14  15
ENDBRANCH  13  14
ENDBRANCH   2  13
TORSDOF 15
ENDMDL
MODEL 2
REMARK VINA RESULT:    -4.454      7.913     11.251
REMARK INTER + INTRA:          -9.175
REMARK INTER:                  -8.263
REMARK INTRA:                  -0.913
REMARK UNBOUND:                -0.815
REMARK SMILES CCCCCCCCC=CCCCCCCCC(=O)[O-]
REMARK SMILES IDX 10 1 9 2 11 3 12 4 13 5 14 6 15 7 16 8 17 9 18 10 19 11
REMARK SMILES IDX 20 12 8 13 7 14 6 15 5 16 4 17 3 18 2 19 1 20
REMARK H PARENT
REMARK Flexibility Score: inf
ROOT
ATOM      1  C   UNL     1      -5.555  -7.402   6.773  1.00  0.00    -0.031 C 
ATOM      2  C   UNL     1      -5.715  -8.688   6.430  1.00  0.00    -0.031 C 
ENDROOT
BRANCH   1   3
ATOM      3  C   UNL     1      -6.725  -6.535   7.146  1.00  0.00     0.027 C 
BRANCH   3   4
ATOM      4  C   UNL     1      -6.450  -5.060   6.825  1.00  0.00     0.004 C 
BRANCH   4   5
ATOM      5  C   UNL     1      -5.038  -4.879   6.248  1.00  0.00     0.000 C 
BRANCH   5   6
ATOM      6  C   UNL     1      -4.398  -3.541   6.651  1.00  0.00     0.000 C 
BRANCH   6   7
ATOM      7  C   UNL     1      -4.452  -2.497   5.522  1.00  0.00     0.000 C 
BRANCH   7   8
ATOM      8  C   UNL     1      -5.744  -1.664   5.551  1.00  0.00     0.006 C 
BRANCH   8   9
ATOM      9  C   UNL     1      -5.564  -0.314   6.257  1.00  0.00     0.053 C 
BRANCH   9  10
ATOM     10  C   UNL     1      -6.817   0.068   6.980  1.00  0.00     0.041 C 
ATOM     11  O   UNL     1      -7.767  -0.753   7.078  1.00  0.00    -0.550 OA
ATOM     12  O   UNL     1      -6.955   1.348   7.501  1.00  0.00    -0.550 OA
ENDBRANCH   9  10
ENDBRANCH   8   9
ENDBRANCH   7   8
ENDBRANCH   6   7
ENDBRANCH   5   6
ENDBRANCH   4   5
ENDBRANCH   3   4
ENDBRANCH   1   3
BRANCH   2  13
ATOM     13  C   UNL     1      -4.543  -9.561   6.065  1.00  0.00     0.027 C 
BRANCH  13  14
ATOM     14  C   UNL     1      -4.882 -10.559   4.949  1.00  0.00     0.004 C 
BRANCH  14  15
ATOM     15  C   UNL     1      -3.725 -10.724   3.949  1.00  0.00     0.000 C 
BRANCH  15  16
ATOM     16  C   UNL     1      -2.773  -9.518   3.945  1.00  0.00     0.000 C 
BRANCH  16  17
ATOM     17  C   UNL     1      -2.045  -9.343   2.601  1.00  0.00    -0.000 C 
BRANCH  17  18
ATOM     18  C   UNL     1      -1.709 -10.686   1.933  1.00  0.00    -0.000 C 
BRANCH  18  19
ATOM     19  C   UNL     1      -1.344 -10.532   0.449  1.00  0.00    -0.003 C 
ATOM     20  C   UNL     1      -2.565 -10.738  -0.441  1.00  0.00     0.004 C 
ENDBRANCH  18  19
ENDBRANCH  17  18
ENDBRANCH  16  17
ENDBRANCH  15  16
ENDBRANCH  14  15
ENDBRANCH  13  14
ENDBRANCH   2  13
TORSDOF 15
ENDMDL
MODEL 3
REMARK VINA RESULT:    -4.366      7.353     11.089
REMARK INTER + INTRA:          -9.010
REMARK INTER:                  -7.558
REMARK INTRA:                  -1.452
REMARK UNBOUND:                -0.815
REMARK SMILES CCCCCCCCC=CCCCCCCCC(=O)[O-]
REMARK SMILES IDX 10 1 9 2 11 3 12 4 13 5 14 6 15 7 16 8 17 9 18 10 19 11
REMARK SMILES IDX 20 12 8 13 7 14 6 15 5 16 4 17 3 18 2 19 1 20
REMARK H PARENT
REMARK Flexibility Score: inf
ROOT
ATOM      1  C   UNL     1      -7.039  -5.381   5.705  1.00  0.00    -0.031 C 
ATOM      2  C   UNL     1      -6.767  -6.461   6.452  1.00  0.00    -0.031 C 
ENDROOT
BRANCH   1   3
ATOM      3  C   UNL     1      -8.267  -4.547   5.944  1.00  0.00     0.027 C 
BRANCH   3   4
ATOM      4  C   UNL     1      -7.950  -3.330   6.822  1.00  0.00     0.004 C 
BRANCH   4   5
ATOM      5  C   UNL     1      -7.497  -2.138   5.966  1.00  0.00     0.000 C 
BRANCH   5   6
ATOM      6  C   UNL     1      -6.346  -1.347   6.608  1.00  0.00     0.000 C 
BRANCH   6   7
ATOM      7  C   UNL     1      -5.017  -1.521   5.851  1.00  0.00     0.000 C 
BRANCH   7   8
ATOM      8  C   UNL     1      -4.119  -2.601   6.477  1.00  0.00     0.006 C 
BRANCH   8   9
ATOM      9  C   UNL     1      -3.577  -3.594   5.441  1.00  0.00     0.053 C 
BRANCH   9  10
ATOM     10  C   UNL     1      -3.009  -4.799   6.122  1.00  0.00     0.041 C 
ATOM     11  O   UNL     1      -3.134  -4.942   7.367  1.00  0.00    -0.550 OA
ATOM     12  O   UNL     1      -2.298  -5.741   5.388  1.00  0.00    -0.550 OA
ENDBRANCH   9  10
ENDBRANCH   8   9
ENDBRANCH   7   8
ENDBRANCH   6   7
ENDBRANCH   5   6
ENDBRANCH   4   5
ENDBRANCH   3   4
ENDBRANCH   1   3
BRANCH   2  13
ATOM     13  C   UNL     1      -5.533  -7.292   6.220  1.00  0.00     0.027 C 
BRANCH  13  14
ATOM     14  C   UNL     1      -5.470  -8.517   7.144  1.00  0.00     0.004 C 
BRANCH  14  15
ATOM     15  C   UNL     1      -4.833  -9.733   6.451  1.00  0.00     0.000 C 
BRANCH  15  16
ATOM     16  C   UNL     1      -4.756  -9.569   4.925  1.00  0.00     0.000 C 
BRANCH  16  17
ATOM     17  C   UNL     1      -3.508 -10.234   4.320  1.00  0.00    -0.000 C 
BRANCH  17  18
ATOM     18  C   UNL     1      -2.467  -9.210   3.842  1.00  0.00    -0.000 C 
BRANCH  18  19
ATOM     19  C   UNL     1      -2.131  -9.361   2.351  1.00  0.00    -0.003 C 
ATOM     20  C   UNL     1      -2.091 -10.831   1.943  1.00  0.00     0.004 C 
ENDBRANCH  18  19
ENDBRANCH  17  18
ENDBRANCH  16  17
ENDBRANCH  15  16
ENDBRANCH  14  15
ENDBRANCH  13  14
ENDBRANCH   2  13
TORSDOF 15
ENDMDL
MODEL 4
REMARK VINA RESULT:    -4.357      7.594      9.706
REMARK INTER + INTRA:          -8.993
REMARK INTER:                  -7.298
REMARK INTRA:                  -1.695
REMARK UNBOUND:                -0.815
REMARK SMILES CCCCCCCCC=CCCCCCCCC(=O)[O-]
REMARK SMILES IDX 10 1 9 2 11 3 12 4 13 5 14 6 15 7 16 8 17 9 18 10 19 11
REMARK SMILES IDX 20 12 8 13 7 14 6 15 5 16 4 17 3 18 2 19 1 20
REMARK H PARENT
REMARK Flexibility Score: inf
ROOT
ATOM      1  C   UNL     1      -7.546  -4.418   5.895  1.00  0.00    -0.031 C 
ATOM      2  C   UNL     1      -8.441  -3.516   6.324  1.00  0.00    -0.031 C 
ENDROOT
BRANCH   1   3
ATOM      3  C   UNL     1      -7.953  -5.819   5.530  1.00  0.00     0.027 C 
BRANCH   3   4
ATOM      4  C   UNL     1      -7.432  -6.834   6.556  1.00  0.00     0.004 C 
BRANCH   4   5
ATOM      5  C   UNL     1      -6.749  -8.019   5.857  1.00  0.00     0.000 C 
BRANCH   5   6
ATOM      6  C   UNL     1      -5.329  -8.283   6.384  1.00  0.00     0.000 C 
BRANCH   6   7
ATOM      7  C   UNL     1      -4.849  -9.715   6.094  1.00  0.00     0.000 C 
BRANCH   7   8
ATOM      8  C   UNL     1      -4.713  -9.999   4.589  1.00  0.00     0.006 C 
BRANCH   8   9
ATOM      9  C   UNL     1      -3.290 -10.409   4.189  1.00  0.00     0.053 C 
BRANCH   9  10
ATOM     10  C   UNL     1      -2.531  -9.227   3.676  1.00  0.00     0.041 C 
ATOM     11  O   UNL     1      -2.147  -9.192   2.477  1.00  0.00    -0.550 OA
ATOM     12  O   UNL     1      -2.203  -8.186   4.535  1.00  0.00    -0.550 OA
ENDBRANCH   9  10
ENDBRANCH   8   9
ENDBRANCH   7   8
ENDBRANCH   6   7
ENDBRANCH   5   6
ENDBRANCH   4   5
ENDBRANCH   3   4
ENDBRANCH   1   3
BRANCH   2  13
ATOM     13  C   UNL     1      -8.037  -2.110   6.681  1.00  0.00     0.027 C 
BRANCH  13  14
ATOM     14  C   UNL     1      -7.153  -1.464   5.604  1.00  0.00     0.004 C 
BRANCH  14  15
ATOM     15  C   UNL     1      -6.038  -0.598   6.214  1.00  0.00     0.000 C 
BRANCH  15  16
ATOM     16  C   UNL     1      -4.783  -1.412   6.565  1.00  0.00     0.000 C 
BRANCH  16  17
ATOM     17  C   UNL     1      -4.486  -2.515   5.534  1.00  0.00    -0.000 C 
BRANCH  17  18
ATOM     18  C   UNL     1      -3.178  -3.265   5.833  1.00  0.00    -0.000 C 
BRANCH  18  19
ATOM     19  C   UNL     1      -3.402  -4.760   6.105  1.00  0.00    -0.003 C 
ATOM     20  C   UNL     1      -4.188  -4.971   7.395  1.00  0.00     0.004 C 
ENDBRANCH  18  19
ENDBRANCH  17  18
ENDBRANCH  16  17
ENDBRANCH  15  16
ENDBRANCH  14  15
ENDBRANCH  13  14
ENDBRANCH   2  13
TORSDOF 15
ENDMDL
MODEL 5
REMARK VINA RESULT:    -4.346      9.075     12.441
REMARK INTER + INTRA:          -8.972
REMARK INTER:                  -6.913
REMARK INTRA:                  -2.059
REMARK UNBOUND:                -0.815
REMARK SMILES CCCCCCCCC=CCCCCCCCC(=O)[O-]
REMARK SMILES IDX 10 1 9 2 11 3 12 4 13 5 14 6 15 7 16 8 17 9 18 10 19 11
REMARK SMILES IDX 20 12 8 13 7 14 6 15 5 16 4 17 3 18 2 19 1 20
REMARK H PARENT
REMARK Flexibility Score: inf
ROOT
ATOM      1  C   UNL     1      -4.753  -4.687   7.878  1.00  0.00    -0.031 C 
ATOM      2  C   UNL     1      -5.434  -5.700   7.322  1.00  0.00    -0.031 C 
ENDROOT
BRANCH   1   3
ATOM      3  C   UNL     1      -3.251  -4.635   7.845  1.00  0.00     0.027 C 
BRANCH   3   4
ATOM      4  C   UNL     1      -2.729  -4.570   6.404  1.00  0.00     0.004 C 
BRANCH   4   5
ATOM      5  C   UNL     1      -2.974  -3.183   5.793  1.00  0.00     0.000 C 
BRANCH   5   6
ATOM      6  C   UNL     1      -4.124  -3.176   4.773  1.00  0.00     0.000 C 
BRANCH   6   7
ATOM      7  C   UNL     1      -5.367  -2.431   5.290  1.00  0.00     0.000 C 
BRANCH   7   8
ATOM      8  C   UNL     1      -5.012  -1.299   6.268  1.00  0.00     0.006 C 
BRANCH   8   9
ATOM      9  C   UNL     1      -6.226  -0.801   7.063  1.00  0.00     0.053 C 
BRANCH   9  10
ATOM     10  C   UNL     1      -6.123   0.672   7.303  1.00  0.00     0.041 C 
ATOM     11  O   UNL     1      -7.164   1.363   7.460  1.00  0.00    -0.550 OA
ATOM     12  O   UNL     1      -4.879   1.290   7.304  1.00  0.00    -0.550 OA
ENDBRANCH   9  10
ENDBRANCH   8   9
ENDBRANCH   7   8
ENDBRANCH   6   7
ENDBRANCH   5   6
ENDBRANCH   4   5
ENDBRANCH   3   4
ENDBRANCH   1   3
BRANCH   2  13
ATOM     13  C   UNL     1      -6.939  -5.748   7.346  1.00  0.00     0.027 C 
BRANCH  13  14
ATOM     14  C   UNL     1      -7.565  -5.093   6.106  1.00  0.00     0.004 C 
BRANCH  14  15
ATOM     15  C   UNL     1      -8.861  -5.798   5.672  1.00  0.00     0.000 C 
BRANCH  15  16
ATOM     16  C   UNL     1      -8.754  -6.421   4.271  1.00  0.00     0.000 C 
BRANCH  16  17
ATOM     17  C   UNL     1      -9.175  -7.900   4.247  1.00  0.00    -0.000 C 
BRANCH  17  18
ATOM     18  C   UNL     1      -8.437  -8.741   5.300  1.00  0.00    -0.000 C 
BRANCH  18  19
ATOM     19  C   UNL     1      -6.955  -8.950   4.956  1.00  0.00    -0.003 C 
ATOM     20  C   UNL     1      -6.143  -9.283   6.204  1.00  0.00     0.004 C 
ENDBRANCH  18  19
ENDBRANCH  17  18
ENDBRANCH  16  17
ENDBRANCH  15  16
ENDBRANCH  14  15
ENDBRANCH  13  14
ENDBRANCH   2  13
TORSDOF 15
ENDMDL
MODEL 6
REMARK VINA RESULT:    -4.322      7.833     11.779
REMARK INTER + INTRA:          -8.927
REMARK INTER:                  -7.010
REMARK INTRA:                  -1.917
REMARK UNBOUND:                -0.815
REMARK SMILES CCCCCCCCC=CCCCCCCCC(=O)[O-]
REMARK SMILES IDX 10 1 9 2 11 3 12 4 13 5 14 6 15 7 16 8 17 9 18 10 19 11
REMARK SMILES IDX 20 12 8 13 7 14 6 15 5 16 4 17 3 18 2 19 1 20
REMARK H PARENT
REMARK Flexibility Score: inf
ROOT
ATOM      1  C   UNL     1      -7.876  -3.973   7.102  1.00  0.00    -0.031 C 
ATOM      2  C   UNL     1      -7.878  -4.475   5.858  1.00  0.00    -0.031 C 
ENDROOT
BRANCH   1   3
ATOM      3  C   UNL     1      -8.264  -2.546   7.376  1.00  0.00     0.027 C 
BRANCH   3   4
ATOM      4  C   UNL     1      -7.875  -1.630   6.209  1.00  0.00     0.004 C 
BRANCH   4   5
ATOM      5  C   UNL     1      -7.050  -0.432   6.703  1.00  0.00     0.000 C 
BRANCH   5   6
ATOM      6  C   UNL     1      -5.559  -0.550   6.348  1.00  0.00     0.000 C 
BRANCH   6   7
ATOM      7  C   UNL     1      -5.255  -1.779   5.475  1.00  0.00     0.000 C 
BRANCH   7   8
ATOM      8  C   UNL     1      -4.356  -2.802   6.189  1.00  0.00     0.006 C 
BRANCH   8   9
ATOM      9  C   UNL     1      -3.699  -3.792   5.219  1.00  0.00     0.053 C 
BRANCH   9  10
ATOM     10  C   UNL     1      -2.952  -4.845   5.975  1.00  0.00     0.041 C 
ATOM     11  O   UNL     1      -2.794  -4.740   7.220  1.00  0.00    -0.550 OA
ATOM     12  O   UNL     1      -2.386  -5.918   5.297  1.00  0.00    -0.550 OA
ENDBRANCH   9  10
ENDBRANCH   8   9
ENDBRANCH   7   8
ENDBRANCH   6   7
ENDBRANCH   5   6
ENDBRANCH   4   5
ENDBRANCH   3   4
ENDBRANCH   1   3
BRANCH   2  13
ATOM     13  C   UNL     1      -7.499  -5.906   5.583  1.00  0.00     0.027 C 
BRANCH  13  14
ATOM     14  C   UNL     1      -6.216  -6.323   6.318  1.00  0.00     0.004 C 
BRANCH  14  15
ATOM     15  C   UNL     1      -6.306  -7.756   6.870  1.00  0.00     0.000 C 
BRANCH  15  16
ATOM     16  C   UNL     1      -7.075  -8.702   5.935  1.00  0.00     0.000 C 
BRANCH  16  17
ATOM     17  C   UNL     1      -6.144  -9.507   5.012  1.00  0.00    -0.000 C 
BRANCH  17  18
ATOM     18  C   UNL     1      -4.760  -9.748   5.634  1.00  0.00    -0.000 C 
BRANCH  18  19
ATOM     19  C   UNL     1      -3.612  -9.372   4.686  1.00  0.00    -0.003 C 
ATOM     20  C   UNL     1      -3.312 -10.505   3.710  1.00  0.00     0.004 C 
ENDBRANCH  18  19
ENDBRANCH  17  18
ENDBRANCH  16  17
ENDBRANCH  15  16
ENDBRANCH  14  15
ENDBRANCH  13  14
ENDBRANCH   2  13
TORSDOF 15
ENDMDL
MODEL 7
REMARK VINA RESULT:    -4.285      7.623     10.119
REMARK INTER + INTRA:          -8.857
REMARK INTER:                  -7.268
REMARK INTRA:                  -1.590
REMARK UNBOUND:                -0.815
REMARK SMILES CCCCCCCCC=CCCCCCCCC(=O)[O-]
REMARK SMILES IDX 10 1 9 2 11 3 12 4 13 5 14 6 15 7 16 8 17 9 18 10 19 11
REMARK SMILES IDX 20 12 8 13 7 14 6 15 5 16 4 17 3 18 2 19 1 20
REMARK H PARENT
REMARK Flexibility Score: inf
ROOT
ATOM      1  C   UNL     1      -6.432  -5.159   5.873  1.00  0.00    -0.031 C 
ATOM      2  C   UNL     1      -5.156  -4.770   5.730  1.00  0.00    -0.031 C 
ENDROOT
BRANCH   1   3
ATOM      3  C   UNL     1      -6.809  -6.300   6.777  1.00  0.00     0.027 C 
BRANCH   3   4
ATOM      4  C   UNL     1      -6.432  -7.650   6.155  1.00  0.00     0.004 C 
BRANCH   4   5
ATOM      5  C   UNL     1      -5.756  -8.562   7.190  1.00  0.00     0.000 C 
BRANCH   5   6
ATOM      6  C   UNL     1      -5.818 -10.049   6.804  1.00  0.00     0.000 C 
BRANCH   6   7
ATOM      7  C   UNL     1      -4.533 -10.533   6.110  1.00  0.00     0.000 C 
BRANCH   7   8
ATOM      8  C   UNL     1      -4.533 -10.242   4.600  1.00  0.00     0.006 C 
BRANCH   8   9
ATOM      9  C   UNL     1      -3.223 -10.655   3.917  1.00  0.00     0.053 C 
BRANCH   9  10
ATOM     10  C   UNL     1      -2.406  -9.447   3.584  1.00  0.00     0.041 C 
ATOM     11  O   UNL     1      -2.192  -8.565   4.457  1.00  0.00    -0.550 OA
ATOM     12  O   UNL     1      -1.922  -9.270   2.293  1.00  0.00    -0.550 OA
ENDBRANCH   9  10
ENDBRANCH   8   9
ENDBRANCH   7   8
ENDBRANCH   6   7
ENDBRANCH   5   6
ENDBRANCH   4   5
ENDBRANCH   3   4
ENDBRANCH   1   3
BRANCH   2  13
ATOM     13  C   UNL     1      -4.777  -3.621   4.833  1.00  0.00     0.027 C 
BRANCH  13  14
ATOM     14  C   UNL     1      -3.841  -2.621   5.527  1.00  0.00     0.004 C 
BRANCH  14  15
ATOM     15  C   UNL     1      -4.592  -1.719   6.521  1.00  0.00     0.000 C 
BRANCH  15  16
ATOM     16  C   UNL     1      -5.541  -0.733   5.822  1.00  0.00     0.000 C 
BRANCH  16  17
ATOM     17  C   UNL     1      -6.969  -0.780   6.393  1.00  0.00    -0.000 C 
BRANCH  17  18
ATOM     18  C   UNL     1      -7.083  -1.699   7.620  1.00  0.00    -0.000 C 
BRANCH  18  19
ATOM     19  C   UNL     1      -8.290  -2.646   7.538  1.00  0.00    -0.003 C 
ATOM     20  C   UNL     1      -9.085  -2.413   6.257  1.00  0.00     0.004 C 
ENDBRANCH  18  19
ENDBRANCH  17  18
ENDBRANCH  16  17
ENDBRANCH  15  16
ENDBRANCH  14  15
ENDBRANCH  13  14
ENDBRANCH   2  13
TORSDOF 15
ENDMDL
MODEL 8
REMARK VINA RESULT:    -4.285      9.567     12.694
REMARK INTER + INTRA:          -8.857
REMARK INTER:                  -7.234
REMARK INTRA:                  -1.623
REMARK UNBOUND:                -0.815
REMARK SMILES CCCCCCCCC=CCCCCCCCC(=O)[O-]
REMARK SMILES IDX 10 1 9 2 11 3 12 4 13 5 14 6 15 7 16 8 17 9 18 10 19 11
REMARK SMILES IDX 20 12 8 13 7 14 6 15 5 16 4 17 3 18 2 19 1 20
REMARK H PARENT
REMARK Flexibility Score: inf
ROOT
ATOM      1  C   UNL     1      -8.286  -5.715   4.983  1.00  0.00    -0.031 C 
ATOM      2  C   UNL     1      -9.583  -5.871   4.681  1.00  0.00    -0.031 C 
ENDROOT
BRANCH   1   3
ATOM      3  C   UNL     1      -7.847  -5.198   6.325  1.00  0.00     0.027 C 
BRANCH   3   4
ATOM      4  C   UNL     1      -7.021  -3.914   6.184  1.00  0.00     0.004 C 
BRANCH   4   5
ATOM      5  C   UNL     1      -5.720  -4.180   5.411  1.00  0.00     0.000 C 
BRANCH   5   6
ATOM      6  C   UNL     1      -4.925  -2.896   5.124  1.00  0.00     0.000 C 
BRANCH   6   7
ATOM      7  C   UNL     1      -3.946  -2.543   6.258  1.00  0.00     0.000 C 
BRANCH   7   8
ATOM      8  C   UNL     1      -4.454  -1.388   7.136  1.00  0.00     0.006 C 
BRANCH   8   9
ATOM      9  C   UNL     1      -5.515  -0.531   6.433  1.00  0.00     0.053 C 
BRANCH   9  10
ATOM     10  C   UNL     1      -5.675   0.781   7.135  1.00  0.00     0.041 C 
ATOM     11  O   UNL     1      -4.661   1.455   7.457  1.00  0.00    -0.550 OA
ATOM     12  O   UNL     1      -6.942   1.236   7.477  1.00  0.00    -0.550 OA
ENDBRANCH   9  10
ENDBRANCH   8   9
ENDBRANCH   7   8
ENDBRANCH   6   7
ENDBRANCH   5   6
ENDBRANCH   4   5
ENDBRANCH   3   4
ENDBRANCH   1   3
BRANCH   2  13
ATOM     13  C   UNL     1     -10.024  -6.398   3.340  1.00  0.00     0.027 C 
BRANCH  13  14
ATOM     14  C   UNL     1      -9.305  -7.700   2.958  1.00  0.00     0.004 C 
BRANCH  14  15
ATOM     15  C   UNL     1      -9.684  -8.865   3.888  1.00  0.00     0.000 C 
BRANCH  15  16
ATOM     16  C   UNL     1      -8.680 -10.025   3.821  1.00  0.00     0.000 C 
BRANCH  16  17
ATOM     17  C   UNL     1      -7.301  -9.649   4.390  1.00  0.00    -0.000 C 
BRANCH  17  18
ATOM     18  C   UNL     1      -7.386  -9.080   5.814  1.00  0.00    -0.000 C 
BRANCH  18  19
ATOM     19  C   UNL     1      -6.033  -9.101   6.541  1.00  0.00    -0.003 C 
ATOM     20  C   UNL     1      -5.306  -7.769   6.388  1.00  0.00     0.004 C 
ENDBRANCH  18  19
ENDBRANCH  17  18
ENDBRANCH  16  17
ENDBRANCH  15  16
ENDBRANCH  14  15
ENDBRANCH  13  14
ENDBRANCH   2  13
TORSDOF 15
ENDMDL
MODEL 9
REMARK VINA RESULT:    -4.211      8.042     10.565
REMARK INTER + INTRA:          -8.718
REMARK INTER:                  -6.488
REMARK INTRA:                  -2.230
REMARK UNBOUND:                -0.815
REMARK SMILES CCCCCCCCC=CCCCCCCCC(=O)[O-]
REMARK SMILES IDX 10 1 9 2 11 3 12 4 13 5 14 6 15 7 16 8 17 9 18 10 19 11
REMARK SMILES IDX 20 12 8 13 7 14 6 15 5 16 4 17 3 18 2 19 1 20
REMARK H PARENT
REMARK Flexibility Score: inf
ROOT
ATOM      1  C   UNL     1      -4.691  -3.292   5.237  1.00  0.00    -0.031 C 
ATOM      2  C   UNL     1      -4.774  -2.108   5.861  1.00  0.00    -0.031 C 
ENDROOT
BRANCH   1   3
ATOM      3  C   UNL     1      -3.756  -4.369   5.714  1.00  0.00     0.027 C 
BRANCH   3   4
ATOM      4  C   UNL     1      -4.420  -5.249   6.781  1.00  0.00     0.004 C 
BRANCH   4   5
ATOM      5  C   UNL     1      -4.872  -6.589   6.182  1.00  0.00     0.000 C 
BRANCH   5   6
ATOM      6  C   UNL     1      -5.462  -7.542   7.235  1.00  0.00     0.000 C 
BRANCH   6   7
ATOM      7  C   UNL     1      -5.358  -9.019   6.818  1.00  0.00     0.000 C 
BRANCH   7   8
ATOM      8  C   UNL     1      -5.155  -9.192   5.304  1.00  0.00     0.006 C 
BRANCH   8   9
ATOM      9  C   UNL     1      -4.052 -10.203   4.965  1.00  0.00     0.053 C 
BRANCH   9  10
ATOM     10  C   UNL     1      -3.029  -9.578   4.070  1.00  0.00     0.041 C 
ATOM     11  O   UNL     1      -2.768 -10.093   2.951  1.00  0.00    -0.550 OA
ATOM     12  O   UNL     1      -2.328  -8.457   4.494  1.00  0.00    -0.550 OA
ENDBRANCH   9  10
ENDBRANCH   8   9
ENDBRANCH   7   8
ENDBRANCH   6   7
ENDBRANCH   5   6
ENDBRANCH   4   5
ENDBRANCH   3   4
ENDBRANCH   1   3
BRANCH   2  13
ATOM     13  C   UNL     1      -5.717  -1.032   5.390  1.00  0.00     0.027 C 
BRANCH  13  14
ATOM     14  C   UNL     1      -7.082  -1.103   6.090  1.00  0.00     0.004 C 
BRANCH  14  15
ATOM     15  C   UNL     1      -6.985  -1.749   7.483  1.00  0.00     0.000 C 
BRANCH  15  16
ATOM     16  C   UNL     1      -8.116  -2.755   7.747  1.00  0.00     0.000 C 
BRANCH  16  17
ATOM     17  C   UNL     1      -7.791  -4.163   7.219  1.00  0.00    -0.000 C 
BRANCH  17  18
ATOM     18  C   UNL     1      -8.593  -4.521   5.959  1.00  0.00    -0.000 C 
BRANCH  18  19
ATOM     19  C   UNL     1      -7.811  -5.428   4.998  1.00  0.00    -0.003 C 
ATOM     20  C   UNL     1      -8.446  -6.812   4.910  1.00  0.00     0.004 C 
ENDBRANCH  18  19
ENDBRANCH  17  18
ENDBRANCH  16  17
ENDBRANCH  15  16
ENDBRANCH  14  15
ENDBRANCH  13  14
ENDBRANCH   2  13
TORSDOF 15
ENDMDL
