MODEL 1
REMARK VINA RESULT:     1.165      0.000      0.000
REMARK INTER + INTRA:           2.331
REMARK INTER:                   2.254
REMARK INTRA:                   0.077
REMARK UNBOUND:                 0.077
REMARK SMILES CCCCCCCCCCCCCCCCCC(=O)[O-]
REMARK SMILES IDX 10 1 11 2 12 3 13 4 14 5 15 6 16 7 17 8 18 9 19 10 20 11
REMARK SMILES IDX 9 12 8 13 7 14 6 15 5 16 4 17 3 18 2 19 1 20
REMARK H PARENT
REMARK Flexibility Score: inf
ROOT
ATOM      1  C   UNL     1      39.128  40.791  19.896  1.00  0.00     0.000 C 
ENDROOT
BRANCH   1   2
ATOM      2  C   UNL     1      40.189  41.179  18.852  1.00  0.00     0.000 C 
BRANCH   2   3
ATOM      3  C   UNL     1      41.063  42.365  19.299  1.00  0.00     0.000 C 
BRANCH   3   4
ATOM      4  C   UNL     1      40.498  43.760  18.962  1.00  0.00     0.000 C 
BRANCH   4   5
ATOM      5  C   UNL     1      41.103  44.927  19.768  1.00  0.00     0.000 C 
BRANCH   5   6
ATOM      6  C   UNL     1      41.086  44.738  21.297  1.00  0.00     0.000 C 
BRANCH   6   7
ATOM      7  C   UNL     1      40.978  46.068  22.060  1.00  0.00     0.006 C 
BRANCH   7   8
ATOM      8  C   UNL     1      39.776  46.091  23.013  1.00  0.00     0.053 C 
BRANCH   8   9
ATOM      9  C   UNL     1      40.004  45.229  24.217  1.00  0.00     0.041 C 
ATOM     10  O   UNL     1      40.901  44.346  24.204  1.00  0.00    -0.550 OA
ATOM     11  O   UNL     1      39.240  45.418  25.362  1.00  0.00    -0.550 OA
ENDBRANCH   8   9
ENDBRANCH   7   8
ENDBRANCH   6   7
ENDBRANCH   5   6
ENDBRANCH   4   5
ENDBRANCH   3   4
ENDBRANCH   2   3
ENDBRANCH   1   2
BRANCH   1  12
ATOM     12  C   UNL     1      38.907  39.271  19.994  1.00  0.00     0.000 C 
BRANCH  12  13
ATOM     13  C   UNL     1      37.462  38.830  20.293  1.00  0.00    -0.000 C 
BRANCH  13  14
ATOM     14  C   UNL     1      37.199  37.355  19.941  1.00  0.00    -0.000 C 
BRANCH  14  15
ATOM     15  C   UNL     1      37.511  36.404  21.108  1.00  0.00    -0.000 C 
BRANCH  15  16
ATOM     16  C   UNL     1      38.510  35.297  20.724  1.00  0.00    -0.000 C 
BRANCH  16  17
ATOM     17  C   UNL     1      39.102  35.512  19.315  1.00  0.00    -0.000 C 
BRANCH  17  18
ATOM     18  C   UNL     1      38.107  35.215  18.178  1.00  0.00    -0.000 C 
BRANCH  18  19
ATOM     19  C   UNL     1      38.800  34.937  16.837  1.00  0.00    -0.003 C 
ATOM     20  C   UNL     1      39.748  36.073  16.463  1.00  0.00     0.004 C 
ENDBRANCH  18  19
ENDBRANCH  17  18
ENDBRANCH  16  17
ENDBRANCH  15  16
ENDBRANCH  14  15
ENDBRANCH  13  14
ENDBRANCH  12  13
ENDBRANCH   1  12
TORSDOF 16
ENDMDL
MODEL 2
REMARK VINA RESULT:     1.807     20.006     23.529
REMARK INTER + INTRA:           3.574
REMARK INTER:                   1.843
REMARK INTRA:                   1.731
REMARK UNBOUND:                 0.077
REMARK SMILES CCCCCCCCCCCCCCCCCC(=O)[O-]
REMARK SMILES IDX 10 1 11 2 12 3 13 4 14 5 15 6 16 7 17 8 18 9 19 10 20 11
REMARK SMILES IDX 9 12 8 13 7 14 6 15 5 16 4 17 3 18 2 19 1 20
REMARK H PARENT
REMARK Flexibility Score: inf
ROOT
ATOM      1  C   UNL     1      22.460  53.920  31.630  1.00  0.00     0.000 C 
ENDROOT
BRANCH   1   2
ATOM      2  C   UNL     1      21.209  54.420  32.372  1.00  0.00     0.000 C 
BRANCH   2   3
ATOM      3  C   UNL     1      20.875  53.578  33.616  1.00  0.00     0.000 C 
BRANCH   3   4
ATOM      4  C   UNL     1      21.701  53.911  34.876  1.00  0.00     0.000 C 
BRANCH   4   5
ATOM      5  C   UNL     1      22.693  55.081  34.722  1.00  0.00     0.000 C 
BRANCH   5   6
ATOM      6  C   UNL     1      24.032  54.899  35.461  1.00  0.00     0.000 C 
BRANCH   6   7
ATOM      7  C   UNL     1      25.250  55.124  34.551  1.00  0.00     0.006 C 
BRANCH   7   8
ATOM      8  C   UNL     1      24.875  55.092  33.064  1.00  0.00     0.053 C 
BRANCH   8   9
ATOM      9  C   UNL     1      26.087  55.052  32.185  1.00  0.00     0.041 C 
ATOM     10  O   UNL     1      27.239  55.124  32.689  1.00  0.00    -0.550 OA
ATOM     11  O   UNL     1      25.945  54.914  30.810  1.00  0.00    -0.550 OA
ENDBRANCH   8   9
ENDBRANCH   7   8
ENDBRANCH   6   7
ENDBRANCH   5   6
ENDBRANCH   4   5
ENDBRANCH   3   4
ENDBRANCH   2   3
ENDBRANCH   1   2
BRANCH   1  12
ATOM     12  C   UNL     1      22.914  54.870  30.506  1.00  0.00     0.000 C 
BRANCH  12  13
ATOM     13  C   UNL     1      22.069  54.824  29.219  1.00  0.00    -0.000 C 
BRANCH  13  14
ATOM     14  C   UNL     1      21.873  53.396  28.681  1.00  0.00    -0.000 C 
BRANCH  14  15
ATOM     15  C   UNL     1      23.085  52.895  27.879  1.00  0.00    -0.000 C 
BRANCH  15  16
ATOM     16  C   UNL     1      23.019  51.386  27.579  1.00  0.00    -0.000 C 
BRANCH  16  17
ATOM     17  C   UNL     1      24.164  50.927  26.651  1.00  0.00    -0.000 C 
BRANCH  17  18
ATOM     18  C   UNL     1      24.656  52.027  25.692  1.00  0.00    -0.000 C 
BRANCH  18  19
ATOM     19  C   UNL     1      23.876  53.340  25.841  1.00  0.00    -0.003 C 
ATOM     20  C   UNL     1      24.578  54.482  25.113  1.00  0.00     0.004 C 
ENDBRANCH  18  19
ENDBRANCH  17  18
ENDBRANCH  16  17
ENDBRANCH  15  16
ENDBRANCH  14  15
ENDBRANCH  13  14
ENDBRANCH  12  13
ENDBRANCH   1  12
TORSDOF 16
ENDMDL
MODEL 3
REMARK VINA RESULT:     2.246      4.461      9.634
REMARK INTER + INTRA:           4.423
REMARK INTER:                   5.137
REMARK INTRA:                  -0.714
REMARK UNBOUND:                 0.077
REMARK SMILES CCCCCCCCCCCCCCCCCC(=O)[O-]
REMARK SMILES IDX 10 1 11 2 12 3 13 4 14 5 15 6 16 7 17 8 18 9 19 10 20 11
REMARK SMILES IDX 9 12 8 13 7 14 6 15 5 16 4 17 3 18 2 19 1 20
REMARK H PARENT
REMARK Flexibility Score: inf
ROOT
ATOM      1  C   UNL     1      40.471  43.604  21.069  1.00  0.00     0.000 C 
ENDROOT
BRANCH   1   2
ATOM      2  C   UNL     1      41.124  42.668  20.038  1.00  0.00     0.000 C 
BRANCH   2   3
ATOM      3  C   UNL     1      40.956  43.163  18.590  1.00  0.00     0.000 C 
BRANCH   3   4
ATOM      4  C   UNL     1      40.990  42.061  17.511  1.00  0.00     0.000 C 
BRANCH   4   5
ATOM      5  C   UNL     1      40.960  40.616  18.046  1.00  0.00     0.000 C 
BRANCH   5   6
ATOM      6  C   UNL     1      39.637  39.864  17.810  1.00  0.00     0.000 C 
BRANCH   6   7
ATOM      7  C   UNL     1      39.794  38.337  17.907  1.00  0.00     0.006 C 
BRANCH   7   8
ATOM      8  C   UNL     1      40.224  37.715  16.573  1.00  0.00     0.053 C 
BRANCH   8   9
ATOM      9  C   UNL     1      39.932  36.246  16.524  1.00  0.00     0.041 C 
ATOM     10  O   UNL     1      40.773  35.449  16.031  1.00  0.00    -0.550 OA
ATOM     11  O   UNL     1      38.741  35.757  17.043  1.00  0.00    -0.550 OA
ENDBRANCH   8   9
ENDBRANCH   7   8
ENDBRANCH   6   7
ENDBRANCH   5   6
ENDBRANCH   4   5
ENDBRANCH   3   4
ENDBRANCH   2   3
ENDBRANCH   1   2
BRANCH   1  12
ATOM     12  C   UNL     1      41.124  44.997  21.117  1.00  0.00     0.000 C 
BRANCH  12  13
ATOM     13  C   UNL     1      41.017  45.732  22.466  1.00  0.00    -0.000 C 
BRANCH  13  14
ATOM     14  C   UNL     1      40.273  44.915  23.537  1.00  0.00    -0.000 C 
BRANCH  14  15
ATOM     15  C   UNL     1      39.368  45.787  24.423  1.00  0.00    -0.000 C 
BRANCH  15  16
ATOM     16  C   UNL     1      37.927  45.250  24.513  1.00  0.00    -0.000 C 
BRANCH  16  17
ATOM     17  C   UNL     1      36.955  46.293  25.105  1.00  0.00    -0.000 C 
BRANCH  17  18
ATOM     18  C   UNL     1      35.862  46.744  24.120  1.00  0.00    -0.000 C 
BRANCH  18  19
ATOM     19  C   UNL     1      34.591  45.889  24.208  1.00  0.00    -0.003 C 
ATOM     20  C   UNL     1      33.913  46.049  25.565  1.00  0.00     0.004 C 
ENDBRANCH  18  19
ENDBRANCH  17  18
ENDBRANCH  16  17
ENDBRANCH  15  16
ENDBRANCH  14  15
ENDBRANCH  13  14
ENDBRANCH  12  13
ENDBRANCH   1  12
TORSDOF 16
ENDMDL
MODEL 4
REMARK VINA RESULT:     2.417      4.666      9.541
REMARK INTER + INTRA:           4.755
REMARK INTER:                   5.079
REMARK INTRA:                  -0.324
REMARK UNBOUND:                 0.077
REMARK SMILES CCCCCCCCCCCCCCCCCC(=O)[O-]
REMARK SMILES IDX 10 1 11 2 12 3 13 4 14 5 15 6 16 7 17 8 18 9 19 10 20 11
REMARK SMILES IDX 9 12 8 13 7 14 6 15 5 16 4 17 3 18 2 19 1 20
REMARK H PARENT
REMARK Flexibility Score: inf
ROOT
ATOM      1  C   UNL     1      39.346  44.696  24.227  1.00  0.00     0.000 C 
ENDROOT
BRANCH   1   2
ATOM      2  C   UNL     1      39.877  45.501  23.029  1.00  0.00     0.000 C 
BRANCH   2   3
ATOM      3  C   UNL     1      40.743  44.656  22.078  1.00  0.00     0.000 C 
BRANCH   3   4
ATOM      4  C   UNL     1      40.638  45.031  20.585  1.00  0.00     0.000 C 
BRANCH   4   5
ATOM      5  C   UNL     1      41.119  43.948  19.599  1.00  0.00     0.000 C 
BRANCH   5   6
ATOM      6  C   UNL     1      40.135  42.783  19.383  1.00  0.00     0.000 C 
BRANCH   6   7
ATOM      7  C   UNL     1      40.756  41.617  18.598  1.00  0.00     0.006 C 
BRANCH   7   8
ATOM      8  C   UNL     1      40.061  40.283  18.899  1.00  0.00     0.053 C 
BRANCH   8   9
ATOM      9  C   UNL     1      39.867  39.464  17.660  1.00  0.00     0.041 C 
ATOM     10  O   UNL     1      39.679  38.221  17.743  1.00  0.00    -0.550 OA
ATOM     11  O   UNL     1      39.871  40.077  16.413  1.00  0.00    -0.550 OA
ENDBRANCH   8   9
ENDBRANCH   7   8
ENDBRANCH   6   7
ENDBRANCH   5   6
ENDBRANCH   4   5
ENDBRANCH   3   4
ENDBRANCH   2   3
ENDBRANCH   1   2
BRANCH   1  12
ATOM     12  C   UNL     1      37.865  44.981  24.535  1.00  0.00     0.000 C 
BRANCH  12  13
ATOM     13  C   UNL     1      37.396  46.421  24.256  1.00  0.00    -0.000 C 
BRANCH  13  14
ATOM     14  C   UNL     1      36.484  46.527  23.022  1.00  0.00    -0.000 C 
BRANCH  14  15
ATOM     15  C   UNL     1      35.122  47.165  23.346  1.00  0.00    -0.000 C 
BRANCH  15  16
ATOM     16  C   UNL     1      33.936  46.251  22.986  1.00  0.00    -0.000 C 
BRANCH  16  17
ATOM     17  C   UNL     1      33.249  45.671  24.240  1.00  0.00    -0.000 C 
BRANCH  17  18
ATOM     18  C   UNL     1      34.124  45.731  25.505  1.00  0.00    -0.000 C 
BRANCH  18  19
ATOM     19  C   UNL     1      34.209  47.141  26.104  1.00  0.00    -0.003 C 
ATOM     20  C   UNL     1      32.829  47.647  26.516  1.00  0.00     0.004 C 
ENDBRANCH  18  19
ENDBRANCH  17  18
ENDBRANCH  16  17
ENDBRANCH  15  16
ENDBRANCH  14  15
ENDBRANCH  13  14
ENDBRANCH  12  13
ENDBRANCH   1  12
TORSDOF 16
ENDMDL
MODEL 5
REMARK VINA RESULT:     2.962     19.473     23.736
REMARK INTER + INTRA:           5.810
REMARK INTER:                   5.537
REMARK INTRA:                   0.273
REMARK UNBOUND:                 0.077
REMARK SMILES CCCCCCCCCCCCCCCCCC(=O)[O-]
REMARK SMILES IDX 10 1 11 2 12 3 13 4 14 5 15 6 16 7 17 8 18 9 19 10 20 11
REMARK SMILES IDX 9 12 8 13 7 14 6 15 5 16 4 17 3 18 2 19 1 20
REMARK H PARENT
REMARK Flexibility Score: inf
ROOT
ATOM      1  C   UNL     1      22.421  54.834  30.300  1.00  0.00     0.000 C 
ENDROOT
BRANCH   1   2
ATOM      2  C   UNL     1      22.017  54.551  28.843  1.00  0.00     0.000 C 
BRANCH   2   3
ATOM      3  C   UNL     1      23.197  54.074  27.977  1.00  0.00     0.000 C 
BRANCH   3   4
ATOM      4  C   UNL     1      23.054  54.345  26.466  1.00  0.00     0.000 C 
BRANCH   4   5
ATOM      5  C   UNL     1      24.321  54.080  25.628  1.00  0.00     0.000 C 
BRANCH   5   6
ATOM      6  C   UNL     1      24.365  52.706  24.934  1.00  0.00     0.000 C 
BRANCH   6   7
ATOM      7  C   UNL     1      25.414  51.763  25.546  1.00  0.00     0.006 C 
BRANCH   7   8
ATOM      8  C   UNL     1      24.774  50.531  26.198  1.00  0.00     0.053 C 
BRANCH   8   9
ATOM      9  C   UNL     1      23.945  50.899  27.390  1.00  0.00     0.041 C 
ATOM     10  O   UNL     1      24.491  51.380  28.418  1.00  0.00    -0.550 OA
ATOM     11  O   UNL     1      22.567  50.732  27.357  1.00  0.00    -0.550 OA
ENDBRANCH   8   9
ENDBRANCH   7   8
ENDBRANCH   6   7
ENDBRANCH   5   6
ENDBRANCH   4   5
ENDBRANCH   3   4
ENDBRANCH   2   3
ENDBRANCH   1   2
BRANCH   1  12
ATOM     12  C   UNL     1      21.579  54.048  31.321  1.00  0.00     0.000 C 
BRANCH  12  13
ATOM     13  C   UNL     1      21.156  54.836  32.576  1.00  0.00    -0.000 C 
BRANCH  13  14
ATOM     14  C   UNL     1      22.329  55.123  33.528  1.00  0.00    -0.000 C 
BRANCH  14  15
ATOM     15  C   UNL     1      22.267  54.283  34.814  1.00  0.00    -0.000 C 
BRANCH  15  16
ATOM     16  C   UNL     1      23.662  53.900  35.343  1.00  0.00    -0.000 C 
BRANCH  16  17
ATOM     17  C   UNL     1      24.642  55.092  35.315  1.00  0.00    -0.000 C 
BRANCH  17  18
ATOM     18  C   UNL     1      25.540  55.121  34.066  1.00  0.00    -0.000 C 
BRANCH  18  19
ATOM     19  C   UNL     1      24.987  54.268  32.915  1.00  0.00    -0.003 C 
ATOM     20  C   UNL     1      25.391  54.845  31.561  1.00  0.00     0.004 C 
ENDBRANCH  18  19
ENDBRANCH  17  18
ENDBRANCH  16  17
ENDBRANCH  15  16
ENDBRANCH  14  15
ENDBRANCH  13  14
ENDBRANCH  12  13
ENDBRANCH   1  12
TORSDOF 16
ENDMDL
MODEL 6
REMARK VINA RESULT:     3.408      5.545      8.217
REMARK INTER + INTRA:           6.672
REMARK INTER:                   8.131
REMARK INTRA:                  -1.459
REMARK UNBOUND:                 0.077
REMARK SMILES CCCCCCCCCCCCCCCCCC(=O)[O-]
REMARK SMILES IDX 10 1 11 2 12 3 13 4 14 5 15 6 16 7 17 8 18 9 19 10 20 11
REMARK SMILES IDX 9 12 8 13 7 14 6 15 5 16 4 17 3 18 2 19 1 20
REMARK H PARENT
REMARK Flexibility Score: inf
ROOT
ATOM      1  C   UNL     1      37.155  39.719  19.347  1.00  0.00     0.000 C 
ENDROOT
BRANCH   1   2
ATOM      2  C   UNL     1      36.967  39.103  20.744  1.00  0.00     0.000 C 
BRANCH   2   3
ATOM      3  C   UNL     1      37.622  37.717  20.879  1.00  0.00     0.000 C 
BRANCH   3   4
ATOM      4  C   UNL     1      36.672  36.519  20.672  1.00  0.00     0.000 C 
BRANCH   4   5
ATOM      5  C   UNL     1      36.525  35.579  21.885  1.00  0.00     0.000 C 
BRANCH   5   6
ATOM      6  C   UNL     1      35.073  35.274  22.297  1.00  0.00     0.000 C 
BRANCH   6   7
ATOM      7  C   UNL     1      34.040  35.907  21.351  1.00  0.00     0.006 C 
BRANCH   7   8
ATOM      8  C   UNL     1      32.645  35.979  21.985  1.00  0.00     0.053 C 
BRANCH   8   9
ATOM      9  C   UNL     1      31.605  35.341  21.116  1.00  0.00     0.041 C 
ATOM     10  O   UNL     1      31.807  35.204  19.881  1.00  0.00    -0.550 OA
ATOM     11  O   UNL     1      30.421  34.876  21.675  1.00  0.00    -0.550 OA
ENDBRANCH   8   9
ENDBRANCH   7   8
ENDBRANCH   6   7
ENDBRANCH   5   6
ENDBRANCH   4   5
ENDBRANCH   3   4
ENDBRANCH   2   3
ENDBRANCH   1   2
BRANCH   1  12
ATOM     12  C   UNL     1      38.487  40.476  19.197  1.00  0.00     0.000 C 
BRANCH  12  13
ATOM     13  C   UNL     1      39.706  39.605  18.839  1.00  0.00    -0.000 C 
BRANCH  13  14
ATOM     14  C   UNL     1      39.820  39.324  17.330  1.00  0.00    -0.000 C 
BRANCH  14  15
ATOM     15  C   UNL     1      40.724  38.119  17.020  1.00  0.00    -0.000 C 
BRANCH  15  16
ATOM     16  C   UNL     1      40.171  37.236  15.886  1.00  0.00    -0.000 C 
BRANCH  16  17
ATOM     17  C   UNL     1      39.925  35.784  16.349  1.00  0.00    -0.000 C 
BRANCH  17  18
ATOM     18  C   UNL     1      38.668  35.622  17.222  1.00  0.00    -0.000 C 
BRANCH  18  19
ATOM     19  C   UNL     1      38.961  34.953  18.572  1.00  0.00    -0.003 C 
ATOM     20  C   UNL     1      40.140  35.623  19.271  1.00  0.00     0.004 C 
ENDBRANCH  18  19
ENDBRANCH  17  18
ENDBRANCH  16  17
ENDBRANCH  15  16
ENDBRANCH  14  15
ENDBRANCH  13  14
ENDBRANCH  12  13
ENDBRANCH   1  12
TORSDOF 16
ENDMDL
MODEL 7
REMARK VINA RESULT:     3.981      7.167      9.487
REMARK INTER + INTRA:           7.783
REMARK INTER:                   8.365
REMARK INTRA:                  -0.583
REMARK UNBOUND:                 0.077
REMARK SMILES CCCCCCCCCCCCCCCCCC(=O)[O-]
REMARK SMILES IDX 10 1 11 2 12 3 13 4 14 5 15 6 16 7 17 8 18 9 19 10 20 11
REMARK SMILES IDX 9 12 8 13 7 14 6 15 5 16 4 17 3 18 2 19 1 20
REMARK H PARENT
REMARK Flexibility Score: inf
ROOT
ATOM      1  C   UNL     1      35.981  47.522  22.388  1.00  0.00     0.000 C 
ENDROOT
BRANCH   1   2
ATOM      2  C   UNL     1      34.749  47.043  23.174  1.00  0.00     0.000 C 
BRANCH   2   3
ATOM      3  C   UNL     1      33.719  46.318  22.288  1.00  0.00     0.000 C 
BRANCH   3   4
ATOM      4  C   UNL     1      32.739  45.396  23.040  1.00  0.00     0.000 C 
BRANCH   4   5
ATOM      5  C   UNL     1      32.536  45.729  24.532  1.00  0.00     0.000 C 
BRANCH   5   6
ATOM      6  C   UNL     1      33.710  45.339  25.450  1.00  0.00     0.000 C 
BRANCH   6   7
ATOM      7  C   UNL     1      34.302  46.542  26.202  1.00  0.00     0.006 C 
BRANCH   7   8
ATOM      8  C   UNL     1      33.276  47.206  27.129  1.00  0.00     0.053 C 
BRANCH   8   9
ATOM      9  C   UNL     1      32.770  48.498  26.564  1.00  0.00     0.041 C 
ATOM     10  O   UNL     1      31.554  48.625  26.263  1.00  0.00    -0.550 OA
ATOM     11  O   UNL     1      33.637  49.569  26.392  1.00  0.00    -0.550 OA
ENDBRANCH   8   9
ENDBRANCH   7   8
ENDBRANCH   6   7
ENDBRANCH   5   6
ENDBRANCH   4   5
ENDBRANCH   3   4
ENDBRANCH   2   3
ENDBRANCH   1   2
BRANCH   1  12
ATOM     12  C   UNL     1      37.291  46.869  22.866  1.00  0.00     0.000 C 
BRANCH  12  13
ATOM     13  C   UNL     1      37.144  45.857  24.018  1.00  0.00    -0.000 C 
BRANCH  13  14
ATOM     14  C   UNL     1      38.310  45.914  25.019  1.00  0.00    -0.000 C 
BRANCH  14  15
ATOM     15  C   UNL     1      39.329  44.782  24.804  1.00  0.00    -0.000 C 
BRANCH  15  16
ATOM     16  C   UNL     1      40.667  45.286  24.230  1.00  0.00    -0.000 C 
BRANCH  16  17
ATOM     17  C   UNL     1      41.125  44.457  23.012  1.00  0.00    -0.000 C 
BRANCH  17  18
ATOM     18  C   UNL     1      41.094  45.241  21.688  1.00  0.00    -0.000 C 
BRANCH  18  19
ATOM     19  C   UNL     1      40.291  46.544  21.786  1.00  0.00    -0.003 C 
ATOM     20  C   UNL     1      41.124  47.739  21.333  1.00  0.00     0.004 C 
ENDBRANCH  18  19
ENDBRANCH  17  18
ENDBRANCH  16  17
ENDBRANCH  15  16
ENDBRANCH  14  15
ENDBRANCH  13  14
ENDBRANCH  12  13
ENDBRANCH   1  12
TORSDOF 16
ENDMDL
