MODEL 1
REMARK VINA RESULT:    -2.860      0.000      0.000
REMARK INTER + INTRA:          -4.151
REMARK INTER:                  -3.864
REMARK INTRA:                  -0.287
REMARK UNBOUND:                -0.287
REMARK SMILES CCCCCCCC(=O)[O-]
REMARK SMILES IDX 5 1 6 2 7 3 8 4 9 5 10 6 4 7 3 8 2 9 1 10
REMARK H PARENT
REMARK Flexibility Score: inf
ROOT
ATOM      1  C   UNL     1       2.128   7.599   3.720  1.00  0.00     0.000 C 
ENDROOT
BRANCH   1   2
ATOM      2  C   UNL     1       3.613   7.252   3.500  1.00  0.00     0.006 C 
BRANCH   2   3
ATOM      3  C   UNL     1       3.900   5.747   3.386  1.00  0.00     0.053 C 
BRANCH   3   4
ATOM      4  C   UNL     1       5.370   5.456   3.373  1.00  0.00     0.041 C 
ATOM      5  O   UNL     1       6.170   6.207   3.990  1.00  0.00    -0.550 OA
ATOM      6  O   UNL     1       5.858   4.375   2.651  1.00  0.00    -0.550 OA
ENDBRANCH   3   4
ENDBRANCH   2   3
ENDBRANCH   1   2
BRANCH   1   7
ATOM      7  C   UNL     1       1.181   6.689   2.923  1.00  0.00     0.000 C 
BRANCH   7   8
ATOM      8  C   UNL     1      -0.006   6.243   3.785  1.00  0.00    -0.000 C 
BRANCH   8   9
ATOM      9  C   UNL     1       0.291   4.912   4.486  1.00  0.00    -0.003 C 
ATOM     10  C   UNL     1      -0.978   4.085   4.661  1.00  0.00     0.004 C 
ENDBRANCH   8   9
ENDBRANCH   7   8
ENDBRANCH   1   7
TORSDOF 6
ENDMDL
MODEL 2
REMARK VINA RESULT:    -2.533     22.238     23.443
REMARK INTER + INTRA:          -3.709
REMARK INTER:                  -3.420
REMARK INTRA:                  -0.289
REMARK UNBOUND:                -0.287
REMARK SMILES CCCCCCCC(=O)[O-]
REMARK SMILES IDX 5 1 6 2 7 3 8 4 9 5 10 6 4 7 3 8 2 9 1 10
REMARK H PARENT
REMARK Flexibility Score: inf
ROOT
ATOM      1  C   UNL     1      15.799  -8.995  11.894  1.00  0.00     0.000 C 
ENDROOT
BRANCH   1   2
ATOM      2  C   UNL     1      15.992 -10.023  13.025  1.00  0.00     0.006 C 
BRANCH   2   3
ATOM      3  C   UNL     1      15.878  -9.436  14.440  1.00  0.00     0.053 C 
BRANCH   3   4
ATOM      4  C   UNL     1      17.049  -9.807  15.298  1.00  0.00     0.041 C 
ATOM      5  O   UNL     1      18.173 -10.027  14.776  1.00  0.00    -0.550 OA
ATOM      6  O   UNL     1      16.889  -9.943  16.670  1.00  0.00    -0.550 OA
ENDBRANCH   3   4
ENDBRANCH   2   3
ENDBRANCH   1   2
BRANCH   1   7
ATOM      7  C   UNL     1      16.358  -9.480  10.548  1.00  0.00     0.000 C 
BRANCH   7   8
ATOM      8  C   UNL     1      17.737 -10.125  10.726  1.00  0.00    -0.000 C 
BRANCH   8   9
ATOM      9  C   UNL     1      18.856  -9.090  10.560  1.00  0.00    -0.003 C 
ATOM     10  C   UNL     1      19.125  -8.353  11.868  1.00  0.00     0.004 C 
ENDBRANCH   8   9
ENDBRANCH   7   8
ENDBRANCH   1   7
TORSDOF 6
ENDMDL
MODEL 3
REMARK VINA RESULT:    -2.446      1.634      2.961
REMARK INTER + INTRA:          -3.591
REMARK INTER:                  -3.186
REMARK INTRA:                  -0.405
REMARK UNBOUND:                -0.287
REMARK SMILES CCCCCCCC(=O)[O-]
REMARK SMILES IDX 5 1 6 2 7 3 8 4 9 5 10 6 4 7 3 8 2 9 1 10
REMARK H PARENT
REMARK Flexibility Score: inf
ROOT
ATOM      1  C   UNL     1       1.427   6.112   3.616  1.00  0.00     0.000 C 
ENDROOT
BRANCH   1   2
ATOM      2  C   UNL     1       2.748   6.688   3.075  1.00  0.00     0.006 C 
BRANCH   2   3
ATOM      3  C   UNL     1       3.987   5.836   3.393  1.00  0.00     0.053 C 
BRANCH   3   4
ATOM      4  C   UNL     1       5.139   6.674   3.859  1.00  0.00     0.041 C 
ATOM      5  O   UNL     1       6.319   6.350   3.565  1.00  0.00    -0.550 OA
ATOM      6  O   UNL     1       4.909   7.794   4.647  1.00  0.00    -0.550 OA
ENDBRANCH   3   4
ENDBRANCH   2   3
ENDBRANCH   1   2
BRANCH   1   7
ATOM      7  C   UNL     1       0.343   7.184   3.804  1.00  0.00     0.000 C 
BRANCH   7   8
ATOM      8  C   UNL     1       0.939   8.592   3.696  1.00  0.00    -0.000 C 
BRANCH   8   9
ATOM      9  C   UNL     1       0.698   9.393   4.981  1.00  0.00    -0.003 C 
ATOM     10  C   UNL     1       1.871   9.253   5.947  1.00  0.00     0.004 C 
ENDBRANCH   8   9
ENDBRANCH   7   8
ENDBRANCH   1   7
TORSDOF 6
ENDMDL
MODEL 4
REMARK VINA RESULT:    -2.440     17.624     18.514
REMARK INTER + INTRA:          -3.583
REMARK INTER:                  -3.437
REMARK INTRA:                  -0.146
REMARK UNBOUND:                -0.287
REMARK SMILES CCCCCCCC(=O)[O-]
REMARK SMILES IDX 5 1 6 2 7 3 8 4 9 5 10 6 4 7 3 8 2 9 1 10
REMARK H PARENT
REMARK Flexibility Score: inf
ROOT
ATOM      1  C   UNL     1       2.560   5.963  22.031  1.00  0.00     0.000 C 
ENDROOT
BRANCH   1   2
ATOM      2  C   UNL     1       1.302   6.568  21.382  1.00  0.00     0.006 C 
BRANCH   2   3
ATOM      3  C   UNL     1       1.202   8.097  21.501  1.00  0.00     0.053 C 
BRANCH   3   4
ATOM      4  C   UNL     1      -0.173   8.596  21.176  1.00  0.00     0.041 C 
ATOM      5  O   UNL     1      -0.962   7.887  20.499  1.00  0.00    -0.550 OA
ATOM      6  O   UNL     1      -0.570   9.860  21.593  1.00  0.00    -0.550 OA
ENDBRANCH   3   4
ENDBRANCH   2   3
ENDBRANCH   1   2
BRANCH   1   7
ATOM      7  C   UNL     1       3.488   5.286  21.011  1.00  0.00     0.000 C 
BRANCH   7   8
ATOM      8  C   UNL     1       4.460   4.325  21.706  1.00  0.00    -0.000 C 
BRANCH   8   9
ATOM      9  C   UNL     1       5.879   4.904  21.739  1.00  0.00    -0.003 C 
ATOM     10  C   UNL     1       6.371   5.240  20.335  1.00  0.00     0.004 C 
ENDBRANCH   8   9
ENDBRANCH   7   8
ENDBRANCH   1   7
TORSDOF 6
ENDMDL
MODEL 5
REMARK VINA RESULT:    -2.431      3.136      4.947
REMARK INTER + INTRA:          -3.571
REMARK INTER:                  -3.148
REMARK INTRA:                  -0.423
REMARK UNBOUND:                -0.287
REMARK SMILES CCCCCCCC(=O)[O-]
REMARK SMILES IDX 5 1 6 2 7 3 8 4 9 5 10 6 4 7 3 8 2 9 1 10
REMARK H PARENT
REMARK Flexibility Score: inf
ROOT
ATOM      1  C   UNL     1       2.288   8.444   4.493  1.00  0.00     0.000 C 
ENDROOT
BRANCH   1   2
ATOM      2  C   UNL     1       1.538   7.678   3.387  1.00  0.00     0.006 C 
BRANCH   2   3
ATOM      3  C   UNL     1       1.589   6.149   3.531  1.00  0.00     0.053 C 
BRANCH   3   4
ATOM      4  C   UNL     1       0.307   5.593   4.070  1.00  0.00     0.041 C 
ATOM      5  O   UNL     1       0.323   4.611   4.857  1.00  0.00    -0.550 OA
ATOM      6  O   UNL     1      -0.908   6.140   3.677  1.00  0.00    -0.550 OA
ENDBRANCH   3   4
ENDBRANCH   2   3
ENDBRANCH   1   2
BRANCH   1   7
ATOM      7  C   UNL     1       3.682   8.914   4.050  1.00  0.00     0.000 C 
BRANCH   7   8
ATOM      8  C   UNL     1       4.768   7.952   4.545  1.00  0.00    -0.000 C 
BRANCH   8   9
ATOM      9  C   UNL     1       5.509   7.305   3.369  1.00  0.00    -0.003 C 
ATOM     10  C   UNL     1       5.551   5.786   3.510  1.00  0.00     0.004 C 
ENDBRANCH   8   9
ENDBRANCH   7   8
ENDBRANCH   1   7
TORSDOF 6
ENDMDL
MODEL 6
REMARK VINA RESULT:    -2.402     21.034     22.932
REMARK INTER + INTRA:          -3.532
REMARK INTER:                  -3.289
REMARK INTRA:                  -0.242
REMARK UNBOUND:                -0.287
REMARK SMILES CCCCCCCC(=O)[O-]
REMARK SMILES IDX 5 1 6 2 7 3 8 4 9 5 10 6 4 7 3 8 2 9 1 10
REMARK H PARENT
REMARK Flexibility Score: inf
ROOT
ATOM      1  C   UNL     1      17.310  -9.332  11.692  1.00  0.00     0.000 C 
ENDROOT
BRANCH   1   2
ATOM      2  C   UNL     1      17.788 -10.063  12.961  1.00  0.00     0.006 C 
BRANCH   2   3
ATOM      3  C   UNL     1      17.968  -9.152  14.185  1.00  0.00     0.053 C 
BRANCH   3   4
ATOM      4  C   UNL     1      16.927  -9.407  15.232  1.00  0.00     0.041 C 
ATOM      5  O   UNL     1      17.248  -9.450  16.448  1.00  0.00    -0.550 OA
ATOM      6  O   UNL     1      15.608  -9.631  14.860  1.00  0.00    -0.550 OA
ENDBRANCH   3   4
ENDBRANCH   2   3
ENDBRANCH   1   2
BRANCH   1   7
ATOM      7  C   UNL     1      17.593 -10.125  10.407  1.00  0.00     0.000 C 
BRANCH   7   8
ATOM      8  C   UNL     1      16.380 -10.103   9.470  1.00  0.00    -0.000 C 
BRANCH   8   9
ATOM      9  C   UNL     1      15.069 -10.125  10.265  1.00  0.00    -0.003 C 
ATOM     10  C   UNL     1      13.865  -9.929   9.349  1.00  0.00     0.004 C 
ENDBRANCH   8   9
ENDBRANCH   7   8
ENDBRANCH   1   7
TORSDOF 6
ENDMDL
MODEL 7
REMARK VINA RESULT:    -2.266      2.768      4.735
REMARK INTER + INTRA:          -3.349
REMARK INTER:                  -2.799
REMARK INTRA:                  -0.549
REMARK UNBOUND:                -0.287
REMARK SMILES CCCCCCCC(=O)[O-]
REMARK SMILES IDX 5 1 6 2 7 3 8 4 9 5 10 6 4 7 3 8 2 9 1 10
REMARK H PARENT
REMARK Flexibility Score: inf
ROOT
ATOM      1  C   UNL     1       4.878   7.897   4.477  1.00  0.00     0.000 C 
ENDROOT
BRANCH   1   2
ATOM      2  C   UNL     1       3.587   8.736   4.501  1.00  0.00     0.006 C 
BRANCH   2   3
ATOM      3  C   UNL     1       2.697   8.563   3.260  1.00  0.00     0.053 C 
BRANCH   3   4
ATOM      4  C   UNL     1       2.067   7.205   3.207  1.00  0.00     0.041 C 
ATOM      5  O   UNL     1       2.437   6.368   2.343  1.00  0.00    -0.550 OA
ATOM      6  O   UNL     1       1.047   6.877   4.091  1.00  0.00    -0.550 OA
ENDBRANCH   3   4
ENDBRANCH   2   3
ENDBRANCH   1   2
BRANCH   1   7
ATOM      7  C   UNL     1       5.707   8.116   3.202  1.00  0.00     0.000 C 
BRANCH   7   8
ATOM      8  C   UNL     1       6.255   6.788   2.667  1.00  0.00    -0.000 C 
BRANCH   8   9
ATOM      9  C   UNL     1       5.703   5.602   3.467  1.00  0.00    -0.003 C 
ATOM     10  C   UNL     1       5.560   4.363   2.590  1.00  0.00     0.004 C 
ENDBRANCH   8   9
ENDBRANCH   7   8
ENDBRANCH   1   7
TORSDOF 6
ENDMDL
MODEL 8
REMARK VINA RESULT:    -2.237      1.568      2.149
REMARK INTER + INTRA:          -3.308
REMARK INTER:                  -3.039
REMARK INTRA:                  -0.270
REMARK UNBOUND:                -0.287
REMARK SMILES CCCCCCCC(=O)[O-]
REMARK SMILES IDX 5 1 6 2 7 3 8 4 9 5 10 6 4 7 3 8 2 9 1 10
REMARK H PARENT
REMARK Flexibility Score: inf
ROOT
ATOM      1  C   UNL     1       3.360   6.055   3.395  1.00  0.00     0.000 C 
ENDROOT
BRANCH   1   2
ATOM      2  C   UNL     1       4.654   5.608   2.689  1.00  0.00     0.006 C 
BRANCH   2   3
ATOM      3  C   UNL     1       5.944   5.990   3.430  1.00  0.00     0.053 C 
BRANCH   3   4
ATOM      4  C   UNL     1       6.626   7.165   2.799  1.00  0.00     0.041 C 
ATOM      5  O   UNL     1       7.761   7.032   2.272  1.00  0.00    -0.550 OA
ATOM      6  O   UNL     1       6.021   8.415   2.825  1.00  0.00    -0.550 OA
ENDBRANCH   3   4
ENDBRANCH   2   3
ENDBRANCH   1   2
BRANCH   1   7
ATOM      7  C   UNL     1       2.369   6.740   2.442  1.00  0.00     0.000 C 
BRANCH   7   8
ATOM      8  C   UNL     1       0.926   6.335   2.767  1.00  0.00    -0.000 C 
BRANCH   8   9
ATOM      9  C   UNL     1       0.794   5.892   4.229  1.00  0.00    -0.003 C 
ATOM     10  C   UNL     1      -0.037   4.617   4.346  1.00  0.00     0.004 C 
ENDBRANCH   8   9
ENDBRANCH   7   8
ENDBRANCH   1   7
TORSDOF 6
ENDMDL
MODEL 9
REMARK VINA RESULT:    -2.188     21.984     23.130
REMARK INTER + INTRA:          -3.243
REMARK INTER:                  -2.825
REMARK INTRA:                  -0.418
REMARK UNBOUND:                -0.287
REMARK SMILES CCCCCCCC(=O)[O-]
REMARK SMILES IDX 5 1 6 2 7 3 8 4 9 5 10 6 4 7 3 8 2 9 1 10
REMARK H PARENT
REMARK Flexibility Score: inf
ROOT
ATOM      1  C   UNL     1      17.959  -8.850  13.548  1.00  0.00     0.000 C 
ENDROOT
BRANCH   1   2
ATOM      2  C   UNL     1      18.009  -9.290  12.073  1.00  0.00     0.006 C 
BRANCH   2   3
ATOM      3  C   UNL     1      16.801 -10.125  11.620  1.00  0.00     0.053 C 
BRANCH   3   4
ATOM      4  C   UNL     1      16.531  -9.971  10.154  1.00  0.00     0.041 C 
ATOM      5  O   UNL     1      15.361  -9.754   9.744  1.00  0.00    -0.550 OA
ATOM      6  O   UNL     1      17.568 -10.101   9.239  1.00  0.00    -0.550 OA
ENDBRANCH   3   4
ENDBRANCH   2   3
ENDBRANCH   1   2
BRANCH   1   7
ATOM      7  C   UNL     1      18.220 -10.008  14.523  1.00  0.00     0.000 C 
BRANCH   7   8
ATOM      8  C   UNL     1      17.210  -9.993  15.676  1.00  0.00    -0.000 C 
BRANCH   8   9
ATOM      9  C   UNL     1      16.000  -9.115  15.337  1.00  0.00    -0.003 C 
ATOM     10  C   UNL     1      14.738  -9.956  15.166  1.00  0.00     0.004 C 
ENDBRANCH   8   9
ENDBRANCH   7   8
ENDBRANCH   1   7
TORSDOF 6
ENDMDL
