MODEL 1
REMARK VINA RESULT:    -4.594      0.000      0.000
REMARK INTER + INTRA:          -6.078
REMARK INTER:                  -5.668
REMARK INTRA:                  -0.409
REMARK UNBOUND:                -0.409
REMARK SMILES COC(=O)c1ccccc1C(=O)OC
REMARK SMILES IDX 5 1 6 2 7 3 8 4 9 5 10 6 3 7 4 8 2 9 1 10 11 11 12 12 13 13
REMARK SMILES IDX 14 14
REMARK H PARENT
REMARK Flexibility Score: inf
ROOT
ATOM      1  C   UNL     1     -16.041 -10.076   1.634  1.00  0.00     0.074 A 
ATOM      2  C   UNL     1     -15.372 -10.458   0.457  1.00  0.00     0.016 A 
ATOM      3  C   UNL     1     -14.978 -11.781   0.257  1.00  0.00     0.001 A 
ATOM      4  C   UNL     1     -15.244 -12.743   1.228  1.00  0.00     0.001 A 
ATOM      5  C   UNL     1     -15.927 -12.392   2.393  1.00  0.00     0.016 A 
ATOM      6  C   UNL     1     -16.353 -11.069   2.605  1.00  0.00     0.074 A 
ENDROOT
BRANCH   1   7
ATOM      7  C   UNL     1     -16.328  -8.636   1.832  1.00  0.00     0.338 C 
ATOM      8  O   UNL     1     -15.561  -7.924   2.536  1.00  0.00    -0.246 OA
BRANCH   7   9
ATOM      9  O   UNL     1     -17.424  -8.058   1.183  1.00  0.00    -0.465 OA
ATOM     10  C   UNL     1     -18.556  -7.559   1.887  1.00  0.00     0.282 C 
ENDBRANCH   7   9
ENDBRANCH   1   7
BRANCH   6  11
ATOM     11  C   UNL     1     -17.170 -10.791   3.810  1.00  0.00     0.338 C 
ATOM     12  O   UNL     1     -16.621 -10.679   4.940  1.00  0.00    -0.246 OA
BRANCH  11  13
ATOM     13  O   UNL     1     -18.549 -10.598   3.677  1.00  0.00    -0.465 OA
ATOM     14  C   UNL     1     -19.351 -11.370   2.792  1.00  0.00     0.282 C 
ENDBRANCH  11  13
ENDBRANCH   6  11
TORSDOF 4
ENDMDL
MODEL 2
REMARK VINA RESULT:    -4.589      0.064      3.061
REMARK INTER + INTRA:          -6.071
REMARK INTER:                  -5.668
REMARK INTRA:                  -0.403
REMARK UNBOUND:                -0.409
REMARK SMILES COC(=O)c1ccccc1C(=O)OC
REMARK SMILES IDX 5 1 6 2 7 3 8 4 9 5 10 6 3 7 4 8 2 9 1 10 11 11 12 12 13 13
REMARK SMILES IDX 14 14
REMARK H PARENT
REMARK Flexibility Score: inf
ROOT
ATOM      1  C   UNL     1     -16.304 -11.092   2.625  1.00  0.00     0.074 A 
ATOM      2  C   UNL     1     -15.885 -12.418   2.412  1.00  0.00     0.016 A 
ATOM      3  C   UNL     1     -15.211 -12.775   1.243  1.00  0.00     0.001 A 
ATOM      4  C   UNL     1     -14.946 -11.815   0.269  1.00  0.00     0.001 A 
ATOM      5  C   UNL     1     -15.332 -10.489   0.470  1.00  0.00     0.016 A 
ATOM      6  C   UNL     1     -15.992 -10.103   1.651  1.00  0.00     0.074 A 
ENDROOT
BRANCH   1   7
ATOM      7  C   UNL     1     -17.112 -10.808   3.833  1.00  0.00     0.338 C 
ATOM      8  O   UNL     1     -16.556 -10.685   4.958  1.00  0.00    -0.246 OA
BRANCH   7   9
ATOM      9  O   UNL     1     -18.493 -10.618   3.708  1.00  0.00    -0.465 OA
ATOM     10  C   UNL     1     -19.303 -11.416   2.853  1.00  0.00     0.282 C 
ENDBRANCH   7   9
ENDBRANCH   1   7
BRANCH   6  11
ATOM     11  C   UNL     1     -16.270  -8.661   1.846  1.00  0.00     0.338 C 
ATOM     12  O   UNL     1     -15.510  -7.958   2.568  1.00  0.00    -0.246 OA
BRANCH  11  13
ATOM     13  O   UNL     1     -17.349  -8.071   1.181  1.00  0.00    -0.465 OA
ATOM     14  C   UNL     1     -18.504  -7.595   1.862  1.00  0.00     0.282 C 
ENDBRANCH  11  13
ENDBRANCH   6  11
TORSDOF 4
ENDMDL
MODEL 3
REMARK VINA RESULT:    -4.573      0.791      1.617
REMARK INTER + INTRA:          -6.052
REMARK INTER:                  -5.736
REMARK INTRA:                  -0.315
REMARK UNBOUND:                -0.409
REMARK SMILES COC(=O)c1ccccc1C(=O)OC
REMARK SMILES IDX 5 1 6 2 7 3 8 4 9 5 10 6 3 7 4 8 2 9 1 10 11 11 12 12 13 13
REMARK SMILES IDX 14 14
REMARK H PARENT
REMARK Flexibility Score: inf
ROOT
ATOM      1  C   UNL     1     -16.020 -10.034   1.690  1.00  0.00     0.074 A 
ATOM      2  C   UNL     1     -15.324 -10.401   0.524  1.00  0.00     0.016 A 
ATOM      3  C   UNL     1     -15.006 -11.736   0.273  1.00  0.00     0.001 A 
ATOM      4  C   UNL     1     -15.378 -12.725   1.181  1.00  0.00     0.001 A 
ATOM      5  C   UNL     1     -16.089 -12.386   2.332  1.00  0.00     0.016 A 
ATOM      6  C   UNL     1     -16.440 -11.050   2.594  1.00  0.00     0.074 A 
ENDROOT
BRANCH   1   7
ATOM      7  C   UNL     1     -16.224  -8.590   1.949  1.00  0.00     0.338 C 
ATOM      8  O   UNL     1     -15.416  -7.953   2.679  1.00  0.00    -0.246 OA
BRANCH   7   9
ATOM      9  O   UNL     1     -17.287  -7.923   1.330  1.00  0.00    -0.465 OA
ATOM     10  C   UNL     1     -18.278  -8.601   0.567  1.00  0.00     0.282 C 
ENDBRANCH   7   9
ENDBRANCH   1   7
BRANCH   6  11
ATOM     11  C   UNL     1     -17.292 -10.778   3.775  1.00  0.00     0.338 C 
ATOM     12  O   UNL     1     -18.519 -10.523   3.629  1.00  0.00    -0.246 OA
BRANCH  11  13
ATOM     13  O   UNL     1     -16.740 -10.861   5.057  1.00  0.00    -0.465 OA
ATOM     14  C   UNL     1     -15.378 -10.552   5.328  1.00  0.00     0.282 C 
ENDBRANCH  11  13
ENDBRANCH   6  11
TORSDOF 4
ENDMDL
MODEL 4
REMARK VINA RESULT:    -4.505      1.486      2.760
REMARK INTER + INTRA:          -5.968
REMARK INTER:                  -5.555
REMARK INTRA:                  -0.413
REMARK UNBOUND:                -0.409
REMARK SMILES COC(=O)c1ccccc1C(=O)OC
REMARK SMILES IDX 5 1 6 2 7 3 8 4 9 5 10 6 3 7 4 8 2 9 1 10 11 11 12 12 13 13
REMARK SMILES IDX 14 14
REMARK H PARENT
REMARK Flexibility Score: inf
ROOT
ATOM      1  C   UNL     1     -17.212  -9.766   1.259  1.00  0.00     0.074 A 
ATOM      2  C   UNL     1     -17.735  -9.923  -0.038  1.00  0.00     0.016 A 
ATOM      3  C   UNL     1     -16.957 -10.467  -1.061  1.00  0.00     0.001 A 
ATOM      4  C   UNL     1     -15.646 -10.861  -0.806  1.00  0.00     0.001 A 
ATOM      5  C   UNL     1     -15.114 -10.735   0.478  1.00  0.00     0.016 A 
ATOM      6  C   UNL     1     -15.887 -10.212   1.529  1.00  0.00     0.074 A 
ENDROOT
BRANCH   1   7
ATOM      7  C   UNL     1     -18.053  -9.079   2.266  1.00  0.00     0.338 C 
ATOM      8  O   UNL     1     -18.210  -7.828   2.219  1.00  0.00    -0.246 OA
BRANCH   7   9
ATOM      9  O   UNL     1     -18.719  -9.834   3.237  1.00  0.00    -0.465 OA
ATOM     10  C   UNL     1     -19.171 -11.162   2.999  1.00  0.00     0.282 C 
ENDBRANCH   7   9
ENDBRANCH   1   7
BRANCH   6  11
ATOM     11  C   UNL     1     -15.298 -10.213   2.888  1.00  0.00     0.338 C 
ATOM     12  O   UNL     1     -14.464  -9.327   3.221  1.00  0.00    -0.246 OA
BRANCH  11  13
ATOM     13  O   UNL     1     -15.714 -11.171   3.819  1.00  0.00    -0.465 OA
ATOM     14  C   UNL     1     -15.913 -10.868   5.194  1.00  0.00     0.282 C 
ENDBRANCH  11  13
ENDBRANCH   6  11
TORSDOF 4
ENDMDL
MODEL 5
REMARK VINA RESULT:    -4.493      1.484      2.898
REMARK INTER + INTRA:          -5.953
REMARK INTER:                  -5.554
REMARK INTRA:                  -0.400
REMARK UNBOUND:                -0.409
REMARK SMILES COC(=O)c1ccccc1C(=O)OC
REMARK SMILES IDX 5 1 6 2 7 3 8 4 9 5 10 6 3 7 4 8 2 9 1 10 11 11 12 12 13 13
REMARK SMILES IDX 14 14
REMARK H PARENT
REMARK Flexibility Score: inf
ROOT
ATOM      1  C   UNL     1     -15.941 -10.161   1.623  1.00  0.00     0.074 A 
ATOM      2  C   UNL     1     -15.117 -10.649   0.592  1.00  0.00     0.016 A 
ATOM      3  C   UNL     1     -15.600 -10.767  -0.712  1.00  0.00     0.001 A 
ATOM      4  C   UNL     1     -16.911 -10.401  -1.007  1.00  0.00     0.001 A 
ATOM      5  C   UNL     1     -17.738  -9.894  -0.005  1.00  0.00     0.016 A 
ATOM      6  C   UNL     1     -17.266  -9.744   1.311  1.00  0.00     0.074 A 
ENDROOT
BRANCH   1   7
ATOM      7  C   UNL     1     -15.402 -10.170   3.002  1.00  0.00     0.338 C 
ATOM      8  O   UNL     1     -14.607  -9.266   3.382  1.00  0.00    -0.246 OA
BRANCH   7   9
ATOM      9  O   UNL     1     -15.825 -11.155   3.900  1.00  0.00    -0.465 OA
ATOM     10  C   UNL     1     -15.961 -10.914   5.296  1.00  0.00     0.282 C 
ENDBRANCH   7   9
ENDBRANCH   1   7
BRANCH   6  11
ATOM     11  C   UNL     1     -18.160  -9.094   2.297  1.00  0.00     0.338 C 
ATOM     12  O   UNL     1     -18.341  -7.846   2.265  1.00  0.00    -0.246 OA
BRANCH  11  13
ATOM     13  O   UNL     1     -18.846  -9.880   3.228  1.00  0.00    -0.465 OA
ATOM     14  C   UNL     1     -19.245 -11.218   2.958  1.00  0.00     0.282 C 
ENDBRANCH  11  13
ENDBRANCH   6  11
TORSDOF 4
ENDMDL
MODEL 6
REMARK VINA RESULT:    -4.493      2.092      3.971
REMARK INTER + INTRA:          -5.953
REMARK INTER:                  -5.556
REMARK INTRA:                  -0.396
REMARK UNBOUND:                -0.409
REMARK SMILES COC(=O)c1ccccc1C(=O)OC
REMARK SMILES IDX 5 1 6 2 7 3 8 4 9 5 10 6 3 7 4 8 2 9 1 10 11 11 12 12 13 13
REMARK SMILES IDX 14 14
REMARK H PARENT
REMARK Flexibility Score: inf
ROOT
ATOM      1  C   UNL     1     -17.063 -11.131   3.089  1.00  0.00     0.074 A 
ATOM      2  C   UNL     1     -18.344 -10.607   3.336  1.00  0.00     0.016 A 
ATOM      3  C   UNL     1     -19.485 -11.259   2.867  1.00  0.00     0.001 A 
ATOM      4  C   UNL     1     -19.365 -12.444   2.144  1.00  0.00     0.001 A 
ATOM      5  C   UNL     1     -18.105 -12.994   1.907  1.00  0.00     0.016 A 
ATOM      6  C   UNL     1     -16.943 -12.366   2.390  1.00  0.00     0.074 A 
ENDROOT
BRANCH   1   7
ATOM      7  C   UNL     1     -15.893 -10.330   3.515  1.00  0.00     0.338 C 
ATOM      8  O   UNL     1     -15.310  -9.566   2.697  1.00  0.00    -0.246 OA
BRANCH   7   9
ATOM      9  O   UNL     1     -15.473 -10.381   4.848  1.00  0.00    -0.465 OA
ATOM     10  C   UNL     1     -15.615 -11.545   5.654  1.00  0.00     0.282 C 
ENDBRANCH   7   9
ENDBRANCH   1   7
BRANCH   6  11
ATOM     11  C   UNL     1     -15.650 -13.064   2.200  1.00  0.00     0.338 C 
ATOM     12  O   UNL     1     -15.352 -14.057   2.918  1.00  0.00    -0.246 OA
BRANCH  11  13
ATOM     13  O   UNL     1     -14.787 -12.649   1.181  1.00  0.00    -0.465 OA
ATOM     14  C   UNL     1     -15.238 -11.941   0.032  1.00  0.00     0.282 C 
ENDBRANCH  11  13
ENDBRANCH   6  11
TORSDOF 4
ENDMDL
MODEL 7
REMARK VINA RESULT:    -4.450      2.049      4.180
REMARK INTER + INTRA:          -5.900
REMARK INTER:                  -5.531
REMARK INTRA:                  -0.369
REMARK UNBOUND:                -0.409
REMARK SMILES COC(=O)c1ccccc1C(=O)OC
REMARK SMILES IDX 5 1 6 2 7 3 8 4 9 5 10 6 3 7 4 8 2 9 1 10 11 11 12 12 13 13
REMARK SMILES IDX 14 14
REMARK H PARENT
REMARK Flexibility Score: inf
ROOT
ATOM      1  C   UNL     1     -16.908 -12.148   2.421  1.00  0.00     0.074 A 
ATOM      2  C   UNL     1     -18.134 -12.707   2.015  1.00  0.00     0.016 A 
ATOM      3  C   UNL     1     -19.333 -12.027   2.229  1.00  0.00     0.001 A 
ATOM      4  C   UNL     1     -19.329 -10.781   2.851  1.00  0.00     0.001 A 
ATOM      5  C   UNL     1     -18.123 -10.198   3.241  1.00  0.00     0.016 A 
ATOM      6  C   UNL     1     -16.900 -10.855   3.014  1.00  0.00     0.074 A 
ENDROOT
BRANCH   1   7
ATOM      7  C   UNL     1     -15.687 -12.973   2.267  1.00  0.00     0.338 C 
ATOM      8  O   UNL     1     -15.452 -13.920   3.066  1.00  0.00    -0.246 OA
BRANCH   7   9
ATOM      9  O   UNL     1     -14.824 -12.730   1.193  1.00  0.00    -0.465 OA
ATOM     10  C   UNL     1     -15.234 -12.033   0.022  1.00  0.00     0.282 C 
ENDBRANCH   7   9
ENDBRANCH   1   7
BRANCH   6  11
ATOM     11  C   UNL     1     -15.653 -10.128   3.350  1.00  0.00     0.338 C 
ATOM     12  O   UNL     1     -15.016  -9.509   2.454  1.00  0.00    -0.246 OA
BRANCH  11  13
ATOM     13  O   UNL     1     -15.216 -10.087   4.678  1.00  0.00    -0.465 OA
ATOM     14  C   UNL     1     -15.527 -11.106   5.620  1.00  0.00     0.282 C 
ENDBRANCH  11  13
ENDBRANCH   6  11
TORSDOF 4
ENDMDL
MODEL 8
REMARK VINA RESULT:    -4.228      1.951      2.912
REMARK INTER + INTRA:          -5.626
REMARK INTER:                  -5.288
REMARK INTRA:                  -0.339
REMARK UNBOUND:                -0.409
REMARK SMILES COC(=O)c1ccccc1C(=O)OC
REMARK SMILES IDX 5 1 6 2 7 3 8 4 9 5 10 6 3 7 4 8 2 9 1 10 11 11 12 12 13 13
REMARK SMILES IDX 14 14
REMARK H PARENT
REMARK Flexibility Score: inf
ROOT
ATOM      1  C   UNL     1     -16.399  -9.973   1.965  1.00  0.00     0.074 A 
ATOM      2  C   UNL     1     -15.284  -9.215   2.367  1.00  0.00     0.016 A 
ATOM      3  C   UNL     1     -14.736  -9.370   3.640  1.00  0.00     0.001 A 
ATOM      4  C   UNL     1     -15.291 -10.283   4.533  1.00  0.00     0.001 A 
ATOM      5  C   UNL     1     -16.383 -11.063   4.148  1.00  0.00     0.016 A 
ATOM      6  C   UNL     1     -16.937 -10.939   2.862  1.00  0.00     0.074 A 
ENDROOT
BRANCH   1   7
ATOM      7  C   UNL     1     -16.998  -9.677   0.644  1.00  0.00     0.338 C 
ATOM      8  O   UNL     1     -17.732  -8.662   0.490  1.00  0.00    -0.246 OA
BRANCH   7   9
ATOM      9  O   UNL     1     -16.699 -10.499  -0.448  1.00  0.00    -0.465 OA
ATOM     10  C   UNL     1     -15.370 -10.888  -0.773  1.00  0.00     0.282 C 
ENDBRANCH   7   9
ENDBRANCH   1   7
BRANCH   6  11
ATOM     11  C   UNL     1     -18.019 -11.877   2.483  1.00  0.00     0.338 C 
ATOM     12  O   UNL     1     -17.750 -12.948   1.873  1.00  0.00    -0.246 OA
BRANCH  11  13
ATOM     13  O   UNL     1     -19.337 -11.594   2.856  1.00  0.00    -0.465 OA
ATOM     14  C   UNL     1     -20.395 -11.480   1.911  1.00  0.00     0.282 C 
ENDBRANCH  11  13
ENDBRANCH   6  11
TORSDOF 4
ENDMDL
MODEL 9
REMARK VINA RESULT:    -4.226      2.057      4.350
REMARK INTER + INTRA:          -5.623
REMARK INTER:                  -5.224
REMARK INTRA:                  -0.400
REMARK UNBOUND:                -0.409
REMARK SMILES COC(=O)c1ccccc1C(=O)OC
REMARK SMILES IDX 5 1 6 2 7 3 8 4 9 5 10 6 3 7 4 8 2 9 1 10 11 11 12 12 13 13
REMARK SMILES IDX 14 14
REMARK H PARENT
REMARK Flexibility Score: inf
ROOT
ATOM      1  C   UNL     1     -16.834 -11.056   2.646  1.00  0.00     0.074 A 
ATOM      2  C   UNL     1     -16.461 -11.087   4.002  1.00  0.00     0.016 A 
ATOM      3  C   UNL     1     -15.406 -10.304   4.471  1.00  0.00     0.001 A 
ATOM      4  C   UNL     1     -14.706  -9.478   3.594  1.00  0.00     0.001 A 
ATOM      5  C   UNL     1     -15.073  -9.414   2.250  1.00  0.00     0.016 A 
ATOM      6  C   UNL     1     -16.148 -10.177   1.760  1.00  0.00     0.074 A 
ENDROOT
BRANCH   1   7
ATOM      7  C   UNL     1     -17.885 -11.996   2.195  1.00  0.00     0.338 C 
ATOM      8  O   UNL     1     -19.094 -11.788   2.489  1.00  0.00    -0.246 OA
BRANCH   7   9
ATOM      9  O   UNL     1     -17.535 -13.086   1.391  1.00  0.00    -0.465 OA
ATOM     10  C   UNL     1     -18.190 -13.373   0.161  1.00  0.00     0.282 C 
ENDBRANCH   7   9
ENDBRANCH   1   7
BRANCH   6  11
ATOM     11  C   UNL     1     -16.554  -9.974   0.350  1.00  0.00     0.338 C 
ATOM     12  O   UNL     1     -17.599  -9.322   0.076  1.00  0.00    -0.246 OA
BRANCH  11  13
ATOM     13  O   UNL     1     -15.741 -10.461  -0.678  1.00  0.00    -0.465 OA
ATOM     14  C   UNL     1     -14.969 -11.649  -0.549  1.00  0.00     0.282 C 
ENDBRANCH  11  13
ENDBRANCH   6  11
TORSDOF 4
ENDMDL
