MODEL 1
REMARK VINA RESULT:    -2.884      0.000      0.000
REMARK INTER + INTRA:          -7.247
REMARK INTER:                  -6.255
REMARK INTRA:                  -0.992
REMARK UNBOUND:                -0.992
REMARK SMILES CCCCCCCCCCCCCCCCCCCCCC(=O)[O-]
REMARK SMILES IDX 12 1 11 2 10 3 9 4 8 5 7 6 6 7 5 8 4 9 3 10 2 11 1 12 13 13
REMARK SMILES IDX 14 14 15 15 16 16 17 17 18 18 19 19 20 20 21 21 22 22 23 23
REMARK SMILES IDX 24 24
REMARK H PARENT
REMARK Flexibility Score: inf
ROOT
ATOM      1  C   UNL     1      23.485  22.849 -10.962  1.00  0.00     0.000 C 
ENDROOT
BRANCH   1   2
ATOM      2  C   UNL     1      24.798  22.237 -10.456  1.00  0.00     0.000 C 
BRANCH   2   3
ATOM      3  C   UNL     1      26.046  22.916 -11.049  1.00  0.00     0.000 C 
BRANCH   3   4
ATOM      4  C   UNL     1      27.359  22.151 -10.778  1.00  0.00    -0.000 C 
BRANCH   4   5
ATOM      5  C   UNL     1      28.566  23.096 -10.642  1.00  0.00    -0.000 C 
BRANCH   5   6
ATOM      6  C   UNL     1      28.190  24.576 -10.838  1.00  0.00    -0.000 C 
BRANCH   6   7
ATOM      7  C   UNL     1      28.461  25.472  -9.615  1.00  0.00    -0.000 C 
BRANCH   7   8
ATOM      8  C   UNL     1      28.111  26.946  -9.872  1.00  0.00    -0.000 C 
BRANCH   8   9
ATOM      9  C   UNL     1      28.094  27.745  -8.560  1.00  0.00    -0.000 C 
BRANCH   9  10
ATOM     10  C   UNL     1      28.026  29.266  -8.785  1.00  0.00    -0.000 C 
BRANCH  10  11
ATOM     11  C   UNL     1      27.120  29.709  -9.948  1.00  0.00    -0.003 C 
ATOM     12  C   UNL     1      27.877  30.456 -11.045  1.00  0.00     0.004 C 
ENDBRANCH  10  11
ENDBRANCH   9  10
ENDBRANCH   8   9
ENDBRANCH   7   8
ENDBRANCH   6   7
ENDBRANCH   5   6
ENDBRANCH   4   5
ENDBRANCH   3   4
ENDBRANCH   2   3
ENDBRANCH   1   2
BRANCH   1  13
ATOM     13  C   UNL     1      22.472  23.122  -9.835  1.00  0.00     0.000 C 
BRANCH  13  14
ATOM     14  C   UNL     1      21.471  21.970  -9.598  1.00  0.00     0.000 C 
BRANCH  14  15
ATOM     15  C   UNL     1      21.333  21.051 -10.825  1.00  0.00     0.000 C 
BRANCH  15  16
ATOM     16  C   UNL     1      22.119  19.735 -10.666  1.00  0.00     0.000 C 
BRANCH  16  17
ATOM     17  C   UNL     1      21.336  18.479 -11.093  1.00  0.00     0.000 C 
BRANCH  17  18
ATOM     18  C   UNL     1      19.815  18.661 -10.952  1.00  0.00     0.000 C 
BRANCH  18  19
ATOM     19  C   UNL     1      19.045  17.341 -11.125  1.00  0.00     0.000 C 
BRANCH  19  20
ATOM     20  C   UNL     1      17.535  17.500 -10.873  1.00  0.00     0.006 C 
BRANCH  20  21
ATOM     21  C   UNL     1      17.145  18.960 -10.606  1.00  0.00     0.053 C 
BRANCH  21  22
ATOM     22  C   UNL     1      15.714  19.085 -10.186  1.00  0.00     0.041 C 
ATOM     23  O   UNL     1      15.341  18.632  -9.072  1.00  0.00    -0.550 OA
ATOM     24  O   UNL     1      14.789  19.683 -11.031  1.00  0.00    -0.550 OA
ENDBRANCH  21  22
ENDBRANCH  20  21
ENDBRANCH  19  20
ENDBRANCH  18  19
ENDBRANCH  17  18
ENDBRANCH  16  17
ENDBRANCH  15  16
ENDBRANCH  14  15
ENDBRANCH  13  14
ENDBRANCH   1  13
TORSDOF 20
ENDMDL
MODEL 2
REMARK VINA RESULT:    -1.948     13.221     17.484
REMARK INTER + INTRA:          -5.217
REMARK INTER:                  -4.552
REMARK INTRA:                  -0.666
REMARK UNBOUND:                -0.992
REMARK SMILES CCCCCCCCCCCCCCCCCCCCCC(=O)[O-]
REMARK SMILES IDX 12 1 11 2 10 3 9 4 8 5 7 6 6 7 5 8 4 9 3 10 2 11 1 12 13 13
REMARK SMILES IDX 14 14 15 15 16 16 17 17 18 18 19 19 20 20 21 21 22 22 23 23
REMARK SMILES IDX 24 24
REMARK H PARENT
REMARK Flexibility Score: inf
ROOT
ATOM      1  C   UNL     1      27.736  25.445   0.766  1.00  0.00     0.000 C 
ENDROOT
BRANCH   1   2
ATOM      2  C   UNL     1      27.702  24.321  -0.278  1.00  0.00     0.000 C 
BRANCH   2   3
ATOM      3  C   UNL     1      26.396  24.297  -1.094  1.00  0.00     0.000 C 
BRANCH   3   4
ATOM      4  C   UNL     1      26.617  24.246  -2.621  1.00  0.00    -0.000 C 
BRANCH   4   5
ATOM      5  C   UNL     1      27.084  22.858  -3.096  1.00  0.00    -0.000 C 
BRANCH   5   6
ATOM      6  C   UNL     1      28.568  22.590  -2.784  1.00  0.00    -0.000 C 
BRANCH   6   7
ATOM      7  C   UNL     1      28.901  21.118  -2.481  1.00  0.00    -0.000 C 
BRANCH   7   8
ATOM      8  C   UNL     1      27.800  20.154  -2.947  1.00  0.00    -0.000 C 
BRANCH   8   9
ATOM      9  C   UNL     1      28.229  18.691  -2.752  1.00  0.00    -0.000 C 
BRANCH   9  10
ATOM     10  C   UNL     1      28.567  18.356  -1.288  1.00  0.00    -0.000 C 
BRANCH  10  11
ATOM     11  C   UNL     1      28.206  16.925  -0.851  1.00  0.00    -0.003 C 
ATOM     12  C   UNL     1      27.257  16.886   0.346  1.00  0.00     0.004 C 
ENDBRANCH  10  11
ENDBRANCH   9  10
ENDBRANCH   8   9
ENDBRANCH   7   8
ENDBRANCH   6   7
ENDBRANCH   5   6
ENDBRANCH   4   5
ENDBRANCH   3   4
ENDBRANCH   2   3
ENDBRANCH   1   2
BRANCH   1  13
ATOM     13  C   UNL     1      29.108  26.136   0.864  1.00  0.00     0.000 C 
BRANCH  13  14
ATOM     14  C   UNL     1      29.030  27.675   0.959  1.00  0.00     0.000 C 
BRANCH  14  15
ATOM     15  C   UNL     1      29.071  28.177   2.414  1.00  0.00     0.000 C 
BRANCH  15  16
ATOM     16  C   UNL     1      29.039  29.714   2.507  1.00  0.00     0.000 C 
BRANCH  16  17
ATOM     17  C   UNL     1      28.424  30.251   3.814  1.00  0.00     0.000 C 
BRANCH  17  18
ATOM     18  C   UNL     1      29.125  29.695   5.064  1.00  0.00     0.000 C 
BRANCH  18  19
ATOM     19  C   UNL     1      28.175  29.569   6.266  1.00  0.00     0.000 C 
BRANCH  19  20
ATOM     20  C   UNL     1      28.661  30.364   7.491  1.00  0.00     0.006 C 
BRANCH  20  21
ATOM     21  C   UNL     1      29.012  31.815   7.135  1.00  0.00     0.053 C 
BRANCH  21  22
ATOM     22  C   UNL     1      28.373  32.788   8.076  1.00  0.00     0.041 C 
ATOM     23  O   UNL     1      27.724  32.372   9.071  1.00  0.00    -0.550 OA
ATOM     24  O   UNL     1      28.477  34.153   7.844  1.00  0.00    -0.550 OA
ENDBRANCH  21  22
ENDBRANCH  20  21
ENDBRANCH  19  20
ENDBRANCH  18  19
ENDBRANCH  17  18
ENDBRANCH  16  17
ENDBRANCH  15  16
ENDBRANCH  14  15
ENDBRANCH  13  14
ENDBRANCH   1  13
TORSDOF 20
ENDMDL
MODEL 3
REMARK VINA RESULT:    -1.636      9.966     12.848
REMARK INTER + INTRA:          -4.541
REMARK INTER:                  -3.498
REMARK INTRA:                  -1.043
REMARK UNBOUND:                -0.992
REMARK SMILES CCCCCCCCCCCCCCCCCCCCCC(=O)[O-]
REMARK SMILES IDX 12 1 11 2 10 3 9 4 8 5 7 6 6 7 5 8 4 9 3 10 2 11 1 12 13 13
REMARK SMILES IDX 14 14 15 15 16 16 17 17 18 18 19 19 20 20 21 21 22 22 23 23
REMARK SMILES IDX 24 24
REMARK H PARENT
REMARK Flexibility Score: inf
ROOT
ATOM      1  C   UNL     1      27.122  23.970  -2.055  1.00  0.00     0.000 C 
ENDROOT
BRANCH   1   2
ATOM      2  C   UNL     1      28.497  24.096  -1.385  1.00  0.00     0.000 C 
BRANCH   2   3
ATOM      3  C   UNL     1      28.577  25.268  -0.390  1.00  0.00     0.000 C 
BRANCH   3   4
ATOM      4  C   UNL     1      27.985  24.947   0.999  1.00  0.00    -0.000 C 
BRANCH   4   5
ATOM      5  C   UNL     1      28.963  25.278   2.140  1.00  0.00    -0.000 C 
BRANCH   5   6
ATOM      6  C   UNL     1      28.265  25.911   3.358  1.00  0.00    -0.000 C 
BRANCH   6   7
ATOM      7  C   UNL     1      29.065  27.036   4.039  1.00  0.00    -0.000 C 
BRANCH   7   8
ATOM      8  C   UNL     1      29.116  28.319   3.196  1.00  0.00    -0.000 C 
BRANCH   8   9
ATOM      9  C   UNL     1      28.235  29.418   3.810  1.00  0.00    -0.000 C 
BRANCH   9  10
ATOM     10  C   UNL     1      27.576  28.988   5.134  1.00  0.00    -0.000 C 
BRANCH  10  11
ATOM     11  C   UNL     1      28.228  29.569   6.401  1.00  0.00    -0.003 C 
ATOM     12  C   UNL     1      28.913  30.913   6.159  1.00  0.00     0.004 C 
ENDBRANCH  10  11
ENDBRANCH   9  10
ENDBRANCH   8   9
ENDBRANCH   7   8
ENDBRANCH   6   7
ENDBRANCH   5   6
ENDBRANCH   4   5
ENDBRANCH   3   4
ENDBRANCH   2   3
ENDBRANCH   1   2
BRANCH   1  13
ATOM     13  C   UNL     1      27.076  22.880  -3.140  1.00  0.00     0.000 C 
BRANCH  13  14
ATOM     14  C   UNL     1      28.287  21.922  -3.121  1.00  0.00     0.000 C 
BRANCH  14  15
ATOM     15  C   UNL     1      28.834  21.638  -4.532  1.00  0.00     0.000 C 
BRANCH  15  16
ATOM     16  C   UNL     1      29.114  22.930  -5.325  1.00  0.00     0.000 C 
BRANCH  16  17
ATOM     17  C   UNL     1      29.022  22.760  -6.853  1.00  0.00     0.000 C 
BRANCH  17  18
ATOM     18  C   UNL     1      29.122  24.101  -7.599  1.00  0.00     0.000 C 
BRANCH  18  19
ATOM     19  C   UNL     1      28.598  24.015  -9.042  1.00  0.00     0.000 C 
BRANCH  19  20
ATOM     20  C   UNL     1      28.138  25.379  -9.588  1.00  0.00     0.006 C 
BRANCH  20  21
ATOM     21  C   UNL     1      28.912  26.543  -8.956  1.00  0.00     0.053 C 
BRANCH  21  22
ATOM     22  C   UNL     1      28.543  27.855  -9.574  1.00  0.00     0.041 C 
ATOM     23  O   UNL     1      28.236  28.834  -8.845  1.00  0.00    -0.550 OA
ATOM     24  O   UNL     1      28.519  27.992 -10.956  1.00  0.00    -0.550 OA
ENDBRANCH  21  22
ENDBRANCH  20  21
ENDBRANCH  19  20
ENDBRANCH  18  19
ENDBRANCH  17  18
ENDBRANCH  16  17
ENDBRANCH  15  16
ENDBRANCH  14  15
ENDBRANCH  13  14
ENDBRANCH   1  13
TORSDOF 20
ENDMDL
MODEL 4
REMARK VINA RESULT:    -1.247      9.422     12.032
REMARK INTER + INTRA:          -3.698
REMARK INTER:                  -2.805
REMARK INTRA:                  -0.892
REMARK UNBOUND:                -0.992
REMARK SMILES CCCCCCCCCCCCCCCCCCCCCC(=O)[O-]
REMARK SMILES IDX 12 1 11 2 10 3 9 4 8 5 7 6 6 7 5 8 4 9 3 10 2 11 1 12 13 13
REMARK SMILES IDX 14 14 15 15 16 16 17 17 18 18 19 19 20 20 21 21 22 22 23 23
REMARK SMILES IDX 24 24
REMARK H PARENT
REMARK Flexibility Score: inf
ROOT
ATOM      1  C   UNL     1      26.849  23.996  -2.247  1.00  0.00     0.000 C 
ENDROOT
BRANCH   1   2
ATOM      2  C   UNL     1      28.074  24.353  -1.395  1.00  0.00     0.000 C 
BRANCH   2   3
ATOM      3  C   UNL     1      27.732  25.259  -0.199  1.00  0.00     0.000 C 
BRANCH   3   4
ATOM      4  C   UNL     1      28.470  24.876   1.103  1.00  0.00    -0.000 C 
BRANCH   4   5
ATOM      5  C   UNL     1      29.040  26.105   1.833  1.00  0.00    -0.000 C 
BRANCH   5   6
ATOM      6  C   UNL     1      28.938  25.988   3.365  1.00  0.00    -0.000 C 
BRANCH   6   7
ATOM      7  C   UNL     1      29.124  27.317   4.121  1.00  0.00    -0.000 C 
BRANCH   7   8
ATOM      8  C   UNL     1      28.614  28.527   3.325  1.00  0.00    -0.000 C 
BRANCH   8   9
ATOM      9  C   UNL     1      28.302  29.708   4.257  1.00  0.00    -0.000 C 
BRANCH   9  10
ATOM     10  C   UNL     1      27.911  29.263   5.678  1.00  0.00    -0.000 C 
BRANCH  10  11
ATOM     11  C   UNL     1      28.473  30.142   6.810  1.00  0.00    -0.003 C 
ATOM     12  C   UNL     1      28.802  29.352   8.075  1.00  0.00     0.004 C 
ENDBRANCH  10  11
ENDBRANCH   9  10
ENDBRANCH   8   9
ENDBRANCH   7   8
ENDBRANCH   6   7
ENDBRANCH   5   6
ENDBRANCH   4   5
ENDBRANCH   3   4
ENDBRANCH   2   3
ENDBRANCH   1   2
BRANCH   1  13
ATOM     13  C   UNL     1      27.176  23.037  -3.405  1.00  0.00     0.000 C 
BRANCH  13  14
ATOM     14  C   UNL     1      28.683  22.747  -3.575  1.00  0.00     0.000 C 
BRANCH  14  15
ATOM     15  C   UNL     1      29.063  22.455  -5.038  1.00  0.00     0.000 C 
BRANCH  15  16
ATOM     16  C   UNL     1      28.777  23.649  -5.969  1.00  0.00     0.000 C 
BRANCH  16  17
ATOM     17  C   UNL     1      29.120  23.388  -7.448  1.00  0.00     0.000 C 
BRANCH  17  18
ATOM     18  C   UNL     1      28.368  24.332  -8.400  1.00  0.00     0.000 C 
BRANCH  18  19
ATOM     19  C   UNL     1      28.431  23.866  -9.864  1.00  0.00     0.000 C 
BRANCH  19  20
ATOM     20  C   UNL     1      27.289  24.445 -10.719  1.00  0.00     0.006 C 
BRANCH  20  21
ATOM     21  C   UNL     1      26.184  23.412 -10.979  1.00  0.00     0.053 C 
BRANCH  21  22
ATOM     22  C   UNL     1      24.827  23.960 -10.662  1.00  0.00     0.041 C 
ATOM     23  O   UNL     1      23.921  23.196 -10.238  1.00  0.00    -0.550 OA
ATOM     24  O   UNL     1      24.557  25.308 -10.853  1.00  0.00    -0.550 OA
ENDBRANCH  21  22
ENDBRANCH  20  21
ENDBRANCH  19  20
ENDBRANCH  18  19
ENDBRANCH  17  18
ENDBRANCH  16  17
ENDBRANCH  15  16
ENDBRANCH  14  15
ENDBRANCH  13  14
ENDBRANCH   1  13
TORSDOF 20
ENDMDL
MODEL 5
REMARK VINA RESULT:    -0.702      1.463      2.056
REMARK INTER + INTRA:          -2.515
REMARK INTER:                  -1.923
REMARK INTRA:                  -0.592
REMARK UNBOUND:                -0.992
REMARK SMILES CCCCCCCCCCCCCCCCCCCCCC(=O)[O-]
REMARK SMILES IDX 12 1 11 2 10 3 9 4 8 5 7 6 6 7 5 8 4 9 3 10 2 11 1 12 13 13
REMARK SMILES IDX 14 14 15 15 16 16 17 17 18 18 19 19 20 20 21 21 22 22 23 23
REMARK SMILES IDX 24 24
REMARK H PARENT
REMARK Flexibility Score: inf
ROOT
ATOM      1  C   UNL     1      22.859  22.371 -11.125  1.00  0.00     0.000 C 
ENDROOT
BRANCH   1   2
ATOM      2  C   UNL     1      23.832  21.691 -10.153  1.00  0.00     0.000 C 
BRANCH   2   3
ATOM      3  C   UNL     1      25.308  22.008 -10.459  1.00  0.00     0.000 C 
BRANCH   3   4
ATOM      4  C   UNL     1      26.234  20.775 -10.399  1.00  0.00    -0.000 C 
BRANCH   4   5
ATOM      5  C   UNL     1      27.580  21.023 -11.103  1.00  0.00    -0.000 C 
BRANCH   5   6
ATOM      6  C   UNL     1      28.017  22.498 -11.052  1.00  0.00    -0.000 C 
BRANCH   6   7
ATOM      7  C   UNL     1      28.066  23.101  -9.635  1.00  0.00    -0.000 C 
BRANCH   7   8
ATOM      8  C   UNL     1      27.926  24.631  -9.638  1.00  0.00    -0.000 C 
BRANCH   8   9
ATOM      9  C   UNL     1      28.959  25.280  -8.704  1.00  0.00    -0.000 C 
BRANCH   9  10
ATOM     10  C   UNL     1      29.078  26.802  -8.908  1.00  0.00    -0.000 C 
BRANCH  10  11
ATOM     11  C   UNL     1      28.854  27.645  -7.640  1.00  0.00    -0.003 C 
ATOM     12  C   UNL     1      28.747  29.142  -7.927  1.00  0.00     0.004 C 
ENDBRANCH  10  11
ENDBRANCH   9  10
ENDBRANCH   8   9
ENDBRANCH   7   8
ENDBRANCH   6   7
ENDBRANCH   5   6
ENDBRANCH   4   5
ENDBRANCH   3   4
ENDBRANCH   2   3
ENDBRANCH   1   2
BRANCH   1  13
ATOM     13  C   UNL     1      21.541  22.802 -10.457  1.00  0.00     0.000 C 
BRANCH  13  14
ATOM     14  C   UNL     1      20.665  21.625  -9.978  1.00  0.00     0.000 C 
BRANCH  14  15
ATOM     15  C   UNL     1      20.516  20.530 -11.051  1.00  0.00     0.000 C 
BRANCH  15  16
ATOM     16  C   UNL     1      21.096  19.177 -10.594  1.00  0.00     0.000 C 
BRANCH  16  17
ATOM     17  C   UNL     1      20.126  17.992 -10.758  1.00  0.00     0.000 C 
BRANCH  17  18
ATOM     18  C   UNL     1      18.702  18.445 -11.120  1.00  0.00     0.000 C 
BRANCH  18  19
ATOM     19  C   UNL     1      17.624  17.490 -10.581  1.00  0.00     0.000 C 
BRANCH  19  20
ATOM     20  C   UNL     1      16.199  17.926 -10.968  1.00  0.00     0.006 C 
BRANCH  20  21
ATOM     21  C   UNL     1      15.607  18.920  -9.960  1.00  0.00     0.053 C 
BRANCH  21  22
ATOM     22  C   UNL     1      14.703  18.242  -8.977  1.00  0.00     0.041 C 
ATOM     23  O   UNL     1      13.733  18.867  -8.475  1.00  0.00    -0.550 OA
ATOM     24  O   UNL     1      14.944  16.927  -8.601  1.00  0.00    -0.550 OA
ENDBRANCH  21  22
ENDBRANCH  20  21
ENDBRANCH  19  20
ENDBRANCH  18  19
ENDBRANCH  17  18
ENDBRANCH  16  17
ENDBRANCH  15  16
ENDBRANCH  14  15
ENDBRANCH  13  14
ENDBRANCH   1  13
TORSDOF 20
ENDMDL
MODEL 6
REMARK VINA RESULT:    -0.570      8.276     10.855
REMARK INTER + INTRA:          -2.228
REMARK INTER:                  -1.168
REMARK INTRA:                  -1.059
REMARK UNBOUND:                -0.992
REMARK SMILES CCCCCCCCCCCCCCCCCCCCCC(=O)[O-]
REMARK SMILES IDX 12 1 11 2 10 3 9 4 8 5 7 6 6 7 5 8 4 9 3 10 2 11 1 12 13 13
REMARK SMILES IDX 14 14 15 15 16 16 17 17 18 18 19 19 20 20 21 21 22 22 23 23
REMARK SMILES IDX 24 24
REMARK H PARENT
REMARK Flexibility Score: inf
ROOT
ATOM      1  C   UNL     1      27.134  22.563  -3.132  1.00  0.00     0.000 C 
ENDROOT
BRANCH   1   2
ATOM      2  C   UNL     1      27.084  23.896  -2.374  1.00  0.00     0.000 C 
BRANCH   2   3
ATOM      3  C   UNL     1      28.100  23.971  -1.220  1.00  0.00     0.000 C 
BRANCH   3   4
ATOM      4  C   UNL     1      28.962  25.251  -1.232  1.00  0.00    -0.000 C 
BRANCH   4   5
ATOM      5  C   UNL     1      28.329  26.388  -0.410  1.00  0.00    -0.000 C 
BRANCH   5   6
ATOM      6  C   UNL     1      29.125  26.715   0.867  1.00  0.00    -0.000 C 
BRANCH   6   7
ATOM      7  C   UNL     1      29.011  25.656   1.979  1.00  0.00    -0.000 C 
BRANCH   7   8
ATOM      8  C   UNL     1      28.311  26.192   3.237  1.00  0.00    -0.000 C 
BRANCH   8   9
ATOM      9  C   UNL     1      29.116  27.339   3.869  1.00  0.00    -0.000 C 
BRANCH   9  10
ATOM     10  C   UNL     1      28.303  28.640   4.000  1.00  0.00    -0.000 C 
BRANCH  10  11
ATOM     11  C   UNL     1      27.902  29.012   5.439  1.00  0.00    -0.003 C 
ATOM     12  C   UNL     1      28.982  29.803   6.176  1.00  0.00     0.004 C 
ENDBRANCH  10  11
ENDBRANCH   9  10
ENDBRANCH   8   9
ENDBRANCH   7   8
ENDBRANCH   6   7
ENDBRANCH   5   6
ENDBRANCH   4   5
ENDBRANCH   3   4
ENDBRANCH   2   3
ENDBRANCH   1   2
BRANCH   1  13
ATOM     13  C   UNL     1      28.334  22.456  -4.090  1.00  0.00     0.000 C 
BRANCH  13  14
ATOM     14  C   UNL     1      28.611  23.744  -4.895  1.00  0.00     0.000 C 
BRANCH  14  15
ATOM     15  C   UNL     1      28.740  23.475  -6.406  1.00  0.00     0.000 C 
BRANCH  15  16
ATOM     16  C   UNL     1      29.094  24.746  -7.201  1.00  0.00     0.000 C 
BRANCH  16  17
ATOM     17  C   UNL     1      28.489  24.789  -8.618  1.00  0.00     0.000 C 
BRANCH  17  18
ATOM     18  C   UNL     1      28.115  23.391  -9.138  1.00  0.00     0.000 C 
BRANCH  18  19
ATOM     19  C   UNL     1      27.785  23.389 -10.640  1.00  0.00     0.000 C 
BRANCH  19  20
ATOM     20  C   UNL     1      26.573  22.502 -10.979  1.00  0.00     0.006 C 
BRANCH  20  21
ATOM     21  C   UNL     1      25.246  23.256 -10.821  1.00  0.00     0.053 C 
BRANCH  21  22
ATOM     22  C   UNL     1      24.116  22.328 -10.501  1.00  0.00     0.041 C 
ATOM     23  O   UNL     1      23.236  22.668  -9.668  1.00  0.00    -0.550 OA
ATOM     24  O   UNL     1      24.045  21.081 -11.108  1.00  0.00    -0.550 OA
ENDBRANCH  21  22
ENDBRANCH  20  21
ENDBRANCH  19  20
ENDBRANCH  18  19
ENDBRANCH  17  18
ENDBRANCH  16  17
ENDBRANCH  15  16
ENDBRANCH  14  15
ENDBRANCH  13  14
ENDBRANCH   1  13
TORSDOF 20
ENDMDL
MODEL 7
REMARK VINA RESULT:    -0.194     12.167     14.704
REMARK INTER + INTRA:          -1.413
REMARK INTER:                  -0.475
REMARK INTRA:                  -0.938
REMARK UNBOUND:                -0.992
REMARK SMILES CCCCCCCCCCCCCCCCCCCCCC(=O)[O-]
REMARK SMILES IDX 12 1 11 2 10 3 9 4 8 5 7 6 6 7 5 8 4 9 3 10 2 11 1 12 13 13
REMARK SMILES IDX 14 14 15 15 16 16 17 17 18 18 19 19 20 20 21 21 22 22 23 23
REMARK SMILES IDX 24 24
REMARK H PARENT
REMARK Flexibility Score: inf
ROOT
ATOM      1  C   UNL     1      28.113  25.071   1.026  1.00  0.00     0.000 C 
ENDROOT
BRANCH   1   2
ATOM      2  C   UNL     1      29.070  25.035   2.225  1.00  0.00     0.000 C 
BRANCH   2   3
ATOM      3  C   UNL     1      28.466  25.659   3.496  1.00  0.00     0.000 C 
BRANCH   3   4
ATOM      4  C   UNL     1      27.565  26.882   3.221  1.00  0.00    -0.000 C 
BRANCH   4   5
ATOM      5  C   UNL     1      28.379  28.171   3.013  1.00  0.00    -0.000 C 
BRANCH   5   6
ATOM      6  C   UNL     1      29.124  28.616   4.285  1.00  0.00    -0.000 C 
BRANCH   6   7
ATOM      7  C   UNL     1      28.208  29.049   5.444  1.00  0.00    -0.000 C 
BRANCH   7   8
ATOM      8  C   UNL     1      28.838  28.798   6.823  1.00  0.00    -0.000 C 
BRANCH   8   9
ATOM      9  C   UNL     1      27.934  29.329   7.946  1.00  0.00    -0.000 C 
BRANCH   9  10
ATOM     10  C   UNL     1      28.554  30.517   8.704  1.00  0.00    -0.000 C 
BRANCH  10  11
ATOM     11  C   UNL     1      28.602  31.836   7.913  1.00  0.00    -0.003 C 
ATOM     12  C   UNL     1      29.042  33.028   8.762  1.00  0.00     0.004 C 
ENDBRANCH  10  11
ENDBRANCH   9  10
ENDBRANCH   8   9
ENDBRANCH   7   8
ENDBRANCH   6   7
ENDBRANCH   5   6
ENDBRANCH   4   5
ENDBRANCH   3   4
ENDBRANCH   2   3
ENDBRANCH   1   2
BRANCH   1  13
ATOM     13  C   UNL     1      28.537  26.081  -0.055  1.00  0.00     0.000 C 
BRANCH  13  14
ATOM     14  C   UNL     1      28.665  25.472  -1.468  1.00  0.00     0.000 C 
BRANCH  14  15
ATOM     15  C   UNL     1      29.045  23.980  -1.432  1.00  0.00     0.000 C 
BRANCH  15  16
ATOM     16  C   UNL     1      27.845  23.060  -1.726  1.00  0.00     0.000 C 
BRANCH  16  17
ATOM     17  C   UNL     1      27.274  23.210  -3.150  1.00  0.00     0.000 C 
BRANCH  17  18
ATOM     18  C   UNL     1      27.754  22.095  -4.094  1.00  0.00     0.000 C 
BRANCH  18  19
ATOM     19  C   UNL     1      29.097  21.489  -3.655  1.00  0.00     0.000 C 
BRANCH  19  20
ATOM     20  C   UNL     1      28.987  19.992  -3.311  1.00  0.00     0.006 C 
BRANCH  20  21
ATOM     21  C   UNL     1      28.034  19.741  -2.135  1.00  0.00     0.053 C 
BRANCH  21  22
ATOM     22  C   UNL     1      28.227  18.379  -1.544  1.00  0.00     0.041 C 
ATOM     23  O   UNL     1      29.101  17.604  -2.015  1.00  0.00    -0.550 OA
ATOM     24  O   UNL     1      27.431  17.957  -0.488  1.00  0.00    -0.550 OA
ENDBRANCH  21  22
ENDBRANCH  20  21
ENDBRANCH  19  20
ENDBRANCH  18  19
ENDBRANCH  17  18
ENDBRANCH  16  17
ENDBRANCH  15  16
ENDBRANCH  14  15
ENDBRANCH  13  14
ENDBRANCH   1  13
TORSDOF 20
ENDMDL
