MODEL 1
REMARK VINA RESULT:    -5.364      0.000      0.000
REMARK INTER + INTRA:          -8.075
REMARK INTER:                  -7.245
REMARK INTRA:                  -0.829
REMARK UNBOUND:                -0.829
REMARK SMILES CC(=O)CCC=C(C)CCC=C(C)C
REMARK SMILES IDX 7 1 6 2 8 3 9 4 10 5 11 6 13 7 12 8 14 9 5 10 4 11 2 12 3 13
REMARK SMILES IDX 1 14
REMARK H PARENT
REMARK Flexibility Score: inf
ROOT
ATOM      1  C   UNL     1      -4.918   0.542   1.435  1.00  0.00    -0.077 C 
ATOM      2  C   UNL     1      -5.948   0.396   0.571  1.00  0.00    -0.028 C 
ATOM      3  C   UNL     1      -5.164   1.289   2.721  1.00  0.00     0.039 C 
ENDROOT
BRANCH   1   4
ATOM      4  C   UNL     1      -3.513   0.056   1.138  1.00  0.00     0.034 C 
BRANCH   4   5
ATOM      5  C   UNL     1      -3.236  -1.266   1.860  1.00  0.00     0.032 C 
BRANCH   5   6
ATOM      6  C   UNL     1      -2.460  -1.028   3.131  1.00  0.00    -0.028 C 
ATOM      7  C   UNL     1      -0.555  -1.162   4.677  1.00  0.00     0.039 C 
ATOM      8  C   UNL     1      -1.224  -1.519   3.375  1.00  0.00    -0.080 C 
ATOM      9  C   UNL     1      -0.512  -2.420   2.393  1.00  0.00     0.039 C 
ENDBRANCH   5   6
ENDBRANCH   4   5
ENDBRANCH   1   4
BRANCH   2  10
ATOM     10  C   UNL     1      -5.876  -0.342  -0.744  1.00  0.00     0.035 C 
BRANCH  10  11
ATOM     11  C   UNL     1      -6.177  -1.837  -0.571  1.00  0.00     0.079 C 
BRANCH  11  12
ATOM     12  C   UNL     1      -5.341  -2.682  -1.499  1.00  0.00     0.130 C 
ATOM     13  O   UNL     1      -5.889  -3.481  -2.243  1.00  0.00    -0.300 OA
ATOM     14  C   UNL     1      -3.846  -2.561  -1.528  1.00  0.00     0.087 C 
ENDBRANCH  11  12
ENDBRANCH  10  11
ENDBRANCH   2  10
TORSDOF 6
ENDMDL
MODEL 2
REMARK VINA RESULT:    -5.362      2.158      4.485
REMARK INTER + INTRA:          -8.071
REMARK INTER:                  -6.692
REMARK INTRA:                  -1.380
REMARK UNBOUND:                -0.829
REMARK SMILES CC(=O)CCC=C(C)CCC=C(C)C
REMARK SMILES IDX 7 1 6 2 8 3 9 4 10 5 11 6 13 7 12 8 14 9 5 10 4 11 2 12 3 13
REMARK SMILES IDX 1 14
REMARK H PARENT
REMARK Flexibility Score: inf
ROOT
ATOM      1  C   UNL     1      -3.703  -0.036   1.194  1.00  0.00    -0.077 C 
ATOM      2  C   UNL     1      -2.946  -0.537   0.191  1.00  0.00    -0.028 C 
ATOM      3  C   UNL     1      -3.373  -0.438   2.608  1.00  0.00     0.039 C 
ENDROOT
BRANCH   1   4
ATOM      4  C   UNL     1      -4.910   0.850   0.955  1.00  0.00     0.034 C 
BRANCH   4   5
ATOM      5  C   UNL     1      -6.207   0.066   1.180  1.00  0.00     0.032 C 
BRANCH   5   6
ATOM      6  C   UNL     1      -6.625  -0.650  -0.080  1.00  0.00    -0.028 C 
ATOM      7  C   UNL     1      -6.972  -2.558  -1.588  1.00  0.00     0.039 C 
ATOM      8  C   UNL     1      -6.467  -1.975  -0.294  1.00  0.00    -0.080 C 
ATOM      9  C   UNL     1      -5.791  -2.874   0.715  1.00  0.00     0.039 C 
ENDBRANCH   5   6
ENDBRANCH   4   5
ENDBRANCH   1   4
BRANCH   2  10
ATOM     10  C   UNL     1      -3.129  -0.217  -1.273  1.00  0.00     0.035 C 
BRANCH  10  11
ATOM     11  C   UNL     1      -3.240  -1.492  -2.121  1.00  0.00     0.079 C 
BRANCH  11  12
ATOM     12  C   UNL     1      -1.897  -1.924  -2.653  1.00  0.00     0.130 C 
ATOM     13  O   UNL     1      -1.336  -2.890  -2.159  1.00  0.00    -0.300 OA
ATOM     14  C   UNL     1      -1.234  -1.190  -3.781  1.00  0.00     0.087 C 
ENDBRANCH  11  12
ENDBRANCH  10  11
ENDBRANCH   2  10
TORSDOF 6
ENDMDL
MODEL 3
REMARK VINA RESULT:    -5.278      1.523      2.207
REMARK INTER + INTRA:          -7.959
REMARK INTER:                  -6.844
REMARK INTRA:                  -1.115
REMARK UNBOUND:                -0.829
REMARK SMILES CC(=O)CCC=C(C)CCC=C(C)C
REMARK SMILES IDX 7 1 6 2 8 3 9 4 10 5 11 6 13 7 12 8 14 9 5 10 4 11 2 12 3 13
REMARK SMILES IDX 1 14
REMARK H PARENT
REMARK Flexibility Score: inf
ROOT
ATOM      1  C   UNL     1      -5.847  -0.532   0.687  1.00  0.00    -0.077 C 
ATOM      2  C   UNL     1      -5.960  -1.825   0.305  1.00  0.00    -0.028 C 
ATOM      3  C   UNL     1      -7.099   0.210   1.077  1.00  0.00     0.039 C 
ENDROOT
BRANCH   1   4
ATOM      4  C   UNL     1      -4.532   0.223   0.670  1.00  0.00     0.034 C 
BRANCH   4   5
ATOM      5  C   UNL     1      -4.095   0.576   2.095  1.00  0.00     0.032 C 
BRANCH   5   6
ATOM      6  C   UNL     1      -3.220  -0.509   2.671  1.00  0.00    -0.028 C 
ATOM      7  C   UNL     1      -1.129  -1.614   3.335  1.00  0.00     0.039 C 
ATOM      8  C   UNL     1      -1.869  -0.472   2.688  1.00  0.00    -0.080 C 
ATOM      9  C   UNL     1      -1.091   0.664   2.068  1.00  0.00     0.039 C 
ENDBRANCH   5   6
ENDBRANCH   4   5
ENDBRANCH   1   4
BRANCH   2  10
ATOM     10  C   UNL     1      -4.806  -2.713  -0.092  1.00  0.00     0.035 C 
BRANCH  10  11
ATOM     11  C   UNL     1      -4.573  -2.694  -1.609  1.00  0.00     0.079 C 
BRANCH  11  12
ATOM     12  C   UNL     1      -3.315  -1.945  -1.968  1.00  0.00     0.130 C 
ATOM     13  O   UNL     1      -3.273  -1.298  -3.004  1.00  0.00    -0.300 OA
ATOM     14  C   UNL     1      -2.109  -1.976  -1.076  1.00  0.00     0.087 C 
ENDBRANCH  11  12
ENDBRANCH  10  11
ENDBRANCH   2  10
TORSDOF 6
ENDMDL
MODEL 4
REMARK VINA RESULT:    -5.259      2.465      4.797
REMARK INTER + INTRA:          -7.933
REMARK INTER:                  -6.734
REMARK INTRA:                  -1.199
REMARK UNBOUND:                -0.829
REMARK SMILES CC(=O)CCC=C(C)CCC=C(C)C
REMARK SMILES IDX 7 1 6 2 8 3 9 4 10 5 11 6 13 7 12 8 14 9 5 10 4 11 2 12 3 13
REMARK SMILES IDX 1 14
REMARK H PARENT
REMARK Flexibility Score: inf
ROOT
ATOM      1  C   UNL     1      -5.902  -1.775  -0.724  1.00  0.00    -0.077 C 
ATOM      2  C   UNL     1      -5.977  -0.474  -0.360  1.00  0.00    -0.028 C 
ATOM      3  C   UNL     1      -7.167  -2.471  -1.153  1.00  0.00     0.039 C 
ENDROOT
BRANCH   1   4
ATOM      4  C   UNL     1      -4.621  -2.581  -0.650  1.00  0.00     0.034 C 
BRANCH   4   5
ATOM      5  C   UNL     1      -4.118  -2.926  -2.056  1.00  0.00     0.032 C 
BRANCH   5   6
ATOM      6  C   UNL     1      -3.300  -1.795  -2.624  1.00  0.00    -0.028 C 
ATOM      7  C   UNL     1      -1.267  -0.565  -3.248  1.00  0.00     0.039 C 
ATOM      8  C   UNL     1      -1.949  -1.743  -2.603  1.00  0.00    -0.080 C 
ATOM      9  C   UNL     1      -1.118  -2.816  -1.941  1.00  0.00     0.039 C 
ENDBRANCH   5   6
ENDBRANCH   4   5
ENDBRANCH   1   4
BRANCH   2  10
ATOM     10  C   UNL     1      -4.804   0.372   0.072  1.00  0.00     0.035 C 
BRANCH  10  11
ATOM     11  C   UNL     1      -4.599   0.323   1.592  1.00  0.00     0.079 C 
BRANCH  11  12
ATOM     12  C   UNL     1      -3.288  -0.328   1.954  1.00  0.00     0.130 C 
ATOM     13  O   UNL     1      -3.161  -0.859   3.047  1.00  0.00    -0.300 OA
ATOM     14  C   UNL     1      -2.133  -0.339   0.997  1.00  0.00     0.087 C 
ENDBRANCH  11  12
ENDBRANCH  10  11
ENDBRANCH   2  10
TORSDOF 6
ENDMDL
MODEL 5
REMARK VINA RESULT:    -5.220      2.398      5.095
REMARK INTER + INTRA:          -7.881
REMARK INTER:                  -6.464
REMARK INTRA:                  -1.417
REMARK UNBOUND:                -0.829
REMARK SMILES CC(=O)CCC=C(C)CCC=C(C)C
REMARK SMILES IDX 7 1 6 2 8 3 9 4 10 5 11 6 13 7 12 8 14 9 5 10 4 11 2 12 3 13
REMARK SMILES IDX 1 14
REMARK H PARENT
REMARK Flexibility Score: inf
ROOT
ATOM      1  C   UNL     1      -5.485  -1.158   0.650  1.00  0.00    -0.077 C 
ATOM      2  C   UNL     1      -4.416  -0.965   1.456  1.00  0.00    -0.028 C 
ATOM      3  C   UNL     1      -6.406   0.006   0.393  1.00  0.00     0.039 C 
ENDROOT
BRANCH   1   4
ATOM      4  C   UNL     1      -5.840  -2.508   0.057  1.00  0.00     0.034 C 
BRANCH   4   5
ATOM      5  C   UNL     1      -5.531  -2.535  -1.444  1.00  0.00     0.032 C 
BRANCH   5   6
ATOM      6  C   UNL     1      -4.110  -2.976  -1.689  1.00  0.00    -0.028 C 
ATOM      7  C   UNL     1      -1.713  -2.722  -2.164  1.00  0.00     0.039 C 
ATOM      8  C   UNL     1      -3.091  -2.139  -1.985  1.00  0.00    -0.080 C 
ATOM      9  C   UNL     1      -3.299  -0.652  -2.155  1.00  0.00     0.039 C 
ENDBRANCH   5   6
ENDBRANCH   4   5
ENDBRANCH   1   4
BRANCH   2  10
ATOM     10  C   UNL     1      -3.388  -2.016   1.796  1.00  0.00     0.035 C 
BRANCH  10  11
ATOM     11  C   UNL     1      -1.965  -1.541   1.472  1.00  0.00     0.079 C 
BRANCH  11  12
ATOM     12  C   UNL     1      -1.436  -0.609   2.533  1.00  0.00     0.130 C 
ATOM     13  O   UNL     1      -1.271   0.572   2.269  1.00  0.00    -0.300 OA
ATOM     14  C   UNL     1      -1.109  -1.104   3.911  1.00  0.00     0.087 C 
ENDBRANCH  11  12
ENDBRANCH  10  11
ENDBRANCH   2  10
TORSDOF 6
ENDMDL
MODEL 6
REMARK VINA RESULT:    -5.211      1.586      3.704
REMARK INTER + INTRA:          -7.869
REMARK INTER:                  -6.704
REMARK INTRA:                  -1.165
REMARK UNBOUND:                -0.829
REMARK SMILES CC(=O)CCC=C(C)CCC=C(C)C
REMARK SMILES IDX 7 1 6 2 8 3 9 4 10 5 11 6 13 7 12 8 14 9 5 10 4 11 2 12 3 13
REMARK SMILES IDX 1 14
REMARK H PARENT
REMARK Flexibility Score: inf
ROOT
ATOM      1  C   UNL     1      -2.940  -1.908  -2.141  1.00  0.00    -0.077 C 
ATOM      2  C   UNL     1      -4.132  -2.377  -2.575  1.00  0.00    -0.028 C 
ATOM      3  C   UNL     1      -2.182  -0.953  -3.026  1.00  0.00     0.039 C 
ENDROOT
BRANCH   1   4
ATOM      4  C   UNL     1      -2.299  -2.356  -0.842  1.00  0.00     0.034 C 
BRANCH   4   5
ATOM      5  C   UNL     1      -1.787  -1.150  -0.049  1.00  0.00     0.032 C 
BRANCH   5   6
ATOM      6  C   UNL     1      -2.937  -0.358   0.521  1.00  0.00    -0.028 C 
ATOM      7  C   UNL     1      -4.316   0.693   2.261  1.00  0.00     0.039 C 
ATOM      8  C   UNL     1      -3.145  -0.156   1.842  1.00  0.00    -0.080 C 
ATOM      9  C   UNL     1      -2.253  -0.769   2.895  1.00  0.00     0.039 C 
ENDBRANCH   5   6
ENDBRANCH   4   5
ENDBRANCH   1   4
BRANCH   2  10
ATOM     10  C   UNL     1      -5.024  -3.319  -1.803  1.00  0.00     0.035 C 
BRANCH  10  11
ATOM     11  C   UNL     1      -6.364  -2.662  -1.444  1.00  0.00     0.079 C 
BRANCH  11  12
ATOM     12  C   UNL     1      -6.229  -1.739  -0.259  1.00  0.00     0.130 C 
ATOM     13  O   UNL     1      -5.958  -2.204   0.838  1.00  0.00    -0.300 OA
ATOM     14  C   UNL     1      -6.420  -0.258  -0.399  1.00  0.00     0.087 C 
ENDBRANCH  11  12
ENDBRANCH  10  11
ENDBRANCH   2  10
TORSDOF 6
ENDMDL
MODEL 7
REMARK VINA RESULT:    -5.199      2.171      3.464
REMARK INTER + INTRA:          -7.852
REMARK INTER:                  -6.446
REMARK INTRA:                  -1.406
REMARK UNBOUND:                -0.829
REMARK SMILES CC(=O)CCC=C(C)CCC=C(C)C
REMARK SMILES IDX 7 1 6 2 8 3 9 4 10 5 11 6 13 7 12 8 14 9 5 10 4 11 2 12 3 13
REMARK SMILES IDX 1 14
REMARK H PARENT
REMARK Flexibility Score: inf
ROOT
ATOM      1  C   UNL     1      -5.514  -1.193  -0.519  1.00  0.00    -0.077 C 
ATOM      2  C   UNL     1      -4.475  -1.374  -1.365  1.00  0.00    -0.028 C 
ATOM      3  C   UNL     1      -6.365  -2.386  -0.167  1.00  0.00     0.039 C 
ENDROOT
BRANCH   1   4
ATOM      4  C   UNL     1      -5.907   0.165   0.030  1.00  0.00     0.034 C 
BRANCH   4   5
ATOM      5  C   UNL     1      -5.546   0.270   1.516  1.00  0.00     0.032 C 
BRANCH   5   6
ATOM      6  C   UNL     1      -4.113   0.707   1.688  1.00  0.00    -0.028 C 
ATOM      7  C   UNL     1      -1.706   0.452   2.109  1.00  0.00     0.039 C 
ATOM      8  C   UNL     1      -3.096  -0.122   2.012  1.00  0.00    -0.080 C 
ATOM      9  C   UNL     1      -3.317  -1.590   2.292  1.00  0.00     0.039 C 
ENDBRANCH   5   6
ENDBRANCH   4   5
ENDBRANCH   1   4
BRANCH   2  10
ATOM     10  C   UNL     1      -3.515  -0.293  -1.799  1.00  0.00     0.035 C 
BRANCH  10  11
ATOM     11  C   UNL     1      -2.060  -0.671  -1.490  1.00  0.00     0.079 C 
BRANCH  11  12
ATOM     12  C   UNL     1      -1.497  -1.607  -2.530  1.00  0.00     0.130 C 
ATOM     13  O   UNL     1      -1.252  -2.765  -2.227  1.00  0.00    -0.300 OA
ATOM     14  C   UNL     1      -1.233  -1.145  -3.932  1.00  0.00     0.087 C 
ENDBRANCH  11  12
ENDBRANCH  10  11
ENDBRANCH   2  10
TORSDOF 6
ENDMDL
MODEL 8
REMARK VINA RESULT:    -5.107      1.659      4.212
REMARK INTER + INTRA:          -7.728
REMARK INTER:                  -6.473
REMARK INTRA:                  -1.255
REMARK UNBOUND:                -0.829
REMARK SMILES CC(=O)CCC=C(C)CCC=C(C)C
REMARK SMILES IDX 7 1 6 2 8 3 9 4 10 5 11 6 13 7 12 8 14 9 5 10 4 11 2 12 3 13
REMARK SMILES IDX 1 14
REMARK H PARENT
REMARK Flexibility Score: inf
ROOT
ATOM      1  C   UNL     1      -2.722  -0.538   1.992  1.00  0.00    -0.077 C 
ATOM      2  C   UNL     1      -3.811   0.057   2.532  1.00  0.00    -0.028 C 
ATOM      3  C   UNL     1      -1.953  -1.521   2.837  1.00  0.00     0.039 C 
ENDROOT
BRANCH   1   4
ATOM      4  C   UNL     1      -2.200  -0.207   0.608  1.00  0.00     0.034 C 
BRANCH   4   5
ATOM      5  C   UNL     1      -1.743  -1.479  -0.114  1.00  0.00     0.032 C 
BRANCH   5   6
ATOM      6  C   UNL     1      -2.923  -2.218  -0.694  1.00  0.00    -0.028 C 
ATOM      7  C   UNL     1      -4.481  -2.982  -2.433  1.00  0.00     0.039 C 
ATOM      8  C   UNL     1      -3.303  -2.154  -1.989  1.00  0.00    -0.080 C 
ATOM      9  C   UNL     1      -2.594  -1.270  -2.989  1.00  0.00     0.039 C 
ENDBRANCH   5   6
ENDBRANCH   4   5
ENDBRANCH   1   4
BRANCH   2  10
ATOM     10  C   UNL     1      -4.701   1.043   1.815  1.00  0.00     0.035 C 
BRANCH  10  11
ATOM     11  C   UNL     1      -6.091   0.452   1.538  1.00  0.00     0.079 C 
BRANCH  11  12
ATOM     12  C   UNL     1      -6.080  -0.447   0.327  1.00  0.00     0.130 C 
ATOM     13  O   UNL     1      -5.864   0.032  -0.776  1.00  0.00    -0.300 OA
ATOM     14  C   UNL     1      -6.329  -1.921   0.450  1.00  0.00     0.087 C 
ENDBRANCH  11  12
ENDBRANCH  10  11
ENDBRANCH   2  10
TORSDOF 6
ENDMDL
MODEL 9
REMARK VINA RESULT:    -5.073      2.746      6.189
REMARK INTER + INTRA:          -7.681
REMARK INTER:                  -6.982
REMARK INTRA:                  -0.699
REMARK UNBOUND:                -0.829
REMARK SMILES CC(=O)CCC=C(C)CCC=C(C)C
REMARK SMILES IDX 7 1 6 2 8 3 9 4 10 5 11 6 13 7 12 8 14 9 5 10 4 11 2 12 3 13
REMARK SMILES IDX 1 14
REMARK H PARENT
REMARK Flexibility Score: inf
ROOT
ATOM      1  C   UNL     1      -3.378  -0.271   1.744  1.00  0.00    -0.077 C 
ATOM      2  C   UNL     1      -2.857  -0.711   2.912  1.00  0.00    -0.028 C 
ATOM      3  C   UNL     1      -4.624   0.575   1.791  1.00  0.00     0.039 C 
ENDROOT
BRANCH   1   4
ATOM      4  C   UNL     1      -2.810  -0.650   0.391  1.00  0.00     0.034 C 
BRANCH   4   5
ATOM      5  C   UNL     1      -3.848  -0.421  -0.713  1.00  0.00     0.032 C 
BRANCH   5   6
ATOM      6  C   UNL     1      -3.984  -1.646  -1.582  1.00  0.00    -0.028 C 
ATOM      7  C   UNL     1      -4.989  -3.726  -2.416  1.00  0.00     0.039 C 
ATOM      8  C   UNL     1      -4.956  -2.575  -1.445  1.00  0.00    -0.080 C 
ATOM      9  C   UNL     1      -5.990  -2.497  -0.347  1.00  0.00     0.039 C 
ENDBRANCH   5   6
ENDBRANCH   4   5
ENDBRANCH   1   4
BRANCH   2  10
ATOM     10  C   UNL     1      -1.605  -1.546   3.041  1.00  0.00     0.035 C 
BRANCH  10  11
ATOM     11  C   UNL     1      -0.436  -0.728   3.607  1.00  0.00     0.079 C 
BRANCH  11  12
ATOM     12  C   UNL     1      -0.148  -1.091   5.042  1.00  0.00     0.130 C 
ATOM     13  O   UNL     1      -0.912  -1.835   5.639  1.00  0.00    -0.300 OA
ATOM     14  C   UNL     1       1.061  -0.559   5.752  1.00  0.00     0.087 C 
ENDBRANCH  11  12
ENDBRANCH  10  11
ENDBRANCH   2  10
TORSDOF 6
ENDMDL
