MODEL 1
REMARK VINA RESULT:    -5.043      0.000      0.000
REMARK INTER + INTRA:          -5.043
REMARK INTER:                  -5.043
REMARK INTRA:                   0.000
REMARK UNBOUND:                 0.000
REMARK SMILES CC(C)=C1CC[C@@H](C)CC1=O
REMARK SMILES IDX 8 1 7 2 6 3 5 4 4 5 2 6 1 7 3 8 10 9 11 10 9 11
REMARK H PARENT
REMARK Flexibility Score: inf
ROOT
ATOM      1  C   UNL     1     -12.105 -20.475  31.406  1.00  0.00     0.008 C 
ATOM      2  C   UNL     1     -11.890 -19.184  30.607  1.00  0.00    -0.006 C 
ATOM      3  C   UNL     1     -12.902 -18.110  31.033  1.00  0.00     0.008 C 
ATOM      4  C   UNL     1     -12.636 -16.779  30.318  1.00  0.00     0.039 C 
ATOM      5  C   UNL     1     -12.552 -16.935  28.806  1.00  0.00    -0.006 C 
ATOM      6  C   UNL     1     -12.954 -15.937  27.965  1.00  0.00    -0.070 C 
ATOM      7  C   UNL     1     -13.484 -14.628  28.501  1.00  0.00     0.039 C 
ATOM      8  C   UNL     1     -12.927 -16.103  26.463  1.00  0.00     0.039 C 
ATOM      9  C   UNL     1     -11.900 -18.186  28.311  1.00  0.00     0.159 C 
ATOM     10  O   UNL     1     -11.241 -18.199  27.237  1.00  0.00    -0.295 OA
ATOM     11  C   UNL     1     -12.016 -19.457  29.102  1.00  0.00     0.084 C 
ENDROOT
TORSDOF 0
ENDMDL
MODEL 2
REMARK VINA RESULT:    -5.029      1.587      2.387
REMARK INTER + INTRA:          -5.029
REMARK INTER:                  -5.029
REMARK INTRA:                   0.000
REMARK UNBOUND:                 0.000
REMARK SMILES CC(C)=C1CC[C@@H](C)CC1=O
REMARK SMILES IDX 8 1 7 2 6 3 5 4 4 5 2 6 1 7 3 8 10 9 11 10 9 11
REMARK H PARENT
REMARK Flexibility Score: inf
ROOT
ATOM      1  C   UNL     1     -12.057 -20.948  31.527  1.00  0.00     0.008 C 
ATOM      2  C   UNL     1     -12.698 -19.814  30.720  1.00  0.00    -0.006 C 
ATOM      3  C   UNL     1     -12.418 -19.993  29.220  1.00  0.00     0.008 C 
ATOM      4  C   UNL     1     -13.139 -18.924  28.387  1.00  0.00     0.039 C 
ATOM      5  C   UNL     1     -12.847 -17.511  28.871  1.00  0.00    -0.006 C 
ATOM      6  C   UNL     1     -12.811 -16.456  28.004  1.00  0.00    -0.070 C 
ATOM      7  C   UNL     1     -13.077 -16.645  26.529  1.00  0.00     0.039 C 
ATOM      8  C   UNL     1     -12.467 -15.058  28.466  1.00  0.00     0.039 C 
ATOM      9  C   UNL     1     -12.720 -17.338  30.350  1.00  0.00     0.159 C 
ATOM     10  O   UNL     1     -13.074 -16.269  30.916  1.00  0.00    -0.295 OA
ATOM     11  C   UNL     1     -12.172 -18.452  31.193  1.00  0.00     0.084 C 
ENDROOT
TORSDOF 0
ENDMDL
MODEL 3
REMARK VINA RESULT:    -4.749      2.126      4.276
REMARK INTER + INTRA:          -4.749
REMARK INTER:                  -4.749
REMARK INTRA:                   0.000
REMARK UNBOUND:                 0.000
REMARK SMILES CC(C)=C1CC[C@@H](C)CC1=O
REMARK SMILES IDX 8 1 7 2 6 3 5 4 4 5 2 6 1 7 3 8 10 9 11 10 9 11
REMARK H PARENT
REMARK Flexibility Score: inf
ROOT
ATOM      1  C   UNL     1      -9.875 -14.729  29.273  1.00  0.00     0.008 C 
ATOM      2  C   UNL     1     -10.231 -16.210  29.102  1.00  0.00    -0.006 C 
ATOM      3  C   UNL     1     -11.613 -16.362  28.449  1.00  0.00     0.008 C 
ATOM      4  C   UNL     1     -11.942 -17.836  28.176  1.00  0.00     0.039 C 
ATOM      5  C   UNL     1     -11.781 -18.709  29.413  1.00  0.00    -0.006 C 
ATOM      6  C   UNL     1     -12.567 -19.808  29.614  1.00  0.00    -0.070 C 
ATOM      7  C   UNL     1     -13.618 -20.214  28.608  1.00  0.00     0.039 C 
ATOM      8  C   UNL     1     -12.453 -20.649  30.865  1.00  0.00     0.039 C 
ATOM      9  C   UNL     1     -10.647 -18.358  30.320  1.00  0.00     0.159 C 
ATOM     10  O   UNL     1     -10.034 -19.243  30.974  1.00  0.00    -0.295 OA
ATOM     11  C   UNL     1     -10.209 -16.928  30.458  1.00  0.00     0.084 C 
ENDROOT
TORSDOF 0
ENDMDL
MODEL 4
REMARK VINA RESULT:    -4.700      2.318      3.845
REMARK INTER + INTRA:          -4.700
REMARK INTER:                  -4.700
REMARK INTRA:                   0.000
REMARK UNBOUND:                 0.000
REMARK SMILES CC(C)=C1CC[C@@H](C)CC1=O
REMARK SMILES IDX 8 1 7 2 6 3 5 4 4 5 2 6 1 7 3 8 10 9 11 10 9 11
REMARK H PARENT
REMARK Flexibility Score: inf
ROOT
ATOM      1  C   UNL     1     -11.019 -17.626  26.542  1.00  0.00     0.008 C 
ATOM      2  C   UNL     1     -11.379 -16.702  27.711  1.00  0.00    -0.006 C 
ATOM      3  C   UNL     1     -11.451 -17.497  29.024  1.00  0.00     0.008 C 
ATOM      4  C   UNL     1     -11.709 -16.572  30.222  1.00  0.00     0.039 C 
ATOM      5  C   UNL     1     -12.920 -15.674  30.015  1.00  0.00    -0.006 C 
ATOM      6  C   UNL     1     -13.700 -15.279  31.066  1.00  0.00    -0.070 C 
ATOM      7  C   UNL     1     -13.381 -15.704  32.480  1.00  0.00     0.039 C 
ATOM      8  C   UNL     1     -14.936 -14.434  30.866  1.00  0.00     0.039 C 
ATOM      9  C   UNL     1     -13.130 -15.164  28.626  1.00  0.00     0.159 C 
ATOM     10  O   UNL     1     -13.643 -14.033  28.415  1.00  0.00    -0.295 OA
ATOM     11  C   UNL     1     -12.718 -16.000  27.449  1.00  0.00     0.084 C 
ENDROOT
TORSDOF 0
ENDMDL
MODEL 5
REMARK VINA RESULT:    -4.637      2.204      3.726
REMARK INTER + INTRA:          -4.637
REMARK INTER:                  -4.637
REMARK INTRA:                   0.000
REMARK UNBOUND:                 0.000
REMARK SMILES CC(C)=C1CC[C@@H](C)CC1=O
REMARK SMILES IDX 8 1 7 2 6 3 5 4 4 5 2 6 1 7 3 8 10 9 11 10 9 11
REMARK H PARENT
REMARK Flexibility Score: inf
ROOT
ATOM      1  C   UNL     1     -10.245 -17.519  27.530  1.00  0.00     0.008 C 
ATOM      2  C   UNL     1     -11.520 -17.254  28.338  1.00  0.00    -0.006 C 
ATOM      3  C   UNL     1     -11.724 -15.745  28.546  1.00  0.00     0.008 C 
ATOM      4  C   UNL     1     -13.049 -15.455  29.263  1.00  0.00     0.039 C 
ATOM      5  C   UNL     1     -13.200 -16.249  30.554  1.00  0.00    -0.006 C 
ATOM      6  C   UNL     1     -13.888 -15.746  31.621  1.00  0.00    -0.070 C 
ATOM      7  C   UNL     1     -14.544 -14.386  31.559  1.00  0.00     0.039 C 
ATOM      8  C   UNL     1     -13.997 -16.501  32.926  1.00  0.00     0.039 C 
ATOM      9  C   UNL     1     -12.656 -17.640  30.535  1.00  0.00     0.159 C 
ATOM     10  O   UNL     1     -13.190 -18.561  31.210  1.00  0.00    -0.295 OA
ATOM     11  C   UNL     1     -11.455 -17.967  29.695  1.00  0.00     0.084 C 
ENDROOT
TORSDOF 0
ENDMDL
MODEL 6
REMARK VINA RESULT:    -4.514      1.650      2.076
REMARK INTER + INTRA:          -4.514
REMARK INTER:                  -4.514
REMARK INTRA:                   0.000
REMARK UNBOUND:                 0.000
REMARK SMILES CC(C)=C1CC[C@@H](C)CC1=O
REMARK SMILES IDX 8 1 7 2 6 3 5 4 4 5 2 6 1 7 3 8 10 9 11 10 9 11
REMARK H PARENT
REMARK Flexibility Score: inf
ROOT
ATOM      1  C   UNL     1     -12.119 -21.119  31.657  1.00  0.00     0.008 C 
ATOM      2  C   UNL     1     -11.710 -20.080  30.607  1.00  0.00    -0.006 C 
ATOM      3  C   UNL     1     -10.676 -19.103  31.188  1.00  0.00     0.008 C 
ATOM      4  C   UNL     1     -10.178 -18.119  30.121  1.00  0.00     0.039 C 
ATOM      5  C   UNL     1     -11.318 -17.406  29.407  1.00  0.00    -0.006 C 
ATOM      6  C   UNL     1     -11.177 -16.129  28.942  1.00  0.00    -0.070 C 
ATOM      7  C   UNL     1      -9.876 -15.378  29.100  1.00  0.00     0.039 C 
ATOM      8  C   UNL     1     -12.319 -15.392  28.281  1.00  0.00     0.039 C 
ATOM      9  C   UNL     1     -12.543 -18.222  29.149  1.00  0.00     0.159 C 
ATOM     10  O   UNL     1     -13.256 -18.026  28.130  1.00  0.00    -0.295 OA
ATOM     11  C   UNL     1     -12.939 -19.307  30.108  1.00  0.00     0.084 C 
ENDROOT
TORSDOF 0
ENDMDL
MODEL 7
REMARK VINA RESULT:    -4.208      2.056      4.856
REMARK INTER + INTRA:          -4.208
REMARK INTER:                  -4.208
REMARK INTRA:                   0.000
REMARK UNBOUND:                 0.000
REMARK SMILES CC(C)=C1CC[C@@H](C)CC1=O
REMARK SMILES IDX 8 1 7 2 6 3 5 4 4 5 2 6 1 7 3 8 10 9 11 10 9 11
REMARK H PARENT
REMARK Flexibility Score: inf
ROOT
ATOM      1  C   UNL     1     -15.501 -12.800  29.005  1.00  0.00     0.008 C 
ATOM      2  C   UNL     1     -14.281 -13.715  29.160  1.00  0.00    -0.006 C 
ATOM      3  C   UNL     1     -14.057 -14.539  27.883  1.00  0.00     0.008 C 
ATOM      4  C   UNL     1     -12.781 -15.385  27.981  1.00  0.00     0.039 C 
ATOM      5  C   UNL     1     -12.741 -16.238  29.241  1.00  0.00    -0.006 C 
ATOM      6  C   UNL     1     -12.120 -17.455  29.256  1.00  0.00    -0.070 C 
ATOM      7  C   UNL     1     -11.430 -17.997  28.026  1.00  0.00     0.039 C 
ATOM      8  C   UNL     1     -12.123 -18.335  30.485  1.00  0.00     0.039 C 
ATOM      9  C   UNL     1     -13.315 -15.616  30.472  1.00  0.00     0.159 C 
ATOM     10  O   UNL     1     -12.852 -15.879  31.614  1.00  0.00    -0.295 OA
ATOM     11  C   UNL     1     -14.460 -14.651  30.363  1.00  0.00     0.084 C 
ENDROOT
TORSDOF 0
ENDMDL
MODEL 8
REMARK VINA RESULT:    -4.071      1.944      3.545
REMARK INTER + INTRA:          -4.071
REMARK INTER:                  -4.071
REMARK INTRA:                   0.000
REMARK UNBOUND:                 0.000
REMARK SMILES CC(C)=C1CC[C@@H](C)CC1=O
REMARK SMILES IDX 8 1 7 2 6 3 5 4 4 5 2 6 1 7 3 8 10 9 11 10 9 11
REMARK H PARENT
REMARK Flexibility Score: inf
ROOT
ATOM      1  C   UNL     1     -14.774 -14.624  32.125  1.00  0.00     0.008 C 
ATOM      2  C   UNL     1     -13.701 -14.959  31.082  1.00  0.00    -0.006 C 
ATOM      3  C   UNL     1     -14.230 -14.707  29.662  1.00  0.00     0.008 C 
ATOM      4  C   UNL     1     -13.136 -14.939  28.611  1.00  0.00     0.039 C 
ATOM      5  C   UNL     1     -12.469 -16.300  28.753  1.00  0.00    -0.006 C 
ATOM      6  C   UNL     1     -11.990 -16.973  27.665  1.00  0.00    -0.070 C 
ATOM      7  C   UNL     1     -12.087 -16.387  26.276  1.00  0.00     0.039 C 
ATOM      8  C   UNL     1     -11.376 -18.349  27.788  1.00  0.00     0.039 C 
ATOM      9  C   UNL     1     -12.270 -16.790  30.150  1.00  0.00     0.159 C 
ATOM     10  O   UNL     1     -11.282 -17.509  30.457  1.00  0.00    -0.295 OA
ATOM     11  C   UNL     1     -13.252 -16.420  31.224  1.00  0.00     0.084 C 
ENDROOT
TORSDOF 0
ENDMDL
MODEL 9
REMARK VINA RESULT:    -4.058      1.832      2.683
REMARK INTER + INTRA:          -4.058
REMARK INTER:                  -4.058
REMARK INTRA:                   0.000
REMARK UNBOUND:                 0.000
REMARK SMILES CC(C)=C1CC[C@@H](C)CC1=O
REMARK SMILES IDX 8 1 7 2 6 3 5 4 4 5 2 6 1 7 3 8 10 9 11 10 9 11
REMARK H PARENT
REMARK Flexibility Score: inf
ROOT
ATOM      1  C   UNL     1     -13.994 -20.660  28.595  1.00  0.00     0.008 C 
ATOM      2  C   UNL     1     -12.730 -19.823  28.822  1.00  0.00    -0.006 C 
ATOM      3  C   UNL     1     -12.631 -19.381  30.290  1.00  0.00     0.008 C 
ATOM      4  C   UNL     1     -11.321 -18.629  30.559  1.00  0.00     0.039 C 
ATOM      5  C   UNL     1     -11.097 -17.480  29.586  1.00  0.00    -0.006 C 
ATOM      6  C   UNL     1     -10.432 -16.348  29.964  1.00  0.00    -0.070 C 
ATOM      7  C   UNL     1      -9.875 -16.197  31.361  1.00  0.00     0.039 C 
ATOM      8  C   UNL     1     -10.253 -15.179  29.024  1.00  0.00     0.039 C 
ATOM      9  C   UNL     1     -11.541 -17.716  28.179  1.00  0.00     0.159 C 
ATOM     10  O   UNL     1     -10.934 -17.195  27.205  1.00  0.00    -0.295 OA
ATOM     11  C   UNL     1     -12.726 -18.594  27.902  1.00  0.00     0.084 C 
ENDROOT
TORSDOF 0
ENDMDL
