MODEL 1
REMARK VINA RESULT:    -5.780      0.000      0.000
REMARK INTER + INTRA:          -8.337
REMARK INTER:                  -7.807
REMARK INTRA:                  -0.530
REMARK UNBOUND:                -0.530
REMARK SMILES CC(=O)CCC=C(C)CCC=C(C)C
REMARK SMILES IDX 7 1 6 2 8 3 9 4 10 5 11 6 13 7 12 8 14 9 5 10 4 11 2 12 3 13
REMARK SMILES IDX 1 14
REMARK H PARENT
REMARK Flexibility Score: inf
ROOT
ATOM      1  C   UNL     1     108.033  47.166  65.428  1.00  0.00    -0.077 C 
ATOM      2  C   UNL     1     107.055  47.963  64.940  1.00  0.00    -0.028 C 
ATOM      3  C   UNL     1     108.789  47.512  66.689  1.00  0.00     0.039 C 
ENDROOT
BRANCH   1   4
ATOM      4  C   UNL     1     108.386  45.896  64.683  1.00  0.00     0.034 C 
BRANCH   4   5
ATOM      5  C   UNL     1     108.377  46.131  63.168  1.00  0.00     0.032 C 
BRANCH   5   6
ATOM      6  C   UNL     1     109.082  47.417  62.810  1.00  0.00    -0.028 C 
ATOM      7  C   UNL     1     109.387  49.547  61.617  1.00  0.00     0.039 C 
ATOM      8  C   UNL     1     108.603  48.291  61.898  1.00  0.00    -0.080 C 
ATOM      9  C   UNL     1     107.311  48.033  61.161  1.00  0.00     0.039 C 
ENDBRANCH   5   6
ENDBRANCH   4   5
ENDBRANCH   1   4
BRANCH   2  10
ATOM     10  C   UNL     1     106.578  49.231  65.601  1.00  0.00     0.035 C 
BRANCH  10  11
ATOM     11  C   UNL     1     106.620  50.405  64.617  1.00  0.00     0.079 C 
BRANCH  11  12
ATOM     12  C   UNL     1     107.926  51.145  64.727  1.00  0.00     0.130 C 
ATOM     13  O   UNL     1     108.975  50.520  64.707  1.00  0.00    -0.300 OA
ATOM     14  C   UNL     1     107.970  52.640  64.850  1.00  0.00     0.087 C 
ENDBRANCH  11  12
ENDBRANCH  10  11
ENDBRANCH   2  10
TORSDOF 6
ENDMDL
MODEL 2
REMARK VINA RESULT:    -5.635      1.528      4.127
REMARK INTER + INTRA:          -8.142
REMARK INTER:                  -7.879
REMARK INTRA:                  -0.263
REMARK UNBOUND:                -0.530
REMARK SMILES CC(=O)CCC=C(C)CCC=C(C)C
REMARK SMILES IDX 7 1 6 2 8 3 9 4 10 5 11 6 13 7 12 8 14 9 5 10 4 11 2 12 3 13
REMARK SMILES IDX 1 14
REMARK H PARENT
REMARK Flexibility Score: inf
ROOT
ATOM      1  C   UNL     1     107.794  47.746  65.364  1.00  0.00    -0.077 C 
ATOM      2  C   UNL     1     107.776  47.386  64.060  1.00  0.00    -0.028 C 
ATOM      3  C   UNL     1     108.692  47.063  66.369  1.00  0.00     0.039 C 
ENDROOT
BRANCH   1   4
ATOM      4  C   UNL     1     106.879  48.859  65.831  1.00  0.00     0.034 C 
BRANCH   4   5
ATOM      5  C   UNL     1     106.490  49.772  64.663  1.00  0.00     0.032 C 
BRANCH   5   6
ATOM      6  C   UNL     1     106.877  51.205  64.937  1.00  0.00    -0.028 C 
ATOM      7  C   UNL     1     108.410  53.125  65.065  1.00  0.00     0.039 C 
ATOM      8  C   UNL     1     108.131  51.675  64.762  1.00  0.00    -0.080 C 
ATOM      9  C   UNL     1     109.248  50.784  64.275  1.00  0.00     0.039 C 
ENDBRANCH   5   6
ENDBRANCH   4   5
ENDBRANCH   1   4
BRANCH   2  10
ATOM     10  C   UNL     1     108.661  46.324  63.456  1.00  0.00     0.035 C 
BRANCH  10  11
ATOM     11  C   UNL     1     108.726  46.473  61.933  1.00  0.00     0.079 C 
BRANCH  11  12
ATOM     12  C   UNL     1     108.205  47.820  61.507  1.00  0.00     0.130 C 
ATOM     13  O   UNL     1     107.041  47.929  61.153  1.00  0.00    -0.300 OA
ATOM     14  C   UNL     1     109.083  49.036  61.517  1.00  0.00     0.087 C 
ENDBRANCH  11  12
ENDBRANCH  10  11
ENDBRANCH   2  10
TORSDOF 6
ENDMDL
MODEL 3
REMARK VINA RESULT:    -5.271      1.244      4.484
REMARK INTER + INTRA:          -7.650
REMARK INTER:                  -7.122
REMARK INTRA:                  -0.528
REMARK UNBOUND:                -0.530
REMARK SMILES CC(=O)CCC=C(C)CCC=C(C)C
REMARK SMILES IDX 7 1 6 2 8 3 9 4 10 5 11 6 13 7 12 8 14 9 5 10 4 11 2 12 3 13
REMARK SMILES IDX 1 14
REMARK H PARENT
REMARK Flexibility Score: inf
ROOT
ATOM      1  C   UNL     1     108.685  47.993  61.927  1.00  0.00    -0.077 C 
ATOM      2  C   UNL     1     109.137  47.202  62.927  1.00  0.00    -0.028 C 
ATOM      3  C   UNL     1     107.536  47.577  61.039  1.00  0.00     0.039 C 
ENDROOT
BRANCH   1   4
ATOM      4  C   UNL     1     109.358  49.328  61.685  1.00  0.00     0.034 C 
BRANCH   4   5
ATOM      5  C   UNL     1     109.438  50.142  62.982  1.00  0.00     0.032 C 
BRANCH   5   6
ATOM      6  C   UNL     1     108.135  50.088  63.742  1.00  0.00    -0.028 C 
ATOM      7  C   UNL     1     106.442  50.877  65.343  1.00  0.00     0.039 C 
ATOM      8  C   UNL     1     107.766  51.028  64.639  1.00  0.00    -0.080 C 
ATOM      9  C   UNL     1     108.647  52.215  64.946  1.00  0.00     0.039 C 
ENDBRANCH   5   6
ENDBRANCH   4   5
ENDBRANCH   1   4
BRANCH   2  10
ATOM     10  C   UNL     1     108.536  45.871  63.300  1.00  0.00     0.035 C 
BRANCH  10  11
ATOM     11  C   UNL     1     108.375  45.754  64.819  1.00  0.00     0.079 C 
BRANCH  11  12
ATOM     12  C   UNL     1     107.770  47.010  65.388  1.00  0.00     0.130 C 
ATOM     13  O   UNL     1     106.707  47.419  64.946  1.00  0.00    -0.300 OA
ATOM     14  C   UNL     1     108.441  47.768  66.495  1.00  0.00     0.087 C 
ENDBRANCH  11  12
ENDBRANCH  10  11
ENDBRANCH   2  10
TORSDOF 6
ENDMDL
MODEL 4
REMARK VINA RESULT:    -5.183      8.070     10.872
REMARK INTER + INTRA:          -7.530
REMARK INTER:                  -7.054
REMARK INTRA:                  -0.476
REMARK UNBOUND:                -0.530
REMARK SMILES CC(=O)CCC=C(C)CCC=C(C)C
REMARK SMILES IDX 7 1 6 2 8 3 9 4 10 5 11 6 13 7 12 8 14 9 5 10 4 11 2 12 3 13
REMARK SMILES IDX 1 14
REMARK H PARENT
REMARK Flexibility Score: inf
ROOT
ATOM      1  C   UNL     1     102.736  47.241  53.798  1.00  0.00    -0.077 C 
ATOM      2  C   UNL     1     103.909  47.734  54.256  1.00  0.00    -0.028 C 
ATOM      3  C   UNL     1     102.201  47.597  52.430  1.00  0.00     0.039 C 
ENDROOT
BRANCH   1   4
ATOM      4  C   UNL     1     101.932  46.313  54.685  1.00  0.00     0.034 C 
BRANCH   4   5
ATOM      5  C   UNL     1     102.113  46.678  56.163  1.00  0.00     0.032 C 
BRANCH   5   6
ATOM      6  C   UNL     1     102.009  48.169  56.374  1.00  0.00    -0.028 C 
ATOM      7  C   UNL     1     102.562  50.327  57.417  1.00  0.00     0.039 C 
ATOM      8  C   UNL     1     102.745  48.837  57.288  1.00  0.00    -0.080 C 
ATOM      9  C   UNL     1     103.737  48.125  58.176  1.00  0.00     0.039 C 
ENDBRANCH   5   6
ENDBRANCH   4   5
ENDBRANCH   1   4
BRANCH   2  10
ATOM     10  C   UNL     1     104.825  48.634  53.465  1.00  0.00     0.035 C 
BRANCH  10  11
ATOM     11  C   UNL     1     105.392  49.747  54.351  1.00  0.00     0.079 C 
BRANCH  11  12
ATOM     12  C   UNL     1     104.690  51.051  54.083  1.00  0.00     0.130 C 
ATOM     13  O   UNL     1     105.348  52.038  53.787  1.00  0.00    -0.300 OA
ATOM     14  C   UNL     1     103.196  51.165  54.161  1.00  0.00     0.087 C 
ENDBRANCH  11  12
ENDBRANCH  10  11
ENDBRANCH   2  10
TORSDOF 6
ENDMDL
MODEL 5
REMARK VINA RESULT:    -5.085      8.346     10.551
REMARK INTER + INTRA:          -7.399
REMARK INTER:                  -7.073
REMARK INTRA:                  -0.326
REMARK UNBOUND:                -0.530
REMARK SMILES CC(=O)CCC=C(C)CCC=C(C)C
REMARK SMILES IDX 7 1 6 2 8 3 9 4 10 5 11 6 13 7 12 8 14 9 5 10 4 11 2 12 3 13
REMARK SMILES IDX 1 14
REMARK H PARENT
REMARK Flexibility Score: inf
ROOT
ATOM      1  C   UNL     1     102.169  46.578  54.350  1.00  0.00    -0.077 C 
ATOM      2  C   UNL     1     102.377  47.267  55.495  1.00  0.00    -0.028 C 
ATOM      3  C   UNL     1     101.611  45.174  54.353  1.00  0.00     0.039 C 
ENDROOT
BRANCH   1   4
ATOM      4  C   UNL     1     102.514  47.230  53.027  1.00  0.00     0.034 C 
BRANCH   4   5
ATOM      5  C   UNL     1     103.742  48.138  53.170  1.00  0.00     0.032 C 
BRANCH   5   6
ATOM      6  C   UNL     1     103.340  49.545  53.539  1.00  0.00    -0.028 C 
ATOM      7  C   UNL     1     103.720  51.868  54.254  1.00  0.00     0.039 C 
ATOM      8  C   UNL     1     104.229  50.493  53.906  1.00  0.00    -0.080 C 
ATOM      9  C   UNL     1     105.709  50.203  53.974  1.00  0.00     0.039 C 
ENDBRANCH   5   6
ENDBRANCH   4   5
ENDBRANCH   1   4
BRANCH   2  10
ATOM     10  C   UNL     1     102.042  46.753  56.873  1.00  0.00     0.035 C 
BRANCH  10  11
ATOM     11  C   UNL     1     102.930  47.415  57.930  1.00  0.00     0.079 C 
BRANCH  11  12
ATOM     12  C   UNL     1     103.575  48.660  57.381  1.00  0.00     0.130 C 
ATOM     13  O   UNL     1     104.686  48.589  56.877  1.00  0.00    -0.300 OA
ATOM     14  C   UNL     1     102.879  49.988  57.430  1.00  0.00     0.087 C 
ENDBRANCH  11  12
ENDBRANCH  10  11
ENDBRANCH   2  10
TORSDOF 6
ENDMDL
MODEL 6
REMARK VINA RESULT:    -5.041      8.488     10.839
REMARK INTER + INTRA:          -7.340
REMARK INTER:                  -6.803
REMARK INTRA:                  -0.537
REMARK UNBOUND:                -0.530
REMARK SMILES CC(=O)CCC=C(C)CCC=C(C)C
REMARK SMILES IDX 7 1 6 2 8 3 9 4 10 5 11 6 13 7 12 8 14 9 5 10 4 11 2 12 3 13
REMARK SMILES IDX 1 14
REMARK H PARENT
REMARK Flexibility Score: inf
ROOT
ATOM      1  C   UNL     1     103.526  47.905  53.491  1.00  0.00    -0.077 C 
ATOM      2  C   UNL     1     103.491  47.513  54.786  1.00  0.00    -0.028 C 
ATOM      3  C   UNL     1     102.433  47.534  52.515  1.00  0.00     0.039 C 
ENDROOT
BRANCH   1   4
ATOM      4  C   UNL     1     104.699  48.730  53.005  1.00  0.00     0.034 C 
BRANCH   4   5
ATOM      5  C   UNL     1     105.214  49.654  54.115  1.00  0.00     0.032 C 
BRANCH   5   6
ATOM      6  C   UNL     1     104.873  51.096  53.828  1.00  0.00    -0.028 C 
ATOM      7  C   UNL     1     103.484  53.125  53.898  1.00  0.00     0.039 C 
ATOM      8  C   UNL     1     103.724  51.677  54.238  1.00  0.00    -0.080 C 
ATOM      9  C   UNL     1     102.688  50.909  55.022  1.00  0.00     0.039 C 
ENDBRANCH   5   6
ENDBRANCH   4   5
ENDBRANCH   1   4
BRANCH   2  10
ATOM     10  C   UNL     1     102.366  46.724  55.408  1.00  0.00     0.035 C 
BRANCH  10  11
ATOM     11  C   UNL     1     101.761  47.483  56.594  1.00  0.00     0.079 C 
BRANCH  11  12
ATOM     12  C   UNL     1     102.842  47.969  57.522  1.00  0.00     0.130 C 
ATOM     13  O   UNL     1     103.520  47.158  58.133  1.00  0.00    -0.300 OA
ATOM     14  C   UNL     1     103.112  49.434  57.707  1.00  0.00     0.087 C 
ENDBRANCH  11  12
ENDBRANCH  10  11
ENDBRANCH   2  10
TORSDOF 6
ENDMDL
MODEL 7
REMARK VINA RESULT:    -5.025      8.288     10.798
REMARK INTER + INTRA:          -7.317
REMARK INTER:                  -6.920
REMARK INTRA:                  -0.397
REMARK UNBOUND:                -0.530
REMARK SMILES CC(=O)CCC=C(C)CCC=C(C)C
REMARK SMILES IDX 7 1 6 2 8 3 9 4 10 5 11 6 13 7 12 8 14 9 5 10 4 11 2 12 3 13
REMARK SMILES IDX 1 14
REMARK H PARENT
REMARK Flexibility Score: inf
ROOT
ATOM      1  C   UNL     1     102.657  48.512  57.171  1.00  0.00    -0.077 C 
ATOM      2  C   UNL     1     101.898  47.926  56.216  1.00  0.00    -0.028 C 
ATOM      3  C   UNL     1     103.548  47.706  58.088  1.00  0.00     0.039 C 
ENDROOT
BRANCH   1   4
ATOM      4  C   UNL     1     102.604  50.017  57.332  1.00  0.00     0.034 C 
BRANCH   4   5
ATOM      5  C   UNL     1     102.676  50.714  55.968  1.00  0.00     0.032 C 
BRANCH   5   6
ATOM      6  C   UNL     1     103.818  50.177  55.140  1.00  0.00    -0.028 C 
ATOM      7  C   UNL     1     105.579  50.271  53.424  1.00  0.00     0.039 C 
ATOM      8  C   UNL     1     104.449  50.905  54.193  1.00  0.00    -0.080 C 
ATOM      9  C   UNL     1     104.045  52.329  53.894  1.00  0.00     0.039 C 
ENDBRANCH   5   6
ENDBRANCH   4   5
ENDBRANCH   1   4
BRANCH   2  10
ATOM     10  C   UNL     1     101.885  46.447  55.925  1.00  0.00     0.035 C 
BRANCH  10  11
ATOM     11  C   UNL     1     101.927  46.191  54.415  1.00  0.00     0.079 C 
BRANCH  11  12
ATOM     12  C   UNL     1     102.941  47.083  53.751  1.00  0.00     0.130 C 
ATOM     13  O   UNL     1     104.076  47.141  54.200  1.00  0.00    -0.300 OA
ATOM     14  C   UNL     1     102.591  47.899  52.541  1.00  0.00     0.087 C 
ENDBRANCH  11  12
ENDBRANCH  10  11
ENDBRANCH   2  10
TORSDOF 6
ENDMDL
MODEL 8
REMARK VINA RESULT:    -4.586     16.925     18.044
REMARK INTER + INTRA:          -6.724
REMARK INTER:                  -6.163
REMARK INTRA:                  -0.561
REMARK UNBOUND:                -0.530
REMARK SMILES CC(=O)CCC=C(C)CCC=C(C)C
REMARK SMILES IDX 7 1 6 2 8 3 9 4 10 5 11 6 13 7 12 8 14 9 5 10 4 11 2 12 3 13
REMARK SMILES IDX 1 14
REMARK H PARENT
REMARK Flexibility Score: inf
ROOT
ATOM      1  C   UNL     1      97.703  34.526  63.601  1.00  0.00    -0.077 C 
ATOM      2  C   UNL     1      96.774  33.624  63.993  1.00  0.00    -0.028 C 
ATOM      3  C   UNL     1      97.364  35.986  63.403  1.00  0.00     0.039 C 
ENDROOT
BRANCH   1   4
ATOM      4  C   UNL     1      99.120  34.058  63.343  1.00  0.00     0.034 C 
BRANCH   4   5
ATOM      5  C   UNL     1      99.527  34.326  61.890  1.00  0.00     0.032 C 
BRANCH   5   6
ATOM      6  C   UNL     1     100.931  33.843  61.618  1.00  0.00    -0.028 C 
ATOM      7  C   UNL     1     102.744  32.875  60.265  1.00  0.00     0.039 C 
ATOM      8  C   UNL     1     101.316  33.328  60.430  1.00  0.00    -0.080 C 
ATOM      9  C   UNL     1     100.351  33.197  59.277  1.00  0.00     0.039 C 
ENDBRANCH   5   6
ENDBRANCH   4   5
ENDBRANCH   1   4
BRANCH   2  10
ATOM     10  C   UNL     1      95.341  33.961  64.320  1.00  0.00     0.035 C 
BRANCH  10  11
ATOM     11  C   UNL     1      94.975  33.474  65.725  1.00  0.00     0.079 C 
BRANCH  11  12
ATOM     12  C   UNL     1      95.179  34.569  66.738  1.00  0.00     0.130 C 
ATOM     13  O   UNL     1      95.360  34.278  67.910  1.00  0.00    -0.300 OA
ATOM     14  C   UNL     1      95.172  36.015  66.337  1.00  0.00     0.087 C 
ENDBRANCH  11  12
ENDBRANCH  10  11
ENDBRANCH   2  10
TORSDOF 6
ENDMDL
MODEL 9
REMARK VINA RESULT:    -4.580     16.290     17.209
REMARK INTER + INTRA:          -6.716
REMARK INTER:                  -6.275
REMARK INTRA:                  -0.441
REMARK UNBOUND:                -0.530
REMARK SMILES CC(=O)CCC=C(C)CCC=C(C)C
REMARK SMILES IDX 7 1 6 2 8 3 9 4 10 5 11 6 13 7 12 8 14 9 5 10 4 11 2 12 3 13
REMARK SMILES IDX 1 14
REMARK H PARENT
REMARK Flexibility Score: inf
ROOT
ATOM      1  C   UNL     1     101.242  33.886  60.939  1.00  0.00    -0.077 C 
ATOM      2  C   UNL     1     100.590  34.454  61.979  1.00  0.00    -0.028 C 
ATOM      3  C   UNL     1     100.540  32.974  59.959  1.00  0.00     0.039 C 
ENDROOT
BRANCH   1   4
ATOM      4  C   UNL     1     102.719  34.165  60.756  1.00  0.00     0.034 C 
BRANCH   4   5
ATOM      5  C   UNL     1     103.474  32.883  60.383  1.00  0.00     0.032 C 
BRANCH   5   6
ATOM      6  C   UNL     1     104.362  33.103  59.182  1.00  0.00    -0.028 C 
ATOM      7  C   UNL     1     106.504  33.329  57.992  1.00  0.00     0.039 C 
ATOM      8  C   UNL     1     105.711  33.100  59.254  1.00  0.00    -0.080 C 
ATOM      9  C   UNL     1     106.432  32.875  60.561  1.00  0.00     0.039 C 
ENDBRANCH   5   6
ENDBRANCH   4   5
ENDBRANCH   1   4
BRANCH   2  10
ATOM     10  C   UNL     1      99.116  34.292  62.254  1.00  0.00     0.035 C 
BRANCH  10  11
ATOM     11  C   UNL     1      98.886  33.685  63.642  1.00  0.00     0.079 C 
BRANCH  11  12
ATOM     12  C   UNL     1      97.435  33.783  64.032  1.00  0.00     0.130 C 
ATOM     13  O   UNL     1      97.117  33.650  65.203  1.00  0.00    -0.300 OA
ATOM     14  C   UNL     1      96.368  34.049  63.011  1.00  0.00     0.087 C 
ENDBRANCH  11  12
ENDBRANCH  10  11
ENDBRANCH   2  10
TORSDOF 6
ENDMDL
