MODEL 1
REMARK VINA RESULT:    -3.539      0.000      0.000
REMARK INTER + INTRA:          -5.279
REMARK INTER:                  -4.781
REMARK INTRA:                  -0.498
REMARK UNBOUND:                -0.498
REMARK SMILES CCCCCCCC(=O)[O-]
REMARK SMILES IDX 5 1 6 2 7 3 8 4 9 5 10 6 4 7 3 8 2 9 1 10
REMARK H PARENT
REMARK Flexibility Score: inf
ROOT
ATOM      1  C   UNL     1      26.634  -3.389  51.599  1.00  0.00     0.000 C 
ENDROOT
BRANCH   1   2
ATOM      2  C   UNL     1      26.593  -4.914  51.798  1.00  0.00     0.006 C 
BRANCH   2   3
ATOM      3  C   UNL     1      27.808  -5.429  52.580  1.00  0.00     0.053 C 
BRANCH   3   4
ATOM      4  C   UNL     1      29.089  -5.184  51.842  1.00  0.00     0.041 C 
ATOM      5  O   UNL     1      29.399  -5.898  50.852  1.00  0.00    -0.550 OA
ATOM      6  O   UNL     1      29.955  -4.184  52.267  1.00  0.00    -0.550 OA
ENDBRANCH   3   4
ENDBRANCH   2   3
ENDBRANCH   1   2
BRANCH   1   7
ATOM      7  C   UNL     1      25.825  -2.632  52.665  1.00  0.00     0.000 C 
BRANCH   7   8
ATOM      8  C   UNL     1      24.687  -3.477  53.257  1.00  0.00    -0.000 C 
BRANCH   8   9
ATOM      9  C   UNL     1      24.695  -3.410  54.789  1.00  0.00    -0.003 C 
ATOM     10  C   UNL     1      25.405  -4.618  55.392  1.00  0.00     0.004 C 
ENDBRANCH   8   9
ENDBRANCH   7   8
ENDBRANCH   1   7
TORSDOF 6
ENDMDL
MODEL 2
REMARK VINA RESULT:    -3.510      1.003      1.654
REMARK INTER + INTRA:          -5.240
REMARK INTER:                  -4.703
REMARK INTRA:                  -0.537
REMARK UNBOUND:                -0.498
REMARK SMILES CCCCCCCC(=O)[O-]
REMARK SMILES IDX 5 1 6 2 7 3 8 4 9 5 10 6 4 7 3 8 2 9 1 10
REMARK H PARENT
REMARK Flexibility Score: inf
ROOT
ATOM      1  C   UNL     1      25.890  -2.925  52.813  1.00  0.00     0.000 C 
ENDROOT
BRANCH   1   2
ATOM      2  C   UNL     1      26.495  -3.632  51.588  1.00  0.00     0.006 C 
BRANCH   2   3
ATOM      3  C   UNL     1      26.628  -5.145  51.799  1.00  0.00     0.053 C 
BRANCH   3   4
ATOM      4  C   UNL     1      28.040  -5.542  52.107  1.00  0.00     0.041 C 
ATOM      5  O   UNL     1      28.343  -5.974  53.250  1.00  0.00    -0.550 OA
ATOM      6  O   UNL     1      29.026  -5.408  51.138  1.00  0.00    -0.550 OA
ENDBRANCH   3   4
ENDBRANCH   2   3
ENDBRANCH   1   2
BRANCH   1   7
ATOM      7  C   UNL     1      24.595  -3.593  53.301  1.00  0.00     0.000 C 
BRANCH   7   8
ATOM      8  C   UNL     1      24.577  -3.813  54.821  1.00  0.00    -0.000 C 
BRANCH   8   9
ATOM      9  C   UNL     1      25.973  -4.181  55.338  1.00  0.00    -0.003 C 
ATOM     10  C   UNL     1      26.020  -5.629  55.817  1.00  0.00     0.004 C 
ENDBRANCH   8   9
ENDBRANCH   7   8
ENDBRANCH   1   7
TORSDOF 6
ENDMDL
MODEL 3
REMARK VINA RESULT:    -3.489      1.226      1.651
REMARK INTER + INTRA:          -5.210
REMARK INTER:                  -4.690
REMARK INTRA:                  -0.521
REMARK UNBOUND:                -0.498
REMARK SMILES CCCCCCCC(=O)[O-]
REMARK SMILES IDX 5 1 6 2 7 3 8 4 9 5 10 6 4 7 3 8 2 9 1 10
REMARK H PARENT
REMARK Flexibility Score: inf
ROOT
ATOM      1  C   UNL     1      26.467  -1.664  52.269  1.00  0.00     0.000 C 
ENDROOT
BRANCH   1   2
ATOM      2  C   UNL     1      26.805  -2.844  51.342  1.00  0.00     0.006 C 
BRANCH   2   3
ATOM      3  C   UNL     1      28.112  -3.540  51.744  1.00  0.00     0.053 C 
BRANCH   3   4
ATOM      4  C   UNL     1      27.981  -5.032  51.711  1.00  0.00     0.041 C 
ATOM      5  O   UNL     1      26.873  -5.579  51.955  1.00  0.00    -0.550 OA
ATOM      6  O   UNL     1      29.092  -5.821  51.437  1.00  0.00    -0.550 OA
ENDBRANCH   3   4
ENDBRANCH   2   3
ENDBRANCH   1   2
BRANCH   1   7
ATOM      7  C   UNL     1      25.847  -2.117  53.601  1.00  0.00     0.000 C 
BRANCH   7   8
ATOM      8  C   UNL     1      24.748  -3.173  53.415  1.00  0.00    -0.000 C 
BRANCH   8   9
ATOM      9  C   UNL     1      24.527  -3.967  54.709  1.00  0.00    -0.003 C 
ATOM     10  C   UNL     1      25.804  -4.679  55.144  1.00  0.00     0.004 C 
ENDBRANCH   8   9
ENDBRANCH   7   8
ENDBRANCH   1   7
TORSDOF 6
ENDMDL
MODEL 4
REMARK VINA RESULT:    -3.376      2.425      4.291
REMARK INTER + INTRA:          -5.058
REMARK INTER:                  -4.598
REMARK INTRA:                  -0.460
REMARK UNBOUND:                -0.498
REMARK SMILES CCCCCCCC(=O)[O-]
REMARK SMILES IDX 5 1 6 2 7 3 8 4 9 5 10 6 4 7 3 8 2 9 1 10
REMARK H PARENT
REMARK Flexibility Score: inf
ROOT
ATOM      1  C   UNL     1      25.925  -2.902  52.799  1.00  0.00     0.000 C 
ENDROOT
BRANCH   1   2
ATOM      2  C   UNL     1      24.639  -3.550  53.340  1.00  0.00     0.006 C 
BRANCH   2   3
ATOM      3  C   UNL     1      24.591  -3.551  54.873  1.00  0.00     0.053 C 
BRANCH   3   4
ATOM      4  C   UNL     1      25.765  -4.267  55.467  1.00  0.00     0.041 C 
ATOM      5  O   UNL     1      26.619  -3.635  56.143  1.00  0.00    -0.550 OA
ATOM      6  O   UNL     1      25.932  -5.629  55.247  1.00  0.00    -0.550 OA
ENDBRANCH   3   4
ENDBRANCH   2   3
ENDBRANCH   1   2
BRANCH   1   7
ATOM      7  C   UNL     1      26.482  -3.631  51.566  1.00  0.00     0.000 C 
BRANCH   7   8
ATOM      8  C   UNL     1      26.565  -5.152  51.764  1.00  0.00    -0.000 C 
BRANCH   8   9
ATOM      9  C   UNL     1      27.899  -5.548  52.409  1.00  0.00    -0.003 C 
ATOM     10  C   UNL     1      29.031  -5.540  51.386  1.00  0.00     0.004 C 
ENDBRANCH   8   9
ENDBRANCH   7   8
ENDBRANCH   1   7
TORSDOF 6
ENDMDL
MODEL 5
REMARK VINA RESULT:    -3.216      1.360      2.655
REMARK INTER + INTRA:          -4.842
REMARK INTER:                  -4.249
REMARK INTRA:                  -0.593
REMARK UNBOUND:                -0.498
REMARK SMILES CCCCCCCC(=O)[O-]
REMARK SMILES IDX 5 1 6 2 7 3 8 4 9 5 10 6 4 7 3 8 2 9 1 10
REMARK H PARENT
REMARK Flexibility Score: inf
ROOT
ATOM      1  C   UNL     1      26.360  -4.445  55.454  1.00  0.00     0.000 C 
ENDROOT
BRANCH   1   2
ATOM      2  C   UNL     1      26.807  -5.522  54.450  1.00  0.00     0.006 C 
BRANCH   2   3
ATOM      3  C   UNL     1      27.996  -5.060  53.597  1.00  0.00     0.053 C 
BRANCH   3   4
ATOM      4  C   UNL     1      27.829  -5.442  52.158  1.00  0.00     0.041 C 
ATOM      5  O   UNL     1      28.831  -5.764  51.466  1.00  0.00    -0.550 OA
ATOM      6  O   UNL     1      26.569  -5.415  51.573  1.00  0.00    -0.550 OA
ENDBRANCH   3   4
ENDBRANCH   2   3
ENDBRANCH   1   2
BRANCH   1   7
ATOM      7  C   UNL     1      24.906  -3.998  55.232  1.00  0.00     0.000 C 
BRANCH   7   8
ATOM      8  C   UNL     1      24.666  -3.438  53.822  1.00  0.00    -0.000 C 
BRANCH   8   9
ATOM      9  C   UNL     1      25.339  -2.070  53.655  1.00  0.00    -0.003 C 
ATOM     10  C   UNL     1      26.111  -1.991  52.341  1.00  0.00     0.004 C 
ENDBRANCH   8   9
ENDBRANCH   7   8
ENDBRANCH   1   7
TORSDOF 6
ENDMDL
MODEL 6
REMARK VINA RESULT:    -3.159      1.239      2.582
REMARK INTER + INTRA:          -4.766
REMARK INTER:                  -4.185
REMARK INTRA:                  -0.580
REMARK UNBOUND:                -0.498
REMARK SMILES CCCCCCCC(=O)[O-]
REMARK SMILES IDX 5 1 6 2 7 3 8 4 9 5 10 6 4 7 3 8 2 9 1 10
REMARK H PARENT
REMARK Flexibility Score: inf
ROOT
ATOM      1  C   UNL     1      27.186  -4.213  54.861  1.00  0.00     0.000 C 
ENDROOT
BRANCH   1   2
ATOM      2  C   UNL     1      28.588  -4.720  54.481  1.00  0.00     0.006 C 
BRANCH   2   3
ATOM      3  C   UNL     1      28.540  -5.783  53.376  1.00  0.00     0.053 C 
BRANCH   3   4
ATOM      4  C   UNL     1      29.469  -5.456  52.248  1.00  0.00     0.041 C 
ATOM      5  O   UNL     1      29.198  -5.825  51.075  1.00  0.00    -0.550 OA
ATOM      6  O   UNL     1      30.650  -4.768  52.498  1.00  0.00    -0.550 OA
ENDBRANCH   3   4
ENDBRANCH   2   3
ENDBRANCH   1   2
BRANCH   1   7
ATOM      7  C   UNL     1      26.078  -4.841  54.002  1.00  0.00     0.000 C 
BRANCH   7   8
ATOM      8  C   UNL     1      25.400  -3.825  53.070  1.00  0.00    -0.000 C 
BRANCH   8   9
ATOM      9  C   UNL     1      25.965  -3.923  51.648  1.00  0.00    -0.003 C 
ATOM     10  C   UNL     1      26.923  -2.773  51.353  1.00  0.00     0.004 C 
ENDBRANCH   8   9
ENDBRANCH   7   8
ENDBRANCH   1   7
TORSDOF 6
ENDMDL
MODEL 7
REMARK VINA RESULT:    -3.154      1.413      2.798
REMARK INTER + INTRA:          -4.759
REMARK INTER:                  -4.148
REMARK INTRA:                  -0.610
REMARK UNBOUND:                -0.498
REMARK SMILES CCCCCCCC(=O)[O-]
REMARK SMILES IDX 5 1 6 2 7 3 8 4 9 5 10 6 4 7 3 8 2 9 1 10
REMARK H PARENT
REMARK Flexibility Score: inf
ROOT
ATOM      1  C   UNL     1      25.256  -4.031  54.991  1.00  0.00     0.000 C 
ENDROOT
BRANCH   1   2
ATOM      2  C   UNL     1      26.098  -5.311  54.860  1.00  0.00     0.006 C 
BRANCH   2   3
ATOM      3  C   UNL     1      27.576  -5.069  55.195  1.00  0.00     0.053 C 
BRANCH   3   4
ATOM      4  C   UNL     1      28.441  -5.131  53.973  1.00  0.00     0.041 C 
ATOM      5  O   UNL     1      28.381  -6.125  53.203  1.00  0.00    -0.550 OA
ATOM      6  O   UNL     1      29.334  -4.103  53.701  1.00  0.00    -0.550 OA
ENDBRANCH   3   4
ENDBRANCH   2   3
ENDBRANCH   1   2
BRANCH   1   7
ATOM      7  C   UNL     1      24.728  -3.529  53.637  1.00  0.00     0.000 C 
BRANCH   7   8
ATOM      8  C   UNL     1      25.634  -2.461  53.006  1.00  0.00    -0.000 C 
BRANCH   8   9
ATOM      9  C   UNL     1      26.429  -3.043  51.831  1.00  0.00    -0.003 C 
ATOM     10  C   UNL     1      25.794  -4.332  51.319  1.00  0.00     0.004 C 
ENDBRANCH   8   9
ENDBRANCH   7   8
ENDBRANCH   1   7
TORSDOF 6
ENDMDL
MODEL 8
REMARK VINA RESULT:    -3.149      3.109      4.897
REMARK INTER + INTRA:          -4.752
REMARK INTER:                  -4.249
REMARK INTRA:                  -0.503
REMARK UNBOUND:                -0.498
REMARK SMILES CCCCCCCC(=O)[O-]
REMARK SMILES IDX 5 1 6 2 7 3 8 4 9 5 10 6 4 7 3 8 2 9 1 10
REMARK H PARENT
REMARK Flexibility Score: inf
ROOT
ATOM      1  C   UNL     1      26.588  -5.498  54.720  1.00  0.00     0.000 C 
ENDROOT
BRANCH   1   2
ATOM      2  C   UNL     1      25.752  -4.597  55.644  1.00  0.00     0.006 C 
BRANCH   2   3
ATOM      3  C   UNL     1      24.610  -3.898  54.894  1.00  0.00     0.053 C 
BRANCH   3   4
ATOM      4  C   UNL     1      24.633  -2.415  55.101  1.00  0.00     0.041 C 
ATOM      5  O   UNL     1      25.293  -1.675  54.324  1.00  0.00    -0.550 OA
ATOM      6  O   UNL     1      23.948  -1.852  56.171  1.00  0.00    -0.550 OA
ENDBRANCH   3   4
ENDBRANCH   2   3
ENDBRANCH   1   2
BRANCH   1   7
ATOM      7  C   UNL     1      27.177  -4.734  53.524  1.00  0.00     0.000 C 
BRANCH   7   8
ATOM      8  C   UNL     1      26.708  -5.295  52.172  1.00  0.00    -0.000 C 
BRANCH   8   9
ATOM      9  C   UNL     1      25.940  -4.232  51.376  1.00  0.00    -0.003 C 
ATOM     10  C   UNL     1      26.700  -2.910  51.344  1.00  0.00     0.004 C 
ENDBRANCH   8   9
ENDBRANCH   7   8
ENDBRANCH   1   7
TORSDOF 6
ENDMDL
MODEL 9
REMARK VINA RESULT:    -3.148      2.110      3.329
REMARK INTER + INTRA:          -4.750
REMARK INTER:                  -4.084
REMARK INTRA:                  -0.666
REMARK UNBOUND:                -0.498
REMARK SMILES CCCCCCCC(=O)[O-]
REMARK SMILES IDX 5 1 6 2 7 3 8 4 9 5 10 6 4 7 3 8 2 9 1 10
REMARK H PARENT
REMARK Flexibility Score: inf
ROOT
ATOM      1  C   UNL     1      26.098  -2.623  54.079  1.00  0.00     0.000 C 
ENDROOT
BRANCH   1   2
ATOM      2  C   UNL     1      25.427  -3.990  53.863  1.00  0.00     0.006 C 
BRANCH   2   3
ATOM      3  C   UNL     1      26.441  -5.079  53.486  1.00  0.00     0.053 C 
BRANCH   3   4
ATOM      4  C   UNL     1      26.686  -5.124  52.009  1.00  0.00     0.041 C 
ATOM      5  O   UNL     1      27.785  -5.542  51.560  1.00  0.00    -0.550 OA
ATOM      6  O   UNL     1      25.708  -4.676  51.129  1.00  0.00    -0.550 OA
ENDBRANCH   3   4
ENDBRANCH   2   3
ENDBRANCH   1   2
BRANCH   1   7
ATOM      7  C   UNL     1      25.774  -1.621  52.959  1.00  0.00     0.000 C 
BRANCH   7   8
ATOM      8  C   UNL     1      26.972  -1.359  52.034  1.00  0.00    -0.000 C 
BRANCH   8   9
ATOM      9  C   UNL     1      28.295  -1.633  52.759  1.00  0.00    -0.003 C 
ATOM     10  C   UNL     1      29.308  -2.295  51.830  1.00  0.00     0.004 C 
ENDBRANCH   8   9
ENDBRANCH   7   8
ENDBRANCH   1   7
TORSDOF 6
ENDMDL
