MODEL 1
REMARK VINA RESULT:    -3.026      0.000      0.000
REMARK INTER + INTRA:          -8.141
REMARK INTER:                  -5.679
REMARK INTRA:                  -2.462
REMARK UNBOUND:                -2.462
REMARK SMILES O=C([O-])CCCCCCCCCCCCCCC(=O)[O-]
REMARK SMILES IDX 10 1 9 2 8 3 7 4 6 5 5 6 4 7 2 8 1 9 3 10 11 11 12 12 13 13
REMARK SMILES IDX 14 14 15 15 16 16 17 17 18 18 19 19 20 20
REMARK H PARENT
REMARK Flexibility Score: inf
ROOT
ATOM      1  C   UNL     1     -32.662   3.050 -39.650  1.00  0.00     0.000 C 
ENDROOT
BRANCH   1   2
ATOM      2  C   UNL     1     -32.581   1.656 -39.002  1.00  0.00     0.000 C 
BRANCH   2   3
ATOM      3  C   UNL     1     -31.138   1.145 -38.875  1.00  0.00     0.000 C 
BRANCH   3   4
ATOM      4  C   UNL     1     -30.657   1.068 -37.415  1.00  0.00     0.000 C 
BRANCH   4   5
ATOM      5  C   UNL     1     -31.651   1.734 -36.438  1.00  0.00     0.000 C 
BRANCH   5   6
ATOM      6  C   UNL     1     -31.136   3.062 -35.850  1.00  0.00     0.006 C 
BRANCH   6   7
ATOM      7  C   UNL     1     -32.059   4.260 -36.114  1.00  0.00     0.053 C 
BRANCH   7   8
ATOM      8  C   UNL     1     -32.740   4.723 -34.862  1.00  0.00     0.041 C 
ATOM      9  O   UNL     1     -32.300   4.379 -33.734  1.00  0.00    -0.550 OA
ATOM     10  O   UNL     1     -33.851   5.553 -34.942  1.00  0.00    -0.550 OA
ENDBRANCH   7   8
ENDBRANCH   6   7
ENDBRANCH   5   6
ENDBRANCH   4   5
ENDBRANCH   3   4
ENDBRANCH   2   3
ENDBRANCH   1   2
BRANCH   1  11
ATOM     11  C   UNL     1     -31.288   3.566 -40.108  1.00  0.00     0.000 C 
BRANCH  11  12
ATOM     12  C   UNL     1     -30.969   4.967 -39.554  1.00  0.00     0.000 C 
BRANCH  12  13
ATOM     13  C   UNL     1     -29.648   5.006 -38.769  1.00  0.00     0.000 C 
BRANCH  13  14
ATOM     14  C   UNL     1     -28.625   3.977 -39.273  1.00  0.00     0.000 C 
BRANCH  14  15
ATOM     15  C   UNL     1     -28.000   3.207 -38.101  1.00  0.00     0.000 C 
BRANCH  15  16
ATOM     16  C   UNL     1     -27.738   4.098 -36.877  1.00  0.00     0.006 C 
BRANCH  16  17
ATOM     17  C   UNL     1     -26.244   4.374 -36.656  1.00  0.00     0.053 C 
BRANCH  17  18
ATOM     18  C   UNL     1     -25.985   4.731 -35.226  1.00  0.00     0.041 C 
ATOM     19  O   UNL     1     -26.764   5.508 -34.617  1.00  0.00    -0.550 OA
ATOM     20  O   UNL     1     -24.855   4.242 -34.582  1.00  0.00    -0.550 OA
ENDBRANCH  17  18
ENDBRANCH  16  17
ENDBRANCH  15  16
ENDBRANCH  14  15
ENDBRANCH  13  14
ENDBRANCH  12  13
ENDBRANCH  11  12
ENDBRANCH   1  11
TORSDOF 15
ENDMDL
MODEL 2
REMARK VINA RESULT:    -3.013     10.560     12.790
REMARK INTER + INTRA:          -8.117
REMARK INTER:                  -5.948
REMARK INTRA:                  -2.169
REMARK UNBOUND:                -2.462
REMARK SMILES O=C([O-])CCCCCCCCCCCCCCC(=O)[O-]
REMARK SMILES IDX 10 1 9 2 8 3 7 4 6 5 5 6 4 7 2 8 1 9 3 10 11 11 12 12 13 13
REMARK SMILES IDX 14 14 15 15 16 16 17 17 18 18 19 19 20 20
REMARK H PARENT
REMARK Flexibility Score: inf
ROOT
ATOM      1  C   UNL     1     -31.933  -3.040 -32.639  1.00  0.00     0.000 C 
ENDROOT
BRANCH   1   2
ATOM      2  C   UNL     1     -32.307  -2.998 -31.146  1.00  0.00     0.000 C 
BRANCH   2   3
ATOM      3  C   UNL     1     -33.431  -1.995 -30.846  1.00  0.00     0.000 C 
BRANCH   3   4
ATOM      4  C   UNL     1     -34.539  -2.588 -29.958  1.00  0.00     0.000 C 
BRANCH   4   5
ATOM      5  C   UNL     1     -33.985  -3.603 -28.933  1.00  0.00     0.000 C 
BRANCH   5   6
ATOM      6  C   UNL     1     -35.062  -4.543 -28.358  1.00  0.00     0.006 C 
BRANCH   6   7
ATOM      7  C   UNL     1     -34.646  -5.247 -27.059  1.00  0.00     0.053 C 
BRANCH   7   8
ATOM      8  C   UNL     1     -35.263  -4.604 -25.855  1.00  0.00     0.041 C 
ATOM      9  O   UNL     1     -35.012  -5.040 -24.701  1.00  0.00    -0.550 OA
ATOM     10  O   UNL     1     -36.103  -3.508 -26.006  1.00  0.00    -0.550 OA
ENDBRANCH   7   8
ENDBRANCH   6   7
ENDBRANCH   5   6
ENDBRANCH   4   5
ENDBRANCH   3   4
ENDBRANCH   2   3
ENDBRANCH   1   2
BRANCH   1  11
ATOM     11  C   UNL     1     -32.540  -4.253 -33.364  1.00  0.00     0.000 C 
BRANCH  11  12
ATOM     12  C   UNL     1     -34.052  -4.096 -33.611  1.00  0.00     0.000 C 
BRANCH  12  13
ATOM     13  C   UNL     1     -34.829  -5.400 -33.369  1.00  0.00     0.000 C 
BRANCH  13  14
ATOM     14  C   UNL     1     -35.028  -5.706 -31.876  1.00  0.00     0.000 C 
BRANCH  14  15
ATOM     15  C   UNL     1     -34.435  -7.076 -31.515  1.00  0.00     0.000 C 
BRANCH  15  16
ATOM     16  C   UNL     1     -32.988  -6.980 -31.005  1.00  0.00     0.006 C 
BRANCH  16  17
ATOM     17  C   UNL     1     -32.827  -7.528 -29.581  1.00  0.00     0.053 C 
BRANCH  17  18
ATOM     18  C   UNL     1     -32.422  -8.968 -29.618  1.00  0.00     0.041 C 
ATOM     19  O   UNL     1     -31.966  -9.470 -30.678  1.00  0.00    -0.550 OA
ATOM     20  O   UNL     1     -32.596  -9.768 -28.496  1.00  0.00    -0.550 OA
ENDBRANCH  17  18
ENDBRANCH  16  17
ENDBRANCH  15  16
ENDBRANCH  14  15
ENDBRANCH  13  14
ENDBRANCH  12  13
ENDBRANCH  11  12
ENDBRANCH   1  11
TORSDOF 15
ENDMDL
MODEL 3
REMARK VINA RESULT:    -2.963     13.640     15.833
REMARK INTER + INTRA:          -8.024
REMARK INTER:                  -6.634
REMARK INTRA:                  -1.390
REMARK UNBOUND:                -2.462
REMARK SMILES O=C([O-])CCCCCCCCCCCCCCC(=O)[O-]
REMARK SMILES IDX 10 1 9 2 8 3 7 4 6 5 5 6 4 7 2 8 1 9 3 10 11 11 12 12 13 13
REMARK SMILES IDX 14 14 15 15 16 16 17 17 18 18 19 19 20 20
REMARK H PARENT
REMARK Flexibility Score: inf
ROOT
ATOM      1  C   UNL     1     -31.062  -9.874 -28.022  1.00  0.00     0.000 C 
ENDROOT
BRANCH   1   2
ATOM      2  C   UNL     1     -32.473  -9.503 -28.512  1.00  0.00     0.000 C 
BRANCH   2   3
ATOM      3  C   UNL     1     -32.551  -9.364 -30.040  1.00  0.00     0.000 C 
BRANCH   3   4
ATOM      4  C   UNL     1     -32.813  -7.918 -30.496  1.00  0.00     0.000 C 
BRANCH   4   5
ATOM      5  C   UNL     1     -33.985  -7.826 -31.498  1.00  0.00     0.000 C 
BRANCH   5   6
ATOM      6  C   UNL     1     -34.709  -6.466 -31.469  1.00  0.00     0.006 C 
BRANCH   6   7
ATOM      7  C   UNL     1     -33.838  -5.286 -31.922  1.00  0.00     0.053 C 
BRANCH   7   8
ATOM      8  C   UNL     1     -34.280  -4.745 -33.247  1.00  0.00     0.041 C 
ATOM      9  O   UNL     1     -33.718  -3.731 -33.740  1.00  0.00    -0.550 OA
ATOM     10  O   UNL     1     -35.301  -5.373 -33.949  1.00  0.00    -0.550 OA
ENDBRANCH   7   8
ENDBRANCH   6   7
ENDBRANCH   5   6
ENDBRANCH   4   5
ENDBRANCH   3   4
ENDBRANCH   2   3
ENDBRANCH   1   2
BRANCH   1  11
ATOM     11  C   UNL     1     -31.076 -11.024 -27.001  1.00  0.00     0.000 C 
BRANCH  11  12
ATOM     12  C   UNL     1     -32.496 -11.354 -26.505  1.00  0.00     0.000 C 
BRANCH  12  13
ATOM     13  C   UNL     1     -32.589 -11.415 -24.972  1.00  0.00     0.000 C 
BRANCH  13  14
ATOM     14  C   UNL     1     -32.243 -10.077 -24.301  1.00  0.00     0.000 C 
BRANCH  14  15
ATOM     15  C   UNL     1     -33.208  -8.972 -24.755  1.00  0.00     0.000 C 
BRANCH  15  16
ATOM     16  C   UNL     1     -32.542  -7.588 -24.807  1.00  0.00     0.006 C 
BRANCH  16  17
ATOM     17  C   UNL     1     -31.021  -7.670 -24.989  1.00  0.00     0.053 C 
BRANCH  17  18
ATOM     18  C   UNL     1     -30.326  -6.842 -23.955  1.00  0.00     0.041 C 
ATOM     19  O   UNL     1     -30.706  -5.664 -23.727  1.00  0.00    -0.550 OA
ATOM     20  O   UNL     1     -29.226  -7.355 -23.278  1.00  0.00    -0.550 OA
ENDBRANCH  17  18
ENDBRANCH  16  17
ENDBRANCH  15  16
ENDBRANCH  14  15
ENDBRANCH  13  14
ENDBRANCH  12  13
ENDBRANCH  11  12
ENDBRANCH   1  11
TORSDOF 15
ENDMDL
MODEL 4
REMARK VINA RESULT:    -2.961     13.931     16.357
REMARK INTER + INTRA:          -8.019
REMARK INTER:                  -6.627
REMARK INTRA:                  -1.391
REMARK UNBOUND:                -2.462
REMARK SMILES O=C([O-])CCCCCCCCCCCCCCC(=O)[O-]
REMARK SMILES IDX 10 1 9 2 8 3 7 4 6 5 5 6 4 7 2 8 1 9 3 10 11 11 12 12 13 13
REMARK SMILES IDX 14 14 15 15 16 16 17 17 18 18 19 19 20 20
REMARK H PARENT
REMARK Flexibility Score: inf
ROOT
ATOM      1  C   UNL     1     -30.908 -10.500 -27.755  1.00  0.00     0.000 C 
ENDROOT
BRANCH   1   2
ATOM      2  C   UNL     1     -32.296  -9.858 -27.929  1.00  0.00     0.000 C 
BRANCH   2   3
ATOM      3  C   UNL     1     -32.247  -8.553 -28.738  1.00  0.00     0.000 C 
BRANCH   3   4
ATOM      4  C   UNL     1     -32.681  -8.740 -30.202  1.00  0.00     0.000 C 
BRANCH   4   5
ATOM      5  C   UNL     1     -32.943  -7.393 -30.910  1.00  0.00     0.000 C 
BRANCH   5   6
ATOM      6  C   UNL     1     -34.371  -7.264 -31.474  1.00  0.00     0.006 C 
BRANCH   6   7
ATOM      7  C   UNL     1     -34.830  -5.815 -31.686  1.00  0.00     0.053 C 
BRANCH   7   8
ATOM      8  C   UNL     1     -34.498  -5.322 -33.061  1.00  0.00     0.041 C 
ATOM      9  O   UNL     1     -35.358  -5.372 -33.980  1.00  0.00    -0.550 OA
ATOM     10  O   UNL     1     -33.244  -4.787 -33.324  1.00  0.00    -0.550 OA
ENDBRANCH   7   8
ENDBRANCH   6   7
ENDBRANCH   5   6
ENDBRANCH   4   5
ENDBRANCH   3   4
ENDBRANCH   2   3
ENDBRANCH   1   2
BRANCH   1  11
ATOM     11  C   UNL     1     -30.887 -11.564 -26.645  1.00  0.00     0.000 C 
BRANCH  11  12
ATOM     12  C   UNL     1     -29.953 -11.184 -25.481  1.00  0.00     0.000 C 
BRANCH  12  13
ATOM     13  C   UNL     1     -30.721 -10.804 -24.205  1.00  0.00     0.000 C 
BRANCH  13  14
ATOM     14  C   UNL     1     -32.235 -11.031 -24.333  1.00  0.00     0.000 C 
BRANCH  14  15
ATOM     15  C   UNL     1     -33.000  -9.704 -24.212  1.00  0.00     0.000 C 
BRANCH  15  16
ATOM     16  C   UNL     1     -32.124  -8.483 -24.535  1.00  0.00     0.006 C 
BRANCH  16  17
ATOM     17  C   UNL     1     -32.913  -7.352 -25.209  1.00  0.00     0.053 C 
BRANCH  17  18
ATOM     18  C   UNL     1     -33.415  -6.384 -24.185  1.00  0.00     0.041 C 
ATOM     19  O   UNL     1     -34.649  -6.170 -24.068  1.00  0.00    -0.550 OA
ATOM     20  O   UNL     1     -32.515  -5.681 -23.393  1.00  0.00    -0.550 OA
ENDBRANCH  17  18
ENDBRANCH  16  17
ENDBRANCH  15  16
ENDBRANCH  14  15
ENDBRANCH  13  14
ENDBRANCH  12  13
ENDBRANCH  11  12
ENDBRANCH   1  11
TORSDOF 15
ENDMDL
MODEL 5
REMARK VINA RESULT:    -2.953      1.790      5.430
REMARK INTER + INTRA:          -8.005
REMARK INTER:                  -6.059
REMARK INTRA:                  -1.946
REMARK UNBOUND:                -2.462
REMARK SMILES O=C([O-])CCCCCCCCCCCCCCC(=O)[O-]
REMARK SMILES IDX 10 1 9 2 8 3 7 4 6 5 5 6 4 7 2 8 1 9 3 10 11 11 12 12 13 13
REMARK SMILES IDX 14 14 15 15 16 16 17 17 18 18 19 19 20 20
REMARK H PARENT
REMARK Flexibility Score: inf
ROOT
ATOM      1  C   UNL     1     -29.533  -0.037 -39.919  1.00  0.00     0.000 C 
ENDROOT
BRANCH   1   2
ATOM      2  C   UNL     1     -28.199  -0.030 -39.152  1.00  0.00     0.000 C 
BRANCH   2   3
ATOM      3  C   UNL     1     -27.782   1.378 -38.702  1.00  0.00     0.000 C 
BRANCH   3   4
ATOM      4  C   UNL     1     -28.311   2.484 -39.632  1.00  0.00     0.000 C 
BRANCH   4   5
ATOM      5  C   UNL     1     -28.572   3.806 -38.877  1.00  0.00     0.000 C 
BRANCH   5   6
ATOM      6  C   UNL     1     -28.149   3.760 -37.396  1.00  0.00     0.006 C 
BRANCH   6   7
ATOM      7  C   UNL     1     -27.183   4.881 -36.987  1.00  0.00     0.053 C 
BRANCH   7   8
ATOM      8  C   UNL     1     -27.037   4.974 -35.499  1.00  0.00     0.041 C 
ATOM      9  O   UNL     1     -26.167   5.731 -34.991  1.00  0.00    -0.550 OA
ATOM     10  O   UNL     1     -27.874   4.239 -34.671  1.00  0.00    -0.550 OA
ENDBRANCH   7   8
ENDBRANCH   6   7
ENDBRANCH   5   6
ENDBRANCH   4   5
ENDBRANCH   3   4
ENDBRANCH   2   3
ENDBRANCH   1   2
BRANCH   1  11
ATOM     11  C   UNL     1     -30.562  -1.000 -39.303  1.00  0.00     0.000 C 
BRANCH  11  12
ATOM     12  C   UNL     1     -30.694  -0.825 -37.779  1.00  0.00     0.000 C 
BRANCH  12  13
ATOM     13  C   UNL     1     -31.806   0.162 -37.390  1.00  0.00     0.000 C 
BRANCH  13  14
ATOM     14  C   UNL     1     -32.980   0.156 -38.381  1.00  0.00     0.000 C 
BRANCH  14  15
ATOM     15  C   UNL     1     -33.129   1.525 -39.061  1.00  0.00     0.000 C 
BRANCH  15  16
ATOM     16  C   UNL     1     -31.978   2.485 -38.719  1.00  0.00     0.006 C 
BRANCH  16  17
ATOM     17  C   UNL     1     -32.400   3.959 -38.786  1.00  0.00     0.053 C 
BRANCH  17  18
ATOM     18  C   UNL     1     -32.037   4.664 -37.517  1.00  0.00     0.041 C 
ATOM     19  O   UNL     1     -31.597   4.012 -36.535  1.00  0.00    -0.550 OA
ATOM     20  O   UNL     1     -32.232   6.035 -37.403  1.00  0.00    -0.550 OA
ENDBRANCH  17  18
ENDBRANCH  16  17
ENDBRANCH  15  16
ENDBRANCH  14  15
ENDBRANCH  13  14
ENDBRANCH  12  13
ENDBRANCH  11  12
ENDBRANCH   1  11
TORSDOF 15
ENDMDL
MODEL 6
REMARK VINA RESULT:    -2.934      2.175      3.081
REMARK INTER + INTRA:          -7.970
REMARK INTER:                  -6.215
REMARK INTRA:                  -1.755
REMARK UNBOUND:                -2.462
REMARK SMILES O=C([O-])CCCCCCCCCCCCCCC(=O)[O-]
REMARK SMILES IDX 10 1 9 2 8 3 7 4 6 5 5 6 4 7 2 8 1 9 3 10 11 11 12 12 13 13
REMARK SMILES IDX 14 14 15 15 16 16 17 17 18 18 19 19 20 20
REMARK H PARENT
REMARK Flexibility Score: inf
ROOT
ATOM      1  C   UNL     1     -30.169   1.514 -36.037  1.00  0.00     0.000 C 
ENDROOT
BRANCH   1   2
ATOM      2  C   UNL     1     -29.940   0.302 -36.957  1.00  0.00     0.000 C 
BRANCH   2   3
ATOM      3  C   UNL     1     -31.223  -0.509 -37.198  1.00  0.00     0.000 C 
BRANCH   3   4
ATOM      4  C   UNL     1     -31.814  -0.290 -38.602  1.00  0.00     0.000 C 
BRANCH   4   5
ATOM      5  C   UNL     1     -33.089   0.583 -38.569  1.00  0.00     0.000 C 
BRANCH   5   6
ATOM      6  C   UNL     1     -32.844   2.041 -39.000  1.00  0.00     0.006 C 
BRANCH   6   7
ATOM      7  C   UNL     1     -33.224   3.079 -37.935  1.00  0.00     0.053 C 
BRANCH   7   8
ATOM      8  C   UNL     1     -33.099   4.479 -38.453  1.00  0.00     0.041 C 
ATOM      9  O   UNL     1     -34.120   5.109 -38.837  1.00  0.00    -0.550 OA
ATOM     10  O   UNL     1     -31.856   5.097 -38.494  1.00  0.00    -0.550 OA
ENDBRANCH   7   8
ENDBRANCH   6   7
ENDBRANCH   5   6
ENDBRANCH   4   5
ENDBRANCH   3   4
ENDBRANCH   2   3
ENDBRANCH   1   2
BRANCH   1  11
ATOM     11  C   UNL     1     -29.754   2.840 -36.696  1.00  0.00     0.000 C 
BRANCH  11  12
ATOM     12  C   UNL     1     -29.365   2.668 -38.175  1.00  0.00     0.000 C 
BRANCH  12  13
ATOM     13  C   UNL     1     -28.230   3.612 -38.603  1.00  0.00     0.000 C 
BRANCH  13  14
ATOM     14  C   UNL     1     -28.048   4.797 -37.642  1.00  0.00     0.000 C 
BRANCH  14  15
ATOM     15  C   UNL     1     -26.656   4.768 -36.995  1.00  0.00     0.000 C 
BRANCH  15  16
ATOM     16  C   UNL     1     -26.551   5.693 -35.772  1.00  0.00     0.006 C 
BRANCH  16  17
ATOM     17  C   UNL     1     -26.796   4.954 -34.450  1.00  0.00     0.053 C 
BRANCH  17  18
ATOM     18  C   UNL     1     -25.518   4.813 -33.685  1.00  0.00     0.041 C 
ATOM     19  O   UNL     1     -25.463   5.153 -32.475  1.00  0.00    -0.550 OA
ATOM     20  O   UNL     1     -24.373   4.354 -34.325  1.00  0.00    -0.550 OA
ENDBRANCH  17  18
ENDBRANCH  16  17
ENDBRANCH  15  16
ENDBRANCH  14  15
ENDBRANCH  13  14
ENDBRANCH  12  13
ENDBRANCH  11  12
ENDBRANCH   1  11
TORSDOF 15
ENDMDL
MODEL 7
REMARK VINA RESULT:    -2.898      5.994      7.627
REMARK INTER + INTRA:          -7.902
REMARK INTER:                  -6.737
REMARK INTRA:                  -1.165
REMARK UNBOUND:                -2.462
REMARK SMILES O=C([O-])CCCCCCCCCCCCCCC(=O)[O-]
REMARK SMILES IDX 10 1 9 2 8 3 7 4 6 5 5 6 4 7 2 8 1 9 3 10 11 11 12 12 13 13
REMARK SMILES IDX 14 14 15 15 16 16 17 17 18 18 19 19 20 20
REMARK H PARENT
REMARK Flexibility Score: inf
ROOT
ATOM      1  C   UNL     1     -30.270  -1.635 -35.352  1.00  0.00     0.000 C 
ENDROOT
BRANCH   1   2
ATOM      2  C   UNL     1     -31.092  -2.149 -34.157  1.00  0.00     0.000 C 
BRANCH   2   3
ATOM      3  C   UNL     1     -32.414  -1.387 -33.976  1.00  0.00     0.000 C 
BRANCH   3   4
ATOM      4  C   UNL     1     -33.601  -2.314 -33.667  1.00  0.00     0.000 C 
BRANCH   4   5
ATOM      5  C   UNL     1     -33.211  -3.807 -33.745  1.00  0.00     0.000 C 
BRANCH   5   6
ATOM      6  C   UNL     1     -34.310  -4.755 -33.226  1.00  0.00     0.006 C 
BRANCH   6   7
ATOM      7  C   UNL     1     -34.175  -5.110 -31.739  1.00  0.00     0.053 C 
BRANCH   7   8
ATOM      8  C   UNL     1     -34.805  -6.432 -31.424  1.00  0.00     0.041 C 
ATOM      9  O   UNL     1     -34.140  -7.496 -31.529  1.00  0.00    -0.550 OA
ATOM     10  O   UNL     1     -36.125  -6.489 -30.994  1.00  0.00    -0.550 OA
ENDBRANCH   7   8
ENDBRANCH   6   7
ENDBRANCH   5   6
ENDBRANCH   4   5
ENDBRANCH   3   4
ENDBRANCH   2   3
ENDBRANCH   1   2
BRANCH   1  11
ATOM     11  C   UNL     1     -31.131  -0.882 -36.379  1.00  0.00     0.000 C 
BRANCH  11  12
ATOM     12  C   UNL     1     -30.426  -0.724 -37.739  1.00  0.00     0.000 C 
BRANCH  12  13
ATOM     13  C   UNL     1     -31.415  -0.631 -38.911  1.00  0.00     0.000 C 
BRANCH  13  14
ATOM     14  C   UNL     1     -32.760  -0.008 -38.507  1.00  0.00     0.000 C 
BRANCH  14  15
ATOM     15  C   UNL     1     -32.797   1.487 -38.855  1.00  0.00     0.000 C 
BRANCH  15  16
ATOM     16  C   UNL     1     -32.851   2.385 -37.608  1.00  0.00     0.006 C 
BRANCH  16  17
ATOM     17  C   UNL     1     -32.038   3.676 -37.775  1.00  0.00     0.053 C 
BRANCH  17  18
ATOM     18  C   UNL     1     -30.580   3.363 -37.894  1.00  0.00     0.041 C 
ATOM     19  O   UNL     1     -29.957   3.642 -38.951  1.00  0.00    -0.550 OA
ATOM     20  O   UNL     1     -29.921   2.718 -36.854  1.00  0.00    -0.550 OA
ENDBRANCH  17  18
ENDBRANCH  16  17
ENDBRANCH  15  16
ENDBRANCH  14  15
ENDBRANCH  13  14
ENDBRANCH  12  13
ENDBRANCH  11  12
ENDBRANCH   1  11
TORSDOF 15
ENDMDL
MODEL 8
REMARK VINA RESULT:    -2.823      2.677      4.182
REMARK INTER + INTRA:          -7.760
REMARK INTER:                  -5.967
REMARK INTRA:                  -1.793
REMARK UNBOUND:                -2.462
REMARK SMILES O=C([O-])CCCCCCCCCCCCCCC(=O)[O-]
REMARK SMILES IDX 10 1 9 2 8 3 7 4 6 5 5 6 4 7 2 8 1 9 3 10 11 11 12 12 13 13
REMARK SMILES IDX 14 14 15 15 16 16 17 17 18 18 19 19 20 20
REMARK H PARENT
REMARK Flexibility Score: inf
ROOT
ATOM      1  C   UNL     1     -30.331   3.589 -35.764  1.00  0.00     0.000 C 
ENDROOT
BRANCH   1   2
ATOM      2  C   UNL     1     -31.777   3.464 -36.273  1.00  0.00     0.000 C 
BRANCH   2   3
ATOM      3  C   UNL     1     -31.947   3.987 -37.708  1.00  0.00     0.000 C 
BRANCH   3   4
ATOM      4  C   UNL     1     -32.624   2.966 -38.639  1.00  0.00     0.000 C 
BRANCH   4   5
ATOM      5  C   UNL     1     -33.117   1.717 -37.876  1.00  0.00     0.000 C 
BRANCH   5   6
ATOM      6  C   UNL     1     -32.753   0.391 -38.571  1.00  0.00     0.006 C 
BRANCH   6   7
ATOM      7  C   UNL     1     -31.256   0.239 -38.878  1.00  0.00     0.053 C 
BRANCH   7   8
ATOM      8  C   UNL     1     -30.583  -0.691 -37.915  1.00  0.00     0.041 C 
ATOM      9  O   UNL     1     -29.454  -1.179 -38.186  1.00  0.00    -0.550 OA
ATOM     10  O   UNL     1     -31.194  -1.004 -36.708  1.00  0.00    -0.550 OA
ENDBRANCH   7   8
ENDBRANCH   6   7
ENDBRANCH   5   6
ENDBRANCH   4   5
ENDBRANCH   3   4
ENDBRANCH   2   3
ENDBRANCH   1   2
BRANCH   1  11
ATOM     11  C   UNL     1     -29.462   2.382 -36.154  1.00  0.00     0.000 C 
BRANCH  11  12
ATOM     12  C   UNL     1     -28.491   2.701 -37.306  1.00  0.00     0.000 C 
BRANCH  12  13
ATOM     13  C   UNL     1     -28.222   4.207 -37.452  1.00  0.00     0.000 C 
BRANCH  13  14
ATOM     14  C   UNL     1     -26.768   4.585 -37.132  1.00  0.00     0.000 C 
BRANCH  14  15
ATOM     15  C   UNL     1     -26.705   5.569 -35.954  1.00  0.00     0.000 C 
BRANCH  15  16
ATOM     16  C   UNL     1     -26.788   4.868 -34.589  1.00  0.00     0.006 C 
BRANCH  16  17
ATOM     17  C   UNL     1     -25.600   5.205 -33.679  1.00  0.00     0.053 C 
BRANCH  17  18
ATOM     18  C   UNL     1     -24.646   4.053 -33.618  1.00  0.00     0.041 C 
ATOM     19  O   UNL     1     -24.834   3.118 -32.797  1.00  0.00    -0.550 OA
ATOM     20  O   UNL     1     -23.522   4.038 -34.435  1.00  0.00    -0.550 OA
ENDBRANCH  17  18
ENDBRANCH  16  17
ENDBRANCH  15  16
ENDBRANCH  14  15
ENDBRANCH  13  14
ENDBRANCH  12  13
ENDBRANCH  11  12
ENDBRANCH   1  11
TORSDOF 15
ENDMDL
