MODEL 1
REMARK VINA RESULT:    -4.193      0.000      0.000
REMARK INTER + INTRA:          -4.959
REMARK INTER:                  -4.929
REMARK INTRA:                  -0.030
REMARK UNBOUND:                -0.030
REMARK SMILES O=C([O-])CCC(=O)[O-]
REMARK SMILES IDX 4 1 2 2 1 3 3 4 5 5 6 6 7 7 8 8
REMARK H PARENT
REMARK Flexibility Score: inf
ROOT
ATOM      1  C   UNL     1     -19.225  13.721 -13.809  1.00  0.00     0.059 C 
ENDROOT
BRANCH   1   2
ATOM      2  C   UNL     1     -20.671  13.356 -13.700  1.00  0.00     0.042 C 
ATOM      3  O   UNL     1     -21.547  14.059 -14.271  1.00  0.00    -0.550 OA
ATOM      4  O   UNL     1     -21.051  12.214 -13.007  1.00  0.00    -0.550 OA
ENDBRANCH   1   2
BRANCH   1   5
ATOM      5  C   UNL     1     -18.367  12.463 -13.963  1.00  0.00     0.059 C 
BRANCH   5   6
ATOM      6  C   UNL     1     -16.953  12.830 -14.283  1.00  0.00     0.042 C 
ATOM      7  O   UNL     1     -16.342  12.246 -15.216  1.00  0.00    -0.550 OA
ATOM      8  O   UNL     1     -16.324  13.852 -13.583  1.00  0.00    -0.550 OA
ENDBRANCH   5   6
ENDBRANCH   1   5
TORSDOF 3
ENDMDL
MODEL 2
REMARK VINA RESULT:    -4.184      0.137      4.287
REMARK INTER + INTRA:          -4.948
REMARK INTER:                  -4.917
REMARK INTRA:                  -0.031
REMARK UNBOUND:                -0.030
REMARK SMILES O=C([O-])CCC(=O)[O-]
REMARK SMILES IDX 4 1 2 2 1 3 3 4 5 5 6 6 7 7 8 8
REMARK H PARENT
REMARK Flexibility Score: inf
ROOT
ATOM      1  C   UNL     1     -18.341  12.419 -13.929  1.00  0.00     0.059 C 
ENDROOT
BRANCH   1   2
ATOM      2  C   UNL     1     -16.941  12.821 -14.268  1.00  0.00     0.042 C 
ATOM      3  O   UNL     1     -16.304  12.205 -15.164  1.00  0.00    -0.550 OA
ATOM      4  O   UNL     1     -16.354  13.905 -13.628  1.00  0.00    -0.550 OA
ENDBRANCH   1   2
BRANCH   1   5
ATOM      5  C   UNL     1     -19.256  13.645 -13.898  1.00  0.00     0.059 C 
BRANCH   5   6
ATOM      6  C   UNL     1     -20.671  13.235 -13.635  1.00  0.00     0.042 C 
ATOM      7  O   UNL     1     -21.622  13.864 -14.169  1.00  0.00    -0.550 OA
ATOM      8  O   UNL     1     -20.938  12.129 -12.840  1.00  0.00    -0.550 OA
ENDBRANCH   5   6
ENDBRANCH   1   5
TORSDOF 3
ENDMDL
MODEL 3
REMARK VINA RESULT:    -4.154      1.561      2.179
REMARK INTER + INTRA:          -4.913
REMARK INTER:                  -4.810
REMARK INTRA:                  -0.103
REMARK UNBOUND:                -0.030
REMARK SMILES O=C([O-])CCC(=O)[O-]
REMARK SMILES IDX 4 1 2 2 1 3 3 4 5 5 6 6 7 7 8 8
REMARK H PARENT
REMARK Flexibility Score: inf
ROOT
ATOM      1  C   UNL     1     -18.465  13.665 -13.544  1.00  0.00     0.059 C 
ENDROOT
BRANCH   1   2
ATOM      2  C   UNL     1     -19.185  12.895 -12.483  1.00  0.00     0.042 C 
ATOM      3  O   UNL     1     -18.777  12.925 -11.292  1.00  0.00    -0.550 OA
ATOM      4  O   UNL     1     -20.335  12.183 -12.799  1.00  0.00    -0.550 OA
ENDBRANCH   1   2
BRANCH   1   5
ATOM      5  C   UNL     1     -16.985  13.814 -13.185  1.00  0.00     0.059 C 
BRANCH   5   6
ATOM      6  C   UNL     1     -16.177  12.739 -13.838  1.00  0.00     0.042 C 
ATOM      7  O   UNL     1     -15.299  12.118 -13.182  1.00  0.00    -0.550 OA
ATOM      8  O   UNL     1     -16.425  12.387 -15.159  1.00  0.00    -0.550 OA
ENDBRANCH   5   6
ENDBRANCH   1   5
TORSDOF 3
ENDMDL
MODEL 4
REMARK VINA RESULT:    -4.134      1.497      4.175
REMARK INTER + INTRA:          -4.888
REMARK INTER:                  -4.800
REMARK INTRA:                  -0.088
REMARK UNBOUND:                -0.030
REMARK SMILES O=C([O-])CCC(=O)[O-]
REMARK SMILES IDX 4 1 2 2 1 3 3 4 5 5 6 6 7 7 8 8
REMARK H PARENT
REMARK Flexibility Score: inf
ROOT
ATOM      1  C   UNL     1     -17.160  13.765 -13.309  1.00  0.00     0.059 C 
ENDROOT
BRANCH   1   2
ATOM      2  C   UNL     1     -16.218  12.756 -13.883  1.00  0.00     0.042 C 
ATOM      3  O   UNL     1     -15.298  12.272 -13.172  1.00  0.00    -0.550 OA
ATOM      4  O   UNL     1     -16.384  12.313 -15.189  1.00  0.00    -0.550 OA
ENDBRANCH   1   2
BRANCH   1   5
ATOM      5  C   UNL     1     -18.600  13.446 -13.717  1.00  0.00     0.059 C 
BRANCH   5   6
ATOM      6  C   UNL     1     -19.346  12.838 -12.573  1.00  0.00     0.042 C 
ATOM      7  O   UNL     1     -20.412  12.199 -12.779  1.00  0.00    -0.550 OA
ATOM      8  O   UNL     1     -18.840  12.933 -11.283  1.00  0.00    -0.550 OA
ENDBRANCH   5   6
ENDBRANCH   1   5
TORSDOF 3
ENDMDL
MODEL 5
REMARK VINA RESULT:    -3.873     19.227     20.153
REMARK INTER + INTRA:          -4.582
REMARK INTER:                  -4.476
REMARK INTRA:                  -0.107
REMARK UNBOUND:                -0.030
REMARK SMILES O=C([O-])CCC(=O)[O-]
REMARK SMILES IDX 4 1 2 2 1 3 3 4 5 5 6 6 7 7 8 8
REMARK H PARENT
REMARK Flexibility Score: inf
ROOT
ATOM      1  C   UNL     1     -12.281  -4.932 -21.772  1.00  0.00     0.059 C 
ENDROOT
BRANCH   1   2
ATOM      2  C   UNL     1     -11.944  -3.973 -20.675  1.00  0.00     0.042 C 
ATOM      3  O   UNL     1     -10.788  -3.481 -20.596  1.00  0.00    -0.550 OA
ATOM      4  O   UNL     1     -12.920  -3.586 -19.765  1.00  0.00    -0.550 OA
ENDBRANCH   1   2
BRANCH   1   5
ATOM      5  C   UNL     1     -12.116  -4.261 -23.137  1.00  0.00     0.059 C 
BRANCH   5   6
ATOM      6  C   UNL     1     -13.447  -3.861 -23.689  1.00  0.00     0.042 C 
ATOM      7  O   UNL     1     -13.523  -3.281 -24.804  1.00  0.00    -0.550 OA
ATOM      8  O   UNL     1     -14.609  -4.172 -22.995  1.00  0.00    -0.550 OA
ENDBRANCH   5   6
ENDBRANCH   1   5
TORSDOF 3
ENDMDL
MODEL 6
REMARK VINA RESULT:    -3.868     19.160     19.993
REMARK INTER + INTRA:          -4.576
REMARK INTER:                  -4.464
REMARK INTRA:                  -0.112
REMARK UNBOUND:                -0.030
REMARK SMILES O=C([O-])CCC(=O)[O-]
REMARK SMILES IDX 4 1 2 2 1 3 3 4 5 5 6 6 7 7 8 8
REMARK H PARENT
REMARK Flexibility Score: inf
ROOT
ATOM      1  C   UNL     1     -12.120  -4.258 -23.131  1.00  0.00     0.059 C 
ENDROOT
BRANCH   1   2
ATOM      2  C   UNL     1     -13.465  -3.885 -23.669  1.00  0.00     0.042 C 
ATOM      3  O   UNL     1     -13.561  -3.289 -24.775  1.00  0.00    -0.550 OA
ATOM      4  O   UNL     1     -14.615  -4.235 -22.973  1.00  0.00    -0.550 OA
ENDBRANCH   1   2
BRANCH   1   5
ATOM      5  C   UNL     1     -12.258  -4.907 -21.752  1.00  0.00     0.059 C 
BRANCH   5   6
ATOM      6  C   UNL     1     -11.946  -3.917 -20.674  1.00  0.00     0.042 C 
ATOM      7  O   UNL     1     -10.785  -3.441 -20.567  1.00  0.00    -0.550 OA
ATOM      8  O   UNL     1     -12.950  -3.482 -19.819  1.00  0.00    -0.550 OA
ENDBRANCH   5   6
ENDBRANCH   1   5
TORSDOF 3
ENDMDL
MODEL 7
REMARK VINA RESULT:    -3.643      2.040      2.755
REMARK INTER + INTRA:          -4.311
REMARK INTER:                  -4.190
REMARK INTRA:                  -0.121
REMARK UNBOUND:                -0.030
REMARK SMILES O=C([O-])CCC(=O)[O-]
REMARK SMILES IDX 4 1 2 2 1 3 3 4 5 5 6 6 7 7 8 8
REMARK H PARENT
REMARK Flexibility Score: inf
ROOT
ATOM      1  C   UNL     1     -18.962  12.626 -11.147  1.00  0.00     0.059 C 
ENDROOT
BRANCH   1   2
ATOM      2  C   UNL     1     -20.208  11.836 -11.395  1.00  0.00     0.042 C 
ATOM      3  O   UNL     1     -20.658  11.067 -10.505  1.00  0.00    -0.550 OA
ATOM      4  O   UNL     1     -20.899  11.985 -12.590  1.00  0.00    -0.550 OA
ENDBRANCH   1   2
BRANCH   1   5
ATOM      5  C   UNL     1     -18.838  13.762 -12.164  1.00  0.00     0.059 C 
BRANCH   5   6
ATOM      6  C   UNL     1     -17.727  13.485 -13.126  1.00  0.00     0.042 C 
ATOM      7  O   UNL     1     -16.631  14.096 -13.022  1.00  0.00    -0.550 OA
ATOM      8  O   UNL     1     -17.884  12.516 -14.108  1.00  0.00    -0.550 OA
ENDBRANCH   5   6
ENDBRANCH   1   5
TORSDOF 3
ENDMDL
MODEL 8
REMARK VINA RESULT:    -3.584      2.226      4.248
REMARK INTER + INTRA:          -4.242
REMARK INTER:                  -4.136
REMARK INTRA:                  -0.107
REMARK UNBOUND:                -0.030
REMARK SMILES O=C([O-])CCC(=O)[O-]
REMARK SMILES IDX 4 1 2 2 1 3 3 4 5 5 6 6 7 7 8 8
REMARK H PARENT
REMARK Flexibility Score: inf
ROOT
ATOM      1  C   UNL     1     -15.909  12.316 -14.205  1.00  0.00     0.059 C 
ENDROOT
BRANCH   1   2
ATOM      2  C   UNL     1     -15.971  11.480 -15.444  1.00  0.00     0.042 C 
ATOM      3  O   UNL     1     -14.946  10.869 -15.848  1.00  0.00    -0.550 OA
ATOM      4  O   UNL     1     -17.172  11.336 -16.127  1.00  0.00    -0.550 OA
ENDBRANCH   1   2
BRANCH   1   5
ATOM      5  C   UNL     1     -17.023  13.365 -14.212  1.00  0.00     0.059 C 
BRANCH   5   6
ATOM      6  C   UNL     1     -18.050  13.044 -13.173  1.00  0.00     0.042 C 
ATOM      7  O   UNL     1     -18.549  11.889 -13.110  1.00  0.00    -0.550 OA
ATOM      8  O   UNL     1     -18.422  14.006 -12.243  1.00  0.00    -0.550 OA
ENDBRANCH   5   6
ENDBRANCH   1   5
TORSDOF 3
ENDMDL
MODEL 9
REMARK VINA RESULT:    -3.503     17.611     19.094
REMARK INTER + INTRA:          -4.148
REMARK INTER:                  -4.022
REMARK INTRA:                  -0.126
REMARK UNBOUND:                -0.030
REMARK SMILES O=C([O-])CCC(=O)[O-]
REMARK SMILES IDX 4 1 2 2 1 3 3 4 5 5 6 6 7 7 8 8
REMARK H PARENT
REMARK Flexibility Score: inf
ROOT
ATOM      1  C   UNL     1     -11.945  -3.503 -21.122  1.00  0.00     0.059 C 
ENDROOT
BRANCH   1   2
ATOM      2  C   UNL     1     -12.773  -4.079 -22.226  1.00  0.00     0.042 C 
ATOM      3  O   UNL     1     -13.728  -3.417 -22.713  1.00  0.00    -0.550 OA
ATOM      4  O   UNL     1     -12.462  -5.326 -22.752  1.00  0.00    -0.550 OA
ENDBRANCH   1   2
BRANCH   1   5
ATOM      5  C   UNL     1     -12.486  -3.947 -19.761  1.00  0.00     0.059 C 
BRANCH   5   6
ATOM      6  C   UNL     1     -13.320  -2.866 -19.151  1.00  0.00     0.042 C 
ATOM      7  O   UNL     1     -12.786  -1.990 -18.420  1.00  0.00    -0.550 OA
ATOM      8  O   UNL     1     -14.678  -2.796 -19.428  1.00  0.00    -0.550 OA
ENDBRANCH   5   6
ENDBRANCH   1   5
TORSDOF 3
ENDMDL
