MODEL 1
REMARK VINA RESULT:    -3.738      0.000      0.000
REMARK INTER + INTRA:          -5.269
REMARK INTER:                  -5.050
REMARK INTRA:                  -0.219
REMARK UNBOUND:                -0.219
REMARK SMILES [NH3+]CCCC[C@H]([NH3+])C(=O)[O-]
REMARK SMILES IDX 4 1 3 2 2 3 1 4 5 8 6 9 7 10 8 14 9 15 10 16
REMARK H PARENT 1 5 1 6 1 7 7 11 7 12 7 13
REMARK Flexibility Score: inf
ROOT
ATOM      1  C   UNL     1     -22.455   6.793 -14.791  1.00  0.00     0.012 C 
ENDROOT
BRANCH   1   2
ATOM      2  C   UNL     1     -21.789   7.978 -15.503  1.00  0.00     0.061 C 
BRANCH   2   3
ATOM      3  C   UNL     1     -22.665   9.242 -15.493  1.00  0.00     0.258 C 
BRANCH   3   4
ATOM      4  N   UNL     1     -23.942   9.023 -14.811  1.00  0.00    -0.358 N 
ATOM      5  H   UNL     1     -23.779   8.419 -13.972  1.00  0.00     0.344 HD
ATOM      6  H   UNL     1     -24.348   9.933 -14.494  1.00  0.00     0.344 HD
ATOM      7  H   UNL     1     -24.613   8.531 -15.443  1.00  0.00     0.344 HD
ENDBRANCH   3   4
ENDBRANCH   2   3
ENDBRANCH   1   2
BRANCH   1   8
ATOM      8  C   UNL     1     -22.769   5.661 -15.782  1.00  0.00     0.072 C 
BRANCH   8   9
ATOM      9  C   UNL     1     -23.906   4.744 -15.283  1.00  0.00     0.227 C 
BRANCH   9  10
ATOM     10  N   UNL     1     -23.869   3.454 -15.984  1.00  0.00    -0.350 N 
ATOM     11  H   UNL     1     -24.590   2.812 -15.583  1.00  0.00     0.345 HD
ATOM     12  H   UNL     1     -22.926   3.010 -15.891  1.00  0.00     0.345 HD
ATOM     13  H   UNL     1     -24.086   3.595 -16.998  1.00  0.00     0.345 HD
ENDBRANCH   9  10
BRANCH   9  14
ATOM     14  C   UNL     1     -25.251   5.396 -15.476  1.00  0.00     0.099 C 
ATOM     15  O   UNL     1     -26.075   4.915 -16.299  1.00  0.00    -0.544 OA
ATOM     16  O   UNL     1     -25.593   6.528 -14.747  1.00  0.00    -0.544 OA
ENDBRANCH   9  14
ENDBRANCH   8   9
ENDBRANCH   1   8
TORSDOF 7
ENDMDL
MODEL 2
REMARK VINA RESULT:    -3.678      2.433      4.112
REMARK INTER + INTRA:          -5.188
REMARK INTER:                  -5.110
REMARK INTRA:                  -0.079
REMARK UNBOUND:                -0.219
REMARK SMILES [NH3+]CCCC[C@H]([NH3+])C(=O)[O-]
REMARK SMILES IDX 4 1 3 2 2 3 1 4 5 8 6 9 7 10 8 14 9 15 10 16
REMARK H PARENT 1 5 1 6 1 7 7 11 7 12 7 13
REMARK Flexibility Score: inf
ROOT
ATOM      1  C   UNL     1     -25.549   5.009 -15.957  1.00  0.00     0.012 C 
ENDROOT
BRANCH   1   2
ATOM      2  C   UNL     1     -24.240   4.207 -15.954  1.00  0.00     0.061 C 
BRANCH   2   3
ATOM      3  C   UNL     1     -23.464   4.339 -17.275  1.00  0.00     0.258 C 
BRANCH   3   4
ATOM      4  N   UNL     1     -24.295   4.018 -18.437  1.00  0.00    -0.358 N 
ATOM      5  H   UNL     1     -25.297   4.191 -18.195  1.00  0.00     0.344 HD
ATOM      6  H   UNL     1     -24.037   4.625 -19.249  1.00  0.00     0.344 HD
ATOM      7  H   UNL     1     -24.188   3.011 -18.694  1.00  0.00     0.344 HD
ENDBRANCH   3   4
ENDBRANCH   2   3
ENDBRANCH   1   2
BRANCH   1   8
ATOM      8  C   UNL     1     -25.517   6.118 -14.893  1.00  0.00     0.072 C 
BRANCH   8   9
ATOM      9  C   UNL     1     -24.158   6.193 -14.165  1.00  0.00     0.227 C 
BRANCH   9  10
ATOM     10  N   UNL     1     -24.353   6.519 -12.747  1.00  0.00    -0.350 N 
ATOM     11  H   UNL     1     -23.941   5.766 -12.150  1.00  0.00     0.345 HD
ATOM     12  H   UNL     1     -25.371   6.612 -12.526  1.00  0.00     0.345 HD
ATOM     13  H   UNL     1     -23.867   7.417 -12.519  1.00  0.00     0.345 HD
ENDBRANCH   9  10
BRANCH   9  14
ATOM     14  C   UNL     1     -23.255   7.214 -14.808  1.00  0.00     0.099 C 
ATOM     15  O   UNL     1     -22.101   6.886 -15.192  1.00  0.00    -0.544 OA
ATOM     16  O   UNL     1     -23.690   8.522 -14.985  1.00  0.00    -0.544 OA
ENDBRANCH   9  14
ENDBRANCH   8   9
ENDBRANCH   1   8
TORSDOF 7
ENDMDL
MODEL 3
REMARK VINA RESULT:    -3.623      7.523      8.323
REMARK INTER + INTRA:          -5.113
REMARK INTER:                  -5.015
REMARK INTRA:                  -0.098
REMARK UNBOUND:                -0.219
REMARK SMILES [NH3+]CCCC[C@H]([NH3+])C(=O)[O-]
REMARK SMILES IDX 4 1 3 2 2 3 1 4 5 8 6 9 7 10 8 14 9 15 10 16
REMARK H PARENT 1 5 1 6 1 7 7 11 7 12 7 13
REMARK Flexibility Score: inf
ROOT
ATOM      1  C   UNL     1     -30.202  12.106 -12.859  1.00  0.00     0.012 C 
ENDROOT
BRANCH   1   2
ATOM      2  C   UNL     1     -29.228  12.125 -11.673  1.00  0.00     0.061 C 
BRANCH   2   3
ATOM      3  C   UNL     1     -29.949  12.114 -10.316  1.00  0.00     0.258 C 
BRANCH   3   4
ATOM      4  N   UNL     1     -29.603  10.937  -9.516  1.00  0.00    -0.358 N 
ATOM      5  H   UNL     1     -29.411  10.135 -10.159  1.00  0.00     0.344 HD
ATOM      6  H   UNL     1     -28.745  11.121  -8.946  1.00  0.00     0.344 HD
ATOM      7  H   UNL     1     -30.398  10.673  -8.892  1.00  0.00     0.344 HD
ENDBRANCH   3   4
ENDBRANCH   2   3
ENDBRANCH   1   2
BRANCH   1   8
ATOM      8  C   UNL     1     -29.622  11.307 -14.036  1.00  0.00     0.072 C 
BRANCH   8   9
ATOM      9  C   UNL     1     -30.669  10.375 -14.684  1.00  0.00     0.227 C 
BRANCH   9  10
ATOM     10  N   UNL     1     -31.869  10.290 -13.843  1.00  0.00    -0.350 N 
ATOM     11  H   UNL     1     -31.652   9.761 -12.968  1.00  0.00     0.345 HD
ATOM     12  H   UNL     1     -32.644   9.806 -14.353  1.00  0.00     0.345 HD
ATOM     13  H   UNL     1     -32.182  11.251 -13.573  1.00  0.00     0.345 HD
ENDBRANCH   9  10
BRANCH   9  14
ATOM     14  C   UNL     1     -30.101   8.997 -14.910  1.00  0.00     0.099 C 
ATOM     15  O   UNL     1     -30.849   7.986 -14.845  1.00  0.00    -0.544 OA
ATOM     16  O   UNL     1     -28.750   8.834 -15.196  1.00  0.00    -0.544 OA
ENDBRANCH   9  14
ENDBRANCH   8   9
ENDBRANCH   1   8
TORSDOF 7
ENDMDL
MODEL 4
REMARK VINA RESULT:    -3.605      2.325      3.816
REMARK INTER + INTRA:          -5.088
REMARK INTER:                  -4.942
REMARK INTRA:                  -0.146
REMARK UNBOUND:                -0.219
REMARK SMILES [NH3+]CCCC[C@H]([NH3+])C(=O)[O-]
REMARK SMILES IDX 4 1 3 2 2 3 1 4 5 8 6 9 7 10 8 14 9 15 10 16
REMARK H PARENT 1 5 1 6 1 7 7 11 7 12 7 13
REMARK Flexibility Score: inf
ROOT
ATOM      1  C   UNL     1     -24.089   4.314 -15.608  1.00  0.00     0.012 C 
ENDROOT
BRANCH   1   2
ATOM      2  C   UNL     1     -22.901   4.879 -16.399  1.00  0.00     0.061 C 
BRANCH   2   3
ATOM      3  C   UNL     1     -22.867   4.378 -17.852  1.00  0.00     0.258 C 
BRANCH   3   4
ATOM      4  N   UNL     1     -24.202   4.047 -18.354  1.00  0.00    -0.358 N 
ATOM      5  H   UNL     1     -24.111   3.622 -19.305  1.00  0.00     0.344 HD
ATOM      6  H   UNL     1     -24.670   3.357 -17.722  1.00  0.00     0.344 HD
ATOM      7  H   UNL     1     -24.785   4.911 -18.435  1.00  0.00     0.344 HD
ENDBRANCH   3   4
ENDBRANCH   2   3
ENDBRANCH   1   2
BRANCH   1   8
ATOM      8  C   UNL     1     -25.005   5.444 -15.110  1.00  0.00     0.072 C 
BRANCH   8   9
ATOM      9  C   UNL     1     -24.233   6.510 -14.302  1.00  0.00     0.227 C 
BRANCH   9  10
ATOM     10  N   UNL     1     -24.458   6.324 -12.863  1.00  0.00    -0.350 N 
ATOM     11  H   UNL     1     -23.809   6.937 -12.320  1.00  0.00     0.345 HD
ATOM     12  H   UNL     1     -24.296   5.327 -12.590  1.00  0.00     0.345 HD
ATOM     13  H   UNL     1     -25.440   6.592 -12.620  1.00  0.00     0.345 HD
ENDBRANCH   9  10
BRANCH   9  14
ATOM     14  C   UNL     1     -24.644   7.901 -14.711  1.00  0.00     0.099 C 
ATOM     15  O   UNL     1     -25.860   8.228 -14.710  1.00  0.00    -0.544 OA
ATOM     16  O   UNL     1     -23.684   8.833 -15.089  1.00  0.00    -0.544 OA
ENDBRANCH   9  14
ENDBRANCH   8   9
ENDBRANCH   1   8
TORSDOF 7
ENDMDL
MODEL 5
REMARK VINA RESULT:    -3.602      2.214      2.689
REMARK INTER + INTRA:          -5.084
REMARK INTER:                  -4.950
REMARK INTRA:                  -0.134
REMARK UNBOUND:                -0.219
REMARK SMILES [NH3+]CCCC[C@H]([NH3+])C(=O)[O-]
REMARK SMILES IDX 4 1 3 2 2 3 1 4 5 8 6 9 7 10 8 14 9 15 10 16
REMARK H PARENT 1 5 1 6 1 7 7 11 7 12 7 13
REMARK Flexibility Score: inf
ROOT
ATOM      1  C   UNL     1     -23.646   6.185 -14.269  1.00  0.00     0.012 C 
ENDROOT
BRANCH   1   2
ATOM      2  C   UNL     1     -25.105   6.505 -14.623  1.00  0.00     0.061 C 
BRANCH   2   3
ATOM      3  C   UNL     1     -25.382   8.016 -14.676  1.00  0.00     0.258 C 
BRANCH   3   4
ATOM      4  N   UNL     1     -24.151   8.800 -14.802  1.00  0.00    -0.358 N 
ATOM      5  H   UNL     1     -24.072   9.441 -13.979  1.00  0.00     0.344 HD
ATOM      6  H   UNL     1     -23.317   8.169 -14.817  1.00  0.00     0.344 HD
ATOM      7  H   UNL     1     -24.176   9.381 -15.670  1.00  0.00     0.344 HD
ENDBRANCH   3   4
ENDBRANCH   2   3
ENDBRANCH   1   2
BRANCH   1   8
ATOM      8  C   UNL     1     -22.915   5.557 -15.466  1.00  0.00     0.072 C 
BRANCH   8   9
ATOM      9  C   UNL     1     -23.719   4.404 -16.105  1.00  0.00     0.227 C 
BRANCH   9  10
ATOM     10  N   UNL     1     -23.307   3.115 -15.535  1.00  0.00    -0.350 N 
ATOM     11  H   UNL     1     -22.920   3.259 -14.575  1.00  0.00     0.345 HD
ATOM     12  H   UNL     1     -22.578   2.663 -16.134  1.00  0.00     0.345 HD
ATOM     13  H   UNL     1     -24.134   2.479 -15.460  1.00  0.00     0.345 HD
ENDBRANCH   9  10
BRANCH   9  14
ATOM     14  C   UNL     1     -23.543   4.385 -17.601  1.00  0.00     0.099 C 
ATOM     15  O   UNL     1     -22.391   4.467 -18.104  1.00  0.00    -0.544 OA
ATOM     16  O   UNL     1     -24.649   4.274 -18.436  1.00  0.00    -0.544 OA
ENDBRANCH   9  14
ENDBRANCH   8   9
ENDBRANCH   1   8
TORSDOF 7
ENDMDL
MODEL 6
REMARK VINA RESULT:    -3.555      1.967      2.157
REMARK INTER + INTRA:          -5.022
REMARK INTER:                  -4.890
REMARK INTRA:                  -0.131
REMARK UNBOUND:                -0.219
REMARK SMILES [NH3+]CCCC[C@H]([NH3+])C(=O)[O-]
REMARK SMILES IDX 4 1 3 2 2 3 1 4 5 8 6 9 7 10 8 14 9 15 10 16
REMARK H PARENT 1 5 1 6 1 7 7 11 7 12 7 13
REMARK Flexibility Score: inf
ROOT
ATOM      1  C   UNL     1     -22.097   6.755 -15.180  1.00  0.00     0.012 C 
ENDROOT
BRANCH   1   2
ATOM      2  C   UNL     1     -21.924   8.243 -15.516  1.00  0.00     0.061 C 
BRANCH   2   3
ATOM      3  C   UNL     1     -23.163   9.077 -15.155  1.00  0.00     0.258 C 
BRANCH   3   4
ATOM      4  N   UNL     1     -23.210  10.343 -15.890  1.00  0.00    -0.358 N 
ATOM      5  H   UNL     1     -23.946  10.278 -16.630  1.00  0.00     0.344 HD
ATOM      6  H   UNL     1     -23.452  11.131 -15.246  1.00  0.00     0.344 HD
ATOM      7  H   UNL     1     -22.293  10.529 -16.354  1.00  0.00     0.344 HD
ENDBRANCH   3   4
ENDBRANCH   2   3
ENDBRANCH   1   2
BRANCH   1   8
ATOM      8  C   UNL     1     -23.504   6.475 -14.628  1.00  0.00     0.072 C 
BRANCH   8   9
ATOM      9  C   UNL     1     -24.374   5.676 -15.622  1.00  0.00     0.227 C 
BRANCH   9  10
ATOM     10  N   UNL     1     -25.686   5.382 -15.033  1.00  0.00    -0.350 N 
ATOM     11  H   UNL     1     -25.998   4.426 -15.320  1.00  0.00     0.345 HD
ATOM     12  H   UNL     1     -26.397   6.082 -15.346  1.00  0.00     0.345 HD
ATOM     13  H   UNL     1     -25.619   5.403 -13.989  1.00  0.00     0.345 HD
ENDBRANCH   9  10
BRANCH   9  14
ATOM     14  C   UNL     1     -23.694   4.394 -16.028  1.00  0.00     0.099 C 
ATOM     15  O   UNL     1     -23.644   3.423 -15.227  1.00  0.00    -0.544 OA
ATOM     16  O   UNL     1     -23.120   4.272 -17.288  1.00  0.00    -0.544 OA
ENDBRANCH   9  14
ENDBRANCH   8   9
ENDBRANCH   1   8
TORSDOF 7
ENDMDL
MODEL 7
REMARK VINA RESULT:    -3.478      2.683      3.538
REMARK INTER + INTRA:          -4.917
REMARK INTER:                  -4.879
REMARK INTRA:                  -0.039
REMARK UNBOUND:                -0.219
REMARK SMILES [NH3+]CCCC[C@H]([NH3+])C(=O)[O-]
REMARK SMILES IDX 4 1 3 2 2 3 1 4 5 8 6 9 7 10 8 14 9 15 10 16
REMARK H PARENT 1 5 1 6 1 7 7 11 7 12 7 13
REMARK Flexibility Score: inf
ROOT
ATOM      1  C   UNL     1     -24.191   6.302 -14.143  1.00  0.00     0.012 C 
ENDROOT
BRANCH   1   2
ATOM      2  C   UNL     1     -25.586   6.657 -14.677  1.00  0.00     0.061 C 
BRANCH   2   3
ATOM      3  C   UNL     1     -26.183   5.546 -15.556  1.00  0.00     0.258 C 
BRANCH   3   4
ATOM      4  N   UNL     1     -27.622   5.718 -15.762  1.00  0.00    -0.358 N 
ATOM      5  H   UNL     1     -28.076   5.910 -14.839  1.00  0.00     0.344 HD
ATOM      6  H   UNL     1     -27.806   6.526 -16.400  1.00  0.00     0.344 HD
ATOM      7  H   UNL     1     -28.040   4.847 -16.158  1.00  0.00     0.344 HD
ENDBRANCH   3   4
ENDBRANCH   2   3
ENDBRANCH   1   2
BRANCH   1   8
ATOM      8  C   UNL     1     -23.095   6.762 -15.117  1.00  0.00     0.072 C 
BRANCH   8   9
ATOM      9  C   UNL     1     -22.148   5.611 -15.518  1.00  0.00     0.227 C 
BRANCH   9  10
ATOM     10  N   UNL     1     -21.055   6.116 -16.358  1.00  0.00    -0.350 N 
ATOM     11  H   UNL     1     -21.117   5.695 -17.313  1.00  0.00     0.345 HD
ATOM     12  H   UNL     1     -20.126   5.878 -15.939  1.00  0.00     0.345 HD
ATOM     13  H   UNL     1     -21.133   7.155 -16.455  1.00  0.00     0.345 HD
ENDBRANCH   9  10
BRANCH   9  14
ATOM     14  C   UNL     1     -22.895   4.524 -16.247  1.00  0.00     0.099 C 
ATOM     15  O   UNL     1     -23.003   4.561 -17.501  1.00  0.00    -0.544 OA
ATOM     16  O   UNL     1     -23.467   3.472 -15.541  1.00  0.00    -0.544 OA
ENDBRANCH   9  14
ENDBRANCH   8   9
ENDBRANCH   1   8
TORSDOF 7
ENDMDL
MODEL 8
REMARK VINA RESULT:    -3.406      2.631      3.528
REMARK INTER + INTRA:          -4.821
REMARK INTER:                  -4.690
REMARK INTRA:                  -0.130
REMARK UNBOUND:                -0.219
REMARK SMILES [NH3+]CCCC[C@H]([NH3+])C(=O)[O-]
REMARK SMILES IDX 4 1 3 2 2 3 1 4 5 8 6 9 7 10 8 14 9 15 10 16
REMARK H PARENT 1 5 1 6 1 7 7 11 7 12 7 13
REMARK Flexibility Score: inf
ROOT
ATOM      1  C   UNL     1     -23.100   4.330 -17.377  1.00  0.00     0.012 C 
ENDROOT
BRANCH   1   2
ATOM      2  C   UNL     1     -21.974   4.544 -18.398  1.00  0.00     0.061 C 
BRANCH   2   3
ATOM      3  C   UNL     1     -21.022   5.683 -17.996  1.00  0.00     0.258 C 
BRANCH   3   4
ATOM      4  N   UNL     1     -19.617   5.326 -18.200  1.00  0.00    -0.358 N 
ATOM      5  H   UNL     1     -19.222   5.924 -18.962  1.00  0.00     0.344 HD
ATOM      6  H   UNL     1     -19.067   5.492 -17.326  1.00  0.00     0.344 HD
ATOM      7  H   UNL     1     -19.533   4.326 -18.491  1.00  0.00     0.344 HD
ENDBRANCH   3   4
ENDBRANCH   2   3
ENDBRANCH   1   2
BRANCH   1   8
ATOM      8  C   UNL     1     -22.807   5.080 -16.068  1.00  0.00     0.072 C 
BRANCH   8   9
ATOM      9  C   UNL     1     -23.992   5.020 -15.080  1.00  0.00     0.227 C 
BRANCH   9  10
ATOM     10  N   UNL     1     -25.236   4.698 -15.792  1.00  0.00    -0.350 N 
ATOM     11  H   UNL     1     -25.930   4.289 -15.125  1.00  0.00     0.345 HD
ATOM     12  H   UNL     1     -25.055   4.013 -16.561  1.00  0.00     0.345 HD
ATOM     13  H   UNL     1     -25.649   5.570 -16.197  1.00  0.00     0.345 HD
ENDBRANCH   9  10
BRANCH   9  14
ATOM     14  C   UNL     1     -24.146   6.323 -14.339  1.00  0.00     0.099 C 
ATOM     15  O   UNL     1     -24.663   6.340 -13.191  1.00  0.00    -0.544 OA
ATOM     16  O   UNL     1     -23.715   7.512 -14.914  1.00  0.00    -0.544 OA
ENDBRANCH   9  14
ENDBRANCH   8   9
ENDBRANCH   1   8
TORSDOF 7
ENDMDL
MODEL 9
REMARK VINA RESULT:    -3.307      2.245      4.452
REMARK INTER + INTRA:          -4.687
REMARK INTER:                  -4.438
REMARK INTRA:                  -0.248
REMARK UNBOUND:                -0.219
REMARK SMILES [NH3+]CCCC[C@H]([NH3+])C(=O)[O-]
REMARK SMILES IDX 4 1 3 2 2 3 1 4 5 8 6 9 7 10 8 14 9 15 10 16
REMARK H PARENT 1 5 1 6 1 7 7 11 7 12 7 13
REMARK Flexibility Score: inf
ROOT
ATOM      1  C   UNL     1     -25.495   5.824 -15.086  1.00  0.00     0.012 C 
ENDROOT
BRANCH   1   2
ATOM      2  C   UNL     1     -25.030   4.773 -16.104  1.00  0.00     0.061 C 
BRANCH   2   3
ATOM      3  C   UNL     1     -23.576   4.330 -15.874  1.00  0.00     0.258 C 
BRANCH   3   4
ATOM      4  N   UNL     1     -23.484   2.923 -15.479  1.00  0.00    -0.358 N 
ATOM      5  H   UNL     1     -23.750   2.324 -16.294  1.00  0.00     0.344 HD
ATOM      6  H   UNL     1     -22.505   2.687 -15.196  1.00  0.00     0.344 HD
ATOM      7  H   UNL     1     -24.143   2.721 -14.694  1.00  0.00     0.344 HD
ENDBRANCH   3   4
ENDBRANCH   2   3
ENDBRANCH   1   2
BRANCH   1   8
ATOM      8  C   UNL     1     -24.312   6.348 -14.257  1.00  0.00     0.072 C 
BRANCH   8   9
ATOM      9  C   UNL     1     -24.229   7.889 -14.264  1.00  0.00     0.227 C 
BRANCH   9  10
ATOM     10  N   UNL     1     -25.504   8.469 -14.705  1.00  0.00    -0.350 N 
ATOM     11  H   UNL     1     -25.350   9.058 -15.555  1.00  0.00     0.345 HD
ATOM     12  H   UNL     1     -25.922   9.060 -13.950  1.00  0.00     0.345 HD
ATOM     13  H   UNL     1     -26.173   7.705 -14.955  1.00  0.00     0.345 HD
ENDBRANCH   9  10
BRANCH   9  14
ATOM     14  C   UNL     1     -23.111   8.367 -15.154  1.00  0.00     0.099 C 
ATOM     15  O   UNL     1     -23.114   9.547 -15.595  1.00  0.00    -0.544 OA
ATOM     16  O   UNL     1     -22.069   7.512 -15.493  1.00  0.00    -0.544 OA
ENDBRANCH   9  14
ENDBRANCH   8   9
ENDBRANCH   1   8
TORSDOF 7
ENDMDL
