MODEL 1
REMARK VINA RESULT:    -2.668      0.000      0.000
REMARK INTER + INTRA:          -3.527
REMARK INTER:                  -3.448
REMARK INTRA:                  -0.079
REMARK UNBOUND:                -0.079
REMARK SMILES CCCCCCC(=O)[O-]
REMARK SMILES IDX 5 1 6 2 7 3 8 4 9 5 4 6 3 7 2 8 1 9
REMARK H PARENT
REMARK Flexibility Score: inf
ROOT
ATOM      1  C   UNL     1      -4.728  19.322  12.652  1.00  0.00     0.006 C 
ENDROOT
BRANCH   1   2
ATOM      2  C   UNL     1      -4.549  20.769  13.135  1.00  0.00     0.053 C 
BRANCH   2   3
ATOM      3  C   UNL     1      -4.112  20.832  14.566  1.00  0.00     0.041 C 
ATOM      4  O   UNL     1      -4.963  20.960  15.485  1.00  0.00    -0.550 OA
ATOM      5  O   UNL     1      -2.760  20.782  14.883  1.00  0.00    -0.550 OA
ENDBRANCH   2   3
ENDBRANCH   1   2
BRANCH   1   6
ATOM      6  C   UNL     1      -4.864  19.169  11.123  1.00  0.00     0.000 C 
BRANCH   6   7
ATOM      7  C   UNL     1      -5.034  17.722  10.626  1.00  0.00    -0.000 C 
BRANCH   7   8
ATOM      8  C   UNL     1      -4.454  17.500   9.221  1.00  0.00    -0.003 C 
ATOM      9  C   UNL     1      -3.586  16.246   9.177  1.00  0.00     0.004 C 
ENDBRANCH   7   8
ENDBRANCH   6   7
ENDBRANCH   1   6
TORSDOF 5
ENDMDL
MODEL 2
REMARK VINA RESULT:    -2.556     21.774     22.376
REMARK INTER + INTRA:          -3.382
REMARK INTER:                  -3.123
REMARK INTRA:                  -0.259
REMARK UNBOUND:                -0.079
REMARK SMILES CCCCCCC(=O)[O-]
REMARK SMILES IDX 5 1 6 2 7 3 8 4 9 5 4 6 3 7 2 8 1 9
REMARK H PARENT
REMARK Flexibility Score: inf
ROOT
ATOM      1  C   UNL     1      14.526  27.974  20.232  1.00  0.00     0.006 C 
ENDROOT
BRANCH   1   2
ATOM      2  C   UNL     1      14.297  29.389  20.784  1.00  0.00     0.053 C 
BRANCH   2   3
ATOM      3  C   UNL     1      12.867  29.815  20.654  1.00  0.00     0.041 C 
ATOM      4  O   UNL     1      12.160  29.990  21.682  1.00  0.00    -0.550 OA
ATOM      5  O   UNL     1      12.304  29.988  19.396  1.00  0.00    -0.550 OA
ENDBRANCH   2   3
ENDBRANCH   1   2
BRANCH   1   6
ATOM      6  C   UNL     1      14.033  26.838  21.153  1.00  0.00     0.000 C 
BRANCH   6   7
ATOM      7  C   UNL     1      14.437  26.978  22.632  1.00  0.00    -0.000 C 
BRANCH   7   8
ATOM      8  C   UNL     1      13.257  26.780  23.595  1.00  0.00    -0.003 C 
ATOM      9  C   UNL     1      13.641  25.867  24.754  1.00  0.00     0.004 C 
ENDBRANCH   7   8
ENDBRANCH   6   7
ENDBRANCH   1   6
TORSDOF 5
ENDMDL
MODEL 3
REMARK VINA RESULT:    -2.545     21.775     22.343
REMARK INTER + INTRA:          -3.368
REMARK INTER:                  -3.041
REMARK INTRA:                  -0.327
REMARK UNBOUND:                -0.079
REMARK SMILES CCCCCCC(=O)[O-]
REMARK SMILES IDX 5 1 6 2 7 3 8 4 9 5 4 6 3 7 2 8 1 9
REMARK H PARENT
REMARK Flexibility Score: inf
ROOT
ATOM      1  C   UNL     1      13.973  26.718  21.378  1.00  0.00     0.006 C 
ENDROOT
BRANCH   1   2
ATOM      2  C   UNL     1      14.443  27.079  22.795  1.00  0.00     0.053 C 
BRANCH   2   3
ATOM      3  C   UNL     1      13.344  26.938  23.802  1.00  0.00     0.041 C 
ATOM      4  O   UNL     1      12.440  27.812  23.883  1.00  0.00    -0.550 OA
ATOM      5  O   UNL     1      13.335  25.859  24.676  1.00  0.00    -0.550 OA
ENDBRANCH   2   3
ENDBRANCH   1   2
BRANCH   1   6
ATOM      6  C   UNL     1      14.413  27.711  20.283  1.00  0.00     0.000 C 
BRANCH   6   7
ATOM      7  C   UNL     1      14.177  29.195  20.617  1.00  0.00    -0.000 C 
BRANCH   7   8
ATOM      8  C   UNL     1      12.766  29.674  20.245  1.00  0.00    -0.003 C 
ATOM      9  C   UNL     1      12.090  30.362  21.427  1.00  0.00     0.004 C 
ENDBRANCH   7   8
ENDBRANCH   6   7
ENDBRANCH   1   6
TORSDOF 5
ENDMDL
MODEL 4
REMARK VINA RESULT:    -2.459     21.811     22.720
REMARK INTER + INTRA:          -3.256
REMARK INTER:                  -2.809
REMARK INTRA:                  -0.447
REMARK UNBOUND:                -0.079
REMARK SMILES CCCCCCC(=O)[O-]
REMARK SMILES IDX 5 1 6 2 7 3 8 4 9 5 4 6 3 7 2 8 1 9
REMARK H PARENT
REMARK Flexibility Score: inf
ROOT
ATOM      1  C   UNL     1      13.994  26.863  21.169  1.00  0.00     0.006 C 
ENDROOT
BRANCH   1   2
ATOM      2  C   UNL     1      14.422  28.013  20.245  1.00  0.00     0.053 C 
BRANCH   2   3
ATOM      3  C   UNL     1      13.761  29.305  20.616  1.00  0.00     0.041 C 
ATOM      4  O   UNL     1      14.334  30.109  21.398  1.00  0.00    -0.550 OA
ATOM      5  O   UNL     1      12.498  29.606  20.125  1.00  0.00    -0.550 OA
ENDBRANCH   2   3
ENDBRANCH   1   2
BRANCH   1   6
ATOM      6  C   UNL     1      14.909  26.649  22.393  1.00  0.00     0.000 C 
BRANCH   6   7
ATOM      7  C   UNL     1      14.337  27.154  23.730  1.00  0.00    -0.000 C 
BRANCH   7   8
ATOM      8  C   UNL     1      12.809  27.304  23.708  1.00  0.00    -0.003 C 
ATOM      9  C   UNL     1      12.393  28.732  24.043  1.00  0.00     0.004 C 
ENDBRANCH   7   8
ENDBRANCH   6   7
ENDBRANCH   1   6
TORSDOF 5
ENDMDL
MODEL 5
REMARK VINA RESULT:    -2.423      4.630      6.410
REMARK INTER + INTRA:          -3.209
REMARK INTER:                  -3.001
REMARK INTRA:                  -0.208
REMARK UNBOUND:                -0.079
REMARK SMILES CCCCCCC(=O)[O-]
REMARK SMILES IDX 5 1 6 2 7 3 8 4 9 5 4 6 3 7 2 8 1 9
REMARK H PARENT
REMARK Flexibility Score: inf
ROOT
ATOM      1  C   UNL     1      -3.827  13.762  10.089  1.00  0.00     0.006 C 
ENDROOT
BRANCH   1   2
ATOM      2  C   UNL     1      -2.383  13.487   9.643  1.00  0.00     0.053 C 
BRANCH   2   3
ATOM      3  C   UNL     1      -1.421  13.557  10.788  1.00  0.00     0.041 C 
ATOM      4  O   UNL     1      -1.359  12.616  11.624  1.00  0.00    -0.550 OA
ATOM      5  O   UNL     1      -0.615  14.676  10.953  1.00  0.00    -0.550 OA
ENDBRANCH   2   3
ENDBRANCH   1   2
BRANCH   1   6
ATOM      6  C   UNL     1      -4.380  15.137   9.659  1.00  0.00     0.000 C 
BRANCH   6   7
ATOM      7  C   UNL     1      -3.367  16.053   8.949  1.00  0.00    -0.000 C 
BRANCH   7   8
ATOM      8  C   UNL     1      -3.855  17.504   8.829  1.00  0.00    -0.003 C 
ATOM      9  C   UNL     1      -4.486  17.981  10.134  1.00  0.00     0.004 C 
ENDBRANCH   7   8
ENDBRANCH   6   7
ENDBRANCH   1   6
TORSDOF 5
ENDMDL
MODEL 6
REMARK VINA RESULT:    -2.388      5.919      7.540
REMARK INTER + INTRA:          -3.165
REMARK INTER:                  -2.966
REMARK INTRA:                  -0.199
REMARK UNBOUND:                -0.079
REMARK SMILES CCCCCCC(=O)[O-]
REMARK SMILES IDX 5 1 6 2 7 3 8 4 9 5 4 6 3 7 2 8 1 9
REMARK H PARENT
REMARK Flexibility Score: inf
ROOT
ATOM      1  C   UNL     1      -2.254  13.931   9.860  1.00  0.00     0.006 C 
ENDROOT
BRANCH   1   2
ATOM      2  C   UNL     1      -1.403  13.334  10.992  1.00  0.00     0.053 C 
BRANCH   2   3
ATOM      3  C   UNL     1      -0.998  11.922  10.703  1.00  0.00     0.041 C 
ATOM      4  O   UNL     1      -0.938  11.509   9.514  1.00  0.00    -0.550 OA
ATOM      5  O   UNL     1      -0.718  11.051  11.747  1.00  0.00    -0.550 OA
ENDBRANCH   2   3
ENDBRANCH   1   2
BRANCH   1   6
ATOM      6  C   UNL     1      -3.774  13.726  10.023  1.00  0.00     0.000 C 
BRANCH   6   7
ATOM      7  C   UNL     1      -4.631  14.980   9.772  1.00  0.00    -0.000 C 
BRANCH   7   8
ATOM      8  C   UNL     1      -3.822  16.149   9.190  1.00  0.00    -0.003 C 
ATOM      9  C   UNL     1      -4.342  17.487   9.705  1.00  0.00     0.004 C 
ENDBRANCH   7   8
ENDBRANCH   6   7
ENDBRANCH   1   6
TORSDOF 5
ENDMDL
MODEL 7
REMARK VINA RESULT:    -2.388     19.342     20.129
REMARK INTER + INTRA:          -3.164
REMARK INTER:                  -2.828
REMARK INTRA:                  -0.336
REMARK UNBOUND:                -0.079
REMARK SMILES CCCCCCC(=O)[O-]
REMARK SMILES IDX 5 1 6 2 7 3 8 4 9 5 4 6 3 7 2 8 1 9
REMARK H PARENT
REMARK Flexibility Score: inf
ROOT
ATOM      1  C   UNL     1      11.337  28.868  10.121  1.00  0.00     0.006 C 
ENDROOT
BRANCH   1   2
ATOM      2  C   UNL     1      11.463  30.398  10.153  1.00  0.00     0.053 C 
BRANCH   2   3
ATOM      3  C   UNL     1      12.426  30.859  11.203  1.00  0.00     0.041 C 
ATOM      4  O   UNL     1      12.020  31.125  12.365  1.00  0.00    -0.550 OA
ATOM      5  O   UNL     1      13.769  31.027  10.890  1.00  0.00    -0.550 OA
ENDBRANCH   2   3
ENDBRANCH   1   2
BRANCH   1   6
ATOM      6  C   UNL     1      12.289  28.166   9.130  1.00  0.00     0.000 C 
BRANCH   6   7
ATOM      7  C   UNL     1      13.108  27.006   9.724  1.00  0.00    -0.000 C 
BRANCH   7   8
ATOM      8  C   UNL     1      14.552  27.405  10.061  1.00  0.00    -0.003 C 
ATOM      9  C   UNL     1      15.103  28.392   9.036  1.00  0.00     0.004 C 
ENDBRANCH   7   8
ENDBRANCH   6   7
ENDBRANCH   1   6
TORSDOF 5
ENDMDL
MODEL 8
REMARK VINA RESULT:    -2.362     21.094     21.911
REMARK INTER + INTRA:          -3.131
REMARK INTER:                  -2.985
REMARK INTRA:                  -0.147
REMARK UNBOUND:                -0.079
REMARK SMILES CCCCCCC(=O)[O-]
REMARK SMILES IDX 5 1 6 2 7 3 8 4 9 5 4 6 3 7 2 8 1 9
REMARK H PARENT
REMARK Flexibility Score: inf
ROOT
ATOM      1  C   UNL     1      12.892  29.598  22.125  1.00  0.00     0.006 C 
ENDROOT
BRANCH   1   2
ATOM      2  C   UNL     1      14.168  28.797  21.827  1.00  0.00     0.053 C 
BRANCH   2   3
ATOM      3  C   UNL     1      13.916  27.321  21.827  1.00  0.00     0.041 C 
ATOM      4  O   UNL     1      13.462  26.754  22.856  1.00  0.00    -0.550 OA
ATOM      5  O   UNL     1      14.212  26.564  20.700  1.00  0.00    -0.550 OA
ENDBRANCH   2   3
ENDBRANCH   1   2
BRANCH   1   6
ATOM      6  C   UNL     1      12.290  30.324  20.905  1.00  0.00     0.000 C 
BRANCH   6   7
ATOM      7  C   UNL     1      12.975  30.016  19.561  1.00  0.00    -0.000 C 
BRANCH   7   8
ATOM      8  C   UNL     1      12.083  30.328  18.350  1.00  0.00    -0.003 C 
ATOM      9  C   UNL     1      12.888  30.304  17.055  1.00  0.00     0.004 C 
ENDBRANCH   7   8
ENDBRANCH   6   7
ENDBRANCH   1   6
TORSDOF 5
ENDMDL
MODEL 9
REMARK VINA RESULT:    -2.356      4.385      6.321
REMARK INTER + INTRA:          -3.123
REMARK INTER:                  -3.002
REMARK INTRA:                  -0.120
REMARK UNBOUND:                -0.079
REMARK SMILES CCCCCCC(=O)[O-]
REMARK SMILES IDX 5 1 6 2 7 3 8 4 9 5 4 6 3 7 2 8 1 9
REMARK H PARENT
REMARK Flexibility Score: inf
ROOT
ATOM      1  C   UNL     1      -2.638  15.041   9.341  1.00  0.00     0.006 C 
ENDROOT
BRANCH   1   2
ATOM      2  C   UNL     1      -4.013  15.724   9.343  1.00  0.00     0.053 C 
BRANCH   2   3
ATOM      3  C   UNL     1      -3.899  17.212   9.222  1.00  0.00     0.041 C 
ATOM      4  O   UNL     1      -3.396  17.729   8.189  1.00  0.00    -0.550 OA
ATOM      5  O   UNL     1      -4.317  18.029  10.265  1.00  0.00    -0.550 OA
ENDBRANCH   2   3
ENDBRANCH   1   2
BRANCH   1   6
ATOM      6  C   UNL     1      -2.601  13.670  10.047  1.00  0.00     0.000 C 
BRANCH   6   7
ATOM      7  C   UNL     1      -1.296  13.361  10.803  1.00  0.00    -0.000 C 
BRANCH   7   8
ATOM      8  C   UNL     1      -0.929  11.870  10.778  1.00  0.00    -0.003 C 
ATOM      9  C   UNL     1      -1.196  11.263   9.404  1.00  0.00     0.004 C 
ENDBRANCH   7   8
ENDBRANCH   6   7
ENDBRANCH   1   6
TORSDOF 5
ENDMDL
