MODEL 1
REMARK VINA RESULT:    -4.405      0.000      0.000
REMARK INTER + INTRA:          -5.537
REMARK INTER:                  -5.564
REMARK INTRA:                   0.027
REMARK UNBOUND:                 0.027
REMARK SMILES O=C(C=Cc1ccc(O)cc1)c1ccc(O)cc1O
REMARK SMILES IDX 4 1 3 2 5 3 6 4 7 5 8 6 11 7 10 8 9 9 2 11 1 12 12 13 18 14
REMARK SMILES IDX 13 15 17 16 14 17 15 18 19 19 16 21
REMARK H PARENT 9 10 19 20 16 22
REMARK Flexibility Score: inf
ROOT
ATOM      1  C   UNL     1      10.209  20.782  -2.661  1.00  0.00     0.012 C 
ATOM      2  C   UNL     1      11.015  20.598  -3.719  1.00  0.00     0.053 C 
ENDROOT
BRANCH   1   3
ATOM      3  C   UNL     1      10.614  21.373  -1.368  1.00  0.00    -0.025 A 
ATOM      4  C   UNL     1      10.276  22.697  -1.034  1.00  0.00     0.012 A 
ATOM      5  C   UNL     1      10.710  23.251   0.173  1.00  0.00     0.047 A 
ATOM      6  C   UNL     1      11.504  22.502   1.046  1.00  0.00     0.115 A 
ATOM      7  C   UNL     1      11.435  20.635  -0.503  1.00  0.00     0.012 A 
ATOM      8  C   UNL     1      11.869  21.193   0.704  1.00  0.00     0.047 A 
BRANCH   6   9
ATOM      9  O   UNL     1      11.929  23.067   2.247  1.00  0.00    -0.508 OA
ATOM     10  H   UNL     1      12.576  22.584   2.860  1.00  0.00     0.293 HD
ENDBRANCH   6   9
ENDBRANCH   1   3
BRANCH   2  11
ATOM     11  C   UNL     1      12.398  21.125  -3.844  1.00  0.00     0.189 C 
ATOM     12  O   UNL     1      13.248  20.505  -4.538  1.00  0.00    -0.289 OA
BRANCH  11  13
ATOM     13  C   UNL     1      12.814  22.356  -3.131  1.00  0.00     0.064 A 
ATOM     14  C   UNL     1      12.379  23.621  -3.581  1.00  0.00     0.130 A 
ATOM     15  C   UNL     1      13.663  22.284  -2.011  1.00  0.00     0.020 A 
ATOM     16  C   UNL     1      12.790  24.783  -2.909  1.00  0.00     0.093 A 
ATOM     17  C   UNL     1      14.064  23.447  -1.349  1.00  0.00     0.047 A 
ATOM     18  C   UNL     1      13.628  24.699  -1.795  1.00  0.00     0.119 A 
BRANCH  14  19
ATOM     19  O   UNL     1      11.530  23.724  -4.683  1.00  0.00    -0.507 OA
ATOM     20  H   UNL     1      11.824  24.177  -5.542  1.00  0.00     0.293 HD
ENDBRANCH  14  19
BRANCH  18  21
ATOM     21  O   UNL     1      14.022  25.864  -1.141  1.00  0.00    -0.508 OA
ATOM     22  H   UNL     1      13.354  26.589  -0.902  1.00  0.00     0.293 HD
ENDBRANCH  18  21
ENDBRANCH  11  13
ENDBRANCH   2  11
TORSDOF 6
ENDMDL
MODEL 2
REMARK VINA RESULT:    -4.173      1.613      4.242
REMARK INTER + INTRA:          -5.243
REMARK INTER:                  -4.971
REMARK INTRA:                  -0.272
REMARK UNBOUND:                 0.027
REMARK SMILES O=C(C=Cc1ccc(O)cc1)c1ccc(O)cc1O
REMARK SMILES IDX 4 1 3 2 5 3 6 4 7 5 8 6 11 7 10 8 9 9 2 11 1 12 12 13 18 14
REMARK SMILES IDX 13 15 17 16 14 17 15 18 19 19 16 21
REMARK H PARENT 9 10 19 20 16 22
REMARK Flexibility Score: inf
ROOT
ATOM      1  C   UNL     1      12.031  20.962  -0.101  1.00  0.00     0.012 C 
ATOM      2  C   UNL     1      12.005  22.087   0.633  1.00  0.00     0.053 C 
ENDROOT
BRANCH   1   3
ATOM      3  C   UNL     1      11.347  20.770  -1.397  1.00  0.00    -0.025 A 
ATOM      4  C   UNL     1      10.121  20.087  -1.481  1.00  0.00     0.012 A 
ATOM      5  C   UNL     1       9.516  19.875  -2.723  1.00  0.00     0.047 A 
ATOM      6  C   UNL     1      10.138  20.319  -3.894  1.00  0.00     0.115 A 
ATOM      7  C   UNL     1      11.981  21.188  -2.576  1.00  0.00     0.012 A 
ATOM      8  C   UNL     1      11.375  20.974  -3.818  1.00  0.00     0.047 A 
BRANCH   6   9
ATOM      9  O   UNL     1       9.523  20.102  -5.125  1.00  0.00    -0.508 OA
ATOM     10  H   UNL     1       9.375  19.166  -5.484  1.00  0.00     0.293 HD
ENDBRANCH   6   9
ENDBRANCH   1   3
BRANCH   2  11
ATOM     11  C   UNL     1      11.446  23.388   0.187  1.00  0.00     0.189 C 
ATOM     12  O   UNL     1      10.620  24.002   0.914  1.00  0.00    -0.289 OA
BRANCH  11  13
ATOM     13  C   UNL     1      11.815  23.968  -1.126  1.00  0.00     0.064 A 
ATOM     14  C   UNL     1      13.169  24.211  -1.444  1.00  0.00     0.130 A 
ATOM     15  C   UNL     1      10.823  24.305  -2.065  1.00  0.00     0.020 A 
ATOM     16  C   UNL     1      13.508  24.774  -2.683  1.00  0.00     0.093 A 
ATOM     17  C   UNL     1      11.171  24.863  -3.298  1.00  0.00     0.047 A 
ATOM     18  C   UNL     1      12.515  25.098  -3.610  1.00  0.00     0.119 A 
BRANCH  14  19
ATOM     19  O   UNL     1      14.175  23.880  -0.536  1.00  0.00    -0.507 OA
ATOM     20  H   UNL     1      15.012  23.387  -0.825  1.00  0.00     0.293 HD
ENDBRANCH  14  19
BRANCH  18  21
ATOM     21  O   UNL     1      12.873  25.654  -4.836  1.00  0.00    -0.508 OA
ATOM     22  H   UNL     1      12.176  25.908  -5.527  1.00  0.00     0.293 HD
ENDBRANCH  18  21
ENDBRANCH  11  13
ENDBRANCH   2  11
TORSDOF 6
ENDMDL
MODEL 3
REMARK VINA RESULT:    -3.754      1.572      3.805
REMARK INTER + INTRA:          -4.714
REMARK INTER:                  -5.660
REMARK INTRA:                   0.946
REMARK UNBOUND:                 0.027
REMARK SMILES O=C(C=Cc1ccc(O)cc1)c1ccc(O)cc1O
REMARK SMILES IDX 4 1 3 2 5 3 6 4 7 5 8 6 11 7 10 8 9 9 2 11 1 12 12 13 18 14
REMARK SMILES IDX 13 15 17 16 14 17 15 18 19 19 16 21
REMARK H PARENT 9 10 19 20 16 22
REMARK Flexibility Score: inf
ROOT
ATOM      1  C   UNL     1      12.294  21.223  -3.854  1.00  0.00     0.012 C 
ATOM      2  C   UNL     1      11.223  20.441  -3.644  1.00  0.00     0.053 C 
ENDROOT
BRANCH   1   3
ATOM      3  C   UNL     1      12.627  22.443  -3.090  1.00  0.00    -0.025 A 
ATOM      4  C   UNL     1      12.045  23.684  -3.406  1.00  0.00     0.012 A 
ATOM      5  C   UNL     1      12.410  24.834  -2.700  1.00  0.00     0.047 A 
ATOM      6  C   UNL     1      13.375  24.763  -1.691  1.00  0.00     0.115 A 
ATOM      7  C   UNL     1      13.616  22.383  -2.097  1.00  0.00     0.012 A 
ATOM      8  C   UNL     1      13.981  23.535  -1.393  1.00  0.00     0.047 A 
BRANCH   6   9
ATOM      9  O   UNL     1      13.729  25.918  -0.995  1.00  0.00    -0.508 OA
ATOM     10  H   UNL     1      13.129  26.308  -0.278  1.00  0.00     0.293 HD
ENDBRANCH   6   9
ENDBRANCH   1   3
BRANCH   2  11
ATOM     11  C   UNL     1      10.291  20.556  -2.493  1.00  0.00     0.189 C 
ATOM     12  O   UNL     1       9.229  19.877  -2.472  1.00  0.00    -0.289 OA
BRANCH  11  13
ATOM     13  C   UNL     1      10.567  21.491  -1.377  1.00  0.00     0.064 A 
ATOM     14  C   UNL     1      11.442  21.117  -0.334  1.00  0.00     0.130 A 
ATOM     15  C   UNL     1       9.947  22.753  -1.328  1.00  0.00     0.020 A 
ATOM     16  C   UNL     1      11.687  22.002   0.727  1.00  0.00     0.093 A 
ATOM     17  C   UNL     1      10.199  23.627  -0.268  1.00  0.00     0.047 A 
ATOM     18  C   UNL     1      11.070  23.254   0.761  1.00  0.00     0.119 A 
BRANCH  14  19
ATOM     19  O   UNL     1      12.078  19.875  -0.360  1.00  0.00    -0.507 OA
ATOM     20  H   UNL     1      12.768  19.645  -1.066  1.00  0.00     0.293 HD
ENDBRANCH  14  19
BRANCH  18  21
ATOM     21  O   UNL     1      11.328  24.119   1.823  1.00  0.00    -0.508 OA
ATOM     22  H   UNL     1      10.677  24.852   2.079  1.00  0.00     0.293 HD
ENDBRANCH  18  21
ENDBRANCH  11  13
ENDBRANCH   2  11
TORSDOF 6
ENDMDL
MODEL 4
REMARK VINA RESULT:    -3.718      1.432      3.640
REMARK INTER + INTRA:          -4.668
REMARK INTER:                  -4.450
REMARK INTRA:                  -0.219
REMARK UNBOUND:                 0.027
REMARK SMILES O=C(C=Cc1ccc(O)cc1)c1ccc(O)cc1O
REMARK SMILES IDX 4 1 3 2 5 3 6 4 7 5 8 6 11 7 10 8 9 9 2 11 1 12 12 13 18 14
REMARK SMILES IDX 13 15 17 16 14 17 15 18 19 19 16 21
REMARK H PARENT 9 10 19 20 16 22
REMARK Flexibility Score: inf
ROOT
ATOM      1  C   UNL     1      12.259  21.317  -3.779  1.00  0.00     0.012 C 
ATOM      2  C   UNL     1      11.203  20.531  -3.511  1.00  0.00     0.053 C 
ENDROOT
BRANCH   1   3
ATOM      3  C   UNL     1      12.627  22.539  -3.034  1.00  0.00    -0.025 A 
ATOM      4  C   UNL     1      12.034  23.779  -3.328  1.00  0.00     0.012 A 
ATOM      5  C   UNL     1      12.431  24.931  -2.643  1.00  0.00     0.047 A 
ATOM      6  C   UNL     1      13.441  24.862  -1.678  1.00  0.00     0.115 A 
ATOM      7  C   UNL     1      13.659  22.480  -2.086  1.00  0.00     0.012 A 
ATOM      8  C   UNL     1      14.057  23.634  -1.403  1.00  0.00     0.047 A 
BRANCH   6   9
ATOM      9  O   UNL     1      13.827  26.018  -1.002  1.00  0.00    -0.508 OA
ATOM     10  H   UNL     1      13.461  26.928  -1.258  1.00  0.00     0.293 HD
ENDBRANCH   6   9
ENDBRANCH   1   3
BRANCH   2  11
ATOM     11  C   UNL     1      10.333  20.643  -2.313  1.00  0.00     0.189 C 
ATOM     12  O   UNL     1       9.144  20.229  -2.356  1.00  0.00    -0.289 OA
BRANCH  11  13
ATOM     13  C   UNL     1      10.828  21.274  -1.066  1.00  0.00     0.064 A 
ATOM     14  C   UNL     1      10.366  22.551  -0.682  1.00  0.00     0.130 A 
ATOM     15  C   UNL     1      11.779  20.621  -0.261  1.00  0.00     0.020 A 
ATOM     16  C   UNL     1      10.851  23.148   0.493  1.00  0.00     0.093 A 
ATOM     17  C   UNL     1      12.254  21.223   0.907  1.00  0.00     0.047 A 
ATOM     18  C   UNL     1      11.790  22.487   1.287  1.00  0.00     0.119 A 
BRANCH  14  19
ATOM     19  O   UNL     1       9.417  23.220  -1.456  1.00  0.00    -0.507 OA
ATOM     20  H   UNL     1       9.456  24.223  -1.598  1.00  0.00     0.293 HD
ENDBRANCH  14  19
BRANCH  18  21
ATOM     21  O   UNL     1      12.257  23.096   2.450  1.00  0.00    -0.508 OA
ATOM     22  H   UNL     1      12.903  22.624   3.073  1.00  0.00     0.293 HD
ENDBRANCH  18  21
ENDBRANCH  11  13
ENDBRANCH   2  11
TORSDOF 6
ENDMDL
MODEL 5
REMARK VINA RESULT:    -3.551      1.795      4.835
REMARK INTER + INTRA:          -4.458
REMARK INTER:                  -3.413
REMARK INTRA:                  -1.045
REMARK UNBOUND:                 0.027
REMARK SMILES O=C(C=Cc1ccc(O)cc1)c1ccc(O)cc1O
REMARK SMILES IDX 4 1 3 2 5 3 6 4 7 5 8 6 11 7 10 8 9 9 2 11 1 12 12 13 18 14
REMARK SMILES IDX 13 15 17 16 14 17 15 18 19 19 16 21
REMARK H PARENT 9 10 19 20 16 22
REMARK Flexibility Score: inf
ROOT
ATOM      1  C   UNL     1      11.320  23.717   0.163  1.00  0.00     0.012 C 
ATOM      2  C   UNL     1      11.581  22.459   0.554  1.00  0.00     0.053 C 
ENDROOT
BRANCH   1   3
ATOM      3  C   UNL     1      11.691  24.302  -1.143  1.00  0.00    -0.025 A 
ATOM      4  C   UNL     1      10.758  24.400  -2.190  1.00  0.00     0.012 A 
ATOM      5  C   UNL     1      11.144  24.913  -3.432  1.00  0.00     0.047 A 
ATOM      6  C   UNL     1      12.467  25.309  -3.649  1.00  0.00     0.115 A 
ATOM      7  C   UNL     1      13.023  24.674  -1.374  1.00  0.00     0.012 A 
ATOM      8  C   UNL     1      13.408  25.185  -2.618  1.00  0.00     0.047 A 
BRANCH   6   9
ATOM      9  O   UNL     1      12.837  25.820  -4.892  1.00  0.00    -0.508 OA
ATOM     10  H   UNL     1      12.362  25.540  -5.742  1.00  0.00     0.293 HD
ENDBRANCH   6   9
ENDBRANCH   1   3
BRANCH   2  11
ATOM     11  C   UNL     1      12.118  21.384  -0.318  1.00  0.00     0.189 C 
ATOM     12  O   UNL     1      13.208  20.823  -0.029  1.00  0.00    -0.289 OA
BRANCH  11  13
ATOM     13  C   UNL     1      11.409  20.980  -1.556  1.00  0.00     0.064 A 
ATOM     14  C   UNL     1      11.976  21.245  -2.821  1.00  0.00     0.130 A 
ATOM     15  C   UNL     1      10.154  20.347  -1.489  1.00  0.00     0.020 A 
ATOM     16  C   UNL     1      11.292  20.872  -3.988  1.00  0.00     0.093 A 
ATOM     17  C   UNL     1       9.482  19.978  -2.657  1.00  0.00     0.047 A 
ATOM     18  C   UNL     1      10.049  20.239  -3.909  1.00  0.00     0.119 A 
BRANCH  14  19
ATOM     19  O   UNL     1      13.223  21.864  -2.918  1.00  0.00    -0.507 OA
ATOM     20  H   UNL     1      13.633  22.096  -3.816  1.00  0.00     0.293 HD
ENDBRANCH  14  19
BRANCH  18  21
ATOM     21  O   UNL     1       9.388  19.875  -5.079  1.00  0.00    -0.508 OA
ATOM     22  H   UNL     1       9.707  20.191  -5.989  1.00  0.00     0.293 HD
ENDBRANCH  18  21
ENDBRANCH  11  13
ENDBRANCH   2  11
TORSDOF 6
ENDMDL
MODEL 6
REMARK VINA RESULT:    -3.063      1.778      5.111
REMARK INTER + INTRA:          -3.842
REMARK INTER:                  -2.792
REMARK INTRA:                  -1.049
REMARK UNBOUND:                 0.027
REMARK SMILES O=C(C=Cc1ccc(O)cc1)c1ccc(O)cc1O
REMARK SMILES IDX 4 1 3 2 5 3 6 4 7 5 8 6 11 7 10 8 9 9 2 11 1 12 12 13 18 14
REMARK SMILES IDX 13 15 17 16 14 17 15 18 19 19 16 21
REMARK H PARENT 9 10 19 20 16 22
REMARK Flexibility Score: inf
ROOT
ATOM      1  C   UNL     1      14.339  23.368  -0.404  1.00  0.00     0.012 C 
ATOM      2  C   UNL     1      13.779  22.739   0.643  1.00  0.00     0.053 C 
ENDROOT
BRANCH   1   3
ATOM      3  C   UNL     1      13.623  23.821  -1.614  1.00  0.00    -0.025 A 
ATOM      4  C   UNL     1      13.189  25.152  -1.749  1.00  0.00     0.012 A 
ATOM      5  C   UNL     1      12.472  25.548  -2.881  1.00  0.00     0.047 A 
ATOM      6  C   UNL     1      12.157  24.617  -3.876  1.00  0.00     0.115 A 
ATOM      7  C   UNL     1      13.280  22.885  -2.600  1.00  0.00     0.012 A 
ATOM      8  C   UNL     1      12.560  23.283  -3.732  1.00  0.00     0.047 A 
BRANCH   6   9
ATOM      9  O   UNL     1      11.442  25.026  -5.000  1.00  0.00    -0.508 OA
ATOM     10  H   UNL     1      11.747  25.811  -5.564  1.00  0.00     0.293 HD
ENDBRANCH   6   9
ENDBRANCH   1   3
BRANCH   2  11
ATOM     11  C   UNL     1      12.320  22.558   0.852  1.00  0.00     0.189 C 
ATOM     12  O   UNL     1      11.780  22.970   1.914  1.00  0.00    -0.289 OA
BRANCH  11  13
ATOM     13  C   UNL     1      11.484  21.863  -0.155  1.00  0.00     0.064 A 
ATOM     14  C   UNL     1      10.382  22.520  -0.743  1.00  0.00     0.130 A 
ATOM     15  C   UNL     1      11.762  20.533  -0.522  1.00  0.00     0.020 A 
ATOM     16  C   UNL     1       9.587  21.850  -1.685  1.00  0.00     0.093 A 
ATOM     17  C   UNL     1      10.965  19.875  -1.462  1.00  0.00     0.047 A 
ATOM     18  C   UNL     1       9.876  20.532  -2.046  1.00  0.00     0.119 A 
BRANCH  14  19
ATOM     19  O   UNL     1      10.087  23.841  -0.404  1.00  0.00    -0.507 OA
ATOM     20  H   UNL     1      10.779  24.451   0.017  1.00  0.00     0.293 HD
ENDBRANCH  14  19
BRANCH  18  21
ATOM     21  O   UNL     1       9.076  19.885  -2.985  1.00  0.00    -0.508 OA
ATOM     22  H   UNL     1       9.150  18.887  -3.146  1.00  0.00     0.293 HD
ENDBRANCH  18  21
ENDBRANCH  11  13
ENDBRANCH   2  11
TORSDOF 6
ENDMDL
