MODEL 1
REMARK VINA RESULT:    -4.363      0.000      0.000
REMARK INTER + INTRA:          -6.756
REMARK INTER:                  -6.148
REMARK INTRA:                  -0.608
REMARK UNBOUND:                -0.608
REMARK SMILES C=CCCCCCCC(=O)[O-]
REMARK SMILES IDX 6 1 7 2 8 3 9 4 10 5 11 6 5 7 4 8 3 9 2 10 1 11
REMARK H PARENT
REMARK Flexibility Score: inf
ROOT
ATOM      1  C   UNL     1      -5.605 -23.727  48.659  1.00  0.00     0.000 C 
ENDROOT
BRANCH   1   2
ATOM      2  C   UNL     1      -4.660 -24.361  49.690  1.00  0.00     0.006 C 
BRANCH   2   3
ATOM      3  C   UNL     1      -3.272 -24.652  49.103  1.00  0.00     0.053 C 
BRANCH   3   4
ATOM      4  C   UNL     1      -2.177 -24.092  49.960  1.00  0.00     0.041 C 
ATOM      5  O   UNL     1      -2.433 -23.196  50.808  1.00  0.00    -0.550 OA
ATOM      6  O   UNL     1      -0.883 -24.584  49.846  1.00  0.00    -0.550 OA
ENDBRANCH   3   4
ENDBRANCH   2   3
ENDBRANCH   1   2
BRANCH   1   7
ATOM      7  C   UNL     1      -4.912 -22.581  47.907  1.00  0.00     0.000 C 
BRANCH   7   8
ATOM      8  C   UNL     1      -5.723 -21.273  47.918  1.00  0.00     0.004 C 
BRANCH   8   9
ATOM      9  C   UNL     1      -6.050 -20.753  49.331  1.00  0.00     0.027 C 
BRANCH   9  10
ATOM     10  C   UNL     1      -4.897 -20.026  49.971  1.00  0.00    -0.035 C 
ATOM     11  C   UNL     1      -4.449 -20.347  51.188  1.00  0.00     0.004 C 
ENDBRANCH   9  10
ENDBRANCH   8   9
ENDBRANCH   7   8
ENDBRANCH   1   7
TORSDOF 7
ENDMDL
MODEL 2
REMARK VINA RESULT:    -4.292      1.639      2.331
REMARK INTER + INTRA:          -6.656
REMARK INTER:                  -5.851
REMARK INTRA:                  -0.806
REMARK UNBOUND:                -0.608
REMARK SMILES C=CCCCCCCC(=O)[O-]
REMARK SMILES IDX 6 1 7 2 8 3 9 4 10 5 11 6 5 7 4 8 3 9 2 10 1 11
REMARK H PARENT
REMARK Flexibility Score: inf
ROOT
ATOM      1  C   UNL     1      -4.726 -24.623  49.749  1.00  0.00     0.000 C 
ENDROOT
BRANCH   1   2
ATOM      2  C   UNL     1      -3.229 -24.473  49.441  1.00  0.00     0.006 C 
BRANCH   2   3
ATOM      3  C   UNL     1      -2.512 -23.582  50.464  1.00  0.00     0.053 C 
BRANCH   3   4
ATOM      4  C   UNL     1      -2.665 -22.127  50.138  1.00  0.00     0.041 C 
ATOM      5  O   UNL     1      -3.369 -21.384  50.872  1.00  0.00    -0.550 OA
ATOM      6  O   UNL     1      -2.001 -21.585  49.044  1.00  0.00    -0.550 OA
ENDBRANCH   3   4
ENDBRANCH   2   3
ENDBRANCH   1   2
BRANCH   1   7
ATOM      7  C   UNL     1      -5.583 -24.066  48.604  1.00  0.00     0.000 C 
BRANCH   7   8
ATOM      8  C   UNL     1      -4.746 -23.485  47.449  1.00  0.00     0.004 C 
BRANCH   8   9
ATOM      9  C   UNL     1      -4.983 -21.984  47.200  1.00  0.00     0.027 C 
BRANCH   9  10
ATOM     10  C   UNL     1      -5.832 -21.338  48.263  1.00  0.00    -0.035 C 
ATOM     11  C   UNL     1      -5.927 -20.010  48.380  1.00  0.00     0.004 C 
ENDBRANCH   9  10
ENDBRANCH   8   9
ENDBRANCH   7   8
ENDBRANCH   1   7
TORSDOF 7
ENDMDL
MODEL 3
REMARK VINA RESULT:    -4.280      2.550      4.161
REMARK INTER + INTRA:          -6.639
REMARK INTER:                  -5.973
REMARK INTRA:                  -0.666
REMARK UNBOUND:                -0.608
REMARK SMILES C=CCCCCCCC(=O)[O-]
REMARK SMILES IDX 6 1 7 2 8 3 9 4 10 5 11 6 5 7 4 8 3 9 2 10 1 11
REMARK H PARENT
REMARK Flexibility Score: inf
ROOT
ATOM      1  C   UNL     1      -3.223 -24.344  49.367  1.00  0.00     0.000 C 
ENDROOT
BRANCH   1   2
ATOM      2  C   UNL     1      -4.718 -24.535  49.662  1.00  0.00     0.006 C 
BRANCH   2   3
ATOM      3  C   UNL     1      -5.607 -23.944  48.560  1.00  0.00     0.053 C 
BRANCH   3   4
ATOM      4  C   UNL     1      -5.545 -22.447  48.537  1.00  0.00     0.041 C 
ATOM      5  O   UNL     1      -5.493 -21.833  47.439  1.00  0.00    -0.550 OA
ATOM      6  O   UNL     1      -5.580 -21.731  49.726  1.00  0.00    -0.550 OA
ENDBRANCH   3   4
ENDBRANCH   2   3
ENDBRANCH   1   2
BRANCH   1   7
ATOM      7  C   UNL     1      -2.507 -23.682  50.553  1.00  0.00     0.000 C 
BRANCH   7   8
ATOM      8  C   UNL     1      -2.149 -22.207  50.295  1.00  0.00     0.004 C 
BRANCH   8   9
ATOM      9  C   UNL     1      -1.874 -21.881  48.814  1.00  0.00     0.027 C 
BRANCH   9  10
ATOM     10  C   UNL     1      -0.419 -21.999  48.446  1.00  0.00    -0.035 C 
ATOM     11  C   UNL     1       0.552 -21.577  49.260  1.00  0.00     0.004 C 
ENDBRANCH   9  10
ENDBRANCH   8   9
ENDBRANCH   7   8
ENDBRANCH   1   7
TORSDOF 7
ENDMDL
MODEL 4
REMARK VINA RESULT:    -4.266      2.262      3.519
REMARK INTER + INTRA:          -6.620
REMARK INTER:                  -5.738
REMARK INTRA:                  -0.882
REMARK UNBOUND:                -0.608
REMARK SMILES C=CCCCCCCC(=O)[O-]
REMARK SMILES IDX 6 1 7 2 8 3 9 4 10 5 11 6 5 7 4 8 3 9 2 10 1 11
REMARK H PARENT
REMARK Flexibility Score: inf
ROOT
ATOM      1  C   UNL     1      -1.368 -24.229  48.050  1.00  0.00     0.000 C 
ENDROOT
BRANCH   1   2
ATOM      2  C   UNL     1      -1.097 -24.646  49.503  1.00  0.00     0.006 C 
BRANCH   2   3
ATOM      3  C   UNL     1      -2.101 -24.024  50.483  1.00  0.00     0.053 C 
BRANCH   3   4
ATOM      4  C   UNL     1      -1.910 -22.543  50.609  1.00  0.00     0.041 C 
ATOM      5  O   UNL     1      -2.893 -21.765  50.485  1.00  0.00    -0.550 OA
ATOM      6  O   UNL     1      -0.654 -22.025  50.898  1.00  0.00    -0.550 OA
ENDBRANCH   3   4
ENDBRANCH   2   3
ENDBRANCH   1   2
BRANCH   1   7
ATOM      7  C   UNL     1      -2.108 -25.337  47.287  1.00  0.00     0.000 C 
BRANCH   7   8
ATOM      8  C   UNL     1      -3.544 -24.946  46.894  1.00  0.00     0.004 C 
BRANCH   8   9
ATOM      9  C   UNL     1      -3.900 -23.481  47.210  1.00  0.00     0.027 C 
BRANCH   9  10
ATOM     10  C   UNL     1      -5.078 -23.349  48.139  1.00  0.00    -0.035 C 
ATOM     11  C   UNL     1      -5.462 -24.349  48.938  1.00  0.00     0.004 C 
ENDBRANCH   9  10
ENDBRANCH   8   9
ENDBRANCH   7   8
ENDBRANCH   1   7
TORSDOF 7
ENDMDL
MODEL 5
REMARK VINA RESULT:    -4.266      1.959      4.166
REMARK INTER + INTRA:          -6.619
REMARK INTER:                  -6.130
REMARK INTRA:                  -0.489
REMARK UNBOUND:                -0.608
REMARK SMILES C=CCCCCCCC(=O)[O-]
REMARK SMILES IDX 6 1 7 2 8 3 9 4 10 5 11 6 5 7 4 8 3 9 2 10 1 11
REMARK H PARENT
REMARK Flexibility Score: inf
ROOT
ATOM      1  C   UNL     1      -5.635 -24.070  48.577  1.00  0.00     0.000 C 
ENDROOT
BRANCH   1   2
ATOM      2  C   UNL     1      -4.854 -23.067  47.715  1.00  0.00     0.006 C 
BRANCH   2   3
ATOM      3  C   UNL     1      -5.399 -21.639  47.848  1.00  0.00     0.053 C 
BRANCH   3   4
ATOM      4  C   UNL     1      -5.037 -21.025  49.166  1.00  0.00     0.041 C 
ATOM      5  O   UNL     1      -5.921 -20.845  50.045  1.00  0.00    -0.550 OA
ATOM      6  O   UNL     1      -3.717 -20.685  49.437  1.00  0.00    -0.550 OA
ENDBRANCH   3   4
ENDBRANCH   2   3
ENDBRANCH   1   2
BRANCH   1   7
ATOM      7  C   UNL     1      -4.751 -24.643  49.694  1.00  0.00     0.000 C 
BRANCH   7   8
ATOM      8  C   UNL     1      -3.245 -24.513  49.400  1.00  0.00     0.004 C 
BRANCH   8   9
ATOM      9  C   UNL     1      -2.451 -23.805  50.514  1.00  0.00     0.027 C 
BRANCH   9  10
ATOM     10  C   UNL     1      -0.976 -24.107  50.468  1.00  0.00    -0.035 C 
ATOM     11  C   UNL     1      -0.069 -23.280  50.996  1.00  0.00     0.004 C 
ENDBRANCH   9  10
ENDBRANCH   8   9
ENDBRANCH   7   8
ENDBRANCH   1   7
TORSDOF 7
ENDMDL
MODEL 6
REMARK VINA RESULT:    -4.186      2.040      2.893
REMARK INTER + INTRA:          -6.507
REMARK INTER:                  -6.001
REMARK INTRA:                  -0.506
REMARK UNBOUND:                -0.608
REMARK SMILES C=CCCCCCCC(=O)[O-]
REMARK SMILES IDX 6 1 7 2 8 3 9 4 10 5 11 6 5 7 4 8 3 9 2 10 1 11
REMARK H PARENT
REMARK Flexibility Score: inf
ROOT
ATOM      1  C   UNL     1      -3.213 -24.570  49.414  1.00  0.00     0.000 C 
ENDROOT
BRANCH   1   2
ATOM      2  C   UNL     1      -2.498 -23.695  50.455  1.00  0.00     0.006 C 
BRANCH   2   3
ATOM      3  C   UNL     1      -1.004 -24.027  50.565  1.00  0.00     0.053 C 
BRANCH   3   4
ATOM      4  C   UNL     1      -0.148 -22.814  50.359  1.00  0.00     0.041 C 
ATOM      5  O   UNL     1       0.501 -22.327  51.323  1.00  0.00    -0.550 OA
ATOM      6  O   UNL     1      -0.041 -22.243  49.098  1.00  0.00    -0.550 OA
ENDBRANCH   3   4
ENDBRANCH   2   3
ENDBRANCH   1   2
BRANCH   1   7
ATOM      7  C   UNL     1      -4.719 -24.649  49.700  1.00  0.00     0.000 C 
BRANCH   7   8
ATOM      8  C   UNL     1      -5.581 -24.070  48.564  1.00  0.00     0.004 C 
BRANCH   8   9
ATOM      9  C   UNL     1      -5.577 -22.531  48.499  1.00  0.00     0.027 C 
BRANCH   9  10
ATOM     10  C   UNL     1      -4.940 -21.996  47.244  1.00  0.00    -0.035 C 
ATOM     11  C   UNL     1      -3.651 -21.644  47.202  1.00  0.00     0.004 C 
ENDBRANCH   9  10
ENDBRANCH   8   9
ENDBRANCH   7   8
ENDBRANCH   1   7
TORSDOF 7
ENDMDL
MODEL 7
REMARK VINA RESULT:    -4.182      2.373      3.850
REMARK INTER + INTRA:          -6.501
REMARK INTER:                  -5.808
REMARK INTRA:                  -0.693
REMARK UNBOUND:                -0.608
REMARK SMILES C=CCCCCCCC(=O)[O-]
REMARK SMILES IDX 6 1 7 2 8 3 9 4 10 5 11 6 5 7 4 8 3 9 2 10 1 11
REMARK H PARENT
REMARK Flexibility Score: inf
ROOT
ATOM      1  C   UNL     1      -2.847 -22.492  50.225  1.00  0.00     0.000 C 
ENDROOT
BRANCH   1   2
ATOM      2  C   UNL     1      -1.977 -23.707  50.579  1.00  0.00     0.006 C 
BRANCH   2   3
ATOM      3  C   UNL     1      -0.643 -23.706  49.820  1.00  0.00     0.053 C 
BRANCH   3   4
ATOM      4  C   UNL     1       0.145 -22.459  50.080  1.00  0.00     0.041 C 
ATOM      5  O   UNL     1       0.430 -21.680  49.132  1.00  0.00    -0.550 OA
ATOM      6  O   UNL     1       0.533 -22.138  51.375  1.00  0.00    -0.550 OA
ENDBRANCH   3   4
ENDBRANCH   2   3
ENDBRANCH   1   2
BRANCH   1   7
ATOM      7  C   UNL     1      -4.326 -22.889  50.107  1.00  0.00     0.000 C 
BRANCH   7   8
ATOM      8  C   UNL     1      -4.527 -24.361  49.703  1.00  0.00     0.004 C 
BRANCH   8   9
ATOM      9  C   UNL     1      -5.329 -24.547  48.401  1.00  0.00     0.027 C 
BRANCH   9  10
ATOM     10  C   UNL     1      -4.459 -24.587  47.173  1.00  0.00    -0.035 C 
ATOM     11  C   UNL     1      -3.190 -25.005  47.221  1.00  0.00     0.004 C 
ENDBRANCH   9  10
ENDBRANCH   8   9
ENDBRANCH   7   8
ENDBRANCH   1   7
TORSDOF 7
ENDMDL
MODEL 8
REMARK VINA RESULT:    -4.173      2.465      4.481
REMARK INTER + INTRA:          -6.488
REMARK INTER:                  -5.895
REMARK INTRA:                  -0.594
REMARK UNBOUND:                -0.608
REMARK SMILES C=CCCCCCCC(=O)[O-]
REMARK SMILES IDX 6 1 7 2 8 3 9 4 10 5 11 6 5 7 4 8 3 9 2 10 1 11
REMARK H PARENT
REMARK Flexibility Score: inf
ROOT
ATOM      1  C   UNL     1      -3.165 -24.141  49.691  1.00  0.00     0.000 C 
ENDROOT
BRANCH   1   2
ATOM      2  C   UNL     1      -2.890 -22.886  50.533  1.00  0.00     0.006 C 
BRANCH   2   3
ATOM      3  C   UNL     1      -3.357 -21.603  49.831  1.00  0.00     0.053 C 
BRANCH   3   4
ATOM      4  C   UNL     1      -4.485 -20.946  50.566  1.00  0.00     0.041 C 
ATOM      5  O   UNL     1      -5.672 -21.102  50.174  1.00  0.00    -0.550 OA
ATOM      6  O   UNL     1      -4.229 -20.191  51.704  1.00  0.00    -0.550 OA
ENDBRANCH   3   4
ENDBRANCH   2   3
ENDBRANCH   1   2
BRANCH   1   7
ATOM      7  C   UNL     1      -4.647 -24.538  49.760  1.00  0.00     0.000 C 
BRANCH   7   8
ATOM      8  C   UNL     1      -5.387 -24.344  48.424  1.00  0.00     0.004 C 
BRANCH   8   9
ATOM      9  C   UNL     1      -4.456 -24.058  47.230  1.00  0.00     0.027 C 
BRANCH   9  10
ATOM     10  C   UNL     1      -4.225 -25.266  46.362  1.00  0.00    -0.035 C 
ATOM     11  C   UNL     1      -2.995 -25.678  46.039  1.00  0.00     0.004 C 
ENDBRANCH   9  10
ENDBRANCH   8   9
ENDBRANCH   7   8
ENDBRANCH   1   7
TORSDOF 7
ENDMDL
MODEL 9
REMARK VINA RESULT:    -4.165      1.110      2.008
REMARK INTER + INTRA:          -6.477
REMARK INTER:                  -6.026
REMARK INTRA:                  -0.452
REMARK UNBOUND:                -0.608
REMARK SMILES C=CCCCCCCC(=O)[O-]
REMARK SMILES IDX 6 1 7 2 8 3 9 4 10 5 11 6 5 7 4 8 3 9 2 10 1 11
REMARK H PARENT
REMARK Flexibility Score: inf
ROOT
ATOM      1  C   UNL     1      -5.624 -23.926  48.623  1.00  0.00     0.000 C 
ENDROOT
BRANCH   1   2
ATOM      2  C   UNL     1      -4.700 -24.494  49.711  1.00  0.00     0.006 C 
BRANCH   2   3
ATOM      3  C   UNL     1      -3.229 -24.509  49.273  1.00  0.00     0.053 C 
BRANCH   3   4
ATOM      4  C   UNL     1      -2.347 -23.811  50.264  1.00  0.00     0.041 C 
ATOM      5  O   UNL     1      -2.704 -22.712  50.765  1.00  0.00    -0.550 OA
ATOM      6  O   UNL     1      -1.148 -24.391  50.658  1.00  0.00    -0.550 OA
ENDBRANCH   3   4
ENDBRANCH   2   3
ENDBRANCH   1   2
BRANCH   1   7
ATOM      7  C   UNL     1      -5.177 -22.520  48.199  1.00  0.00     0.000 C 
BRANCH   7   8
ATOM      8  C   UNL     1      -5.640 -21.420  49.172  1.00  0.00     0.004 C 
BRANCH   8   9
ATOM      9  C   UNL     1      -6.080 -20.117  48.477  1.00  0.00     0.027 C 
BRANCH   9  10
ATOM     10  C   UNL     1      -6.388 -20.305  47.015  1.00  0.00    -0.035 C 
ATOM     11  C   UNL     1      -5.931 -19.463  46.084  1.00  0.00     0.004 C 
ENDBRANCH   9  10
ENDBRANCH   8   9
ENDBRANCH   7   8
ENDBRANCH   1   7
TORSDOF 7
ENDMDL
