MODEL 1
REMARK VINA RESULT:    -3.693      0.000      0.000
REMARK INTER + INTRA:          -4.288
REMARK INTER:                  -4.233
REMARK INTRA:                  -0.055
REMARK UNBOUND:                -0.055
REMARK SMILES COc1cc(C=O)ccc1O
REMARK SMILES IDX 3 1 10 2 9 3 8 4 5 5 4 6 2 7 1 8 11 9 6 11 7 12
REMARK H PARENT 11 10
REMARK Flexibility Score: inf
ROOT
ATOM      1  C   UNL     1     171.997 166.082 167.187  1.00  0.00     0.161 A 
ATOM      2  C   UNL     1     170.716 166.648 167.114  1.00  0.00     0.157 A 
ATOM      3  C   UNL     1     170.078 167.097 168.277  1.00  0.00     0.051 A 
ATOM      4  C   UNL     1     170.711 166.983 169.516  1.00  0.00     0.015 A 
ATOM      5  C   UNL     1     171.994 166.419 169.607  1.00  0.00     0.018 A 
ATOM      6  C   UNL     1     172.632 165.970 168.440  1.00  0.00     0.062 A 
ENDROOT
BRANCH   1   7
ATOM      7  O   UNL     1     172.604 165.645 165.998  1.00  0.00    -0.493 OA
ATOM      8  C   UNL     1     173.978 165.293 165.876  1.00  0.00     0.278 C 
ENDBRANCH   1   7
BRANCH   2   9
ATOM      9  O   UNL     1     170.083 166.762 165.877  1.00  0.00    -0.504 OA
ATOM     10  H   UNL     1     169.646 165.965 165.429  1.00  0.00     0.293 HD
ENDBRANCH   2   9
BRANCH   5  11
ATOM     11  C   UNL     1     172.678 166.291 170.907  1.00  0.00     0.260 C 
ATOM     12  O   UNL     1     173.895 165.977 170.975  1.00  0.00    -0.298 OA
ENDBRANCH   5  11
TORSDOF 3
ENDMDL
MODEL 2
REMARK VINA RESULT:    -3.675      8.904      9.241
REMARK INTER + INTRA:          -4.267
REMARK INTER:                  -4.213
REMARK INTRA:                  -0.055
REMARK UNBOUND:                -0.055
REMARK SMILES COc1cc(C=O)ccc1O
REMARK SMILES IDX 3 1 10 2 9 3 8 4 5 5 4 6 2 7 1 8 11 9 6 11 7 12
REMARK H PARENT 11 10
REMARK Flexibility Score: inf
ROOT
ATOM      1  C   UNL     1     166.131 159.185 167.171  1.00  0.00     0.161 A 
ATOM      2  C   UNL     1     166.661 160.482 167.112  1.00  0.00     0.157 A 
ATOM      3  C   UNL     1     167.069 161.130 168.284  1.00  0.00     0.051 A 
ATOM      4  C   UNL     1     166.952 160.491 169.519  1.00  0.00     0.015 A 
ATOM      5  C   UNL     1     166.424 159.192 169.597  1.00  0.00     0.018 A 
ATOM      6  C   UNL     1     166.015 158.544 168.420  1.00  0.00     0.062 A 
ENDROOT
BRANCH   1   7
ATOM      7  O   UNL     1     165.733 158.569 165.974  1.00  0.00    -0.493 OA
ATOM      8  C   UNL     1     165.252 157.233 165.875  1.00  0.00     0.278 C 
ENDBRANCH   1   7
BRANCH   2   9
ATOM      9  O   UNL     1     166.779 161.122 165.878  1.00  0.00    -0.504 OA
ATOM     10  H   UNL     1     167.678 161.422 165.520  1.00  0.00     0.293 HD
ENDBRANCH   2   9
BRANCH   5  11
ATOM     11  C   UNL     1     166.292 158.501 170.893  1.00  0.00     0.260 C 
ATOM     12  O   UNL     1     166.072 157.262 170.952  1.00  0.00    -0.298 OA
ENDBRANCH   5  11
TORSDOF 3
ENDMDL
MODEL 3
REMARK VINA RESULT:    -3.558      8.808      9.288
REMARK INTER + INTRA:          -4.133
REMARK INTER:                  -4.077
REMARK INTRA:                  -0.056
REMARK UNBOUND:                -0.055
REMARK SMILES COc1cc(C=O)ccc1O
REMARK SMILES IDX 3 1 10 2 9 3 8 4 5 5 4 6 2 7 1 8 11 9 6 11 7 12
REMARK H PARENT 11 10
REMARK Flexibility Score: inf
ROOT
ATOM      1  C   UNL     1     164.922 172.067 167.180  1.00  0.00     0.161 A 
ATOM      2  C   UNL     1     164.561 170.713 167.126  1.00  0.00     0.157 A 
ATOM      3  C   UNL     1     164.282 170.012 168.305  1.00  0.00     0.051 A 
ATOM      4  C   UNL     1     164.362 170.653 169.543  1.00  0.00     0.015 A 
ATOM      5  C   UNL     1     164.722 172.009 169.615  1.00  0.00     0.018 A 
ATOM      6  C   UNL     1     165.001 172.710 168.432  1.00  0.00     0.062 A 
ENDROOT
BRANCH   1   7
ATOM      7  O   UNL     1     165.194 172.736 165.976  1.00  0.00    -0.493 OA
ATOM      8  C   UNL     1     165.929 173.951 165.877  1.00  0.00     0.278 C 
ENDBRANCH   1   7
BRANCH   2   9
ATOM      9  O   UNL     1     164.481 170.072 165.891  1.00  0.00    -0.504 OA
ATOM     10  H   UNL     1     164.444 170.594 165.023  1.00  0.00     0.293 HD
ENDBRANCH   2   9
BRANCH   5  11
ATOM     11  C   UNL     1     164.812 172.703 170.913  1.00  0.00     0.260 C 
ATOM     12  O   UNL     1     165.354 173.835 171.010  1.00  0.00    -0.298 OA
ENDBRANCH   5  11
TORSDOF 3
ENDMDL
MODEL 4
REMARK VINA RESULT:    -3.499     11.311     13.081
REMARK INTER + INTRA:          -4.065
REMARK INTER:                  -4.010
REMARK INTRA:                  -0.055
REMARK UNBOUND:                -0.055
REMARK SMILES COc1cc(C=O)ccc1O
REMARK SMILES IDX 3 1 10 2 9 3 8 4 5 5 4 6 2 7 1 8 11 9 6 11 7 12
REMARK H PARENT 11 10
REMARK Flexibility Score: inf
ROOT
ATOM      1  C   UNL     1     159.194 164.913 167.196  1.00  0.00     0.161 A 
ATOM      2  C   UNL     1     160.534 164.502 167.175  1.00  0.00     0.157 A 
ATOM      3  C   UNL     1     161.177 164.138 168.365  1.00  0.00     0.051 A 
ATOM      4  C   UNL     1     160.491 164.184 169.579  1.00  0.00     0.015 A 
ATOM      5  C   UNL     1     159.148 164.594 169.618  1.00  0.00     0.018 A 
ATOM      6  C   UNL     1     158.505 164.958 168.424  1.00  0.00     0.062 A 
ENDROOT
BRANCH   1   7
ATOM      7  O   UNL     1     158.584 165.269 165.982  1.00  0.00    -0.493 OA
ATOM      8  C   UNL     1     157.365 165.997 165.875  1.00  0.00     0.278 C 
ENDBRANCH   1   7
BRANCH   2   9
ATOM      9  O   UNL     1     161.221 164.455 165.963  1.00  0.00    -0.504 OA
ATOM     10  H   UNL     1     161.248 165.253 165.338  1.00  0.00     0.293 HD
ENDBRANCH   2   9
BRANCH   5  11
ATOM     11  C   UNL     1     158.407 164.649 170.892  1.00  0.00     0.260 C 
ATOM     12  O   UNL     1     157.302 165.247 170.977  1.00  0.00    -0.298 OA
ENDBRANCH   5  11
TORSDOF 3
ENDMDL
MODEL 5
REMARK VINA RESULT:    -3.401     10.683     12.382
REMARK INTER + INTRA:          -3.953
REMARK INTER:                  -3.880
REMARK INTRA:                  -0.073
REMARK UNBOUND:                -0.055
REMARK SMILES COc1cc(C=O)ccc1O
REMARK SMILES IDX 3 1 10 2 9 3 8 4 5 5 4 6 2 7 1 8 11 9 6 11 7 12
REMARK H PARENT 11 10
REMARK Flexibility Score: inf
ROOT
ATOM      1  C   UNL     1     159.041 164.511 169.128  1.00  0.00     0.161 A 
ATOM      2  C   UNL     1     159.067 164.482 167.726  1.00  0.00     0.157 A 
ATOM      3  C   UNL     1     160.290 164.466 167.045  1.00  0.00     0.051 A 
ATOM      4  C   UNL     1     161.492 164.481 167.755  1.00  0.00     0.015 A 
ATOM      5  C   UNL     1     161.484 164.511 169.159  1.00  0.00     0.018 A 
ATOM      6  C   UNL     1     160.256 164.526 169.840  1.00  0.00     0.062 A 
ENDROOT
BRANCH   1   7
ATOM      7  O   UNL     1     157.794 164.526 169.774  1.00  0.00    -0.493 OA
ATOM      8  C   UNL     1     157.344 163.525 170.681  1.00  0.00     0.278 C 
ENDBRANCH   1   7
BRANCH   2   9
ATOM      9  O   UNL     1     157.867 164.466 167.016  1.00  0.00    -0.504 OA
ATOM     10  H   UNL     1     157.219 163.690 167.086  1.00  0.00     0.293 HD
ENDBRANCH   2   9
BRANCH   5  11
ATOM     11  C   UNL     1     162.744 164.527 169.926  1.00  0.00     0.260 C 
ATOM     12  O   UNL     1     163.823 164.905 169.398  1.00  0.00    -0.298 OA
ENDBRANCH   5  11
TORSDOF 3
ENDMDL
MODEL 6
REMARK VINA RESULT:    -3.382      7.932      9.480
REMARK INTER + INTRA:          -3.932
REMARK INTER:                  -3.863
REMARK INTRA:                  -0.069
REMARK UNBOUND:                -0.055
REMARK SMILES COc1cc(C=O)ccc1O
REMARK SMILES IDX 3 1 10 2 9 3 8 4 5 5 4 6 2 7 1 8 11 9 6 11 7 12
REMARK H PARENT 11 10
REMARK Flexibility Score: inf
ROOT
ATOM      1  C   UNL     1     164.520 172.145 169.144  1.00  0.00     0.161 A 
ATOM      2  C   UNL     1     164.479 172.106 167.743  1.00  0.00     0.157 A 
ATOM      3  C   UNL     1     164.471 170.876 167.073  1.00  0.00     0.051 A 
ATOM      4  C   UNL     1     164.506 169.681 167.793  1.00  0.00     0.015 A 
ATOM      5  C   UNL     1     164.547 169.702 169.197  1.00  0.00     0.018 A 
ATOM      6  C   UNL     1     164.554 170.936 169.867  1.00  0.00     0.062 A 
ENDROOT
BRANCH   1   7
ATOM      7  O   UNL     1     164.526 173.397 169.779  1.00  0.00    -0.493 OA
ATOM      8  C   UNL     1     163.578 173.810 170.757  1.00  0.00     0.278 C 
ENDBRANCH   1   7
BRANCH   2   9
ATOM      9  O   UNL     1     164.444 173.299 167.022  1.00  0.00    -0.504 OA
ATOM     10  H   UNL     1     164.919 174.131 167.351  1.00  0.00     0.293 HD
ENDBRANCH   2   9
BRANCH   5  11
ATOM     11  C   UNL     1     164.584 168.450 169.975  1.00  0.00     0.260 C 
ATOM     12  O   UNL     1     165.318 167.488 169.626  1.00  0.00    -0.298 OA
ENDBRANCH   5  11
TORSDOF 3
ENDMDL
MODEL 7
REMARK VINA RESULT:    -3.381      8.125      8.675
REMARK INTER + INTRA:          -3.931
REMARK INTER:                  -3.860
REMARK INTRA:                  -0.070
REMARK UNBOUND:                -0.055
REMARK SMILES COc1cc(C=O)ccc1O
REMARK SMILES IDX 3 1 10 2 9 3 8 4 5 5 4 6 2 7 1 8 11 9 6 11 7 12
REMARK H PARENT 11 10
REMARK Flexibility Score: inf
ROOT
ATOM      1  C   UNL     1     166.705 159.024 169.154  1.00  0.00     0.161 A 
ATOM      2  C   UNL     1     166.706 159.087 167.753  1.00  0.00     0.157 A 
ATOM      3  C   UNL     1     166.686 160.328 167.104  1.00  0.00     0.051 A 
ATOM      4  C   UNL     1     166.665 161.510 167.846  1.00  0.00     0.015 A 
ATOM      5  C   UNL     1     166.663 161.465 169.250  1.00  0.00     0.018 A 
ATOM      6  C   UNL     1     166.683 160.220 169.898  1.00  0.00     0.062 A 
ENDROOT
BRANCH   1   7
ATOM      7  O   UNL     1     166.725 157.761 169.767  1.00  0.00    -0.493 OA
ATOM      8  C   UNL     1     167.691 157.346 170.727  1.00  0.00     0.278 C 
ENDBRANCH   1   7
BRANCH   2   9
ATOM      9  O   UNL     1     166.728 157.907 167.011  1.00  0.00    -0.504 OA
ATOM     10  H   UNL     1     166.930 157.908 166.018  1.00  0.00     0.293 HD
ENDBRANCH   2   9
BRANCH   5  11
ATOM     11  C   UNL     1     166.641 162.704 170.050  1.00  0.00     0.260 C 
ATOM     12  O   UNL     1     166.410 163.820 169.515  1.00  0.00    -0.298 OA
ENDBRANCH   5  11
TORSDOF 3
ENDMDL
MODEL 8
REMARK VINA RESULT:    -3.377      1.846      3.610
REMARK INTER + INTRA:          -3.926
REMARK INTER:                  -3.855
REMARK INTRA:                  -0.071
REMARK UNBOUND:                -0.055
REMARK SMILES COc1cc(C=O)ccc1O
REMARK SMILES IDX 3 1 10 2 9 3 8 4 5 5 4 6 2 7 1 8 11 9 6 11 7 12
REMARK H PARENT 11 10
REMARK Flexibility Score: inf
ROOT
ATOM      1  C   UNL     1     172.182 166.750 169.130  1.00  0.00     0.161 A 
ATOM      2  C   UNL     1     172.127 166.732 167.729  1.00  0.00     0.157 A 
ATOM      3  C   UNL     1     170.890 166.705 167.073  1.00  0.00     0.051 A 
ATOM      4  C   UNL     1     169.704 166.694 167.808  1.00  0.00     0.015 A 
ATOM      5  C   UNL     1     169.740 166.710 169.212  1.00  0.00     0.018 A 
ATOM      6  C   UNL     1     170.981 166.738 169.867  1.00  0.00     0.062 A 
ENDROOT
BRANCH   1   7
ATOM      7  O   UNL     1     173.441 166.777 169.750  1.00  0.00    -0.493 OA
ATOM      8  C   UNL     1     173.870 167.784 170.661  1.00  0.00     0.278 C 
ENDBRANCH   1   7
BRANCH   2   9
ATOM      9  O   UNL     1     173.312 166.744 166.994  1.00  0.00    -0.504 OA
ATOM     10  H   UNL     1     173.839 167.598 166.850  1.00  0.00     0.293 HD
ENDBRANCH   2   9
BRANCH   5  11
ATOM     11  C   UNL     1     168.497 166.698 170.004  1.00  0.00     0.260 C 
ATOM     12  O   UNL     1     167.403 166.336 169.495  1.00  0.00    -0.298 OA
ENDBRANCH   5  11
TORSDOF 3
ENDMDL
MODEL 9
REMARK VINA RESULT:    -3.322      1.599      3.655
REMARK INTER + INTRA:          -3.863
REMARK INTER:                  -3.800
REMARK INTRA:                  -0.063
REMARK UNBOUND:                -0.055
REMARK SMILES COc1cc(C=O)ccc1O
REMARK SMILES IDX 3 1 10 2 9 3 8 4 5 5 4 6 2 7 1 8 11 9 6 11 7 12
REMARK H PARENT 11 10
REMARK Flexibility Score: inf
ROOT
ATOM      1  C   UNL     1     171.918 166.530 169.358  1.00  0.00     0.161 A 
ATOM      2  C   UNL     1     170.584 166.892 169.121  1.00  0.00     0.157 A 
ATOM      3  C   UNL     1     170.053 166.814 167.827  1.00  0.00     0.051 A 
ATOM      4  C   UNL     1     170.847 166.379 166.765  1.00  0.00     0.015 A 
ATOM      5  C   UNL     1     172.186 166.013 166.985  1.00  0.00     0.018 A 
ATOM      6  C   UNL     1     172.715 166.091 168.283  1.00  0.00     0.062 A 
ENDROOT
BRANCH   1   7
ATOM      7  O   UNL     1     172.413 166.621 170.669  1.00  0.00    -0.493 OA
ATOM      8  C   UNL     1     173.678 167.172 171.017  1.00  0.00     0.278 C 
ENDBRANCH   1   7
BRANCH   2   9
ATOM      9  O   UNL     1     169.790 167.327 170.181  1.00  0.00    -0.504 OA
ATOM     10  H   UNL     1     169.606 168.311 170.337  1.00  0.00     0.293 HD
ENDBRANCH   2   9
BRANCH   5  11
ATOM     11  C   UNL     1     173.039 165.550 165.875  1.00  0.00     0.260 C 
ATOM     12  O   UNL     1     174.249 165.255 166.064  1.00  0.00    -0.298 OA
ENDBRANCH   5  11
TORSDOF 3
ENDMDL
