MODEL 1
REMARK VINA RESULT:     5.481      0.000      0.000
REMARK INTER + INTRA:           6.126
REMARK INTER:                   6.443
REMARK INTRA:                  -0.317
REMARK UNBOUND:                -0.317
REMARK SMILES O=c1cc(-c2ccc(O)c(O)c2)oc2cc(O)cc(O)c12
REMARK SMILES IDX 4 1 3 2 2 3 1 4 21 5 19 6 18 7 16 8 15 9 14 10 13 11 5 12
REMARK SMILES IDX 6 13 7 14 8 15 12 16 10 17 9 18 11 20 20 22 17 24
REMARK H PARENT 9 19 11 21 20 23 17 25
REMARK Flexibility Score: inf
ROOT
ATOM      1  C   UNL     1      16.007  22.367 -10.432  1.00  0.00     0.138 A 
ATOM      2  C   UNL     1      16.611  22.082  -9.196  1.00  0.00     0.100 A 
ATOM      3  C   UNL     1      16.074  22.625  -8.027  1.00  0.00     0.197 A 
ATOM      4  O   UNL     1      16.624  22.366  -6.923  1.00  0.00    -0.289 OA
ATOM      5  C   UNL     1      14.936  23.453  -8.104  1.00  0.00     0.107 A 
ATOM      6  C   UNL     1      14.329  24.043  -6.970  1.00  0.00     0.134 A 
ATOM      7  C   UNL     1      13.200  24.860  -7.132  1.00  0.00     0.093 A 
ATOM      8  C   UNL     1      12.670  25.099  -8.405  1.00  0.00     0.123 A 
ATOM      9  C   UNL     1      13.266  24.520  -9.527  1.00  0.00     0.094 A 
ATOM     10  C   UNL     1      14.391  23.701  -9.387  1.00  0.00     0.146 A 
ATOM     11  O   UNL     1      14.939  23.160 -10.471  1.00  0.00    -0.456 OA
ENDROOT
BRANCH   1  12
ATOM     12  C   UNL     1      16.534  21.818 -11.706  1.00  0.00     0.021 A 
ATOM     13  C   UNL     1      17.520  20.818 -11.673  1.00  0.00     0.016 A 
ATOM     14  C   UNL     1      18.039  20.290 -12.858  1.00  0.00     0.051 A 
ATOM     15  C   UNL     1      17.590  20.757 -14.096  1.00  0.00     0.157 A 
ATOM     16  C   UNL     1      16.095  22.296 -12.957  1.00  0.00     0.062 A 
ATOM     17  C   UNL     1      16.616  21.767 -14.147  1.00  0.00     0.158 A 
BRANCH  15  18
ATOM     18  O   UNL     1      18.125  20.210 -15.262  1.00  0.00    -0.504 OA
ATOM     19  H   UNL     1      19.105  19.971 -15.342  1.00  0.00     0.293 HD
ENDBRANCH  15  18
BRANCH  17  20
ATOM     20  O   UNL     1      16.173  22.246 -15.379  1.00  0.00    -0.504 OA
ATOM     21  H   UNL     1      16.706  22.102 -16.228  1.00  0.00     0.293 HD
ENDBRANCH  17  20
ENDBRANCH   1  12
BRANCH   6  22
ATOM     22  O   UNL     1      14.836  23.822  -5.688  1.00  0.00    -0.507 OA
ATOM     23  H   UNL     1      15.811  23.595  -5.534  1.00  0.00     0.293 HD
ENDBRANCH   6  22
BRANCH   8  24
ATOM     24  O   UNL     1      11.550  25.911  -8.567  1.00  0.00    -0.508 OA
ATOM     25  H   UNL     1      11.509  26.842  -8.170  1.00  0.00     0.293 HD
ENDBRANCH   8  24
TORSDOF 5
ENDMDL
MODEL 2
REMARK VINA RESULT:     8.009      1.793      6.993
REMARK INTER + INTRA:           9.097
REMARK INTER:                   9.374
REMARK INTRA:                  -0.277
REMARK UNBOUND:                -0.317
REMARK SMILES O=c1cc(-c2ccc(O)c(O)c2)oc2cc(O)cc(O)c12
REMARK SMILES IDX 4 1 3 2 2 3 1 4 21 5 19 6 18 7 16 8 15 9 14 10 13 11 5 12
REMARK SMILES IDX 6 13 7 14 8 15 12 16 10 17 9 18 11 20 20 22 17 24
REMARK H PARENT 9 19 11 21 20 23 17 25
REMARK Flexibility Score: inf
ROOT
ATOM      1  C   UNL     1      13.639  24.049  -8.582  1.00  0.00     0.138 A 
ATOM      2  C   UNL     1      14.414  23.661  -7.477  1.00  0.00     0.100 A 
ATOM      3  C   UNL     1      15.600  22.954  -7.683  1.00  0.00     0.197 A 
ATOM      4  O   UNL     1      16.287  22.608  -6.685  1.00  0.00    -0.289 OA
ATOM      5  C   UNL     1      16.001  22.639  -8.997  1.00  0.00     0.107 A 
ATOM      6  C   UNL     1      17.188  21.927  -9.294  1.00  0.00     0.134 A 
ATOM      7  C   UNL     1      17.515  21.648 -10.630  1.00  0.00     0.093 A 
ATOM      8  C   UNL     1      16.676  22.066 -11.670  1.00  0.00     0.123 A 
ATOM      9  C   UNL     1      15.504  22.767 -11.382  1.00  0.00     0.094 A 
ATOM     10  C   UNL     1      15.162  23.056 -10.057  1.00  0.00     0.146 A 
ATOM     11  O   UNL     1      14.041  23.727  -9.809  1.00  0.00    -0.456 OA
ENDROOT
BRANCH   1  12
ATOM     12  C   UNL     1      12.368  24.801  -8.422  1.00  0.00     0.021 A 
ATOM     13  C   UNL     1      12.131  25.934  -9.219  1.00  0.00     0.016 A 
ATOM     14  C   UNL     1      10.947  26.663  -9.083  1.00  0.00     0.051 A 
ATOM     15  C   UNL     1       9.984  26.279  -8.146  1.00  0.00     0.157 A 
ATOM     16  C   UNL     1      11.401  24.426  -7.469  1.00  0.00     0.062 A 
ATOM     17  C   UNL     1      10.212  25.159  -7.332  1.00  0.00     0.158 A 
BRANCH  15  18
ATOM     18  O   UNL     1       8.811  27.026  -8.035  1.00  0.00    -0.504 OA
ATOM     19  H   UNL     1       8.281  27.069  -7.173  1.00  0.00     0.293 HD
ENDBRANCH  15  18
BRANCH  17  20
ATOM     20  O   UNL     1       9.261  24.779  -6.386  1.00  0.00    -0.504 OA
ATOM     21  H   UNL     1       9.464  24.791  -5.393  1.00  0.00     0.293 HD
ENDBRANCH  17  20
ENDBRANCH   1  12
BRANCH   6  22
ATOM     22  O   UNL     1      18.042  21.500  -8.277  1.00  0.00    -0.507 OA
ATOM     23  H   UNL     1      17.991  21.886  -7.341  1.00  0.00     0.293 HD
ENDBRANCH   6  22
BRANCH   8  24
ATOM     24  O   UNL     1      17.000  21.788 -12.997  1.00  0.00    -0.508 OA
ATOM     25  H   UNL     1      16.551  22.273 -13.765  1.00  0.00     0.293 HD
ENDBRANCH   8  24
TORSDOF 5
ENDMDL
