MODEL 1
REMARK VINA RESULT:    -5.125      0.000      0.000
REMARK INTER + INTRA:          -6.009
REMARK INTER:                  -5.874
REMARK INTRA:                  -0.136
REMARK UNBOUND:                -0.136
REMARK SMILES O=C([O-])C=Cc1ccc(O)cc1
REMARK SMILES IDX 6 1 7 2 12 3 8 4 11 5 9 6 5 7 4 8 2 9 1 10 3 11 10 12
REMARK H PARENT 10 13
REMARK Flexibility Score: inf
ROOT
ATOM      1  C   UNL     1      30.082  -3.855  34.914  1.00  0.00    -0.025 A 
ATOM      2  C   UNL     1      29.588  -4.623  33.845  1.00  0.00     0.012 A 
ATOM      3  C   UNL     1      31.446  -3.496  34.919  1.00  0.00     0.012 A 
ATOM      4  C   UNL     1      30.427  -5.001  32.793  1.00  0.00     0.047 A 
ATOM      5  C   UNL     1      32.282  -3.878  33.865  1.00  0.00     0.047 A 
ATOM      6  C   UNL     1      31.776  -4.628  32.799  1.00  0.00     0.115 A 
ENDROOT
BRANCH   1   7
ATOM      7  C   UNL     1      29.154  -3.485  36.012  1.00  0.00     0.010 C 
ATOM      8  C   UNL     1      28.314  -2.441  35.958  1.00  0.00     0.025 C 
BRANCH   8   9
ATOM      9  C   UNL     1      27.400  -2.111  37.064  1.00  0.00     0.064 C 
ATOM     10  O   UNL     1      27.766  -2.214  38.265  1.00  0.00    -0.545 OA
ATOM     11  O   UNL     1      26.112  -1.679  36.778  1.00  0.00    -0.545 OA
ENDBRANCH   8   9
ENDBRANCH   1   7
BRANCH   6  12
ATOM     12  O   UNL     1      32.622  -4.999  31.757  1.00  0.00    -0.508 OA
ATOM     13  H   UNL     1      33.052  -5.917  31.725  1.00  0.00     0.293 HD
ENDBRANCH   6  12
TORSDOF 3
ENDMDL
MODEL 2
REMARK VINA RESULT:    -5.105      0.062      1.398
REMARK INTER + INTRA:          -5.986
REMARK INTER:                  -5.850
REMARK INTRA:                  -0.136
REMARK UNBOUND:                -0.136
REMARK SMILES O=C([O-])C=Cc1ccc(O)cc1
REMARK SMILES IDX 6 1 7 2 12 3 8 4 11 5 9 6 5 7 4 8 2 9 1 10 3 11 10 12
REMARK H PARENT 10 13
REMARK Flexibility Score: inf
ROOT
ATOM      1  C   UNL     1      30.044  -3.909  34.916  1.00  0.00    -0.025 A 
ATOM      2  C   UNL     1      31.374  -3.452  34.910  1.00  0.00     0.012 A 
ATOM      3  C   UNL     1      29.597  -4.714  33.848  1.00  0.00     0.012 A 
ATOM      4  C   UNL     1      32.245  -3.812  33.878  1.00  0.00     0.047 A 
ATOM      5  C   UNL     1      30.472  -5.070  32.817  1.00  0.00     0.047 A 
ATOM      6  C   UNL     1      31.797  -4.624  32.829  1.00  0.00     0.115 A 
ENDROOT
BRANCH   1   7
ATOM      7  C   UNL     1      29.155  -3.493  36.029  1.00  0.00     0.010 C 
ATOM      8  C   UNL     1      28.260  -2.499  35.937  1.00  0.00     0.025 C 
BRANCH   8   9
ATOM      9  C   UNL     1      27.387  -2.121  37.061  1.00  0.00     0.064 C 
ATOM     10  O   UNL     1      27.785  -2.207  38.253  1.00  0.00    -0.545 OA
ATOM     11  O   UNL     1      26.103  -1.660  36.801  1.00  0.00    -0.545 OA
ENDBRANCH   8   9
ENDBRANCH   1   7
BRANCH   6  12
ATOM     12  O   UNL     1      32.656  -4.988  31.795  1.00  0.00    -0.508 OA
ATOM     13  H   UNL     1      33.155  -5.871  31.808  1.00  0.00     0.293 HD
ENDBRANCH   6  12
TORSDOF 3
ENDMDL
MODEL 3
REMARK VINA RESULT:    -4.840      2.364      5.944
REMARK INTER + INTRA:          -5.683
REMARK INTER:                  -5.533
REMARK INTRA:                  -0.150
REMARK UNBOUND:                -0.136
REMARK SMILES O=C([O-])C=Cc1ccc(O)cc1
REMARK SMILES IDX 6 1 7 2 12 3 8 4 11 5 9 6 5 7 4 8 2 9 1 10 3 11 10 12
REMARK H PARENT 10 13
REMARK Flexibility Score: inf
ROOT
ATOM      1  C   UNL     1      27.371  -3.303  34.600  1.00  0.00    -0.025 A 
ATOM      2  C   UNL     1      27.806  -2.535  35.694  1.00  0.00     0.012 A 
ATOM      3  C   UNL     1      26.184  -2.930  33.936  1.00  0.00     0.012 A 
ATOM      4  C   UNL     1      27.089  -1.405  36.099  1.00  0.00     0.047 A 
ATOM      5  C   UNL     1      25.470  -1.799  34.347  1.00  0.00     0.047 A 
ATOM      6  C   UNL     1      25.920  -1.033  35.426  1.00  0.00     0.115 A 
ENDROOT
BRANCH   1   7
ATOM      7  C   UNL     1      28.160  -4.499  34.213  1.00  0.00     0.010 C 
ATOM      8  C   UNL     1      29.446  -4.682  34.545  1.00  0.00     0.025 C 
BRANCH   8   9
ATOM      9  C   UNL     1      30.195  -5.888  34.152  1.00  0.00     0.064 C 
ATOM     10  O   UNL     1      31.395  -5.815  33.773  1.00  0.00    -0.545 OA
ATOM     11  O   UNL     1      29.569  -7.125  34.199  1.00  0.00    -0.545 OA
ENDBRANCH   8   9
ENDBRANCH   1   7
BRANCH   6  12
ATOM     12  O   UNL     1      25.197   0.090  35.821  1.00  0.00    -0.508 OA
ATOM     13  H   UNL     1      24.212   0.032  36.050  1.00  0.00     0.293 HD
ENDBRANCH   6  12
TORSDOF 3
ENDMDL
MODEL 4
REMARK VINA RESULT:    -4.823      3.705      4.744
REMARK INTER + INTRA:          -5.663
REMARK INTER:                  -5.517
REMARK INTRA:                  -0.146
REMARK UNBOUND:                -0.136
REMARK SMILES O=C([O-])C=Cc1ccc(O)cc1
REMARK SMILES IDX 6 1 7 2 12 3 8 4 11 5 9 6 5 7 4 8 2 9 1 10 3 11 10 12
REMARK H PARENT 10 13
REMARK Flexibility Score: inf
ROOT
ATOM      1  C   UNL     1      29.727  -5.663  34.286  1.00  0.00    -0.025 A 
ATOM      2  C   UNL     1      30.377  -5.707  33.040  1.00  0.00     0.012 A 
ATOM      3  C   UNL     1      29.946  -4.553  35.127  1.00  0.00     0.012 A 
ATOM      4  C   UNL     1      31.204  -4.657  32.631  1.00  0.00     0.047 A 
ATOM      5  C   UNL     1      30.776  -3.506  34.715  1.00  0.00     0.047 A 
ATOM      6  C   UNL     1      31.404  -3.552  33.467  1.00  0.00     0.115 A 
ENDROOT
BRANCH   1   7
ATOM      7  C   UNL     1      28.866  -6.806  34.678  1.00  0.00     0.010 C 
ATOM      8  C   UNL     1      29.229  -8.091  34.553  1.00  0.00     0.025 C 
BRANCH   8   9
ATOM      9  C   UNL     1      28.351  -9.199  34.964  1.00  0.00     0.064 C 
ATOM     10  O   UNL     1      27.154  -8.993  35.300  1.00  0.00    -0.545 OA
ATOM     11  O   UNL     1      28.850 -10.494  34.982  1.00  0.00    -0.545 OA
ENDBRANCH   8   9
ENDBRANCH   1   7
BRANCH   6  12
ATOM     12  O   UNL     1      32.227  -2.500  33.071  1.00  0.00    -0.508 OA
ATOM     13  H   UNL     1      31.874  -1.738  32.503  1.00  0.00     0.293 HD
ENDBRANCH   6  12
TORSDOF 3
ENDMDL
MODEL 5
REMARK VINA RESULT:    -4.817      1.712      2.556
REMARK INTER + INTRA:          -5.657
REMARK INTER:                  -5.514
REMARK INTRA:                  -0.143
REMARK UNBOUND:                -0.136
REMARK SMILES O=C([O-])C=Cc1ccc(O)cc1
REMARK SMILES IDX 6 1 7 2 12 3 8 4 11 5 9 6 5 7 4 8 2 9 1 10 3 11 10 12
REMARK H PARENT 10 13
REMARK Flexibility Score: inf
ROOT
ATOM      1  C   UNL     1      28.311  -3.106  35.307  1.00  0.00    -0.025 A 
ATOM      2  C   UNL     1      29.634  -3.181  35.776  1.00  0.00     0.012 A 
ATOM      3  C   UNL     1      27.879  -4.036  34.339  1.00  0.00     0.012 A 
ATOM      4  C   UNL     1      30.498  -4.176  35.310  1.00  0.00     0.047 A 
ATOM      5  C   UNL     1      28.749  -5.029  33.875  1.00  0.00     0.047 A 
ATOM      6  C   UNL     1      30.057  -5.104  34.360  1.00  0.00     0.115 A 
ENDROOT
BRANCH   1   7
ATOM      7  C   UNL     1      27.434  -2.027  35.824  1.00  0.00     0.010 C 
ATOM      8  C   UNL     1      27.297  -1.737  37.126  1.00  0.00     0.025 C 
BRANCH   8   9
ATOM      9  C   UNL     1      26.424  -0.650  37.602  1.00  0.00     0.064 C 
ATOM     10  O   UNL     1      26.789   0.118  38.532  1.00  0.00    -0.545 OA
ATOM     11  O   UNL     1      25.179  -0.469  37.016  1.00  0.00    -0.545 OA
ENDBRANCH   8   9
ENDBRANCH   1   7
BRANCH   6  12
ATOM     12  O   UNL     1      30.910  -6.100  33.888  1.00  0.00    -0.508 OA
ATOM     13  H   UNL     1      31.628  -6.504  34.478  1.00  0.00     0.293 HD
ENDBRANCH   6  12
TORSDOF 3
ENDMDL
MODEL 6
REMARK VINA RESULT:    -4.806      2.366      5.833
REMARK INTER + INTRA:          -5.644
REMARK INTER:                  -5.503
REMARK INTRA:                  -0.141
REMARK UNBOUND:                -0.136
REMARK SMILES O=C([O-])C=Cc1ccc(O)cc1
REMARK SMILES IDX 6 1 7 2 12 3 8 4 11 5 9 6 5 7 4 8 2 9 1 10 3 11 10 12
REMARK H PARENT 10 13
REMARK Flexibility Score: inf
ROOT
ATOM      1  C   UNL     1      27.378  -3.244  34.623  1.00  0.00    -0.025 A 
ATOM      2  C   UNL     1      26.226  -2.904  33.892  1.00  0.00     0.012 A 
ATOM      3  C   UNL     1      27.765  -2.422  35.702  1.00  0.00     0.012 A 
ATOM      4  C   UNL     1      25.463  -1.788  34.245  1.00  0.00     0.047 A 
ATOM      5  C   UNL     1      26.999  -1.305  36.050  1.00  0.00     0.047 A 
ATOM      6  C   UNL     1      25.847  -0.986  35.327  1.00  0.00     0.115 A 
ENDROOT
BRANCH   1   7
ATOM      7  C   UNL     1      28.160  -4.433  34.204  1.00  0.00     0.010 C 
ATOM      8  C   UNL     1      29.428  -4.660  34.574  1.00  0.00     0.025 C 
BRANCH   8   9
ATOM      9  C   UNL     1      30.170  -5.859  34.147  1.00  0.00     0.064 C 
ATOM     10  O   UNL     1      29.625  -6.995  34.142  1.00  0.00    -0.545 OA
ATOM     11  O   UNL     1      31.492  -5.735  33.742  1.00  0.00    -0.545 OA
ENDBRANCH   8   9
ENDBRANCH   1   7
BRANCH   6  12
ATOM     12  O   UNL     1      25.094   0.129  35.688  1.00  0.00    -0.508 OA
ATOM     13  H   UNL     1      24.450   0.566  35.039  1.00  0.00     0.293 HD
ENDBRANCH   6  12
TORSDOF 3
ENDMDL
MODEL 7
REMARK VINA RESULT:    -4.674      3.317      6.548
REMARK INTER + INTRA:          -5.493
REMARK INTER:                  -5.347
REMARK INTRA:                  -0.146
REMARK UNBOUND:                -0.136
REMARK SMILES O=C([O-])C=Cc1ccc(O)cc1
REMARK SMILES IDX 6 1 7 2 12 3 8 4 11 5 9 6 5 7 4 8 2 9 1 10 3 11 10 12
REMARK H PARENT 10 13
REMARK Flexibility Score: inf
ROOT
ATOM      1  C   UNL     1      25.998  -1.702  35.609  1.00  0.00    -0.025 A 
ATOM      2  C   UNL     1      25.446  -2.048  34.363  1.00  0.00     0.012 A 
ATOM      3  C   UNL     1      25.157  -1.136  36.590  1.00  0.00     0.012 A 
ATOM      4  C   UNL     1      24.085  -1.858  34.109  1.00  0.00     0.047 A 
ATOM      5  C   UNL     1      23.796  -0.947  36.331  1.00  0.00     0.047 A 
ATOM      6  C   UNL     1      23.255  -1.309  35.094  1.00  0.00     0.115 A 
ENDROOT
BRANCH   1   7
ATOM      7  C   UNL     1      27.450  -1.915  35.827  1.00  0.00     0.010 C 
ATOM      8  C   UNL     1      28.141  -2.935  35.300  1.00  0.00     0.025 C 
BRANCH   8   9
ATOM      9  C   UNL     1      29.586  -3.107  35.530  1.00  0.00     0.064 C 
ATOM     10  O   UNL     1      30.434  -2.442  34.877  1.00  0.00    -0.545 OA
ATOM     11  O   UNL     1      30.021  -4.018  36.484  1.00  0.00    -0.545 OA
ENDBRANCH   8   9
ENDBRANCH   1   7
BRANCH   6  12
ATOM     12  O   UNL     1      21.897  -1.115  34.853  1.00  0.00    -0.508 OA
ATOM     13  H   UNL     1      21.528  -0.204  34.604  1.00  0.00     0.293 HD
ENDBRANCH   6  12
TORSDOF 3
ENDMDL
MODEL 8
REMARK VINA RESULT:    -4.532      1.817      6.300
REMARK INTER + INTRA:          -5.330
REMARK INTER:                  -5.192
REMARK INTRA:                  -0.137
REMARK UNBOUND:                -0.136
REMARK SMILES O=C([O-])C=Cc1ccc(O)cc1
REMARK SMILES IDX 6 1 7 2 12 3 8 4 11 5 9 6 5 7 4 8 2 9 1 10 3 11 10 12
REMARK H PARENT 10 13
REMARK Flexibility Score: inf
ROOT
ATOM      1  C   UNL     1      31.274  -4.495  33.672  1.00  0.00    -0.025 A 
ATOM      2  C   UNL     1      31.312  -3.582  34.740  1.00  0.00     0.012 A 
ATOM      3  C   UNL     1      30.027  -5.011  33.264  1.00  0.00     0.012 A 
ATOM      4  C   UNL     1      30.133  -3.172  35.370  1.00  0.00     0.047 A 
ATOM      5  C   UNL     1      28.849  -4.600  33.898  1.00  0.00     0.047 A 
ATOM      6  C   UNL     1      28.898  -3.679  34.949  1.00  0.00     0.115 A 
ENDROOT
BRANCH   1   7
ATOM      7  C   UNL     1      32.553  -4.905  33.042  1.00  0.00     0.010 C 
ATOM      8  C   UNL     1      33.344  -4.073  32.350  1.00  0.00     0.025 C 
BRANCH   8   9
ATOM      9  C   UNL     1      34.613  -4.514  31.748  1.00  0.00     0.064 C 
ATOM     10  O   UNL     1      34.869  -4.295  30.533  1.00  0.00    -0.545 OA
ATOM     11  O   UNL     1      35.544  -5.182  32.531  1.00  0.00    -0.545 OA
ENDBRANCH   8   9
ENDBRANCH   1   7
BRANCH   6  12
ATOM     12  O   UNL     1      27.716  -3.279  35.568  1.00  0.00    -0.508 OA
ATOM     13  H   UNL     1      26.830  -3.290  35.076  1.00  0.00     0.293 HD
ENDBRANCH   6  12
TORSDOF 3
ENDMDL
MODEL 9
REMARK VINA RESULT:    -4.508      3.260      4.721
REMARK INTER + INTRA:          -5.302
REMARK INTER:                  -5.155
REMARK INTRA:                  -0.147
REMARK UNBOUND:                -0.136
REMARK SMILES O=C([O-])C=Cc1ccc(O)cc1
REMARK SMILES IDX 6 1 7 2 12 3 8 4 11 5 9 6 5 7 4 8 2 9 1 10 3 11 10 12
REMARK H PARENT 10 13
REMARK Flexibility Score: inf
ROOT
ATOM      1  C   UNL     1      26.402  -2.569  34.726  1.00  0.00    -0.025 A 
ATOM      2  C   UNL     1      27.098  -1.960  35.786  1.00  0.00     0.012 A 
ATOM      3  C   UNL     1      27.000  -3.657  34.058  1.00  0.00     0.012 A 
ATOM      4  C   UNL     1      28.348  -2.441  36.186  1.00  0.00     0.047 A 
ATOM      5  C   UNL     1      28.251  -4.134  34.461  1.00  0.00     0.047 A 
ATOM      6  C   UNL     1      28.927  -3.531  35.525  1.00  0.00     0.115 A 
ENDROOT
BRANCH   1   7
ATOM      7  C   UNL     1      25.082  -2.016  34.333  1.00  0.00     0.010 C 
ATOM      8  C   UNL     1      24.234  -1.430  35.190  1.00  0.00     0.025 C 
BRANCH   8   9
ATOM      9  C   UNL     1      22.936  -0.883  34.760  1.00  0.00     0.064 C 
ATOM     10  O   UNL     1      21.891  -1.587  34.786  1.00  0.00    -0.545 OA
ATOM     11  O   UNL     1      22.862   0.431  34.320  1.00  0.00    -0.545 OA
ENDBRANCH   8   9
ENDBRANCH   1   7
BRANCH   6  12
ATOM     12  O   UNL     1      30.172  -4.019  35.915  1.00  0.00    -0.508 OA
ATOM     13  H   UNL     1      30.352  -4.307  36.870  1.00  0.00     0.293 HD
ENDBRANCH   6  12
TORSDOF 3
ENDMDL
