MODEL 1
REMARK VINA RESULT:    28.447      0.000      0.000
REMARK INTER + INTRA:          33.864
REMARK INTER:                  34.267
REMARK INTRA:                  -0.403
REMARK UNBOUND:                -0.403
REMARK SMILES O=c1c(O)c(-c2ccc(O)cc2O)oc2cc(O)cc(O)c12
REMARK SMILES IDX 5 1 3 2 2 3 1 4 22 5 20 6 19 7 17 8 16 9 15 10 14 11 6 12
REMARK SMILES IDX 8 13 7 14 9 15 11 16 12 17 10 18 13 20 4 22 21 24 18 26
REMARK H PARENT 10 19 13 21 4 23 21 25 18 27
REMARK Flexibility Score: inf
ROOT
ATOM      1  C   UNL     1       9.228   1.421   9.378  1.00  0.00     0.184 A 
ATOM      2  C   UNL     1       9.933   0.321   8.867  1.00  0.00     0.208 A 
ATOM      3  C   UNL     1      10.930   0.539   7.904  1.00  0.00     0.238 A 
ATOM      4  O   UNL     1      11.521  -0.455   7.409  1.00  0.00    -0.285 OA
ATOM      5  C   UNL     1      11.221   1.859   7.479  1.00  0.00     0.111 A 
ATOM      6  C   UNL     1      12.239   2.202   6.540  1.00  0.00     0.134 A 
ATOM      7  C   UNL     1      12.351   3.526   6.096  1.00  0.00     0.093 A 
ATOM      8  C   UNL     1      11.525   4.529   6.607  1.00  0.00     0.123 A 
ATOM      9  C   UNL     1      10.568   4.215   7.569  1.00  0.00     0.094 A 
ATOM     10  C   UNL     1      10.407   2.898   8.004  1.00  0.00     0.146 A 
ATOM     11  O   UNL     1       9.475   2.640   8.914  1.00  0.00    -0.451 OA
ENDROOT
BRANCH   1  12
ATOM     12  C   UNL     1       8.177   1.260  10.406  1.00  0.00     0.063 A 
ATOM     13  C   UNL     1       7.589   0.994  12.749  1.00  0.00     0.047 A 
ATOM     14  C   UNL     1       8.555   1.152  11.754  1.00  0.00     0.020 A 
ATOM     15  C   UNL     1       6.232   0.928  12.410  1.00  0.00     0.119 A 
ATOM     16  C   UNL     1       5.848   1.011  11.068  1.00  0.00     0.093 A 
ATOM     17  C   UNL     1       6.813   1.165  10.061  1.00  0.00     0.130 A 
BRANCH  15  18
ATOM     18  O   UNL     1       5.260   0.774  13.395  1.00  0.00    -0.508 OA
ATOM     19  H   UNL     1       4.292   1.016  13.227  1.00  0.00     0.293 HD
ENDBRANCH  15  18
BRANCH  17  20
ATOM     20  O   UNL     1       6.420   1.198   8.723  1.00  0.00    -0.507 OA
ATOM     21  H   UNL     1       6.000   0.392   8.272  1.00  0.00     0.293 HD
ENDBRANCH  17  20
ENDBRANCH   1  12
BRANCH   2  22
ATOM     22  O   UNL     1       9.613  -0.973   9.289  1.00  0.00    -0.502 OA
ATOM     23  H   UNL     1       9.130  -1.156  10.161  1.00  0.00     0.293 HD
ENDBRANCH   2  22
BRANCH   6  24
ATOM     24  O   UNL     1      13.174   1.294   6.036  1.00  0.00    -0.507 OA
ATOM     25  H   UNL     1      13.257   0.332   6.329  1.00  0.00     0.293 HD
ENDBRANCH   6  24
BRANCH   8  26
ATOM     26  O   UNL     1      11.654   5.847   6.172  1.00  0.00    -0.508 OA
ATOM     27  H   UNL     1      11.064   6.223   5.439  1.00  0.00     0.293 HD
ENDBRANCH   8  26
TORSDOF 6
ENDMDL
MODEL 2
REMARK VINA RESULT:    29.866      1.195      2.795
REMARK INTER + INTRA:          35.574
REMARK INTER:                  35.880
REMARK INTRA:                  -0.307
REMARK UNBOUND:                -0.403
REMARK SMILES O=c1c(O)c(-c2ccc(O)cc2O)oc2cc(O)cc(O)c12
REMARK SMILES IDX 5 1 3 2 2 3 1 4 22 5 20 6 19 7 17 8 16 9 15 10 14 11 6 12
REMARK SMILES IDX 8 13 7 14 9 15 11 16 12 17 10 18 13 20 4 22 21 24 18 26
REMARK H PARENT 10 19 13 21 4 23 21 25 18 27
REMARK Flexibility Score: inf
ROOT
ATOM      1  C   UNL     1       9.170   2.088   9.260  1.00  0.00     0.184 A 
ATOM      2  C   UNL     1       9.060   3.385   8.736  1.00  0.00     0.208 A 
ATOM      3  C   UNL     1       9.974   3.804   7.757  1.00  0.00     0.238 A 
ATOM      4  O   UNL     1       9.905   4.986   7.331  1.00  0.00    -0.285 OA
ATOM      5  C   UNL     1      10.975   2.911   7.301  1.00  0.00     0.111 A 
ATOM      6  C   UNL     1      11.929   3.214   6.284  1.00  0.00     0.134 A 
ATOM      7  C   UNL     1      12.955   2.302   6.005  1.00  0.00     0.093 A 
ATOM      8  C   UNL     1      13.022   1.071   6.662  1.00  0.00     0.123 A 
ATOM      9  C   UNL     1      12.061   0.741   7.615  1.00  0.00     0.094 A 
ATOM     10  C   UNL     1      11.047   1.645   7.940  1.00  0.00     0.146 A 
ATOM     11  O   UNL     1      10.158   1.295   8.862  1.00  0.00    -0.451 OA
ENDROOT
BRANCH   1  12
ATOM     12  C   UNL     1       8.229   1.580  10.281  1.00  0.00     0.063 A 
ATOM     13  C   UNL     1       7.845   0.836  12.563  1.00  0.00     0.047 A 
ATOM     14  C   UNL     1       8.706   1.322  11.576  1.00  0.00     0.020 A 
ATOM     15  C   UNL     1       6.500   0.589  12.265  1.00  0.00     0.119 A 
ATOM     16  C   UNL     1       6.022   0.821  10.971  1.00  0.00     0.093 A 
ATOM     17  C   UNL     1       6.882   1.304   9.972  1.00  0.00     0.130 A 
BRANCH  15  18
ATOM     18  O   UNL     1       5.633   0.109  13.243  1.00  0.00    -0.508 OA
ATOM     19  H   UNL     1       5.968  -0.173  14.156  1.00  0.00     0.293 HD
ENDBRANCH  15  18
BRANCH  17  20
ATOM     20  O   UNL     1       6.403   1.484   8.675  1.00  0.00    -0.507 OA
ATOM     21  H   UNL     1       7.016   1.429   7.869  1.00  0.00     0.293 HD
ENDBRANCH  17  20
ENDBRANCH   1  12
BRANCH   2  22
ATOM     22  O   UNL     1       8.074   4.252   9.217  1.00  0.00    -0.502 OA
ATOM     23  H   UNL     1       7.391   3.967   9.909  1.00  0.00     0.293 HD
ENDBRANCH   2  22
BRANCH   6  24
ATOM     24  O   UNL     1      11.897   4.375   5.505  1.00  0.00    -0.507 OA
ATOM     25  H   UNL     1      12.111   4.412   4.520  1.00  0.00     0.293 HD
ENDBRANCH   6  24
BRANCH   8  26
ATOM     26  O   UNL     1      14.037   0.163   6.367  1.00  0.00    -0.508 OA
ATOM     27  H   UNL     1      13.831  -0.783   6.068  1.00  0.00     0.293 HD
ENDBRANCH   8  26
TORSDOF 6
ENDMDL
MODEL 3
REMARK VINA RESULT:    30.958      4.892      7.755
REMARK INTER + INTRA:          36.889
REMARK INTER:                  37.289
REMARK INTRA:                  -0.400
REMARK UNBOUND:                -0.403
REMARK SMILES O=c1c(O)c(-c2ccc(O)cc2O)oc2cc(O)cc(O)c12
REMARK SMILES IDX 5 1 3 2 2 3 1 4 22 5 20 6 19 7 17 8 16 9 15 10 14 11 6 12
REMARK SMILES IDX 8 13 7 14 9 15 11 16 12 17 10 18 13 20 4 22 21 24 18 26
REMARK H PARENT 10 19 13 21 4 23 21 25 18 27
REMARK Flexibility Score: inf
ROOT
ATOM      1  C   UNL     1      14.895   3.697   9.424  1.00  0.00     0.184 A 
ATOM      2  C   UNL     1      14.180   4.817   8.970  1.00  0.00     0.208 A 
ATOM      3  C   UNL     1      13.166   4.636   8.016  1.00  0.00     0.238 A 
ATOM      4  O   UNL     1      12.566   5.650   7.572  1.00  0.00    -0.285 OA
ATOM      5  C   UNL     1      12.869   3.335   7.543  1.00  0.00     0.111 A 
ATOM      6  C   UNL     1      11.835   3.029   6.608  1.00  0.00     0.134 A 
ATOM      7  C   UNL     1      11.716   1.724   6.112  1.00  0.00     0.093 A 
ATOM      8  C   UNL     1      12.552   0.702   6.568  1.00  0.00     0.123 A 
ATOM      9  C   UNL     1      13.525   0.978   7.525  1.00  0.00     0.094 A 
ATOM     10  C   UNL     1      13.692   2.276   8.011  1.00  0.00     0.146 A 
ATOM     11  O   UNL     1      14.640   2.498   8.914  1.00  0.00    -0.451 OA
ENDROOT
BRANCH   1  12
ATOM     12  C   UNL     1      15.963   3.817  10.439  1.00  0.00     0.063 A 
ATOM     13  C   UNL     1      16.592   3.977  12.781  1.00  0.00     0.047 A 
ATOM     14  C   UNL     1      15.609   3.858  11.796  1.00  0.00     0.020 A 
ATOM     15  C   UNL     1      17.942   4.070  12.421  1.00  0.00     0.119 A 
ATOM     16  C   UNL     1      18.301   4.053  11.069  1.00  0.00     0.093 A 
ATOM     17  C   UNL     1      17.319   3.939  10.074  1.00  0.00     0.130 A 
BRANCH  15  18
ATOM     18  O   UNL     1      18.931   4.184  13.395  1.00  0.00    -0.508 OA
ATOM     19  H   UNL     1      19.575   4.965  13.407  1.00  0.00     0.293 HD
ENDBRANCH  15  18
BRANCH  17  20
ATOM     20  O   UNL     1      17.688   3.973   8.729  1.00  0.00    -0.507 OA
ATOM     21  H   UNL     1      18.124   3.177   8.277  1.00  0.00     0.293 HD
ENDBRANCH  17  20
ENDBRANCH   1  12
BRANCH   2  22
ATOM     22  O   UNL     1      14.507   6.093   9.439  1.00  0.00    -0.502 OA
ATOM     23  H   UNL     1      14.017   6.925   9.134  1.00  0.00     0.293 HD
ENDBRANCH   2  22
BRANCH   6  24
ATOM     24  O   UNL     1      10.891   3.956   6.158  1.00  0.00    -0.507 OA
ATOM     25  H   UNL     1       9.974   4.084   6.560  1.00  0.00     0.293 HD
ENDBRANCH   6  24
BRANCH   8  26
ATOM     26  O   UNL     1      12.416  -0.597   6.081  1.00  0.00    -0.508 OA
ATOM     27  H   UNL     1      11.623  -0.869   5.512  1.00  0.00     0.293 HD
ENDBRANCH   8  26
TORSDOF 6
ENDMDL
