MODEL 1
REMARK VINA RESULT:    -3.582      0.000      0.000
REMARK INTER + INTRA:          -5.114
REMARK INTER:                  -4.839
REMARK INTRA:                  -0.275
REMARK UNBOUND:                -0.275
REMARK SMILES CCCCCCCC(=O)[O-]
REMARK SMILES IDX 5 1 6 2 7 3 8 4 9 5 10 6 4 7 3 8 2 9 1 10
REMARK H PARENT
REMARK Flexibility Score: inf
ROOT
ATOM      1  C   UNL     1     -16.531   0.108  -1.410  1.00  0.00     0.000 C 
ENDROOT
BRANCH   1   2
ATOM      2  C   UNL     1     -16.332   0.512   0.061  1.00  0.00     0.006 C 
BRANCH   2   3
ATOM      3  C   UNL     1     -16.643  -0.642   1.025  1.00  0.00     0.053 C 
BRANCH   3   4
ATOM      4  C   UNL     1     -15.829  -0.554   2.279  1.00  0.00     0.041 C 
ATOM      5  O   UNL     1     -16.376  -0.717   3.402  1.00  0.00    -0.550 OA
ATOM      6  O   UNL     1     -14.462  -0.323   2.207  1.00  0.00    -0.550 OA
ENDBRANCH   3   4
ENDBRANCH   2   3
ENDBRANCH   1   2
BRANCH   1   7
ATOM      7  C   UNL     1     -17.008  -1.346  -1.564  1.00  0.00     0.000 C 
BRANCH   7   8
ATOM      8  C   UNL     1     -17.125  -1.778  -3.036  1.00  0.00    -0.000 C 
BRANCH   8   9
ATOM      9  C   UNL     1     -16.049  -2.800  -3.437  1.00  0.00    -0.003 C 
ATOM     10  C   UNL     1     -15.689  -3.755  -2.299  1.00  0.00     0.004 C 
ENDBRANCH   8   9
ENDBRANCH   7   8
ENDBRANCH   1   7
TORSDOF 6
ENDMDL
MODEL 2
REMARK VINA RESULT:    -3.493      1.535      2.244
REMARK INTER + INTRA:          -4.993
REMARK INTER:                  -4.746
REMARK INTRA:                  -0.247
REMARK UNBOUND:                -0.275
REMARK SMILES CCCCCCCC(=O)[O-]
REMARK SMILES IDX 5 1 6 2 7 3 8 4 9 5 10 6 4 7 3 8 2 9 1 10
REMARK H PARENT
REMARK Flexibility Score: inf
ROOT
ATOM      1  C   UNL     1     -16.782  -1.342  -2.850  1.00  0.00     0.000 C 
ENDROOT
BRANCH   1   2
ATOM      2  C   UNL     1     -16.934  -0.227  -1.802  1.00  0.00     0.006 C 
BRANCH   2   3
ATOM      3  C   UNL     1     -16.697  -0.738  -0.374  1.00  0.00     0.053 C 
BRANCH   3   4
ATOM      4  C   UNL     1     -15.818   0.187   0.411  1.00  0.00     0.041 C 
ATOM      5  O   UNL     1     -15.210  -0.231   1.431  1.00  0.00    -0.550 OA
ATOM      6  O   UNL     1     -15.648   1.502  -0.001  1.00  0.00    -0.550 OA
ENDBRANCH   3   4
ENDBRANCH   2   3
ENDBRANCH   1   2
BRANCH   1   7
ATOM      7  C   UNL     1     -16.728  -2.743  -2.218  1.00  0.00     0.000 C 
BRANCH   7   8
ATOM      8  C   UNL     1     -15.701  -3.662  -2.904  1.00  0.00    -0.000 C 
BRANCH   8   9
ATOM      9  C   UNL     1     -14.744  -4.326  -1.900  1.00  0.00    -0.003 C 
ATOM     10  C   UNL     1     -13.459  -4.831  -2.556  1.00  0.00     0.004 C 
ENDBRANCH   8   9
ENDBRANCH   7   8
ENDBRANCH   1   7
TORSDOF 6
ENDMDL
MODEL 3
REMARK VINA RESULT:    -3.441      1.961      2.822
REMARK INTER + INTRA:          -4.923
REMARK INTER:                  -4.621
REMARK INTRA:                  -0.302
REMARK UNBOUND:                -0.275
REMARK SMILES CCCCCCCC(=O)[O-]
REMARK SMILES IDX 5 1 6 2 7 3 8 4 9 5 10 6 4 7 3 8 2 9 1 10
REMARK H PARENT
REMARK Flexibility Score: inf
ROOT
ATOM      1  C   UNL     1     -16.911  -1.819  -3.274  1.00  0.00     0.000 C 
ENDROOT
BRANCH   1   2
ATOM      2  C   UNL     1     -16.877  -0.427  -2.619  1.00  0.00     0.006 C 
BRANCH   2   3
ATOM      3  C   UNL     1     -16.889  -0.507  -1.087  1.00  0.00     0.053 C 
BRANCH   3   4
ATOM      4  C   UNL     1     -16.272   0.705  -0.460  1.00  0.00     0.041 C 
ATOM      5  O   UNL     1     -16.673   1.856  -0.778  1.00  0.00    -0.550 OA
ATOM      6  O   UNL     1     -15.277   0.563   0.498  1.00  0.00    -0.550 OA
ENDBRANCH   3   4
ENDBRANCH   2   3
ENDBRANCH   1   2
BRANCH   1   7
ATOM      7  C   UNL     1     -16.633  -2.950  -2.270  1.00  0.00     0.000 C 
BRANCH   7   8
ATOM      8  C   UNL     1     -15.461  -3.849  -2.703  1.00  0.00    -0.000 C 
BRANCH   8   9
ATOM      9  C   UNL     1     -14.968  -3.529  -4.123  1.00  0.00    -0.003 C 
ATOM     10  C   UNL     1     -13.558  -4.056  -4.391  1.00  0.00     0.004 C 
ENDBRANCH   8   9
ENDBRANCH   7   8
ENDBRANCH   1   7
TORSDOF 6
ENDMDL
MODEL 4
REMARK VINA RESULT:    -3.131     12.488     13.950
REMARK INTER + INTRA:          -4.504
REMARK INTER:                  -4.177
REMARK INTRA:                  -0.327
REMARK UNBOUND:                -0.275
REMARK SMILES CCCCCCCC(=O)[O-]
REMARK SMILES IDX 5 1 6 2 7 3 8 4 9 5 10 6 4 7 3 8 2 9 1 10
REMARK H PARENT
REMARK Flexibility Score: inf
ROOT
ATOM      1  C   UNL     1     -14.880   9.224  -9.248  1.00  0.00     0.000 C 
ENDROOT
BRANCH   1   2
ATOM      2  C   UNL     1     -15.379   8.000 -10.035  1.00  0.00     0.006 C 
BRANCH   2   3
ATOM      3  C   UNL     1     -16.719   7.476  -9.502  1.00  0.00     0.053 C 
BRANCH   3   4
ATOM      4  C   UNL     1     -16.655   6.016  -9.169  1.00  0.00     0.041 C 
ATOM      5  O   UNL     1     -16.842   5.153 -10.067  1.00  0.00    -0.550 OA
ATOM      6  O   UNL     1     -16.358   5.610  -7.875  1.00  0.00    -0.550 OA
ENDBRANCH   3   4
ENDBRANCH   2   3
ENDBRANCH   1   2
BRANCH   1   7
ATOM      7  C   UNL     1     -14.973  10.526 -10.060  1.00  0.00     0.000 C 
BRANCH   7   8
ATOM      8  C   UNL     1     -16.334  11.227  -9.898  1.00  0.00    -0.000 C 
BRANCH   8   9
ATOM      9  C   UNL     1     -16.975  10.957  -8.527  1.00  0.00    -0.003 C 
ATOM     10  C   UNL     1     -16.830  12.137  -7.565  1.00  0.00     0.004 C 
ENDBRANCH   8   9
ENDBRANCH   7   8
ENDBRANCH   1   7
TORSDOF 6
ENDMDL
MODEL 5
REMARK VINA RESULT:    -3.002      3.843      5.622
REMARK INTER + INTRA:          -4.330
REMARK INTER:                  -4.126
REMARK INTRA:                  -0.204
REMARK UNBOUND:                -0.275
REMARK SMILES CCCCCCCC(=O)[O-]
REMARK SMILES IDX 5 1 6 2 7 3 8 4 9 5 10 6 4 7 3 8 2 9 1 10
REMARK H PARENT
REMARK Flexibility Score: inf
ROOT
ATOM      1  C   UNL     1     -16.787  -1.720  -2.101  1.00  0.00     0.000 C 
ENDROOT
BRANCH   1   2
ATOM      2  C   UNL     1     -16.891  -2.420  -3.467  1.00  0.00     0.006 C 
BRANCH   2   3
ATOM      3  C   UNL     1     -15.872  -3.559  -3.612  1.00  0.00     0.053 C 
BRANCH   3   4
ATOM      4  C   UNL     1     -14.861  -3.270  -4.679  1.00  0.00     0.041 C 
ATOM      5  O   UNL     1     -13.720  -3.801  -4.630  1.00  0.00    -0.550 OA
ATOM      6  O   UNL     1     -15.188  -2.437  -5.741  1.00  0.00    -0.550 OA
ENDBRANCH   3   4
ENDBRANCH   2   3
ENDBRANCH   1   2
BRANCH   1   7
ATOM      7  C   UNL     1     -17.028  -0.204  -2.195  1.00  0.00     0.000 C 
BRANCH   7   8
ATOM      8  C   UNL     1     -16.754   0.522  -0.866  1.00  0.00    -0.000 C 
BRANCH   8   9
ATOM      9  C   UNL     1     -16.826  -0.421   0.345  1.00  0.00    -0.003 C 
ATOM     10  C   UNL     1     -15.494  -0.533   1.087  1.00  0.00     0.004 C 
ENDBRANCH   8   9
ENDBRANCH   7   8
ENDBRANCH   1   7
TORSDOF 6
ENDMDL
MODEL 6
REMARK VINA RESULT:    -2.978      4.422      6.342
REMARK INTER + INTRA:          -4.297
REMARK INTER:                  -4.094
REMARK INTRA:                  -0.203
REMARK UNBOUND:                -0.275
REMARK SMILES CCCCCCCC(=O)[O-]
REMARK SMILES IDX 5 1 6 2 7 3 8 4 9 5 10 6 4 7 3 8 2 9 1 10
REMARK H PARENT
REMARK Flexibility Score: inf
ROOT
ATOM      1  C   UNL     1     -15.258  -3.941  -2.103  1.00  0.00     0.000 C 
ENDROOT
BRANCH   1   2
ATOM      2  C   UNL     1     -14.747  -5.035  -3.058  1.00  0.00     0.006 C 
BRANCH   2   3
ATOM      3  C   UNL     1     -13.298  -4.787  -3.499  1.00  0.00     0.053 C 
BRANCH   3   4
ATOM      4  C   UNL     1     -13.205  -4.483  -4.963  1.00  0.00     0.041 C 
ATOM      5  O   UNL     1     -14.153  -3.897  -5.549  1.00  0.00    -0.550 OA
ATOM      6  O   UNL     1     -12.060  -4.820  -5.672  1.00  0.00    -0.550 OA
ENDBRANCH   3   4
ENDBRANCH   2   3
ENDBRANCH   1   2
BRANCH   1   7
ATOM      7  C   UNL     1     -16.310  -3.032  -2.758  1.00  0.00     0.000 C 
BRANCH   7   8
ATOM      8  C   UNL     1     -16.894  -2.001  -1.775  1.00  0.00    -0.000 C 
BRANCH   8   9
ATOM      9  C   UNL     1     -16.947  -0.585  -2.372  1.00  0.00    -0.003 C 
ATOM     10  C   UNL     1     -16.857   0.508  -1.307  1.00  0.00     0.004 C 
ENDBRANCH   8   9
ENDBRANCH   7   8
ENDBRANCH   1   7
TORSDOF 6
ENDMDL
MODEL 7
REMARK VINA RESULT:    -2.614      1.738      2.509
REMARK INTER + INTRA:          -3.806
REMARK INTER:                  -3.652
REMARK INTRA:                  -0.155
REMARK UNBOUND:                -0.275
REMARK SMILES CCCCCCCC(=O)[O-]
REMARK SMILES IDX 5 1 6 2 7 3 8 4 9 5 10 6 4 7 3 8 2 9 1 10
REMARK H PARENT
REMARK Flexibility Score: inf
ROOT
ATOM      1  C   UNL     1     -16.113  -2.519  -1.354  1.00  0.00     0.000 C 
ENDROOT
BRANCH   1   2
ATOM      2  C   UNL     1     -16.956  -1.231  -1.359  1.00  0.00     0.006 C 
BRANCH   2   3
ATOM      3  C   UNL     1     -17.118  -0.639   0.047  1.00  0.00     0.053 C 
BRANCH   3   4
ATOM      4  C   UNL     1     -15.897   0.115   0.478  1.00  0.00     0.041 C 
ATOM      5  O   UNL     1     -15.112  -0.384   1.328  1.00  0.00    -0.550 OA
ATOM      6  O   UNL     1     -15.611   1.354  -0.080  1.00  0.00    -0.550 OA
ENDBRANCH   3   4
ENDBRANCH   2   3
ENDBRANCH   1   2
BRANCH   1   7
ATOM      7  C   UNL     1     -16.364  -3.393  -2.594  1.00  0.00     0.000 C 
BRANCH   7   8
ATOM      8  C   UNL     1     -15.439  -3.031  -3.769  1.00  0.00    -0.000 C 
BRANCH   8   9
ATOM      9  C   UNL     1     -15.051  -4.257  -4.611  1.00  0.00    -0.003 C 
ATOM     10  C   UNL     1     -14.621  -3.886  -6.031  1.00  0.00     0.004 C 
ENDBRANCH   8   9
ENDBRANCH   7   8
ENDBRANCH   1   7
TORSDOF 6
ENDMDL
MODEL 8
REMARK VINA RESULT:    -2.570     13.774     15.283
REMARK INTER + INTRA:          -3.746
REMARK INTER:                  -3.571
REMARK INTRA:                  -0.175
REMARK UNBOUND:                -0.275
REMARK SMILES CCCCCCCC(=O)[O-]
REMARK SMILES IDX 5 1 6 2 7 3 8 4 9 5 10 6 4 7 3 8 2 9 1 10
REMARK H PARENT
REMARK Flexibility Score: inf
ROOT
ATOM      1  C   UNL     1     -16.027  11.692  -7.910  1.00  0.00     0.000 C 
ENDROOT
BRANCH   1   2
ATOM      2  C   UNL     1     -16.293  10.631  -8.993  1.00  0.00     0.006 C 
BRANCH   2   3
ATOM      3  C   UNL     1     -15.024  10.274  -9.778  1.00  0.00     0.053 C 
BRANCH   3   4
ATOM      4  C   UNL     1     -14.532   8.899  -9.446  1.00  0.00     0.041 C 
ATOM      5  O   UNL     1     -13.296   8.668  -9.379  1.00  0.00    -0.550 OA
ATOM      6  O   UNL     1     -15.438   7.880  -9.181  1.00  0.00    -0.550 OA
ENDBRANCH   3   4
ENDBRANCH   2   3
ENDBRANCH   1   2
BRANCH   1   7
ATOM      7  C   UNL     1     -17.124  12.768  -7.856  1.00  0.00     0.000 C 
BRANCH   7   8
ATOM      8  C   UNL     1     -17.013  13.663  -6.610  1.00  0.00    -0.000 C 
BRANCH   8   9
ATOM      9  C   UNL     1     -16.877  12.851  -5.312  1.00  0.00    -0.003 C 
ATOM     10  C   UNL     1     -17.111  13.695  -4.059  1.00  0.00     0.004 C 
ENDBRANCH   8   9
ENDBRANCH   7   8
ENDBRANCH   1   7
TORSDOF 6
ENDMDL
MODEL 9
REMARK VINA RESULT:    -2.335     13.005     14.556
REMARK INTER + INTRA:          -3.428
REMARK INTER:                  -3.231
REMARK INTRA:                  -0.198
REMARK UNBOUND:                -0.275
REMARK SMILES CCCCCCCC(=O)[O-]
REMARK SMILES IDX 5 1 6 2 7 3 8 4 9 5 10 6 4 7 3 8 2 9 1 10
REMARK H PARENT
REMARK Flexibility Score: inf
ROOT
ATOM      1  C   UNL     1     -15.852  10.807  -9.855  1.00  0.00     0.000 C 
ENDROOT
BRANCH   1   2
ATOM      2  C   UNL     1     -15.502   9.328 -10.092  1.00  0.00     0.006 C 
BRANCH   2   3
ATOM      3  C   UNL     1     -16.748   8.433 -10.104  1.00  0.00     0.053 C 
BRANCH   3   4
ATOM      4  C   UNL     1     -16.481   7.097  -9.481  1.00  0.00     0.041 C 
ATOM      5  O   UNL     1     -15.698   7.001  -8.499  1.00  0.00    -0.550 OA
ATOM      6  O   UNL     1     -17.120   5.963  -9.965  1.00  0.00    -0.550 OA
ENDBRANCH   3   4
ENDBRANCH   2   3
ENDBRANCH   1   2
BRANCH   1   7
ATOM      7  C   UNL     1     -15.945  11.159  -8.361  1.00  0.00     0.000 C 
BRANCH   7   8
ATOM      8  C   UNL     1     -17.123  12.098  -8.047  1.00  0.00    -0.000 C 
BRANCH   8   9
ATOM      9  C   UNL     1     -16.839  13.017  -6.848  1.00  0.00    -0.003 C 
ATOM     10  C   UNL     1     -16.437  12.244  -5.593  1.00  0.00     0.004 C 
ENDBRANCH   8   9
ENDBRANCH   7   8
ENDBRANCH   1   7
TORSDOF 6
ENDMDL
