MODEL 1
REMARK VINA RESULT:    -5.403      0.000      0.000
REMARK INTER + INTRA:          -5.561
REMARK INTER:                  -5.561
REMARK INTRA:                   0.000
REMARK UNBOUND:                 0.000
REMARK SMILES Cc1ccccc1O
REMARK SMILES IDX 1 1 2 2 3 3 4 4 5 5 6 6 7 7 8 8
REMARK H PARENT 8 9
REMARK Flexibility Score: inf
ROOT
ATOM      1  C   UNL     1       8.666   4.583  -4.428  1.00  0.00     0.048 C 
ATOM      2  C   UNL     1       9.085   4.295  -3.012  1.00  0.00    -0.009 A 
ATOM      3  C   UNL     1       8.333   4.818  -1.946  1.00  0.00     0.007 A 
ATOM      4  C   UNL     1       8.704   4.562  -0.624  1.00  0.00     0.001 A 
ATOM      5  C   UNL     1       9.829   3.781  -0.352  1.00  0.00     0.004 A 
ATOM      6  C   UNL     1      10.585   3.256  -1.402  1.00  0.00     0.046 A 
ATOM      7  C   UNL     1      10.224   3.505  -2.731  1.00  0.00     0.118 A 
ENDROOT
BRANCH   7   8
ATOM      8  O   UNL     1      11.012   2.956  -3.745  1.00  0.00    -0.508 OA
ATOM      9  H   UNL     1      11.901   3.351  -4.027  1.00  0.00     0.293 HD
ENDBRANCH   7   8
TORSDOF 1
ENDMDL
MODEL 2
REMARK VINA RESULT:    -5.033      1.660      2.060
REMARK INTER + INTRA:          -5.180
REMARK INTER:                  -5.180
REMARK INTRA:                   0.000
REMARK UNBOUND:                 0.000
REMARK SMILES Cc1ccccc1O
REMARK SMILES IDX 1 1 2 2 3 3 4 4 5 5 6 6 7 7 8 8
REMARK H PARENT 8 9
REMARK Flexibility Score: inf
ROOT
ATOM      1  C   UNL     1      12.390   5.531  -3.300  1.00  0.00     0.048 C 
ATOM      2  C   UNL     1      11.394   4.959  -2.329  1.00  0.00    -0.009 A 
ATOM      3  C   UNL     1      10.945   5.743  -1.252  1.00  0.00     0.007 A 
ATOM      4  C   UNL     1      10.020   5.231  -0.339  1.00  0.00     0.001 A 
ATOM      5  C   UNL     1       9.533   3.932  -0.492  1.00  0.00     0.004 A 
ATOM      6  C   UNL     1       9.970   3.143  -1.557  1.00  0.00     0.046 A 
ATOM      7  C   UNL     1      10.897   3.644  -2.479  1.00  0.00     0.118 A 
ENDROOT
BRANCH   7   8
ATOM      8  O   UNL     1      11.302   2.815  -3.527  1.00  0.00    -0.508 OA
ATOM      9  H   UNL     1      11.916   3.126  -4.270  1.00  0.00     0.293 HD
ENDBRANCH   7   8
TORSDOF 1
ENDMDL
MODEL 3
REMARK VINA RESULT:    -4.975      1.946      3.157
REMARK INTER + INTRA:          -5.120
REMARK INTER:                  -5.120
REMARK INTRA:                   0.000
REMARK UNBOUND:                 0.000
REMARK SMILES Cc1ccccc1O
REMARK SMILES IDX 1 1 2 2 3 3 4 4 5 5 6 6 7 7 8 8
REMARK H PARENT 8 9
REMARK Flexibility Score: inf
ROOT
ATOM      1  C   UNL     1       8.587   4.827  -0.668  1.00  0.00     0.048 C 
ATOM      2  C   UNL     1       9.292   4.886  -1.996  1.00  0.00    -0.009 A 
ATOM      3  C   UNL     1       8.623   4.459  -3.156  1.00  0.00     0.007 A 
ATOM      4  C   UNL     1       9.260   4.506  -4.399  1.00  0.00     0.001 A 
ATOM      5  C   UNL     1      10.570   4.979  -4.496  1.00  0.00     0.004 A 
ATOM      6  C   UNL     1      11.245   5.406  -3.351  1.00  0.00     0.046 A 
ATOM      7  C   UNL     1      10.619   5.364  -2.100  1.00  0.00     0.118 A 
ENDROOT
BRANCH   7   8
ATOM      8  O   UNL     1      11.337   5.803  -0.985  1.00  0.00    -0.508 OA
ATOM      9  H   UNL     1      11.437   6.781  -0.744  1.00  0.00     0.293 HD
ENDBRANCH   7   8
TORSDOF 1
ENDMDL
MODEL 4
REMARK VINA RESULT:    -4.907      2.214      2.980
REMARK INTER + INTRA:          -5.050
REMARK INTER:                  -5.050
REMARK INTRA:                   0.000
REMARK UNBOUND:                 0.000
REMARK SMILES Cc1ccccc1O
REMARK SMILES IDX 1 1 2 2 3 3 4 4 5 5 6 6 7 7 8 8
REMARK H PARENT 8 9
REMARK Flexibility Score: inf
ROOT
ATOM      1  C   UNL     1      12.467   5.169  -2.848  1.00  0.00     0.048 C 
ATOM      2  C   UNL     1      11.153   5.040  -2.128  1.00  0.00    -0.009 A 
ATOM      3  C   UNL     1      10.862   3.862  -1.418  1.00  0.00     0.007 A 
ATOM      4  C   UNL     1       9.648   3.723  -0.742  1.00  0.00     0.001 A 
ATOM      5  C   UNL     1       8.711   4.758  -0.767  1.00  0.00     0.004 A 
ATOM      6  C   UNL     1       8.987   5.933  -1.468  1.00  0.00     0.046 A 
ATOM      7  C   UNL     1      10.200   6.085  -2.150  1.00  0.00     0.118 A 
ENDROOT
BRANCH   7   8
ATOM      8  O   UNL     1      10.428   7.280  -2.836  1.00  0.00    -0.508 OA
ATOM      9  H   UNL     1      10.491   8.178  -2.373  1.00  0.00     0.293 HD
ENDBRANCH   7   8
TORSDOF 1
ENDMDL
MODEL 5
REMARK VINA RESULT:    -4.787      2.152      2.598
REMARK INTER + INTRA:          -4.927
REMARK INTER:                  -4.927
REMARK INTRA:                   0.000
REMARK UNBOUND:                 0.000
REMARK SMILES Cc1ccccc1O
REMARK SMILES IDX 1 1 2 2 3 3 4 4 5 5 6 6 7 7 8 8
REMARK H PARENT 8 9
REMARK Flexibility Score: inf
ROOT
ATOM      1  C   UNL     1       8.259   7.083  -1.269  1.00  0.00     0.048 C 
ATOM      2  C   UNL     1       9.156   5.876  -1.312  1.00  0.00    -0.009 A 
ATOM      3  C   UNL     1       8.800   4.721  -0.594  1.00  0.00     0.007 A 
ATOM      4  C   UNL     1       9.618   3.589  -0.620  1.00  0.00     0.001 A 
ATOM      5  C   UNL     1      10.800   3.598  -1.363  1.00  0.00     0.004 A 
ATOM      6  C   UNL     1      11.166   4.739  -2.081  1.00  0.00     0.046 A 
ATOM      7  C   UNL     1      10.354   5.880  -2.062  1.00  0.00     0.118 A 
ENDROOT
BRANCH   7   8
ATOM      8  O   UNL     1      10.764   6.995  -2.797  1.00  0.00    -0.508 OA
ATOM      9  H   UNL     1      11.270   6.924  -3.671  1.00  0.00     0.293 HD
ENDBRANCH   7   8
TORSDOF 1
ENDMDL
MODEL 6
REMARK VINA RESULT:    -4.615      1.812      2.451
REMARK INTER + INTRA:          -4.750
REMARK INTER:                  -4.750
REMARK INTRA:                   0.000
REMARK UNBOUND:                 0.000
REMARK SMILES Cc1ccccc1O
REMARK SMILES IDX 1 1 2 2 3 3 4 4 5 5 6 6 7 7 8 8
REMARK H PARENT 8 9
REMARK Flexibility Score: inf
ROOT
ATOM      1  C   UNL     1       8.998   5.322  -4.396  1.00  0.00     0.048 C 
ATOM      2  C   UNL     1       9.369   4.676  -3.090  1.00  0.00    -0.009 A 
ATOM      3  C   UNL     1      10.141   3.501  -3.091  1.00  0.00     0.007 A 
ATOM      4  C   UNL     1      10.497   2.885  -1.888  1.00  0.00     0.001 A 
ATOM      5  C   UNL     1      10.087   3.436  -0.673  1.00  0.00     0.004 A 
ATOM      6  C   UNL     1       9.321   4.603  -0.657  1.00  0.00     0.046 A 
ATOM      7  C   UNL     1       8.957   5.229  -1.855  1.00  0.00     0.118 A 
ENDROOT
BRANCH   7   8
ATOM      8  O   UNL     1       8.189   6.394  -1.787  1.00  0.00    -0.508 OA
ATOM      9  H   UNL     1       7.612   6.627  -0.988  1.00  0.00     0.293 HD
ENDBRANCH   7   8
TORSDOF 1
ENDMDL
MODEL 7
REMARK VINA RESULT:    -4.550      2.525      3.559
REMARK INTER + INTRA:          -4.683
REMARK INTER:                  -4.683
REMARK INTRA:                   0.000
REMARK UNBOUND:                 0.000
REMARK SMILES Cc1ccccc1O
REMARK SMILES IDX 1 1 2 2 3 3 4 4 5 5 6 6 7 7 8 8
REMARK H PARENT 8 9
REMARK Flexibility Score: inf
ROOT
ATOM      1  C   UNL     1      12.718   5.284  -2.840  1.00  0.00     0.048 C 
ATOM      2  C   UNL     1      11.291   4.986  -3.211  1.00  0.00    -0.009 A 
ATOM      3  C   UNL     1      10.874   3.651  -3.352  1.00  0.00     0.007 A 
ATOM      4  C   UNL     1       9.554   3.353  -3.696  1.00  0.00     0.001 A 
ATOM      5  C   UNL     1       8.635   4.383  -3.902  1.00  0.00     0.004 A 
ATOM      6  C   UNL     1       9.035   5.714  -3.765  1.00  0.00     0.046 A 
ATOM      7  C   UNL     1      10.356   6.026  -3.421  1.00  0.00     0.118 A 
ENDROOT
BRANCH   7   8
ATOM      8  O   UNL     1      10.707   7.373  -3.296  1.00  0.00    -0.508 OA
ATOM      9  H   UNL     1      10.687   8.022  -4.072  1.00  0.00     0.293 HD
ENDBRANCH   7   8
TORSDOF 1
ENDMDL
MODEL 8
REMARK VINA RESULT:    -4.501      1.412      2.464
REMARK INTER + INTRA:          -4.632
REMARK INTER:                  -4.632
REMARK INTRA:                   0.000
REMARK UNBOUND:                 0.000
REMARK SMILES Cc1ccccc1O
REMARK SMILES IDX 1 1 2 2 3 3 4 4 5 5 6 6 7 7 8 8
REMARK H PARENT 8 9
REMARK Flexibility Score: inf
ROOT
ATOM      1  C   UNL     1      10.472   2.902  -2.493  1.00  0.00     0.048 C 
ATOM      2  C   UNL     1       9.718   4.099  -1.981  1.00  0.00    -0.009 A 
ATOM      3  C   UNL     1       9.404   4.187  -0.613  1.00  0.00     0.007 A 
ATOM      4  C   UNL     1       8.704   5.290  -0.117  1.00  0.00     0.001 A 
ATOM      5  C   UNL     1       8.312   6.315  -0.979  1.00  0.00     0.004 A 
ATOM      6  C   UNL     1       8.617   6.239  -2.339  1.00  0.00     0.046 A 
ATOM      7  C   UNL     1       9.317   5.140  -2.850  1.00  0.00     0.118 A 
ENDROOT
BRANCH   7   8
ATOM      8  O   UNL     1       9.598   5.111  -4.218  1.00  0.00    -0.508 OA
ATOM      9  H   UNL     1      10.531   4.967  -4.586  1.00  0.00     0.293 HD
ENDBRANCH   7   8
TORSDOF 1
ENDMDL
MODEL 9
REMARK VINA RESULT:    -4.476      2.668      3.316
REMARK INTER + INTRA:          -4.607
REMARK INTER:                  -4.607
REMARK INTRA:                   0.000
REMARK UNBOUND:                 0.000
REMARK SMILES Cc1ccccc1O
REMARK SMILES IDX 1 1 2 2 3 3 4 4 5 5 6 6 7 7 8 8
REMARK H PARENT 8 9
REMARK Flexibility Score: inf
ROOT
ATOM      1  C   UNL     1       9.879   6.813  -5.508  1.00  0.00     0.048 C 
ATOM      2  C   UNL     1       9.449   6.331  -4.150  1.00  0.00    -0.009 A 
ATOM      3  C   UNL     1       8.953   5.024  -4.002  1.00  0.00     0.007 A 
ATOM      4  C   UNL     1       8.548   4.557  -2.749  1.00  0.00     0.001 A 
ATOM      5  C   UNL     1       8.635   5.389  -1.631  1.00  0.00     0.004 A 
ATOM      6  C   UNL     1       9.125   6.689  -1.764  1.00  0.00     0.046 A 
ATOM      7  C   UNL     1       9.534   7.170  -3.014  1.00  0.00     0.118 A 
ENDROOT
BRANCH   7   8
ATOM      8  O   UNL     1      10.017   8.478  -3.094  1.00  0.00    -0.508 OA
ATOM      9  H   UNL     1       9.603   9.251  -2.588  1.00  0.00     0.293 HD
ENDBRANCH   7   8
TORSDOF 1
ENDMDL
