MODEL 1
REMARK VINA RESULT:    -5.457      0.000      0.000
REMARK INTER + INTRA:          -8.417
REMARK INTER:                  -7.212
REMARK INTRA:                  -1.205
REMARK UNBOUND:                -1.205
REMARK SMILES CC[C@@H](C=C[C@@H](C)[C@@H]1CC[C@H]2[C@H]3CC[C@@H]4C[C@@H](O)CC[C@]4(C)[C@H]3CC[C@]21C)C(C)C
REMARK SMILES IDX 6 1 7 2 5 3 4 4 3 5 2 6 1 7 28 8 29 9 30 10 8 11 9 12 26 13
REMARK SMILES IDX 10 14 11 15 25 16 27 17 12 18 24 19 23 20 13 21 21 22 14 23
REMARK SMILES IDX 15 24 20 25 22 26 16 27 19 28 17 29 18 30
REMARK H PARENT 18 31
REMARK Flexibility Score: inf
ROOT
ATOM      1  C   UNL     1       1.855  -5.930  -4.653  1.00  0.00     0.012 C 
ATOM      2  C   UNL     1       2.218  -7.392  -4.340  1.00  0.00     0.012 C 
ENDROOT
BRANCH   1   3
ATOM      3  C   UNL     1       2.339  -5.066  -3.508  1.00  0.00    -0.028 C 
ATOM      4  C   UNL     1       2.583  -5.584  -2.294  1.00  0.00    -0.027 C 
BRANCH   4   5
ATOM      5  C   UNL     1       3.090  -4.734  -1.148  1.00  0.00     0.014 C 
BRANCH   5   6
ATOM      6  C   UNL     1       2.610  -5.357   0.185  1.00  0.00     0.004 C 
ATOM      7  C   UNL     1       2.357  -6.862   0.097  1.00  0.00     0.004 C 
ENDBRANCH   5   6
BRANCH   5   8
ATOM      8  C   UNL     1       2.697  -3.234  -1.328  1.00  0.00    -0.011 C 
ATOM      9  C   UNL     1       1.514  -2.852  -0.422  1.00  0.00     0.008 C 
ATOM     10  C   UNL     1       3.868  -2.260  -1.100  1.00  0.00     0.008 C 
ENDBRANCH   5   8
ENDBRANCH   4   5
ENDBRANCH   1   3
BRANCH   1  11
ATOM     11  C   UNL     1       0.334  -5.658  -4.917  1.00  0.00     0.002 C 
ATOM     12  C   UNL     1      -0.550  -6.890  -5.071  1.00  0.00     0.005 C 
ATOM     13  C   UNL     1      -0.061  -4.718  -6.105  1.00  0.00    -0.026 C 
ATOM     14  C   UNL     1      -1.885  -6.312  -5.502  1.00  0.00     0.005 C 
ATOM     15  C   UNL     1      -1.520  -5.164  -6.459  1.00  0.00    -0.001 C 
ATOM     16  C   UNL     1       0.003  -3.238  -5.658  1.00  0.00     0.007 C 
ATOM     17  C   UNL     1       0.853  -4.910  -7.346  1.00  0.00     0.012 C 
ATOM     18  C   UNL     1      -2.583  -4.026  -6.618  1.00  0.00    -0.004 C 
ATOM     19  C   UNL     1      -0.713  -2.256  -6.605  1.00  0.00     0.005 C 
ATOM     20  C   UNL     1      -1.961  -2.817  -7.368  1.00  0.00    -0.001 C 
ATOM     21  C   UNL     1      -3.312  -3.552  -5.341  1.00  0.00     0.004 C 
ATOM     22  C   UNL     1      -3.025  -1.699  -7.731  1.00  0.00    -0.026 C 
ATOM     23  C   UNL     1      -4.400  -2.533  -5.691  1.00  0.00     0.004 C 
ATOM     24  C   UNL     1      -3.852  -1.304  -6.457  1.00  0.00    -0.002 C 
ATOM     25  C   UNL     1      -3.993  -2.219  -8.847  1.00  0.00     0.010 C 
ATOM     26  C   UNL     1      -2.275  -0.453  -8.297  1.00  0.00     0.012 C 
ATOM     27  C   UNL     1      -5.002  -0.324  -6.795  1.00  0.00     0.036 C 
ATOM     28  C   UNL     1      -5.146  -1.252  -9.174  1.00  0.00     0.032 C 
ATOM     29  C   UNL     1      -5.930  -0.845  -7.915  1.00  0.00     0.114 C 
BRANCH  29  30
ATOM     30  O   UNL     1      -6.905   0.116  -8.234  1.00  0.00    -0.393 OA
ATOM     31  H   UNL     1      -7.772  -0.358  -8.347  1.00  0.00     0.210 HD
ENDBRANCH  29  30
ENDBRANCH   1  11
TORSDOF 6
ENDMDL
MODEL 2
REMARK VINA RESULT:    -5.229      7.754     10.970
REMARK INTER + INTRA:          -8.115
REMARK INTER:                  -6.557
REMARK INTRA:                  -1.558
REMARK UNBOUND:                -1.205
REMARK SMILES CC[C@@H](C=C[C@@H](C)[C@@H]1CC[C@H]2[C@H]3CC[C@@H]4C[C@@H](O)CC[C@]4(C)[C@H]3CC[C@]21C)C(C)C
REMARK SMILES IDX 6 1 7 2 5 3 4 4 3 5 2 6 1 7 28 8 29 9 30 10 8 11 9 12 26 13
REMARK SMILES IDX 10 14 11 15 25 16 27 17 12 18 24 19 23 20 13 21 21 22 14 23
REMARK SMILES IDX 15 24 20 25 22 26 16 27 19 28 17 29 18 30
REMARK H PARENT 18 31
REMARK Flexibility Score: inf
ROOT
ATOM      1  C   UNL     1       7.200   0.969   0.755  1.00  0.00     0.012 C 
ATOM      2  C   UNL     1       8.031   1.157   2.036  1.00  0.00     0.012 C 
ENDROOT
BRANCH   1   3
ATOM      3  C   UNL     1       7.194  -0.505   0.407  1.00  0.00    -0.028 C 
ATOM      4  C   UNL     1       6.622  -0.956  -0.721  1.00  0.00    -0.027 C 
BRANCH   4   5
ATOM      5  C   UNL     1       6.631  -2.424  -1.091  1.00  0.00     0.014 C 
BRANCH   5   6
ATOM      6  C   UNL     1       7.312  -2.587  -2.471  1.00  0.00     0.004 C 
ATOM      7  C   UNL     1       7.401  -1.282  -3.263  1.00  0.00     0.004 C 
ENDBRANCH   5   6
BRANCH   5   8
ATOM      8  C   UNL     1       5.201  -3.045  -1.011  1.00  0.00    -0.011 C 
ATOM      9  C   UNL     1       4.113  -1.969  -1.168  1.00  0.00     0.008 C 
ATOM     10  C   UNL     1       4.965  -4.181  -2.022  1.00  0.00     0.008 C 
ENDBRANCH   5   8
ENDBRANCH   4   5
ENDBRANCH   1   3
BRANCH   1  11
ATOM     11  C   UNL     1       7.676   1.804  -0.483  1.00  0.00     0.002 C 
ATOM     12  C   UNL     1       9.033   2.486  -0.348  1.00  0.00     0.005 C 
ATOM     13  C   UNL     1       6.719   2.903  -1.055  1.00  0.00    -0.026 C 
ATOM     14  C   UNL     1       9.115   3.350  -1.593  1.00  0.00     0.005 C 
ATOM     15  C   UNL     1       7.688   3.894  -1.783  1.00  0.00    -0.001 C 
ATOM     16  C   UNL     1       5.698   2.266  -2.029  1.00  0.00     0.007 C 
ATOM     17  C   UNL     1       5.948   3.660   0.060  1.00  0.00     0.012 C 
ATOM     18  C   UNL     1       7.294   4.321  -3.236  1.00  0.00    -0.004 C 
ATOM     19  C   UNL     1       4.961   3.277  -2.927  1.00  0.00     0.005 C 
ATOM     20  C   UNL     1       5.762   4.563  -3.324  1.00  0.00    -0.001 C 
ATOM     21  C   UNL     1       7.764   3.414  -4.395  1.00  0.00     0.004 C 
ATOM     22  C   UNL     1       5.311   5.177  -4.714  1.00  0.00    -0.026 C 
ATOM     23  C   UNL     1       7.406   4.041  -5.746  1.00  0.00     0.004 C 
ATOM     24  C   UNL     1       5.891   4.325  -5.896  1.00  0.00    -0.002 C 
ATOM     25  C   UNL     1       5.808   6.657  -4.837  1.00  0.00     0.010 C 
ATOM     26  C   UNL     1       3.751   5.195  -4.775  1.00  0.00     0.012 C 
ATOM     27  C   UNL     1       5.600   4.972  -7.274  1.00  0.00     0.036 C 
ATOM     28  C   UNL     1       5.532   7.297  -6.210  1.00  0.00     0.032 C 
ATOM     29  C   UNL     1       6.076   6.438  -7.365  1.00  0.00     0.114 C 
BRANCH  29  30
ATOM     30  O   UNL     1       5.716   6.998  -8.603  1.00  0.00    -0.393 OA
ATOM     31  H   UNL     1       6.538   7.376  -9.014  1.00  0.00     0.210 HD
ENDBRANCH  29  30
ENDBRANCH   1  11
TORSDOF 6
ENDMDL
MODEL 3
REMARK VINA RESULT:    -5.190      1.112      1.544
REMARK INTER + INTRA:          -8.063
REMARK INTER:                  -6.626
REMARK INTRA:                  -1.437
REMARK UNBOUND:                -1.205
REMARK SMILES CC[C@@H](C=C[C@@H](C)[C@@H]1CC[C@H]2[C@H]3CC[C@@H]4C[C@@H](O)CC[C@]4(C)[C@H]3CC[C@]21C)C(C)C
REMARK SMILES IDX 6 1 7 2 5 3 4 4 3 5 2 6 1 7 28 8 29 9 30 10 8 11 9 12 26 13
REMARK SMILES IDX 10 14 11 15 25 16 27 17 12 18 24 19 23 20 13 21 21 22 14 23
REMARK SMILES IDX 15 24 20 25 22 26 16 27 19 28 17 29 18 30
REMARK H PARENT 18 31
REMARK Flexibility Score: inf
ROOT
ATOM      1  C   UNL     1       1.885  -6.896  -4.112  1.00  0.00     0.012 C 
ATOM      2  C   UNL     1       2.004  -8.408  -3.858  1.00  0.00     0.012 C 
ENDROOT
BRANCH   1   3
ATOM      3  C   UNL     1       2.282  -6.170  -2.844  1.00  0.00    -0.028 C 
ATOM      4  C   UNL     1       3.132  -5.132  -2.868  1.00  0.00    -0.027 C 
BRANCH   4   5
ATOM      5  C   UNL     1       3.517  -4.383  -1.609  1.00  0.00     0.014 C 
BRANCH   5   6
ATOM      6  C   UNL     1       2.288  -4.318  -0.672  1.00  0.00     0.004 C 
ATOM      7  C   UNL     1       1.570  -2.968  -0.703  1.00  0.00     0.004 C 
ENDBRANCH   5   6
BRANCH   5   8
ATOM      8  C   UNL     1       4.142  -2.991  -1.937  1.00  0.00    -0.011 C 
ATOM      9  C   UNL     1       5.366  -2.702  -1.051  1.00  0.00     0.008 C 
ATOM     10  C   UNL     1       4.516  -2.819  -3.421  1.00  0.00     0.008 C 
ENDBRANCH   5   8
ENDBRANCH   4   5
ENDBRANCH   1   3
BRANCH   1  11
ATOM     11  C   UNL     1       0.475  -6.403  -4.587  1.00  0.00     0.002 C 
ATOM     12  C   UNL     1      -0.472  -7.480  -5.102  1.00  0.00     0.005 C 
ATOM     13  C   UNL     1       0.405  -5.252  -5.647  1.00  0.00    -0.026 C 
ATOM     14  C   UNL     1      -1.640  -6.684  -5.654  1.00  0.00     0.005 C 
ATOM     15  C   UNL     1      -0.994  -5.458  -6.321  1.00  0.00    -0.001 C 
ATOM     16  C   UNL     1       0.518  -3.876  -4.948  1.00  0.00     0.007 C 
ATOM     17  C   UNL     1       1.518  -5.365  -6.723  1.00  0.00     0.012 C 
ATOM     18  C   UNL     1      -1.897  -4.187  -6.465  1.00  0.00    -0.004 C 
ATOM     19  C   UNL     1       0.091  -2.682  -5.823  1.00  0.00     0.005 C 
ATOM     20  C   UNL     1      -1.033  -2.964  -6.876  1.00  0.00    -0.001 C 
ATOM     21  C   UNL     1      -2.811  -3.827  -5.274  1.00  0.00     0.004 C 
ATOM     22  C   UNL     1      -1.901  -1.682  -7.223  1.00  0.00    -0.026 C 
ATOM     23  C   UNL     1      -3.713  -2.641  -5.628  1.00  0.00     0.004 C 
ATOM     24  C   UNL     1      -2.916  -1.387  -6.064  1.00  0.00    -0.002 C 
ATOM     25  C   UNL     1      -2.679  -1.904  -8.564  1.00  0.00     0.010 C 
ATOM     26  C   UNL     1      -0.944  -0.466  -7.427  1.00  0.00     0.012 C 
ATOM     27  C   UNL     1      -3.885  -0.233  -6.425  1.00  0.00     0.036 C 
ATOM     28  C   UNL     1      -3.653  -0.765  -8.916  1.00  0.00     0.032 C 
ATOM     29  C   UNL     1      -4.624  -0.461  -7.762  1.00  0.00     0.114 C 
BRANCH  29  30
ATOM     30  O   UNL     1      -5.427   0.650  -8.077  1.00  0.00    -0.393 OA
ATOM     31  H   UNL     1      -5.575   1.163  -7.239  1.00  0.00     0.210 HD
ENDBRANCH  29  30
ENDBRANCH   1  11
TORSDOF 6
ENDMDL
MODEL 4
REMARK VINA RESULT:    -5.131      3.572      6.670
REMARK INTER + INTRA:          -7.986
REMARK INTER:                  -6.919
REMARK INTRA:                  -1.067
REMARK UNBOUND:                -1.205
REMARK SMILES CC[C@@H](C=C[C@@H](C)[C@@H]1CC[C@H]2[C@H]3CC[C@@H]4C[C@@H](O)CC[C@]4(C)[C@H]3CC[C@]21C)C(C)C
REMARK SMILES IDX 6 1 7 2 5 3 4 4 3 5 2 6 1 7 28 8 29 9 30 10 8 11 9 12 26 13
REMARK SMILES IDX 10 14 11 15 25 16 27 17 12 18 24 19 23 20 13 21 21 22 14 23
REMARK SMILES IDX 15 24 20 25 22 26 16 27 19 28 17 29 18 30
REMARK H PARENT 18 31
REMARK Flexibility Score: inf
ROOT
ATOM      1  C   UNL     1       5.746  -2.163  -2.152  1.00  0.00     0.012 C 
ATOM      2  C   UNL     1       6.391  -2.504  -0.798  1.00  0.00     0.012 C 
ENDROOT
BRANCH   1   3
ATOM      3  C   UNL     1       5.848  -0.667  -2.363  1.00  0.00    -0.028 C 
ATOM      4  C   UNL     1       5.617   0.198  -1.362  1.00  0.00    -0.027 C 
BRANCH   4   5
ATOM      5  C   UNL     1       5.740   1.696  -1.554  1.00  0.00     0.014 C 
BRANCH   5   6
ATOM      6  C   UNL     1       6.254   1.974  -2.987  1.00  0.00     0.004 C 
ATOM      7  C   UNL     1       5.324   2.872  -3.803  1.00  0.00     0.004 C 
ENDBRANCH   5   6
BRANCH   5   8
ATOM      8  C   UNL     1       6.603   2.350  -0.430  1.00  0.00    -0.011 C 
ATOM      9  C   UNL     1       5.951   3.640   0.098  1.00  0.00     0.008 C 
ATOM     10  C   UNL     1       6.910   1.399   0.742  1.00  0.00     0.008 C 
ENDBRANCH   5   8
ENDBRANCH   4   5
ENDBRANCH   1   3
BRANCH   1  11
ATOM     11  C   UNL     1       4.257  -2.621  -2.322  1.00  0.00     0.002 C 
ATOM     12  C   UNL     1       3.440  -2.730  -1.039  1.00  0.00     0.005 C 
ATOM     13  C   UNL     1       3.969  -3.946  -3.106  1.00  0.00    -0.026 C 
ATOM     14  C   UNL     1       2.144  -3.368  -1.503  1.00  0.00     0.005 C 
ATOM     15  C   UNL     1       2.576  -4.404  -2.556  1.00  0.00    -0.001 C 
ATOM     16  C   UNL     1       3.929  -3.666  -4.628  1.00  0.00     0.007 C 
ATOM     17  C   UNL     1       5.024  -5.048  -2.822  1.00  0.00     0.012 C 
ATOM     18  C   UNL     1       1.499  -4.808  -3.617  1.00  0.00    -0.004 C 
ATOM     19  C   UNL     1       3.293  -4.792  -5.464  1.00  0.00     0.005 C 
ATOM     20  C   UNL     1       2.161  -5.618  -4.765  1.00  0.00    -0.001 C 
ATOM     21  C   UNL     1       0.613  -3.681  -4.193  1.00  0.00     0.004 C 
ATOM     22  C   UNL     1       1.107  -6.221  -5.785  1.00  0.00    -0.026 C 
ATOM     23  C   UNL     1      -0.463  -4.263  -5.115  1.00  0.00     0.004 C 
ATOM     24  C   UNL     1       0.127  -5.100  -6.277  1.00  0.00    -0.002 C 
ATOM     25  C   UNL     1       0.292  -7.371  -5.101  1.00  0.00     0.010 C 
ATOM     26  C   UNL     1       1.873  -6.840  -6.995  1.00  0.00     0.012 C 
ATOM     27  C   UNL     1      -1.011  -5.672  -7.159  1.00  0.00     0.036 C 
ATOM     28  C   UNL     1      -0.848  -7.931  -5.970  1.00  0.00     0.032 C 
ATOM     29  C   UNL     1      -1.785  -6.820  -6.475  1.00  0.00     0.114 C 
BRANCH  29  30
ATOM     30  O   UNL     1      -2.751  -7.352  -7.348  1.00  0.00    -0.393 OA
ATOM     31  H   UNL     1      -3.647  -7.117  -6.989  1.00  0.00     0.210 HD
ENDBRANCH  29  30
ENDBRANCH   1  11
TORSDOF 6
ENDMDL
MODEL 5
REMARK VINA RESULT:    -4.975      4.783      9.838
REMARK INTER + INTRA:          -7.779
REMARK INTER:                  -6.632
REMARK INTRA:                  -1.147
REMARK UNBOUND:                -1.205
REMARK SMILES CC[C@@H](C=C[C@@H](C)[C@@H]1CC[C@H]2[C@H]3CC[C@@H]4C[C@@H](O)CC[C@]4(C)[C@H]3CC[C@]21C)C(C)C
REMARK SMILES IDX 6 1 7 2 5 3 4 4 3 5 2 6 1 7 28 8 29 9 30 10 8 11 9 12 26 13
REMARK SMILES IDX 10 14 11 15 25 16 27 17 12 18 24 19 23 20 13 21 21 22 14 23
REMARK SMILES IDX 15 24 20 25 22 26 16 27 19 28 17 29 18 30
REMARK H PARENT 18 31
REMARK Flexibility Score: inf
ROOT
ATOM      1  C   UNL     1       3.324  -4.969  -2.642  1.00  0.00     0.012 C 
ATOM      2  C   UNL     1       3.818  -6.410  -2.858  1.00  0.00     0.012 C 
ENDROOT
BRANCH   1   3
ATOM      3  C   UNL     1       1.979  -4.822  -3.322  1.00  0.00    -0.028 C 
ATOM      4  C   UNL     1       1.754  -5.327  -4.546  1.00  0.00    -0.027 C 
BRANCH   4   5
ATOM      5  C   UNL     1       0.406  -5.207  -5.226  1.00  0.00     0.014 C 
BRANCH   5   6
ATOM      6  C   UNL     1      -0.217  -3.839  -4.860  1.00  0.00     0.004 C 
ATOM      7  C   UNL     1      -0.005  -2.768  -5.931  1.00  0.00     0.004 C 
ENDBRANCH   5   6
BRANCH   5   8
ATOM      8  C   UNL     1      -0.509  -6.430  -4.905  1.00  0.00    -0.011 C 
ATOM      9  C   UNL     1      -1.833  -6.360  -5.686  1.00  0.00     0.008 C 
ATOM     10  C   UNL     1       0.172  -7.789  -5.149  1.00  0.00     0.008 C 
ENDBRANCH   5   8
ENDBRANCH   4   5
ENDBRANCH   1   3
BRANCH   1  11
ATOM     11  C   UNL     1       4.295  -3.844  -3.140  1.00  0.00     0.002 C 
ATOM     12  C   UNL     1       5.329  -4.265  -4.180  1.00  0.00     0.005 C 
ATOM     13  C   UNL     1       5.095  -3.023  -2.074  1.00  0.00    -0.026 C 
ATOM     14  C   UNL     1       6.217  -3.041  -4.304  1.00  0.00     0.005 C 
ATOM     15  C   UNL     1       6.340  -2.503  -2.868  1.00  0.00    -0.001 C 
ATOM     16  C   UNL     1       4.225  -1.864  -1.532  1.00  0.00     0.007 C 
ATOM     17  C   UNL     1       5.571  -3.897  -0.883  1.00  0.00     0.012 C 
ATOM     18  C   UNL     1       6.682  -0.982  -2.722  1.00  0.00    -0.004 C 
ATOM     19  C   UNL     1       5.013  -0.780  -0.772  1.00  0.00     0.005 C 
ATOM     20  C   UNL     1       6.483  -0.531  -1.249  1.00  0.00    -0.001 C 
ATOM     21  C   UNL     1       5.979  -0.001  -3.686  1.00  0.00     0.004 C 
ATOM     22  C   UNL     1       6.985   0.949  -0.982  1.00  0.00    -0.026 C 
ATOM     23  C   UNL     1       6.518   1.420  -3.493  1.00  0.00     0.004 C 
ATOM     24  C   UNL     1       6.367   1.930  -2.039  1.00  0.00    -0.002 C 
ATOM     25  C   UNL     1       8.549   1.010  -1.057  1.00  0.00     0.010 C 
ATOM     26  C   UNL     1       6.564   1.372   0.461  1.00  0.00     0.012 C 
ATOM     27  C   UNL     1       6.945   3.361  -1.908  1.00  0.00     0.036 C 
ATOM     28  C   UNL     1       9.124   2.433  -0.941  1.00  0.00     0.032 C 
ATOM     29  C   UNL     1       8.488   3.395  -1.960  1.00  0.00     0.114 C 
BRANCH  29  30
ATOM     30  O   UNL     1       8.960   4.705  -1.758  1.00  0.00    -0.393 OA
ATOM     31  H   UNL     1       9.421   4.727  -0.878  1.00  0.00     0.210 HD
ENDBRANCH  29  30
ENDBRANCH   1  11
TORSDOF 6
ENDMDL
MODEL 6
REMARK VINA RESULT:    -4.935      9.688     13.711
REMARK INTER + INTRA:          -7.727
REMARK INTER:                  -6.217
REMARK INTRA:                  -1.510
REMARK UNBOUND:                -1.205
REMARK SMILES CC[C@@H](C=C[C@@H](C)[C@@H]1CC[C@H]2[C@H]3CC[C@@H]4C[C@@H](O)CC[C@]4(C)[C@H]3CC[C@]21C)C(C)C
REMARK SMILES IDX 6 1 7 2 5 3 4 4 3 5 2 6 1 7 28 8 29 9 30 10 8 11 9 12 26 13
REMARK SMILES IDX 10 14 11 15 25 16 27 17 12 18 24 19 23 20 13 21 21 22 14 23
REMARK SMILES IDX 15 24 20 25 22 26 16 27 19 28 17 29 18 30
REMARK H PARENT 18 31
REMARK Flexibility Score: inf
ROOT
ATOM      1  C   UNL     1       3.596   6.230  -7.008  1.00  0.00     0.012 C 
ATOM      2  C   UNL     1       2.804   5.838  -8.268  1.00  0.00     0.012 C 
ENDROOT
BRANCH   1   3
ATOM      3  C   UNL     1       4.349   7.511  -7.301  1.00  0.00    -0.028 C 
ATOM      4  C   UNL     1       5.607   7.697  -6.871  1.00  0.00    -0.027 C 
BRANCH   4   5
ATOM      5  C   UNL     1       6.379   8.963  -7.178  1.00  0.00     0.014 C 
BRANCH   5   6
ATOM      6  C   UNL     1       5.482   9.902  -8.019  1.00  0.00     0.004 C 
ATOM      7  C   UNL     1       5.998  10.125  -9.441  1.00  0.00     0.004 C 
ENDBRANCH   5   6
BRANCH   5   8
ATOM      8  C   UNL     1       7.761   8.648  -7.833  1.00  0.00    -0.011 C 
ATOM      9  C   UNL     1       8.892   9.449  -7.165  1.00  0.00     0.008 C 
ATOM     10  C   UNL     1       8.111   7.149  -7.839  1.00  0.00     0.008 C 
ENDBRANCH   5   8
ENDBRANCH   4   5
ENDBRANCH   1   3
BRANCH   1  11
ATOM     11  C   UNL     1       4.588   5.142  -6.473  1.00  0.00     0.002 C 
ATOM     12  C   UNL     1       4.728   3.886  -7.326  1.00  0.00     0.005 C 
ATOM     13  C   UNL     1       4.408   4.624  -5.006  1.00  0.00    -0.026 C 
ATOM     14  C   UNL     1       5.579   2.971  -6.466  1.00  0.00     0.005 C 
ATOM     15  C   UNL     1       5.074   3.207  -5.031  1.00  0.00    -0.001 C 
ATOM     16  C   UNL     1       5.111   5.580  -4.013  1.00  0.00     0.007 C 
ATOM     17  C   UNL     1       2.915   4.485  -4.603  1.00  0.00     0.012 C 
ATOM     18  C   UNL     1       6.081   2.884  -3.877  1.00  0.00    -0.004 C 
ATOM     19  C   UNL     1       5.323   4.991  -2.606  1.00  0.00     0.005 C 
ATOM     20  C   UNL     1       5.545   3.443  -2.531  1.00  0.00    -0.001 C 
ATOM     21  C   UNL     1       7.555   3.298  -4.085  1.00  0.00     0.004 C 
ATOM     22  C   UNL     1       6.418   2.996  -1.284  1.00  0.00    -0.026 C 
ATOM     23  C   UNL     1       8.422   2.798  -2.925  1.00  0.00     0.004 C 
ATOM     24  C   UNL     1       7.933   3.305  -1.545  1.00  0.00    -0.002 C 
ATOM     25  C   UNL     1       6.230   1.464  -1.016  1.00  0.00     0.010 C 
ATOM     26  C   UNL     1       5.919   3.762  -0.019  1.00  0.00     0.012 C 
ATOM     27  C   UNL     1       8.839   2.750  -0.417  1.00  0.00     0.036 C 
ATOM     28  C   UNL     1       7.140   0.909   0.095  1.00  0.00     0.032 C 
ATOM     29  C   UNL     1       8.621   1.245  -0.153  1.00  0.00     0.114 C 
BRANCH  29  30
ATOM     30  O   UNL     1       9.409   0.815   0.929  1.00  0.00    -0.393 OA
ATOM     31  H   UNL     1      10.297   0.549   0.571  1.00  0.00     0.210 HD
ENDBRANCH  29  30
ENDBRANCH   1  11
TORSDOF 6
ENDMDL
MODEL 7
REMARK VINA RESULT:    -4.904      7.986     12.445
REMARK INTER + INTRA:          -7.685
REMARK INTER:                  -6.324
REMARK INTRA:                  -1.361
REMARK UNBOUND:                -1.205
REMARK SMILES CC[C@@H](C=C[C@@H](C)[C@@H]1CC[C@H]2[C@H]3CC[C@@H]4C[C@@H](O)CC[C@]4(C)[C@H]3CC[C@]21C)C(C)C
REMARK SMILES IDX 6 1 7 2 5 3 4 4 3 5 2 6 1 7 28 8 29 9 30 10 8 11 9 12 26 13
REMARK SMILES IDX 10 14 11 15 25 16 27 17 12 18 24 19 23 20 13 21 21 22 14 23
REMARK SMILES IDX 15 24 20 25 22 26 16 27 19 28 17 29 18 30
REMARK H PARENT 18 31
REMARK Flexibility Score: inf
ROOT
ATOM      1  C   UNL     1       3.328   4.940  -6.516  1.00  0.00     0.012 C 
ATOM      2  C   UNL     1       3.479   6.217  -7.362  1.00  0.00     0.012 C 
ENDROOT
BRANCH   1   3
ATOM      3  C   UNL     1       1.851   4.648  -6.358  1.00  0.00    -0.028 C 
ATOM      4  C   UNL     1       1.306   4.427  -5.152  1.00  0.00    -0.027 C 
BRANCH   4   5
ATOM      5  C   UNL     1      -0.175   4.157  -4.979  1.00  0.00     0.014 C 
BRANCH   5   6
ATOM      6  C   UNL     1      -0.910   4.567  -6.277  1.00  0.00     0.004 C 
ATOM      7  C   UNL     1      -1.914   3.521  -6.764  1.00  0.00     0.004 C 
ENDBRANCH   5   6
BRANCH   5   8
ATOM      8  C   UNL     1      -0.735   4.834  -3.689  1.00  0.00    -0.011 C 
ATOM      9  C   UNL     1      -1.473   6.143  -4.018  1.00  0.00     0.008 C 
ATOM     10  C   UNL     1      -1.646   3.913  -2.857  1.00  0.00     0.008 C 
ENDBRANCH   5   8
ENDBRANCH   4   5
ENDBRANCH   1   3
BRANCH   1  11
ATOM     11  C   UNL     1       4.013   4.983  -5.107  1.00  0.00     0.002 C 
ATOM     12  C   UNL     1       4.560   6.338  -4.669  1.00  0.00     0.005 C 
ATOM     13  C   UNL     1       5.159   3.961  -4.802  1.00  0.00    -0.026 C 
ATOM     14  C   UNL     1       5.314   6.015  -3.393  1.00  0.00     0.005 C 
ATOM     15  C   UNL     1       5.986   4.660  -3.671  1.00  0.00    -0.001 C 
ATOM     16  C   UNL     1       4.560   2.612  -4.336  1.00  0.00     0.007 C 
ATOM     17  C   UNL     1       6.075   3.708  -6.031  1.00  0.00     0.012 C 
ATOM     18  C   UNL     1       6.341   3.789  -2.420  1.00  0.00    -0.004 C 
ATOM     19  C   UNL     1       5.571   1.667  -3.659  1.00  0.00     0.005 C 
ATOM     20  C   UNL     1       6.733   2.353  -2.864  1.00  0.00    -0.001 C 
ATOM     21  C   UNL     1       5.305   3.736  -1.275  1.00  0.00     0.004 C 
ATOM     22  C   UNL     1       7.284   1.465  -1.671  1.00  0.00    -0.026 C 
ATOM     23  C   UNL     1       5.861   2.949  -0.084  1.00  0.00     0.004 C 
ATOM     24  C   UNL     1       6.289   1.509  -0.459  1.00  0.00    -0.002 C 
ATOM     25  C   UNL     1       8.691   1.982  -1.218  1.00  0.00     0.010 C 
ATOM     26  C   UNL     1       7.459  -0.002  -2.174  1.00  0.00     0.012 C 
ATOM     27  C   UNL     1       6.857   0.776   0.782  1.00  0.00     0.036 C 
ATOM     28  C   UNL     1       9.250   1.265   0.024  1.00  0.00     0.032 C 
ATOM     29  C   UNL     1       8.254   1.286   1.197  1.00  0.00     0.114 C 
BRANCH  29  30
ATOM     30  O   UNL     1       8.753   0.534   2.276  1.00  0.00    -0.393 OA
ATOM     31  H   UNL     1       7.996   0.016   2.659  1.00  0.00     0.210 HD
ENDBRANCH  29  30
ENDBRANCH   1  11
TORSDOF 6
ENDMDL
MODEL 8
REMARK VINA RESULT:    -4.813      4.126      7.891
REMARK INTER + INTRA:          -7.566
REMARK INTER:                  -6.527
REMARK INTRA:                  -1.039
REMARK UNBOUND:                -1.205
REMARK SMILES CC[C@@H](C=C[C@@H](C)[C@@H]1CC[C@H]2[C@H]3CC[C@@H]4C[C@@H](O)CC[C@]4(C)[C@H]3CC[C@]21C)C(C)C
REMARK SMILES IDX 6 1 7 2 5 3 4 4 3 5 2 6 1 7 28 8 29 9 30 10 8 11 9 12 26 13
REMARK SMILES IDX 10 14 11 15 25 16 27 17 12 18 24 19 23 20 13 21 21 22 14 23
REMARK SMILES IDX 15 24 20 25 22 26 16 27 19 28 17 29 18 30
REMARK H PARENT 18 31
REMARK Flexibility Score: inf
ROOT
ATOM      1  C   UNL     1      -3.104   0.998  -6.469  1.00  0.00     0.012 C 
ATOM      2  C   UNL     1      -2.956   2.122  -7.509  1.00  0.00     0.012 C 
ENDROOT
BRANCH   1   3
ATOM      3  C   UNL     1      -3.335   1.634  -5.114  1.00  0.00    -0.028 C 
ATOM      4  C   UNL     1      -2.556   2.631  -4.666  1.00  0.00    -0.027 C 
BRANCH   4   5
ATOM      5  C   UNL     1      -2.792   3.290  -3.323  1.00  0.00     0.014 C 
BRANCH   5   6
ATOM      6  C   UNL     1      -4.067   4.162  -3.414  1.00  0.00     0.004 C 
ATOM      7  C   UNL     1      -4.947   4.085  -2.165  1.00  0.00     0.004 C 
ENDBRANCH   5   6
BRANCH   5   8
ATOM      8  C   UNL     1      -1.527   4.062  -2.832  1.00  0.00    -0.011 C 
ATOM      9  C   UNL     1      -1.462   5.474  -3.438  1.00  0.00     0.008 C 
ATOM     10  C   UNL     1      -1.413   4.143  -1.299  1.00  0.00     0.008 C 
ENDBRANCH   5   8
ENDBRANCH   4   5
ENDBRANCH   1   3
BRANCH   1  11
ATOM     11  C   UNL     1      -1.901  -0.003  -6.386  1.00  0.00     0.002 C 
ATOM     12  C   UNL     1      -0.601   0.457  -7.038  1.00  0.00     0.005 C 
ATOM     13  C   UNL     1      -2.115  -1.470  -6.889  1.00  0.00    -0.026 C 
ATOM     14  C   UNL     1       0.281  -0.775  -6.966  1.00  0.00     0.005 C 
ATOM     15  C   UNL     1      -0.669  -1.951  -7.251  1.00  0.00    -0.001 C 
ATOM     16  C   UNL     1      -2.750  -2.330  -5.770  1.00  0.00     0.007 C 
ATOM     17  C   UNL     1      -3.014  -1.542  -8.152  1.00  0.00     0.012 C 
ATOM     18  C   UNL     1      -0.234  -3.348  -6.696  1.00  0.00    -0.004 C 
ATOM     19  C   UNL     1      -2.663  -3.849  -6.008  1.00  0.00     0.005 C 
ATOM     20  C   UNL     1      -1.412  -4.354  -6.802  1.00  0.00    -0.001 C 
ATOM     21  C   UNL     1       0.385  -3.388  -5.281  1.00  0.00     0.004 C 
ATOM     22  C   UNL     1      -0.994  -5.838  -6.432  1.00  0.00    -0.026 C 
ATOM     23  C   UNL     1       0.868  -4.803  -4.947  1.00  0.00     0.004 C 
ATOM     24  C   UNL     1      -0.255  -5.864  -5.049  1.00  0.00    -0.002 C 
ATOM     25  C   UNL     1      -0.057  -6.427  -7.541  1.00  0.00     0.010 C 
ATOM     26  C   UNL     1      -2.277  -6.725  -6.377  1.00  0.00     0.012 C 
ATOM     27  C   UNL     1       0.302  -7.270  -4.716  1.00  0.00     0.036 C 
ATOM     28  C   UNL     1       0.509  -7.819  -7.206  1.00  0.00     0.032 C 
ATOM     29  C   UNL     1       1.203  -7.842  -5.833  1.00  0.00     0.114 C 
BRANCH  29  30
ATOM     30  O   UNL     1       1.615  -9.148  -5.514  1.00  0.00    -0.393 OA
ATOM     31  H   UNL     1       1.183  -9.768  -6.161  1.00  0.00     0.210 HD
ENDBRANCH  29  30
ENDBRANCH   1  11
TORSDOF 6
ENDMDL
MODEL 9
REMARK VINA RESULT:    -4.805      7.547     12.470
REMARK INTER + INTRA:          -7.554
REMARK INTER:                  -5.874
REMARK INTRA:                  -1.680
REMARK UNBOUND:                -1.205
REMARK SMILES CC[C@@H](C=C[C@@H](C)[C@@H]1CC[C@H]2[C@H]3CC[C@@H]4C[C@@H](O)CC[C@]4(C)[C@H]3CC[C@]21C)C(C)C
REMARK SMILES IDX 6 1 7 2 5 3 4 4 3 5 2 6 1 7 28 8 29 9 30 10 8 11 9 12 26 13
REMARK SMILES IDX 10 14 11 15 25 16 27 17 12 18 24 19 23 20 13 21 21 22 14 23
REMARK SMILES IDX 15 24 20 25 22 26 16 27 19 28 17 29 18 30
REMARK H PARENT 18 31
REMARK Flexibility Score: inf
ROOT
ATOM      1  C   UNL     1       4.798   5.225  -7.382  1.00  0.00     0.012 C 
ATOM      2  C   UNL     1       4.876   6.613  -8.041  1.00  0.00     0.012 C 
ENDROOT
BRANCH   1   3
ATOM      3  C   UNL     1       3.457   4.611  -7.725  1.00  0.00    -0.028 C 
ATOM      4  C   UNL     1       2.716   3.985  -6.798  1.00  0.00    -0.027 C 
BRANCH   4   5
ATOM      5  C   UNL     1       1.363   3.388  -7.125  1.00  0.00     0.014 C 
BRANCH   5   6
ATOM      6  C   UNL     1       0.334   3.884  -6.081  1.00  0.00     0.004 C 
ATOM      7  C   UNL     1       0.973   4.592  -4.886  1.00  0.00     0.004 C 
ENDBRANCH   5   6
BRANCH   5   8
ATOM      8  C   UNL     1       1.437   1.835  -7.257  1.00  0.00    -0.011 C 
ATOM      9  C   UNL     1       2.598   1.256  -6.430  1.00  0.00     0.008 C 
ATOM     10  C   UNL     1       0.124   1.122  -6.887  1.00  0.00     0.008 C 
ENDBRANCH   5   8
ENDBRANCH   4   5
ENDBRANCH   1   3
BRANCH   1  11
ATOM     11  C   UNL     1       5.007   5.206  -5.829  1.00  0.00     0.002 C 
ATOM     12  C   UNL     1       5.182   6.566  -5.160  1.00  0.00     0.005 C 
ATOM     13  C   UNL     1       6.148   4.309  -5.240  1.00  0.00    -0.026 C 
ATOM     14  C   UNL     1       5.552   6.209  -3.733  1.00  0.00     0.005 C 
ATOM     15  C   UNL     1       6.475   4.985  -3.865  1.00  0.00    -0.001 C 
ATOM     16  C   UNL     1       5.647   2.855  -5.069  1.00  0.00     0.007 C 
ATOM     17  C   UNL     1       7.420   4.304  -6.128  1.00  0.00     0.012 C 
ATOM     18  C   UNL     1       6.560   4.039  -2.621  1.00  0.00    -0.004 C 
ATOM     19  C   UNL     1       6.535   1.979  -4.165  1.00  0.00     0.005 C 
ATOM     20  C   UNL     1       7.282   2.718  -3.004  1.00  0.00    -0.001 C 
ATOM     21  C   UNL     1       5.246   3.737  -1.867  1.00  0.00     0.004 C 
ATOM     22  C   UNL     1       7.571   1.786  -1.754  1.00  0.00    -0.026 C 
ATOM     23  C   UNL     1       5.525   2.907  -0.611  1.00  0.00     0.004 C 
ATOM     24  C   UNL     1       6.260   1.579  -0.918  1.00  0.00    -0.002 C 
ATOM     25  C   UNL     1       8.678   2.426  -0.849  1.00  0.00     0.010 C 
ATOM     26  C   UNL     1       8.112   0.413  -2.263  1.00  0.00     0.012 C 
ATOM     27  C   UNL     1       6.528   0.797   0.393  1.00  0.00     0.036 C 
ATOM     28  C   UNL     1       8.935   1.659   0.461  1.00  0.00     0.032 C 
ATOM     29  C   UNL     1       7.638   1.432   1.258  1.00  0.00     0.114 C 
BRANCH  29  30
ATOM     30  O   UNL     1       7.893   0.640   2.392  1.00  0.00    -0.393 OA
ATOM     31  H   UNL     1       7.527  -0.267   2.216  1.00  0.00     0.210 HD
ENDBRANCH  29  30
ENDBRANCH   1  11
TORSDOF 6
ENDMDL
