MODEL 1
REMARK VINA RESULT:    -6.678      0.000      0.000
REMARK INTER + INTRA:          -8.372
REMARK INTER:                  -8.044
REMARK INTRA:                  -0.328
REMARK UNBOUND:                -0.328
REMARK SMILES O=c1c(O)c(-c2ccc(O)c(O)c2)oc2cc(O)cc(O)c12
REMARK SMILES IDX 5 1 3 2 2 3 1 4 22 5 20 6 19 7 17 8 16 9 15 10 14 11 6 12
REMARK SMILES IDX 7 13 8 14 9 15 13 16 11 17 10 18 12 20 4 22 21 24 18 26
REMARK H PARENT 10 19 12 21 4 23 21 25 18 27
REMARK Flexibility Score: inf
ROOT
ATOM      1  C   UNL     1      -9.267   8.856   6.154  1.00  0.00     0.180 A 
ATOM      2  C   UNL     1     -10.531   9.370   5.814  1.00  0.00     0.208 A 
ATOM      3  C   UNL     1     -11.629   8.497   5.762  1.00  0.00     0.238 A 
ATOM      4  O   UNL     1     -12.767   8.972   5.509  1.00  0.00    -0.285 OA
ATOM      5  C   UNL     1     -11.448   7.119   6.033  1.00  0.00     0.111 A 
ATOM      6  C   UNL     1     -12.483   6.138   5.969  1.00  0.00     0.134 A 
ATOM      7  C   UNL     1     -12.217   4.827   6.385  1.00  0.00     0.093 A 
ATOM      8  C   UNL     1     -10.938   4.448   6.800  1.00  0.00     0.123 A 
ATOM      9  C   UNL     1      -9.907   5.385   6.808  1.00  0.00     0.094 A 
ATOM     10  C   UNL     1     -10.150   6.709   6.434  1.00  0.00     0.146 A 
ATOM     11  O   UNL     1      -9.142   7.572   6.468  1.00  0.00    -0.452 OA
ENDROOT
BRANCH   1  12
ATOM     12  C   UNL     1      -8.058   9.709   6.206  1.00  0.00     0.025 A 
ATOM     13  C   UNL     1      -7.312   9.992   5.048  1.00  0.00     0.016 A 
ATOM     14  C   UNL     1      -6.160  10.779   5.125  1.00  0.00     0.051 A 
ATOM     15  C   UNL     1      -5.729  11.284   6.360  1.00  0.00     0.157 A 
ATOM     16  C   UNL     1      -7.610  10.200   7.443  1.00  0.00     0.062 A 
ATOM     17  C   UNL     1      -6.456  10.989   7.524  1.00  0.00     0.158 A 
BRANCH  15  18
ATOM     18  O   UNL     1      -4.580  12.070   6.432  1.00  0.00    -0.504 OA
ATOM     19  H   UNL     1      -4.615  13.032   6.748  1.00  0.00     0.293 HD
ENDBRANCH  15  18
BRANCH  17  20
ATOM     20  O   UNL     1      -6.050  11.469   8.769  1.00  0.00    -0.504 OA
ATOM     21  H   UNL     1      -5.245  12.074   8.875  1.00  0.00     0.293 HD
ENDBRANCH  17  20
ENDBRANCH   1  12
BRANCH   2  22
ATOM     22  O   UNL     1     -10.692  10.737   5.571  1.00  0.00    -0.502 OA
ATOM     23  H   UNL     1     -11.550  11.230   5.787  1.00  0.00     0.293 HD
ENDBRANCH   2  22
BRANCH   6  24
ATOM     24  O   UNL     1     -13.768   6.390   5.483  1.00  0.00    -0.507 OA
ATOM     25  H   UNL     1     -14.264   7.261   5.593  1.00  0.00     0.293 HD
ENDBRANCH   6  24
BRANCH   8  26
ATOM     26  O   UNL     1     -10.679   3.137   7.197  1.00  0.00    -0.508 OA
ATOM     27  H   UNL     1      -9.823   2.664   6.934  1.00  0.00     0.293 HD
ENDBRANCH   8  26
TORSDOF 6
ENDMDL
MODEL 2
REMARK VINA RESULT:    -6.605      1.526      6.693
REMARK INTER + INTRA:          -8.284
REMARK INTER:                  -7.989
REMARK INTRA:                  -0.295
REMARK UNBOUND:                -0.328
REMARK SMILES O=c1c(O)c(-c2ccc(O)c(O)c2)oc2cc(O)cc(O)c12
REMARK SMILES IDX 5 1 3 2 2 3 1 4 22 5 20 6 19 7 17 8 16 9 15 10 14 11 6 12
REMARK SMILES IDX 7 13 8 14 9 15 13 16 11 17 10 18 12 20 4 22 21 24 18 26
REMARK H PARENT 10 19 12 21 4 23 21 25 18 27
REMARK Flexibility Score: inf
ROOT
ATOM      1  C   UNL     1      -9.701   7.627   6.662  1.00  0.00     0.180 A 
ATOM      2  C   UNL     1     -10.408   8.548   5.869  1.00  0.00     0.208 A 
ATOM      3  C   UNL     1      -9.736   9.675   5.372  1.00  0.00     0.238 A 
ATOM      4  O   UNL     1     -10.360  10.467   4.619  1.00  0.00    -0.285 OA
ATOM      5  C   UNL     1      -8.370   9.878   5.687  1.00  0.00     0.111 A 
ATOM      6  C   UNL     1      -7.601  11.006   5.270  1.00  0.00     0.134 A 
ATOM      7  C   UNL     1      -6.225  11.036   5.529  1.00  0.00     0.093 A 
ATOM      8  C   UNL     1      -5.603  10.011   6.247  1.00  0.00     0.123 A 
ATOM      9  C   UNL     1      -6.358   8.935   6.709  1.00  0.00     0.094 A 
ATOM     10  C   UNL     1      -7.726   8.858   6.434  1.00  0.00     0.146 A 
ATOM     11  O   UNL     1      -8.404   7.809   6.884  1.00  0.00    -0.452 OA
ENDROOT
BRANCH   1  12
ATOM     12  C   UNL     1     -10.346   6.427   7.242  1.00  0.00     0.025 A 
ATOM     13  C   UNL     1     -10.741   6.389   8.591  1.00  0.00     0.016 A 
ATOM     14  C   UNL     1     -11.327   5.238   9.124  1.00  0.00     0.051 A 
ATOM     15  C   UNL     1     -11.514   4.104   8.322  1.00  0.00     0.157 A 
ATOM     16  C   UNL     1     -10.517   5.281   6.449  1.00  0.00     0.062 A 
ATOM     17  C   UNL     1     -11.103   4.126   6.980  1.00  0.00     0.158 A 
BRANCH  15  18
ATOM     18  O   UNL     1     -12.099   2.957   8.857  1.00  0.00    -0.504 OA
ATOM     19  H   UNL     1     -11.551   2.134   9.076  1.00  0.00     0.293 HD
ENDBRANCH  15  18
BRANCH  17  20
ATOM     20  O   UNL     1     -11.269   3.011   6.157  1.00  0.00    -0.504 OA
ATOM     21  H   UNL     1     -12.126   2.843   5.645  1.00  0.00     0.293 HD
ENDBRANCH  17  20
ENDBRANCH   1  12
BRANCH   2  22
ATOM     22  O   UNL     1     -11.750   8.318   5.553  1.00  0.00    -0.502 OA
ATOM     23  H   UNL     1     -12.051   7.517   5.010  1.00  0.00     0.293 HD
ENDBRANCH   2  22
BRANCH   6  24
ATOM     24  O   UNL     1      -8.141  12.124   4.630  1.00  0.00    -0.507 OA
ATOM     25  H   UNL     1      -9.054  12.508   4.816  1.00  0.00     0.293 HD
ENDBRANCH   6  24
BRANCH   8  26
ATOM     26  O   UNL     1      -4.237  10.057   6.514  1.00  0.00    -0.508 OA
ATOM     27  H   UNL     1      -3.728  10.933   6.517  1.00  0.00     0.293 HD
ENDBRANCH   8  26
TORSDOF 6
ENDMDL
MODEL 3
REMARK VINA RESULT:    -5.592      2.517      6.639
REMARK INTER + INTRA:          -7.063
REMARK INTER:                  -6.777
REMARK INTRA:                  -0.286
REMARK UNBOUND:                -0.328
REMARK SMILES O=c1c(O)c(-c2ccc(O)c(O)c2)oc2cc(O)cc(O)c12
REMARK SMILES IDX 5 1 3 2 2 3 1 4 22 5 20 6 19 7 17 8 16 9 15 10 14 11 6 12
REMARK SMILES IDX 7 13 8 14 9 15 13 16 11 17 10 18 12 20 4 22 21 24 18 26
REMARK H PARENT 10 19 12 21 4 23 21 25 18 27
REMARK Flexibility Score: inf
ROOT
ATOM      1  C   UNL     1     -10.932   7.724   6.442  1.00  0.00     0.180 A 
ATOM      2  C   UNL     1      -9.733   8.388   6.126  1.00  0.00     0.208 A 
ATOM      3  C   UNL     1      -9.795   9.622   5.459  1.00  0.00     0.238 A 
ATOM      4  O   UNL     1      -8.721  10.236   5.227  1.00  0.00    -0.285 OA
ATOM      5  C   UNL     1     -11.051  10.169   5.103  1.00  0.00     0.111 A 
ATOM      6  C   UNL     1     -11.229  11.393   4.390  1.00  0.00     0.134 A 
ATOM      7  C   UNL     1     -12.520  11.903   4.207  1.00  0.00     0.093 A 
ATOM      8  C   UNL     1     -13.643  11.201   4.653  1.00  0.00     0.123 A 
ATOM      9  C   UNL     1     -13.482   9.977   5.297  1.00  0.00     0.094 A 
ATOM     10  C   UNL     1     -12.204   9.459   5.527  1.00  0.00     0.146 A 
ATOM     11  O   UNL     1     -12.096   8.294   6.154  1.00  0.00    -0.452 OA
ENDROOT
BRANCH   1  12
ATOM     12  C   UNL     1     -10.949   6.408   7.122  1.00  0.00     0.025 A 
ATOM     13  C   UNL     1     -10.737   6.299   8.508  1.00  0.00     0.016 A 
ATOM     14  C   UNL     1     -10.733   5.045   9.125  1.00  0.00     0.051 A 
ATOM     15  C   UNL     1     -10.928   3.883   8.366  1.00  0.00     0.157 A 
ATOM     16  C   UNL     1     -11.122   5.239   6.364  1.00  0.00     0.062 A 
ATOM     17  C   UNL     1     -11.120   3.982   6.979  1.00  0.00     0.158 A 
BRANCH  15  18
ATOM     18  O   UNL     1     -10.925   2.634   8.985  1.00  0.00    -0.504 OA
ATOM     19  H   UNL     1     -11.554   1.895   8.693  1.00  0.00     0.293 HD
ENDBRANCH  15  18
BRANCH  17  20
ATOM     20  O   UNL     1     -11.309   2.844   6.194  1.00  0.00    -0.504 OA
ATOM     21  H   UNL     1     -11.478   1.932   6.601  1.00  0.00     0.293 HD
ENDBRANCH  17  20
ENDBRANCH   1  12
BRANCH   2  22
ATOM     22  O   UNL     1      -8.505   7.840   6.506  1.00  0.00    -0.502 OA
ATOM     23  H   UNL     1      -7.965   8.204   7.282  1.00  0.00     0.293 HD
ENDBRANCH   2  22
BRANCH   6  24
ATOM     24  O   UNL     1     -10.182  12.125   3.823  1.00  0.00    -0.507 OA
ATOM     25  H   UNL     1      -9.336  12.385   4.305  1.00  0.00     0.293 HD
ENDBRANCH   6  24
BRANCH   8  26
ATOM     26  O   UNL     1     -14.925  11.709   4.452  1.00  0.00    -0.508 OA
ATOM     27  H   UNL     1     -15.620  11.699   5.189  1.00  0.00     0.293 HD
ENDBRANCH   8  26
TORSDOF 6
ENDMDL
MODEL 4
REMARK VINA RESULT:    -5.367      1.299      2.913
REMARK INTER + INTRA:          -6.792
REMARK INTER:                  -6.556
REMARK INTRA:                  -0.236
REMARK UNBOUND:                -0.328
REMARK SMILES O=c1c(O)c(-c2ccc(O)c(O)c2)oc2cc(O)cc(O)c12
REMARK SMILES IDX 5 1 3 2 2 3 1 4 22 5 20 6 19 7 17 8 16 9 15 10 14 11 6 12
REMARK SMILES IDX 7 13 8 14 9 15 13 16 11 17 10 18 12 20 4 22 21 24 18 26
REMARK H PARENT 10 19 12 21 4 23 21 25 18 27
REMARK Flexibility Score: inf
ROOT
ATOM      1  C   UNL     1      -9.437   8.193   6.126  1.00  0.00     0.180 A 
ATOM      2  C   UNL     1      -9.242   6.879   6.586  1.00  0.00     0.208 A 
ATOM      3  C   UNL     1     -10.318   5.979   6.550  1.00  0.00     0.238 A 
ATOM      4  O   UNL     1     -10.123   4.789   6.912  1.00  0.00    -0.285 OA
ATOM      5  C   UNL     1     -11.580   6.407   6.071  1.00  0.00     0.111 A 
ATOM      6  C   UNL     1     -12.750   5.591   6.029  1.00  0.00     0.134 A 
ATOM      7  C   UNL     1     -13.910   6.080   5.413  1.00  0.00     0.093 A 
ATOM      8  C   UNL     1     -13.961   7.378   4.899  1.00  0.00     0.123 A 
ATOM      9  C   UNL     1     -12.842   8.202   4.990  1.00  0.00     0.094 A 
ATOM     10  C   UNL     1     -11.659   7.731   5.565  1.00  0.00     0.146 A 
ATOM     11  O   UNL     1     -10.613   8.546   5.621  1.00  0.00    -0.452 OA
ENDROOT
BRANCH   1  12
ATOM     12  C   UNL     1      -8.357   9.207   6.154  1.00  0.00     0.025 A 
ATOM     13  C   UNL     1      -7.704   9.612   4.977  1.00  0.00     0.016 A 
ATOM     14  C   UNL     1      -6.672  10.553   5.029  1.00  0.00     0.051 A 
ATOM     15  C   UNL     1      -6.268  11.092   6.259  1.00  0.00     0.157 A 
ATOM     16  C   UNL     1      -7.935   9.735   7.385  1.00  0.00     0.062 A 
ATOM     17  C   UNL     1      -6.902  10.677   7.441  1.00  0.00     0.158 A 
BRANCH  15  18
ATOM     18  O   UNL     1      -5.240  12.031   6.308  1.00  0.00    -0.504 OA
ATOM     19  H   UNL     1      -4.540  12.015   7.041  1.00  0.00     0.293 HD
ENDBRANCH  15  18
BRANCH  17  20
ATOM     20  O   UNL     1      -6.519  11.189   8.682  1.00  0.00    -0.504 OA
ATOM     21  H   UNL     1      -5.715  10.833   9.185  1.00  0.00     0.293 HD
ENDBRANCH  17  20
ENDBRANCH   1  12
BRANCH   2  22
ATOM     22  O   UNL     1      -7.983   6.471   7.033  1.00  0.00    -0.502 OA
ATOM     23  H   UNL     1      -7.133   6.967   6.793  1.00  0.00     0.293 HD
ENDBRANCH   2  22
BRANCH   6  24
ATOM     24  O   UNL     1     -12.834   4.316   6.595  1.00  0.00    -0.507 OA
ATOM     25  H   UNL     1     -12.498   4.072   7.514  1.00  0.00     0.293 HD
ENDBRANCH   6  24
BRANCH   8  26
ATOM     26  O   UNL     1     -15.125   7.861   4.303  1.00  0.00    -0.508 OA
ATOM     27  H   UNL     1     -15.594   8.688   4.652  1.00  0.00     0.293 HD
ENDBRANCH   8  26
TORSDOF 6
ENDMDL
MODEL 5
REMARK VINA RESULT:    -4.766     16.814     18.486
REMARK INTER + INTRA:          -6.069
REMARK INTER:                  -6.513
REMARK INTRA:                   0.444
REMARK UNBOUND:                -0.328
REMARK SMILES O=c1c(O)c(-c2ccc(O)c(O)c2)oc2cc(O)cc(O)c12
REMARK SMILES IDX 5 1 3 2 2 3 1 4 22 5 20 6 19 7 17 8 16 9 15 10 14 11 6 12
REMARK SMILES IDX 7 13 8 14 9 15 13 16 11 17 10 18 12 20 4 22 21 24 18 26
REMARK H PARENT 10 19 12 21 4 23 21 25 18 27
REMARK Flexibility Score: inf
ROOT
ATOM      1  C   UNL     1     -11.927  -0.248  -9.375  1.00  0.00     0.180 A 
ATOM      2  C   UNL     1     -12.807  -1.131 -10.025  1.00  0.00     0.208 A 
ATOM      3  C   UNL     1     -12.462  -2.489 -10.119  1.00  0.00     0.238 A 
ATOM      4  O   UNL     1     -13.278  -3.283 -10.655  1.00  0.00    -0.285 OA
ATOM      5  C   UNL     1     -11.235  -2.944  -9.578  1.00  0.00     0.111 A 
ATOM      6  C   UNL     1     -10.766  -4.290  -9.653  1.00  0.00     0.134 A 
ATOM      7  C   UNL     1      -9.600  -4.653  -8.968  1.00  0.00     0.093 A 
ATOM      8  C   UNL     1      -8.850  -3.705  -8.267  1.00  0.00     0.123 A 
ATOM      9  C   UNL     1      -9.268  -2.377  -8.239  1.00  0.00     0.094 A 
ATOM     10  C   UNL     1     -10.448  -1.991  -8.881  1.00  0.00     0.146 A 
ATOM     11  O   UNL     1     -10.815  -0.717  -8.819  1.00  0.00    -0.452 OA
ENDROOT
BRANCH   1  12
ATOM     12  C   UNL     1     -12.209   1.201  -9.256  1.00  0.00     0.025 A 
ATOM     13  C   UNL     1     -13.475   1.727  -9.569  1.00  0.00     0.016 A 
ATOM     14  C   UNL     1     -13.712   3.101  -9.472  1.00  0.00     0.051 A 
ATOM     15  C   UNL     1     -12.686   3.970  -9.076  1.00  0.00     0.157 A 
ATOM     16  C   UNL     1     -11.179   2.078  -8.880  1.00  0.00     0.062 A 
ATOM     17  C   UNL     1     -11.413   3.455  -8.782  1.00  0.00     0.158 A 
BRANCH  15  18
ATOM     18  O   UNL     1     -12.926   5.339  -8.979  1.00  0.00    -0.504 OA
ATOM     19  H   UNL     1     -12.484   6.001  -9.605  1.00  0.00     0.293 HD
ENDBRANCH  15  18
BRANCH  17  20
ATOM     20  O   UNL     1     -10.369   4.293  -8.392  1.00  0.00    -0.504 OA
ATOM     21  H   UNL     1     -10.046   4.339  -7.433  1.00  0.00     0.293 HD
ENDBRANCH  17  20
ENDBRANCH   1  12
BRANCH   2  22
ATOM     22  O   UNL     1     -14.022  -0.665 -10.533  1.00  0.00    -0.502 OA
ATOM     23  H   UNL     1     -14.579  -1.201 -11.188  1.00  0.00     0.293 HD
ENDBRANCH   2  22
BRANCH   6  24
ATOM     24  O   UNL     1     -11.388  -5.293 -10.402  1.00  0.00    -0.507 OA
ATOM     25  H   UNL     1     -12.337  -5.606 -10.267  1.00  0.00     0.293 HD
ENDBRANCH   6  24
BRANCH   8  26
ATOM     26  O   UNL     1      -7.682  -4.073  -7.602  1.00  0.00    -0.508 OA
ATOM     27  H   UNL     1      -6.887  -4.454  -8.100  1.00  0.00     0.293 HD
ENDBRANCH   8  26
TORSDOF 6
ENDMDL
MODEL 6
REMARK VINA RESULT:    -4.729     17.327     19.638
REMARK INTER + INTRA:          -6.024
REMARK INTER:                  -6.323
REMARK INTRA:                   0.298
REMARK UNBOUND:                -0.328
REMARK SMILES O=c1c(O)c(-c2ccc(O)c(O)c2)oc2cc(O)cc(O)c12
REMARK SMILES IDX 5 1 3 2 2 3 1 4 22 5 20 6 19 7 17 8 16 9 15 10 14 11 6 12
REMARK SMILES IDX 7 13 8 14 9 15 13 16 11 17 10 18 12 20 4 22 21 24 18 26
REMARK H PARENT 10 19 12 21 4 23 21 25 18 27
REMARK Flexibility Score: inf
ROOT
ATOM      1  C   UNL     1     -11.887  -1.862  -9.677  1.00  0.00     0.180 A 
ATOM      2  C   UNL     1     -13.115  -1.692 -10.339  1.00  0.00     0.208 A 
ATOM      3  C   UNL     1     -13.655  -0.401 -10.452  1.00  0.00     0.238 A 
ATOM      4  O   UNL     1     -14.728  -0.249 -11.092  1.00  0.00    -0.285 OA
ATOM      5  C   UNL     1     -12.969   0.702  -9.887  1.00  0.00     0.111 A 
ATOM      6  C   UNL     1     -13.444   2.048  -9.907  1.00  0.00     0.134 A 
ATOM      7  C   UNL     1     -12.620   3.077  -9.434  1.00  0.00     0.093 A 
ATOM      8  C   UNL     1     -11.366   2.801  -8.882  1.00  0.00     0.123 A 
ATOM      9  C   UNL     1     -10.920   1.484  -8.804  1.00  0.00     0.094 A 
ATOM     10  C   UNL     1     -11.703   0.439  -9.301  1.00  0.00     0.146 A 
ATOM     11  O   UNL     1     -11.235  -0.800  -9.217  1.00  0.00    -0.452 OA
ENDROOT
BRANCH   1  12
ATOM     12  C   UNL     1     -11.266  -3.194  -9.497  1.00  0.00     0.025 A 
ATOM     13  C   UNL     1     -12.042  -4.367  -9.484  1.00  0.00     0.016 A 
ATOM     14  C   UNL     1     -11.438  -5.611  -9.288  1.00  0.00     0.051 A 
ATOM     15  C   UNL     1     -10.053  -5.702  -9.090  1.00  0.00     0.157 A 
ATOM     16  C   UNL     1      -9.882  -3.289  -9.278  1.00  0.00     0.062 A 
ATOM     17  C   UNL     1      -9.273  -4.534  -9.082  1.00  0.00     0.158 A 
BRANCH  15  18
ATOM     18  O   UNL     1      -9.453  -6.945  -8.897  1.00  0.00    -0.504 OA
ATOM     19  H   UNL     1      -9.344  -7.606  -9.658  1.00  0.00     0.293 HD
ENDBRANCH  15  18
BRANCH  17  20
ATOM     20  O   UNL     1      -7.894  -4.589  -8.880  1.00  0.00    -0.504 OA
ATOM     21  H   UNL     1      -7.308  -5.263  -9.358  1.00  0.00     0.293 HD
ENDBRANCH  17  20
ENDBRANCH   1  12
BRANCH   2  22
ATOM     22  O   UNL     1     -13.765  -2.791 -10.907  1.00  0.00    -0.502 OA
ATOM     23  H   UNL     1     -13.411  -3.736 -10.822  1.00  0.00     0.293 HD
ENDBRANCH   2  22
BRANCH   6  24
ATOM     24  O   UNL     1     -14.715   2.420 -10.351  1.00  0.00    -0.507 OA
ATOM     25  H   UNL     1     -14.965   3.344 -10.669  1.00  0.00     0.293 HD
ENDBRANCH   6  24
BRANCH   8  26
ATOM     26  O   UNL     1     -10.560   3.830  -8.399  1.00  0.00    -0.508 OA
ATOM     27  H   UNL     1     -10.140   4.510  -9.021  1.00  0.00     0.293 HD
ENDBRANCH   8  26
TORSDOF 6
ENDMDL
MODEL 7
REMARK VINA RESULT:    -4.727      1.942      6.561
REMARK INTER + INTRA:          -6.022
REMARK INTER:                  -5.824
REMARK INTRA:                  -0.198
REMARK UNBOUND:                -0.328
REMARK SMILES O=c1c(O)c(-c2ccc(O)c(O)c2)oc2cc(O)cc(O)c12
REMARK SMILES IDX 5 1 3 2 2 3 1 4 22 5 20 6 19 7 17 8 16 9 15 10 14 11 6 12
REMARK SMILES IDX 7 13 8 14 9 15 13 16 11 17 10 18 12 20 4 22 21 24 18 26
REMARK H PARENT 10 19 12 21 4 23 21 25 18 27
REMARK Flexibility Score: inf
ROOT
ATOM      1  C   UNL     1     -11.253   7.533   6.448  1.00  0.00     0.180 A 
ATOM      2  C   UNL     1     -12.421   7.985   5.810  1.00  0.00     0.208 A 
ATOM      3  C   UNL     1     -12.423   9.256   5.215  1.00  0.00     0.238 A 
ATOM      4  O   UNL     1     -13.455   9.634   4.600  1.00  0.00    -0.285 OA
ATOM      5  C   UNL     1     -11.264  10.067   5.279  1.00  0.00     0.111 A 
ATOM      6  C   UNL     1     -11.168  11.388   4.746  1.00  0.00     0.134 A 
ATOM      7  C   UNL     1      -9.931  12.045   4.751  1.00  0.00     0.093 A 
ATOM      8  C   UNL     1      -8.803  11.456   5.328  1.00  0.00     0.123 A 
ATOM      9  C   UNL     1      -8.902  10.192   5.905  1.00  0.00     0.094 A 
ATOM     10  C   UNL     1     -10.113   9.495   5.883  1.00  0.00     0.146 A 
ATOM     11  O   UNL     1     -10.160   8.288   6.433  1.00  0.00    -0.452 OA
ENDROOT
BRANCH   1  12
ATOM     12  C   UNL     1     -11.180   6.215   7.119  1.00  0.00     0.025 A 
ATOM     13  C   UNL     1     -11.047   6.111   8.515  1.00  0.00     0.016 A 
ATOM     14  C   UNL     1     -10.956   4.857   9.125  1.00  0.00     0.051 A 
ATOM     15  C   UNL     1     -10.984   3.690   8.349  1.00  0.00     0.157 A 
ATOM     16  C   UNL     1     -11.186   5.043   6.345  1.00  0.00     0.062 A 
ATOM     17  C   UNL     1     -11.096   3.785   6.953  1.00  0.00     0.158 A 
BRANCH  15  18
ATOM     18  O   UNL     1     -10.895   2.441   8.961  1.00  0.00    -0.504 OA
ATOM     19  H   UNL     1     -10.767   1.593   8.421  1.00  0.00     0.293 HD
ENDBRANCH  15  18
BRANCH  17  20
ATOM     20  O   UNL     1     -11.118   2.643   6.152  1.00  0.00    -0.504 OA
ATOM     21  H   UNL     1     -10.393   2.449   5.472  1.00  0.00     0.293 HD
ENDBRANCH  17  20
ENDBRANCH   1  12
BRANCH   2  22
ATOM     22  O   UNL     1     -13.547   7.161   5.740  1.00  0.00    -0.502 OA
ATOM     23  H   UNL     1     -14.343   7.273   6.357  1.00  0.00     0.293 HD
ENDBRANCH   2  22
BRANCH   6  24
ATOM     24  O   UNL     1     -12.253  12.102   4.230  1.00  0.00    -0.507 OA
ATOM     25  H   UNL     1     -12.792  12.779   4.746  1.00  0.00     0.293 HD
ENDBRANCH   6  24
BRANCH   8  26
ATOM     26  O   UNL     1      -7.581  12.125   5.343  1.00  0.00    -0.508 OA
ATOM     27  H   UNL     1      -7.278  12.690   4.559  1.00  0.00     0.293 HD
ENDBRANCH   8  26
TORSDOF 6
ENDMDL
MODEL 8
REMARK VINA RESULT:    -4.694     18.167     20.185
REMARK INTER + INTRA:          -5.982
REMARK INTER:                  -6.354
REMARK INTRA:                   0.372
REMARK UNBOUND:                -0.328
REMARK SMILES O=c1c(O)c(-c2ccc(O)c(O)c2)oc2cc(O)cc(O)c12
REMARK SMILES IDX 5 1 3 2 2 3 1 4 22 5 20 6 19 7 17 8 16 9 15 10 14 11 6 12
REMARK SMILES IDX 7 13 8 14 9 15 13 16 11 17 10 18 12 20 4 22 21 24 18 26
REMARK H PARENT 10 19 12 21 4 23 21 25 18 27
REMARK Flexibility Score: inf
ROOT
ATOM      1  C   UNL     1     -12.827  -2.536  -9.846  1.00  0.00     0.180 A 
ATOM      2  C   UNL     1     -13.984  -3.140 -10.370  1.00  0.00     0.208 A 
ATOM      3  C   UNL     1     -14.065  -4.541 -10.403  1.00  0.00     0.238 A 
ATOM      4  O   UNL     1     -15.125  -5.074 -10.823  1.00  0.00    -0.285 OA
ATOM      5  C   UNL     1     -12.983  -5.322  -9.928  1.00  0.00     0.111 A 
ATOM      6  C   UNL     1     -12.942  -6.748  -9.951  1.00  0.00     0.134 A 
ATOM      7  C   UNL     1     -11.877  -7.417  -9.335  1.00  0.00     0.093 A 
ATOM      8  C   UNL     1     -10.821  -6.711  -8.754  1.00  0.00     0.123 A 
ATOM      9  C   UNL     1     -10.824  -5.318  -8.779  1.00  0.00     0.094 A 
ATOM     10  C   UNL     1     -11.890  -4.622  -9.354  1.00  0.00     0.146 A 
ATOM     11  O   UNL     1     -11.858  -3.295  -9.347  1.00  0.00    -0.452 OA
ENDROOT
BRANCH   1  12
ATOM     12  C   UNL     1     -12.657  -1.066  -9.799  1.00  0.00     0.025 A 
ATOM     13  C   UNL     1     -11.379  -0.479  -9.767  1.00  0.00     0.016 A 
ATOM     14  C   UNL     1     -11.242   0.910  -9.699  1.00  0.00     0.051 A 
ATOM     15  C   UNL     1     -12.377   1.731  -9.649  1.00  0.00     0.157 A 
ATOM     16  C   UNL     1     -13.790  -0.240  -9.728  1.00  0.00     0.062 A 
ATOM     17  C   UNL     1     -13.656   1.152  -9.660  1.00  0.00     0.158 A 
BRANCH  15  18
ATOM     18  O   UNL     1     -12.236   3.116  -9.583  1.00  0.00    -0.504 OA
ATOM     19  H   UNL     1     -12.318   3.699 -10.408  1.00  0.00     0.293 HD
ENDBRANCH  15  18
BRANCH  17  20
ATOM     20  O   UNL     1     -14.805   1.941  -9.603  1.00  0.00    -0.504 OA
ATOM     21  H   UNL     1     -15.383   1.989  -8.773  1.00  0.00     0.293 HD
ENDBRANCH  17  20
ENDBRANCH   1  12
BRANCH   2  22
ATOM     22  O   UNL     1     -15.049  -2.351 -10.813  1.00  0.00    -0.502 OA
ATOM     23  H   UNL     1     -15.716  -1.931 -10.177  1.00  0.00     0.293 HD
ENDBRANCH   2  22
BRANCH   6  24
ATOM     24  O   UNL     1     -13.898  -7.546 -10.585  1.00  0.00    -0.507 OA
ATOM     25  H   UNL     1     -14.218  -7.416 -11.532  1.00  0.00     0.293 HD
ENDBRANCH   6  24
BRANCH   8  26
ATOM     26  O   UNL     1      -9.758  -7.385  -8.157  1.00  0.00    -0.508 OA
ATOM     27  H   UNL     1      -9.766  -7.620  -7.172  1.00  0.00     0.293 HD
ENDBRANCH   8  26
TORSDOF 6
ENDMDL
MODEL 9
REMARK VINA RESULT:    -4.126     19.306     19.936
REMARK INTER + INTRA:          -5.297
REMARK INTER:                  -5.454
REMARK INTRA:                   0.157
REMARK UNBOUND:                -0.328
REMARK SMILES O=c1c(O)c(-c2ccc(O)c(O)c2)oc2cc(O)cc(O)c12
REMARK SMILES IDX 5 1 3 2 2 3 1 4 22 5 20 6 19 7 17 8 16 9 15 10 14 11 6 12
REMARK SMILES IDX 7 13 8 14 9 15 13 16 11 17 10 18 12 20 4 22 21 24 18 26
REMARK H PARENT 10 19 12 21 4 23 21 25 18 27
REMARK Flexibility Score: inf
ROOT
ATOM      1  C   UNL     1     -11.619  -4.756  -8.408  1.00  0.00     0.180 A 
ATOM      2  C   UNL     1     -12.929  -5.029  -8.838  1.00  0.00     0.208 A 
ATOM      3  C   UNL     1     -13.706  -5.948  -8.114  1.00  0.00     0.238 A 
ATOM      4  O   UNL     1     -14.895  -6.147  -8.472  1.00  0.00    -0.285 OA
ATOM      5  C   UNL     1     -13.158  -6.595  -6.979  1.00  0.00     0.111 A 
ATOM      6  C   UNL     1     -13.841  -7.573  -6.196  1.00  0.00     0.134 A 
ATOM      7  C   UNL     1     -13.250  -8.050  -5.019  1.00  0.00     0.093 A 
ATOM      8  C   UNL     1     -11.973  -7.633  -4.633  1.00  0.00     0.123 A 
ATOM      9  C   UNL     1     -11.275  -6.723  -5.424  1.00  0.00     0.094 A 
ATOM     10  C   UNL     1     -11.853  -6.202  -6.584  1.00  0.00     0.146 A 
ATOM     11  O   UNL     1     -11.156  -5.329  -7.302  1.00  0.00    -0.452 OA
ENDROOT
BRANCH   1  12
ATOM     12  C   UNL     1     -10.730  -3.819  -9.131  1.00  0.00     0.025 A 
ATOM     13  C   UNL     1      -9.365  -4.100  -9.316  1.00  0.00     0.016 A 
ATOM     14  C   UNL     1      -8.539  -3.190  -9.981  1.00  0.00     0.051 A 
ATOM     15  C   UNL     1      -9.062  -1.981 -10.460  1.00  0.00     0.157 A 
ATOM     16  C   UNL     1     -11.244  -2.597  -9.595  1.00  0.00     0.062 A 
ATOM     17  C   UNL     1     -10.420  -1.683 -10.263  1.00  0.00     0.158 A 
BRANCH  15  18
ATOM     18  O   UNL     1      -8.237  -1.076 -11.125  1.00  0.00    -0.504 OA
ATOM     19  H   UNL     1      -8.541  -0.131 -11.330  1.00  0.00     0.293 HD
ENDBRANCH  15  18
BRANCH  17  20
ATOM     20  O   UNL     1     -10.969  -0.485 -10.720  1.00  0.00    -0.504 OA
ATOM     21  H   UNL     1     -11.969  -0.320 -10.726  1.00  0.00     0.293 HD
ENDBRANCH  17  20
ENDBRANCH   1  12
BRANCH   2  22
ATOM     22  O   UNL     1     -13.458  -4.363  -9.947  1.00  0.00    -0.502 OA
ATOM     23  H   UNL     1     -14.447  -4.369 -10.164  1.00  0.00     0.293 HD
ENDBRANCH   2  22
BRANCH   6  24
ATOM     24  O   UNL     1     -15.077  -8.125  -6.541  1.00  0.00    -0.507 OA
ATOM     25  H   UNL     1     -15.687  -8.614  -5.904  1.00  0.00     0.293 HD
ENDBRANCH   6  24
BRANCH   8  26
ATOM     26  O   UNL     1     -11.386  -8.125  -3.469  1.00  0.00    -0.508 OA
ATOM     27  H   UNL     1     -11.891  -8.149  -2.591  1.00  0.00     0.293 HD
ENDBRANCH   8  26
TORSDOF 6
ENDMDL
