MODEL 1
REMARK VINA RESULT:    -3.644      0.000      0.000
REMARK INTER + INTRA:          -3.751
REMARK INTER:                  -3.751
REMARK INTRA:                   0.000
REMARK UNBOUND:                 0.000
REMARK SMILES Nc1ncnc2nc[nH]c12
REMARK SMILES IDX 8 1 7 2 6 3 5 4 4 5 3 6 2 7 10 8 9 9 1 11
REMARK H PARENT 9 10 1 12 1 13
REMARK Flexibility Score: inf
ROOT
ATOM      1  C   UNL     1      19.023  -4.869  14.682  1.00  0.00     0.199 A 
ATOM      2  N   UNL     1      20.263  -4.849  14.119  1.00  0.00    -0.217 NA
ATOM      3  C   UNL     1      20.981  -4.178  15.036  1.00  0.00     0.182 A 
ATOM      4  N   UNL     1      22.299  -3.877  14.966  1.00  0.00    -0.215 NA
ATOM      5  C   UNL     1      22.857  -3.183  16.005  1.00  0.00     0.226 A 
ATOM      6  N   UNL     1      22.096  -2.808  17.081  1.00  0.00    -0.217 NA
ATOM      7  C   UNL     1      20.765  -3.112  17.153  1.00  0.00     0.152 A 
ATOM      8  C   UNL     1      20.211  -3.818  16.089  1.00  0.00     0.127 A 
ATOM      9  N   UNL     1      18.960  -4.246  15.886  1.00  0.00    -0.340 N 
ATOM     10  H   UNL     1      18.123  -4.136  16.501  1.00  0.00     0.168 HD
ENDROOT
BRANCH   7  11
ATOM     11  N   UNL     1      19.991  -2.710  18.284  1.00  0.00    -0.382 N 
ATOM     12  H   UNL     1      20.444  -2.359  19.156  1.00  0.00     0.158 HD
ATOM     13  H   UNL     1      18.949  -2.765  18.250  1.00  0.00     0.158 HD
ENDBRANCH   7  11
TORSDOF 1
ENDMDL
MODEL 2
REMARK VINA RESULT:    -3.538      0.952      2.953
REMARK INTER + INTRA:          -3.641
REMARK INTER:                  -3.641
REMARK INTRA:                   0.000
REMARK UNBOUND:                 0.000
REMARK SMILES Nc1ncnc2nc[nH]c12
REMARK SMILES IDX 8 1 7 2 6 3 5 4 4 5 3 6 2 7 10 8 9 9 1 11
REMARK H PARENT 9 10 1 12 1 13
REMARK Flexibility Score: inf
ROOT
ATOM      1  C   UNL     1      20.727  -2.620  18.076  1.00  0.00     0.199 A 
ATOM      2  N   UNL     1      21.956  -2.682  17.494  1.00  0.00    -0.217 NA
ATOM      3  C   UNL     1      21.707  -3.388  16.378  1.00  0.00     0.182 A 
ATOM      4  N   UNL     1      22.606  -3.739  15.428  1.00  0.00    -0.215 NA
ATOM      5  C   UNL     1      22.161  -4.463  14.356  1.00  0.00     0.226 A 
ATOM      6  N   UNL     1      20.841  -4.819  14.256  1.00  0.00    -0.217 NA
ATOM      7  C   UNL     1      19.933  -4.466  15.214  1.00  0.00     0.152 A 
ATOM      8  C   UNL     1      20.400  -3.729  16.299  1.00  0.00     0.127 A 
ATOM      9  N   UNL     1      19.755  -3.251  17.370  1.00  0.00    -0.340 N 
ATOM     10  H   UNL     1      18.744  -3.335  17.615  1.00  0.00     0.168 HD
ENDROOT
BRANCH   7  11
ATOM     11  N   UNL     1      18.563  -4.848  15.089  1.00  0.00    -0.382 N 
ATOM     12  H   UNL     1      18.243  -5.812  15.328  1.00  0.00     0.158 HD
ATOM     13  H   UNL     1      17.856  -4.157  14.753  1.00  0.00     0.158 HD
ENDBRANCH   7  11
TORSDOF 1
ENDMDL
MODEL 3
REMARK VINA RESULT:    -3.450     13.248     14.697
REMARK INTER + INTRA:          -3.551
REMARK INTER:                  -3.551
REMARK INTRA:                   0.000
REMARK UNBOUND:                 0.000
REMARK SMILES Nc1ncnc2nc[nH]c12
REMARK SMILES IDX 8 1 7 2 6 3 5 4 4 5 3 6 2 7 10 8 9 9 1 11
REMARK H PARENT 9 10 1 12 1 13
REMARK Flexibility Score: inf
ROOT
ATOM      1  C   UNL     1      19.508 -17.853   6.940  1.00  0.00     0.199 A 
ATOM      2  N   UNL     1      20.841 -17.719   6.696  1.00  0.00    -0.217 NA
ATOM      3  C   UNL     1      21.217 -16.842   7.642  1.00  0.00     0.182 A 
ATOM      4  N   UNL     1      22.466 -16.360   7.845  1.00  0.00    -0.215 NA
ATOM      5  C   UNL     1      22.655 -15.469   8.866  1.00  0.00     0.226 A 
ATOM      6  N   UNL     1      21.603 -15.081   9.656  1.00  0.00    -0.217 NA
ATOM      7  C   UNL     1      20.343 -15.567   9.452  1.00  0.00     0.152 A 
ATOM      8  C   UNL     1      20.165 -16.473   8.409  1.00  0.00     0.127 A 
ATOM      9  N   UNL     1      19.066 -17.103   7.982  1.00  0.00    -0.340 N 
ATOM     10  H   UNL     1      18.092 -17.043   8.352  1.00  0.00     0.168 HD
ENDROOT
BRANCH   7  11
ATOM     11  N   UNL     1      19.262 -15.149  10.287  1.00  0.00    -0.382 N 
ATOM     12  H   UNL     1      19.282 -14.232  10.784  1.00  0.00     0.158 HD
ATOM     13  H   UNL     1      18.428 -15.765  10.410  1.00  0.00     0.158 HD
ENDBRANCH   7  11
TORSDOF 1
ENDMDL
MODEL 4
REMARK VINA RESULT:    -3.312     11.859     12.850
REMARK INTER + INTRA:          -3.409
REMARK INTER:                  -3.409
REMARK INTRA:                   0.000
REMARK UNBOUND:                 0.000
REMARK SMILES Nc1ncnc2nc[nH]c12
REMARK SMILES IDX 8 1 7 2 6 3 5 4 4 5 3 6 2 7 10 8 9 9 1 11
REMARK H PARENT 9 10 1 12 1 13
REMARK Flexibility Score: inf
ROOT
ATOM      1  C   UNL     1      15.194  -5.571   4.987  1.00  0.00     0.199 A 
ATOM      2  N   UNL     1      14.665  -6.734   4.516  1.00  0.00    -0.217 NA
ATOM      3  C   UNL     1      15.753  -7.514   4.401  1.00  0.00     0.182 A 
ATOM      4  N   UNL     1      15.784  -8.797   3.968  1.00  0.00    -0.215 NA
ATOM      5  C   UNL     1      16.994  -9.432   3.919  1.00  0.00     0.226 A 
ATOM      6  N   UNL     1      18.139  -8.780   4.301  1.00  0.00    -0.217 NA
ATOM      7  C   UNL     1      18.109  -7.486   4.738  1.00  0.00     0.152 A 
ATOM      8  C   UNL     1      16.870  -6.852   4.782  1.00  0.00     0.127 A 
ATOM      9  N   UNL     1      16.539  -5.612   5.159  1.00  0.00    -0.340 N 
ATOM     10  H   UNL     1      17.159  -4.847   5.507  1.00  0.00     0.168 HD
ENDROOT
BRANCH   7  11
ATOM     11  N   UNL     1      19.314  -6.826   5.130  1.00  0.00    -0.382 N 
ATOM     12  H   UNL     1      19.358  -5.789   5.231  1.00  0.00     0.158 HD
ATOM     13  H   UNL     1      20.176  -7.384   5.323  1.00  0.00     0.158 HD
ENDBRANCH   7  11
TORSDOF 1
ENDMDL
MODEL 5
REMARK VINA RESULT:    -3.200     13.240     14.794
REMARK INTER + INTRA:          -3.294
REMARK INTER:                  -3.294
REMARK INTRA:                   0.000
REMARK UNBOUND:                 0.000
REMARK SMILES Nc1ncnc2nc[nH]c12
REMARK SMILES IDX 8 1 7 2 6 3 5 4 4 5 3 6 2 7 10 8 9 9 1 11
REMARK H PARENT 9 10 1 12 1 13
REMARK Flexibility Score: inf
ROOT
ATOM      1  C   UNL     1      23.578 -14.602   8.705  1.00  0.00     0.199 A 
ATOM      2  N   UNL     1      23.739 -15.434   7.639  1.00  0.00    -0.217 NA
ATOM      3  C   UNL     1      22.537 -16.031   7.560  1.00  0.00     0.182 A 
ATOM      4  N   UNL     1      22.157 -16.964   6.656  1.00  0.00    -0.215 NA
ATOM      5  C   UNL     1      20.884 -17.458   6.736  1.00  0.00     0.226 A 
ATOM      6  N   UNL     1      20.024 -17.014   7.707  1.00  0.00    -0.217 NA
ATOM      7  C   UNL     1      20.406 -16.073   8.621  1.00  0.00     0.152 A 
ATOM      8  C   UNL     1      21.705 -15.579   8.527  1.00  0.00     0.127 A 
ATOM      9  N   UNL     1      22.346 -14.669   9.270  1.00  0.00    -0.340 N 
ATOM     10  H   UNL     1      21.993 -14.129  10.090  1.00  0.00     0.168 HD
ENDROOT
BRANCH   7  11
ATOM     11  N   UNL     1      19.494 -15.626   9.624  1.00  0.00    -0.382 N 
ATOM     12  H   UNL     1      19.380 -14.612   9.843  1.00  0.00     0.158 HD
ATOM     13  H   UNL     1      18.923 -16.319  10.157  1.00  0.00     0.158 HD
ENDBRANCH   7  11
TORSDOF 1
ENDMDL
MODEL 6
REMARK VINA RESULT:    -3.191      1.279      2.963
REMARK INTER + INTRA:          -3.284
REMARK INTER:                  -3.284
REMARK INTRA:                   0.000
REMARK UNBOUND:                 0.000
REMARK SMILES Nc1ncnc2nc[nH]c12
REMARK SMILES IDX 8 1 7 2 6 3 5 4 4 5 3 6 2 7 10 8 9 9 1 11
REMARK H PARENT 9 10 1 12 1 13
REMARK Flexibility Score: inf
ROOT
ATOM      1  C   UNL     1      23.257  -4.821  14.060  1.00  0.00     0.199 A 
ATOM      2  N   UNL     1      23.561  -3.874  14.989  1.00  0.00    -0.217 NA
ATOM      3  C   UNL     1      22.365  -3.629  15.549  1.00  0.00     0.182 A 
ATOM      4  N   UNL     1      22.104  -2.750  16.546  1.00  0.00    -0.215 NA
ATOM      5  C   UNL     1      20.814  -2.640  16.987  1.00  0.00     0.226 A 
ATOM      6  N   UNL     1      19.819  -3.401  16.429  1.00  0.00    -0.217 NA
ATOM      7  C   UNL     1      20.081  -4.288  15.423  1.00  0.00     0.152 A 
ATOM      8  C   UNL     1      21.398  -4.389  14.984  1.00  0.00     0.127 A 
ATOM      9  N   UNL     1      21.942  -5.157  14.033  1.00  0.00    -0.340 N 
ATOM     10  H   UNL     1      21.477  -5.855  13.411  1.00  0.00     0.168 HD
ENDROOT
BRANCH   7  11
ATOM     11  N   UNL     1      19.028  -5.070  14.856  1.00  0.00    -0.382 N 
ATOM     12  H   UNL     1      18.046  -4.989  15.198  1.00  0.00     0.158 HD
ATOM     13  H   UNL     1      19.234  -5.740  14.082  1.00  0.00     0.158 HD
ENDBRANCH   7  11
TORSDOF 1
ENDMDL
MODEL 7
REMARK VINA RESULT:    -3.185      0.932      2.900
REMARK INTER + INTRA:          -3.278
REMARK INTER:                  -3.278
REMARK INTRA:                   0.000
REMARK UNBOUND:                 0.000
REMARK SMILES Nc1ncnc2nc[nH]c12
REMARK SMILES IDX 8 1 7 2 6 3 5 4 4 5 3 6 2 7 10 8 9 9 1 11
REMARK H PARENT 9 10 1 12 1 13
REMARK Flexibility Score: inf
ROOT
ATOM      1  C   UNL     1      23.756  -4.016  15.574  1.00  0.00     0.199 A 
ATOM      2  N   UNL     1      23.170  -4.556  14.470  1.00  0.00    -0.217 NA
ATOM      3  C   UNL     1      21.864  -4.475  14.772  1.00  0.00     0.182 A 
ATOM      4  N   UNL     1      20.829  -4.882  13.998  1.00  0.00    -0.215 NA
ATOM      5  C   UNL     1      19.560  -4.715  14.480  1.00  0.00     0.226 A 
ATOM      6  N   UNL     1      19.351  -4.152  15.712  1.00  0.00    -0.217 NA
ATOM      7  C   UNL     1      20.393  -3.741  16.494  1.00  0.00     0.152 A 
ATOM      8  C   UNL     1      21.680  -3.917  15.991  1.00  0.00     0.127 A 
ATOM      9  N   UNL     1      22.870  -3.616  16.522  1.00  0.00    -0.340 N 
ATOM     10  H   UNL     1      23.083  -3.177  17.445  1.00  0.00     0.168 HD
ENDROOT
BRANCH   7  11
ATOM     11  N   UNL     1      20.151  -3.157  17.775  1.00  0.00    -0.382 N 
ATOM     12  H   UNL     1      19.211  -2.787  18.035  1.00  0.00     0.158 HD
ATOM     13  H   UNL     1      20.924  -3.094  18.475  1.00  0.00     0.158 HD
ENDBRANCH   7  11
TORSDOF 1
ENDMDL
MODEL 8
REMARK VINA RESULT:    -3.164     13.079     14.420
REMARK INTER + INTRA:          -3.257
REMARK INTER:                  -3.257
REMARK INTRA:                   0.000
REMARK UNBOUND:                 0.000
REMARK SMILES Nc1ncnc2nc[nH]c12
REMARK SMILES IDX 8 1 7 2 6 3 5 4 4 5 3 6 2 7 10 8 9 9 1 11
REMARK H PARENT 9 10 1 12 1 13
REMARK Flexibility Score: inf
ROOT
ATOM      1  C   UNL     1      20.963 -15.747   8.610  1.00  0.00     0.199 A 
ATOM      2  N   UNL     1      21.542 -16.750   7.893  1.00  0.00    -0.217 NA
ATOM      3  C   UNL     1      22.837 -16.389   7.894  1.00  0.00     0.182 A 
ATOM      4  N   UNL     1      23.861 -17.055   7.309  1.00  0.00    -0.215 NA
ATOM      5  C   UNL     1      25.118 -16.528   7.419  1.00  0.00     0.226 A 
ATOM      6  N   UNL     1      25.326 -15.358   8.104  1.00  0.00    -0.217 NA
ATOM      7  C   UNL     1      24.294 -14.686   8.694  1.00  0.00     0.152 A 
ATOM      8  C   UNL     1      23.020 -15.234   8.574  1.00  0.00     0.127 A 
ATOM      9  N   UNL     1      21.840 -14.805   9.039  1.00  0.00    -0.340 N 
ATOM     10  H   UNL     1      21.631 -13.952   9.602  1.00  0.00     0.168 HD
ENDROOT
BRANCH   7  11
ATOM     11  N   UNL     1      24.534 -13.469   9.402  1.00  0.00    -0.382 N 
ATOM     12  H   UNL     1      24.158 -12.558   9.061  1.00  0.00     0.158 HD
ATOM     13  H   UNL     1      25.097 -13.478  10.282  1.00  0.00     0.158 HD
ENDBRANCH   7  11
TORSDOF 1
ENDMDL
MODEL 9
REMARK VINA RESULT:    -3.085     11.809     12.874
REMARK INTER + INTRA:          -3.176
REMARK INTER:                  -3.176
REMARK INTRA:                   0.000
REMARK UNBOUND:                 0.000
REMARK SMILES Nc1ncnc2nc[nH]c12
REMARK SMILES IDX 8 1 7 2 6 3 5 4 4 5 3 6 2 7 10 8 9 9 1 11
REMARK H PARENT 9 10 1 12 1 13
REMARK Flexibility Score: inf
ROOT
ATOM      1  C   UNL     1      14.161  -8.445   4.655  1.00  0.00     0.199 A 
ATOM      2  N   UNL     1      13.636  -7.237   4.310  1.00  0.00    -0.217 NA
ATOM      3  C   UNL     1      14.703  -6.425   4.406  1.00  0.00     0.182 A 
ATOM      4  N   UNL     1      14.727  -5.093   4.166  1.00  0.00    -0.215 NA
ATOM      5  C   UNL     1      15.916  -4.432   4.318  1.00  0.00     0.226 A 
ATOM      6  N   UNL     1      17.044  -5.109   4.703  1.00  0.00    -0.217 NA
ATOM      7  C   UNL     1      17.021  -6.453   4.946  1.00  0.00     0.152 A 
ATOM      8  C   UNL     1      15.804  -7.112   4.787  1.00  0.00     0.127 A 
ATOM      9  N   UNL     1      15.485  -8.401   4.952  1.00  0.00    -0.340 N 
ATOM     10  H   UNL     1      16.098  -9.195   5.239  1.00  0.00     0.168 HD
ENDROOT
BRANCH   7  11
ATOM     11  N   UNL     1      18.209  -7.137   5.347  1.00  0.00    -0.382 N 
ATOM     12  H   UNL     1      19.138  -6.663   5.341  1.00  0.00     0.158 HD
ATOM     13  H   UNL     1      18.159  -8.134   5.655  1.00  0.00     0.158 HD
ENDBRANCH   7  11
TORSDOF 1
ENDMDL
