MODEL 1
REMARK VINA RESULT:    -4.012      0.000      0.000
REMARK INTER + INTRA:          -5.921
REMARK INTER:                  -5.419
REMARK INTRA:                  -0.502
REMARK UNBOUND:                -0.502
REMARK SMILES CCCCCCCC(=O)[O-]
REMARK SMILES IDX 5 1 6 2 7 3 8 4 9 5 10 6 4 7 3 8 2 9 1 10
REMARK H PARENT
REMARK Flexibility Score: inf
ROOT
ATOM      1  C   UNL     1     138.703 132.096 130.957  1.00  0.00     0.000 C 
ENDROOT
BRANCH   1   2
ATOM      2  C   UNL     1     138.291 133.515 130.527  1.00  0.00     0.006 C 
BRANCH   2   3
ATOM      3  C   UNL     1     139.364 134.272 129.726  1.00  0.00     0.053 C 
BRANCH   3   4
ATOM      4  C   UNL     1     140.074 135.290 130.562  1.00  0.00     0.041 C 
ATOM      5  O   UNL     1     140.834 134.924 131.498  1.00  0.00    -0.550 OA
ATOM      6  O   UNL     1     139.872 136.645 130.330  1.00  0.00    -0.550 OA
ENDBRANCH   3   4
ENDBRANCH   2   3
ENDBRANCH   1   2
BRANCH   1   7
ATOM      7  C   UNL     1     139.487 131.348 129.868  1.00  0.00     0.000 C 
BRANCH   7   8
ATOM      8  C   UNL     1     138.580 130.357 129.123  1.00  0.00    -0.000 C 
BRANCH   8   9
ATOM      9  C   UNL     1     138.050 130.923 127.797  1.00  0.00    -0.003 C 
ATOM     10  C   UNL     1     136.597 131.388 127.890  1.00  0.00     0.004 C 
ENDBRANCH   8   9
ENDBRANCH   7   8
ENDBRANCH   1   7
TORSDOF 6
ENDMDL
MODEL 2
REMARK VINA RESULT:    -3.977      2.002      3.018
REMARK INTER + INTRA:          -5.874
REMARK INTER:                  -5.577
REMARK INTRA:                  -0.296
REMARK UNBOUND:                -0.502
REMARK SMILES CCCCCCCC(=O)[O-]
REMARK SMILES IDX 5 1 6 2 7 3 8 4 9 5 10 6 4 7 3 8 2 9 1 10
REMARK H PARENT
REMARK Flexibility Score: inf
ROOT
ATOM      1  C   UNL     1     140.556 134.936 130.940  1.00  0.00     0.000 C 
ENDROOT
BRANCH   1   2
ATOM      2  C   UNL     1     139.670 135.741 129.972  1.00  0.00     0.006 C 
BRANCH   2   3
ATOM      3  C   UNL     1     139.060 137.014 130.580  1.00  0.00     0.053 C 
BRANCH   3   4
ATOM      4  C   UNL     1     137.564 136.965 130.598  1.00  0.00     0.041 C 
ATOM      5  O   UNL     1     136.966 135.857 130.608  1.00  0.00    -0.550 OA
ATOM      6  O   UNL     1     136.829 138.144 130.569  1.00  0.00    -0.550 OA
ENDBRANCH   3   4
ENDBRANCH   2   3
ENDBRANCH   1   2
BRANCH   1   7
ATOM      7  C   UNL     1     139.995 133.538 131.240  1.00  0.00     0.000 C 
BRANCH   7   8
ATOM      8  C   UNL     1     139.270 132.963 130.014  1.00  0.00    -0.000 C 
BRANCH   8   9
ATOM      9  C   UNL     1     139.561 131.470 129.802  1.00  0.00    -0.003 C 
ATOM     10  C   UNL     1     138.577 130.805 128.841  1.00  0.00     0.004 C 
ENDBRANCH   8   9
ENDBRANCH   7   8
ENDBRANCH   1   7
TORSDOF 6
ENDMDL
MODEL 3
REMARK VINA RESULT:    -3.967      2.935      5.151
REMARK INTER + INTRA:          -5.860
REMARK INTER:                  -5.551
REMARK INTRA:                  -0.309
REMARK UNBOUND:                -0.502
REMARK SMILES CCCCCCCC(=O)[O-]
REMARK SMILES IDX 5 1 6 2 7 3 8 4 9 5 10 6 4 7 3 8 2 9 1 10
REMARK H PARENT
REMARK Flexibility Score: inf
ROOT
ATOM      1  C   UNL     1     140.108 135.413 130.192  1.00  0.00     0.000 C 
ENDROOT
BRANCH   1   2
ATOM      2  C   UNL     1     140.072 134.086 130.971  1.00  0.00     0.006 C 
BRANCH   2   3
ATOM      3  C   UNL     1     139.279 132.965 130.279  1.00  0.00     0.053 C 
BRANCH   3   4
ATOM      4  C   UNL     1     137.893 133.400 129.917  1.00  0.00     0.041 C 
ATOM      5  O   UNL     1     137.520 133.392 128.714  1.00  0.00    -0.550 OA
ATOM      6  O   UNL     1     137.024 133.847 130.905  1.00  0.00    -0.550 OA
ENDBRANCH   3   4
ENDBRANCH   2   3
ENDBRANCH   1   2
BRANCH   1   7
ATOM      7  C   UNL     1     139.616 136.607 131.023  1.00  0.00     0.000 C 
BRANCH   7   8
ATOM      8  C   UNL     1     138.829 137.596 130.151  1.00  0.00    -0.000 C 
BRANCH   8   9
ATOM      9  C   UNL     1     137.347 137.682 130.546  1.00  0.00    -0.003 C 
ATOM     10  C   UNL     1     136.715 139.026 130.186  1.00  0.00     0.004 C 
ENDBRANCH   8   9
ENDBRANCH   7   8
ENDBRANCH   1   7
TORSDOF 6
ENDMDL
MODEL 4
REMARK VINA RESULT:    -3.962      0.899      1.977
REMARK INTER + INTRA:          -5.854
REMARK INTER:                  -5.339
REMARK INTRA:                  -0.514
REMARK UNBOUND:                -0.502
REMARK SMILES CCCCCCCC(=O)[O-]
REMARK SMILES IDX 5 1 6 2 7 3 8 4 9 5 10 6 4 7 3 8 2 9 1 10
REMARK H PARENT
REMARK Flexibility Score: inf
ROOT
ATOM      1  C   UNL     1     137.542 133.939 130.574  1.00  0.00     0.000 C 
ENDROOT
BRANCH   1   2
ATOM      2  C   UNL     1     138.158 134.648 129.355  1.00  0.00     0.006 C 
BRANCH   2   3
ATOM      3  C   UNL     1     139.674 134.884 129.458  1.00  0.00     0.053 C 
BRANCH   3   4
ATOM      4  C   UNL     1     140.049 135.569 130.735  1.00  0.00     0.041 C 
ATOM      5  O   UNL     1     139.655 136.743 130.964  1.00  0.00    -0.550 OA
ATOM      6  O   UNL     1     140.860 134.923 131.660  1.00  0.00    -0.550 OA
ENDBRANCH   3   4
ENDBRANCH   2   3
ENDBRANCH   1   2
BRANCH   1   7
ATOM      7  C   UNL     1     137.302 132.440 130.335  1.00  0.00     0.000 C 
BRANCH   7   8
ATOM      8  C   UNL     1     138.508 131.611 130.800  1.00  0.00    -0.000 C 
BRANCH   8   9
ATOM      9  C   UNL     1     139.359 131.097 129.628  1.00  0.00    -0.003 C 
ATOM     10  C   UNL     1     138.516 130.661 128.431  1.00  0.00     0.004 C 
ENDBRANCH   8   9
ENDBRANCH   7   8
ENDBRANCH   1   7
TORSDOF 6
ENDMDL
MODEL 5
REMARK VINA RESULT:    -3.923      2.900      4.665
REMARK INTER + INTRA:          -5.801
REMARK INTER:                  -5.287
REMARK INTRA:                  -0.514
REMARK UNBOUND:                -0.502
REMARK SMILES CCCCCCCC(=O)[O-]
REMARK SMILES IDX 5 1 6 2 7 3 8 4 9 5 10 6 4 7 3 8 2 9 1 10
REMARK H PARENT
REMARK Flexibility Score: inf
ROOT
ATOM      1  C   UNL     1     139.567 131.615 129.886  1.00  0.00     0.000 C 
ENDROOT
BRANCH   1   2
ATOM      2  C   UNL     1     138.658 130.500 129.338  1.00  0.00     0.006 C 
BRANCH   2   3
ATOM      3  C   UNL     1     138.202 130.712 127.884  1.00  0.00     0.053 C 
BRANCH   3   4
ATOM      4  C   UNL     1     136.960 131.544 127.802  1.00  0.00     0.041 C 
ATOM      5  O   UNL     1     136.917 132.544 127.037  1.00  0.00    -0.550 OA
ATOM      6  O   UNL     1     135.862 131.235 128.594  1.00  0.00    -0.550 OA
ENDBRANCH   3   4
ENDBRANCH   2   3
ENDBRANCH   1   2
BRANCH   1   7
ATOM      7  C   UNL     1     138.904 132.425 131.010  1.00  0.00     0.000 C 
BRANCH   7   8
ATOM      8  C   UNL     1     138.330 133.743 130.470  1.00  0.00    -0.000 C 
BRANCH   8   9
ATOM      9  C   UNL     1     139.265 134.426 129.460  1.00  0.00    -0.003 C 
ATOM     10  C   UNL     1     140.360 135.254 130.132  1.00  0.00     0.004 C 
ENDBRANCH   8   9
ENDBRANCH   7   8
ENDBRANCH   1   7
TORSDOF 6
ENDMDL
MODEL 6
REMARK VINA RESULT:    -3.919      2.759      4.566
REMARK INTER + INTRA:          -5.796
REMARK INTER:                  -5.177
REMARK INTRA:                  -0.619
REMARK UNBOUND:                -0.502
REMARK SMILES CCCCCCCC(=O)[O-]
REMARK SMILES IDX 5 1 6 2 7 3 8 4 9 5 10 6 4 7 3 8 2 9 1 10
REMARK H PARENT
REMARK Flexibility Score: inf
ROOT
ATOM      1  C   UNL     1     137.781 133.868 128.707  1.00  0.00     0.000 C 
ENDROOT
BRANCH   1   2
ATOM      2  C   UNL     1     136.530 134.034 129.589  1.00  0.00     0.006 C 
BRANCH   2   3
ATOM      3  C   UNL     1     136.739 133.650 131.063  1.00  0.00     0.053 C 
BRANCH   3   4
ATOM      4  C   UNL     1     137.380 132.304 131.206  1.00  0.00     0.041 C 
ATOM      5  O   UNL     1     136.791 131.274 130.784  1.00  0.00    -0.550 OA
ATOM      6  O   UNL     1     138.614 132.184 131.834  1.00  0.00    -0.550 OA
ENDBRANCH   3   4
ENDBRANCH   2   3
ENDBRANCH   1   2
BRANCH   1   7
ATOM      7  C   UNL     1     138.768 135.038 128.845  1.00  0.00     0.000 C 
BRANCH   7   8
ATOM      8  C   UNL     1     140.034 134.600 129.596  1.00  0.00    -0.000 C 
BRANCH   8   9
ATOM      9  C   UNL     1     140.264 135.404 130.885  1.00  0.00    -0.003 C 
ATOM     10  C   UNL     1     139.450 136.696 130.931  1.00  0.00     0.004 C 
ENDBRANCH   8   9
ENDBRANCH   7   8
ENDBRANCH   1   7
TORSDOF 6
ENDMDL
MODEL 7
REMARK VINA RESULT:    -3.888      3.027      5.003
REMARK INTER + INTRA:          -5.753
REMARK INTER:                  -5.386
REMARK INTRA:                  -0.368
REMARK UNBOUND:                -0.502
REMARK SMILES CCCCCCCC(=O)[O-]
REMARK SMILES IDX 5 1 6 2 7 3 8 4 9 5 10 6 4 7 3 8 2 9 1 10
REMARK H PARENT
REMARK Flexibility Score: inf
ROOT
ATOM      1  C   UNL     1     138.343 133.552 129.761  1.00  0.00     0.000 C 
ENDROOT
BRANCH   1   2
ATOM      2  C   UNL     1     139.314 132.633 130.524  1.00  0.00     0.006 C 
BRANCH   2   3
ATOM      3  C   UNL     1     139.702 131.353 129.766  1.00  0.00     0.053 C 
BRANCH   3   4
ATOM      4  C   UNL     1     138.504 130.640 129.220  1.00  0.00     0.041 C 
ATOM      5  O   UNL     1     137.739 130.003 129.992  1.00  0.00    -0.550 OA
ATOM      6  O   UNL     1     138.251 130.651 127.854  1.00  0.00    -0.550 OA
ENDBRANCH   3   4
ENDBRANCH   2   3
ENDBRANCH   1   2
BRANCH   1   7
ATOM      7  C   UNL     1     139.043 134.765 129.128  1.00  0.00     0.000 C 
BRANCH   7   8
ATOM      8  C   UNL     1     140.191 135.261 130.018  1.00  0.00    -0.000 C 
BRANCH   8   9
ATOM      9  C   UNL     1     139.747 136.356 131.000  1.00  0.00    -0.003 C 
ATOM     10  C   UNL     1     138.816 137.385 130.359  1.00  0.00     0.004 C 
ENDBRANCH   8   9
ENDBRANCH   7   8
ENDBRANCH   1   7
TORSDOF 6
ENDMDL
MODEL 8
REMARK VINA RESULT:    -3.862      1.533      2.452
REMARK INTER + INTRA:          -5.719
REMARK INTER:                  -5.057
REMARK INTRA:                  -0.662
REMARK UNBOUND:                -0.502
REMARK SMILES CCCCCCCC(=O)[O-]
REMARK SMILES IDX 5 1 6 2 7 3 8 4 9 5 10 6 4 7 3 8 2 9 1 10
REMARK H PARENT
REMARK Flexibility Score: inf
ROOT
ATOM      1  C   UNL     1     138.584 130.542 129.363  1.00  0.00     0.000 C 
ENDROOT
BRANCH   1   2
ATOM      2  C   UNL     1     139.647 131.541 129.855  1.00  0.00     0.006 C 
BRANCH   2   3
ATOM      3  C   UNL     1     139.075 132.759 130.601  1.00  0.00     0.053 C 
BRANCH   3   4
ATOM      4  C   UNL     1     139.137 134.003 129.772  1.00  0.00     0.041 C 
ATOM      5  O   UNL     1     138.200 134.284 128.979  1.00  0.00    -0.550 OA
ATOM      6  O   UNL     1     140.246 134.837 129.850  1.00  0.00    -0.550 OA
ENDBRANCH   3   4
ENDBRANCH   2   3
ENDBRANCH   1   2
BRANCH   1   7
ATOM      7  C   UNL     1     138.082 130.855 127.945  1.00  0.00     0.000 C 
BRANCH   7   8
ATOM      8  C   UNL     1     136.603 131.267 127.965  1.00  0.00    -0.000 C 
BRANCH   8   9
ATOM      9  C   UNL     1     135.947 131.049 129.337  1.00  0.00    -0.003 C 
ATOM     10  C   UNL     1     135.369 132.334 129.928  1.00  0.00     0.004 C 
ENDBRANCH   8   9
ENDBRANCH   7   8
ENDBRANCH   1   7
TORSDOF 6
ENDMDL
MODEL 9
REMARK VINA RESULT:    -3.850      1.843      3.190
REMARK INTER + INTRA:          -5.702
REMARK INTER:                  -5.047
REMARK INTRA:                  -0.655
REMARK UNBOUND:                -0.502
REMARK SMILES CCCCCCCC(=O)[O-]
REMARK SMILES IDX 5 1 6 2 7 3 8 4 9 5 10 6 4 7 3 8 2 9 1 10
REMARK H PARENT
REMARK Flexibility Score: inf
ROOT
ATOM      1  C   UNL     1     138.129 130.851 127.800  1.00  0.00     0.000 C 
ENDROOT
BRANCH   1   2
ATOM      2  C   UNL     1     138.545 130.428 129.220  1.00  0.00     0.006 C 
BRANCH   2   3
ATOM      3  C   UNL     1     139.669 131.282 129.831  1.00  0.00     0.053 C 
BRANCH   3   4
ATOM      4  C   UNL     1     139.136 132.498 130.522  1.00  0.00     0.041 C 
ATOM      5  O   UNL     1     138.579 132.396 131.647  1.00  0.00    -0.550 OA
ATOM      6  O   UNL     1     139.226 133.742 129.909  1.00  0.00    -0.550 OA
ENDBRANCH   3   4
ENDBRANCH   2   3
ENDBRANCH   1   2
BRANCH   1   7
ATOM      7  C   UNL     1     136.770 131.567 127.765  1.00  0.00     0.000 C 
BRANCH   7   8
ATOM      8  C   UNL     1     135.937 131.223 129.008  1.00  0.00    -0.000 C 
BRANCH   8   9
ATOM      9  C   UNL     1     135.379 132.471 129.709  1.00  0.00    -0.003 C 
ATOM     10  C   UNL     1     135.723 133.766 128.975  1.00  0.00     0.004 C 
ENDBRANCH   8   9
ENDBRANCH   7   8
ENDBRANCH   1   7
TORSDOF 6
ENDMDL
