MODEL 1
REMARK VINA RESULT:    -6.699      0.000      0.000
REMARK INTER + INTRA:          -7.589
REMARK INTER:                  -7.286
REMARK INTRA:                  -0.303
REMARK UNBOUND:                -0.303
REMARK SMILES C[C@H]1[C@@H](C)CC[C@@]2(C(=O)[O-])CC[C@]3(C)C(=CC[C@H]4[C@@]5(C)CC[C@@H](O)C(C)(C)[C@@H]5CC[C@]43C)[C@@H]12
REMARK SMILES IDX 7 1 6 2 11 3 33 4 5 5 12 6 15 7 2 8 3 9 13 10 16 11 1 12
REMARK SMILES IDX 4 13 14 14 31 15 17 16 18 17 30 18 32 19 19 20 29 21 28 22
REMARK SMILES IDX 21 23 20 24 25 25 22 26 23 27 26 28 27 29 8 30 9 31 10 32
REMARK SMILES IDX 24 33
REMARK H PARENT 24 34
REMARK Flexibility Score: inf
ROOT
ATOM      1  C   UNL     1      73.274  48.270   6.622  1.00  0.00     0.017 C 
ATOM      2  C   UNL     1      73.328  49.753   7.124  1.00  0.00     0.014 C 
ATOM      3  C   UNL     1      74.367  47.447   7.319  1.00  0.00     0.014 C 
ATOM      4  C   UNL     1      71.849  47.572   6.827  1.00  0.00     0.030 C 
ATOM      5  C   UNL     1      72.622  49.987   8.472  1.00  0.00     0.004 C 
ATOM      6  C   UNL     1      74.392  45.980   6.872  1.00  0.00     0.013 C 
ATOM      7  C   UNL     1      71.945  46.193   7.596  1.00  0.00    -0.063 C 
ATOM      8  C   UNL     1      70.792  48.628   7.279  1.00  0.00    -0.003 C 
ATOM      9  C   UNL     1      71.210  49.379   8.565  1.00  0.00    -0.011 C 
ATOM     10  C   UNL     1      73.055  45.191   7.196  1.00  0.00    -0.006 C 
ATOM     11  C   UNL     1      70.877  45.699   8.281  1.00  0.00    -0.027 C 
ATOM     12  C   UNL     1      69.290  48.269   7.118  1.00  0.00     0.008 C 
ATOM     13  C   UNL     1      71.115  48.509   9.851  1.00  0.00     0.008 C 
ATOM     14  C   UNL     1      72.595  44.548   5.836  1.00  0.00     0.017 C 
ATOM     15  C   UNL     1      73.334  44.103   8.360  1.00  0.00    -0.020 C 
ATOM     16  C   UNL     1      70.726  44.239   8.569  1.00  0.00     0.032 C 
ATOM     17  C   UNL     1      72.010  43.526   9.069  1.00  0.00     0.006 C 
ATOM     18  C   UNL     1      74.302  42.953   7.807  1.00  0.00     0.008 C 
ATOM     19  C   UNL     1      74.081  44.846   9.528  1.00  0.00     0.012 C 
ATOM     20  C   UNL     1      71.898  41.946   9.091  1.00  0.00    -0.025 C 
ATOM     21  C   UNL     1      73.647  41.633   7.291  1.00  0.00     0.005 C 
ATOM     22  C   UNL     1      72.125  41.498   7.620  1.00  0.00     0.003 C 
ATOM     23  C   UNL     1      70.509  41.454   9.593  1.00  0.00     0.010 C 
ATOM     24  C   UNL     1      72.958  41.353  10.079  1.00  0.00     0.012 C 
ATOM     25  C   UNL     1      71.308  40.213   7.101  1.00  0.00    -0.006 C 
ATOM     26  C   UNL     1      70.419  39.923   9.575  1.00  0.00     0.033 C 
ATOM     27  C   UNL     1      70.947  39.244   8.290  1.00  0.00     0.120 C 
ATOM     28  C   UNL     1      69.988  40.675   6.338  1.00  0.00     0.014 C 
ATOM     29  C   UNL     1      72.169  39.428   6.034  1.00  0.00     0.014 C 
ENDROOT
BRANCH   1  30
ATOM     30  C   UNL     1      73.618  48.335   5.115  1.00  0.00     0.048 C 
ATOM     31  O   UNL     1      74.666  48.899   4.695  1.00  0.00    -0.550 OA
ATOM     32  O   UNL     1      72.753  47.818   4.189  1.00  0.00    -0.550 OA
ENDBRANCH   1  30
BRANCH  27  33
ATOM     33  O   UNL     1      70.042  38.228   7.926  1.00  0.00    -0.393 OA
ATOM     34  H   UNL     1      70.165  37.439   8.533  1.00  0.00     0.210 HD
ENDBRANCH  27  33
TORSDOF 2
ENDMDL
MODEL 2
REMARK VINA RESULT:    -5.882      1.470      2.192
REMARK INTER + INTRA:          -6.701
REMARK INTER:                  -7.096
REMARK INTRA:                   0.395
REMARK UNBOUND:                -0.303
REMARK SMILES C[C@H]1[C@@H](C)CC[C@@]2(C(=O)[O-])CC[C@]3(C)C(=CC[C@H]4[C@@]5(C)CC[C@@H](O)C(C)(C)[C@@H]5CC[C@]43C)[C@@H]12
REMARK SMILES IDX 7 1 6 2 11 3 33 4 5 5 12 6 15 7 2 8 3 9 13 10 16 11 1 12
REMARK SMILES IDX 4 13 14 14 31 15 17 16 18 17 30 18 32 19 19 20 29 21 28 22
REMARK SMILES IDX 21 23 20 24 25 25 22 26 23 27 26 28 27 29 8 30 9 31 10 32
REMARK SMILES IDX 24 33
REMARK H PARENT 24 34
REMARK Flexibility Score: inf
ROOT
ATOM      1  C   UNL     1      73.312  47.070   5.302  1.00  0.00     0.017 C 
ATOM      2  C   UNL     1      74.287  48.278   5.515  1.00  0.00     0.014 C 
ATOM      3  C   UNL     1      74.118  45.768   5.190  1.00  0.00     0.014 C 
ATOM      4  C   UNL     1      72.202  46.930   6.445  1.00  0.00     0.030 C 
ATOM      5  C   UNL     1      74.755  48.461   6.970  1.00  0.00     0.004 C 
ATOM      6  C   UNL     1      73.236  44.533   4.965  1.00  0.00     0.013 C 
ATOM      7  C   UNL     1      72.157  45.484   7.086  1.00  0.00    -0.063 C 
ATOM      8  C   UNL     1      72.230  48.179   7.381  1.00  0.00    -0.003 C 
ATOM      9  C   UNL     1      73.622  48.421   8.013  1.00  0.00    -0.011 C 
ATOM     10  C   UNL     1      72.218  44.251   6.149  1.00  0.00    -0.006 C 
ATOM     11  C   UNL     1      71.667  45.289   8.341  1.00  0.00    -0.027 C 
ATOM     12  C   UNL     1      70.986  48.452   8.268  1.00  0.00     0.008 C 
ATOM     13  C   UNL     1      73.987  47.392   9.121  1.00  0.00     0.008 C 
ATOM     14  C   UNL     1      70.800  44.140   5.480  1.00  0.00     0.017 C 
ATOM     15  C   UNL     1      72.664  42.913   6.943  1.00  0.00    -0.020 C 
ATOM     16  C   UNL     1      71.128  43.967   8.785  1.00  0.00     0.032 C 
ATOM     17  C   UNL     1      71.984  42.735   8.389  1.00  0.00     0.006 C 
ATOM     18  C   UNL     1      72.474  41.634   5.997  1.00  0.00     0.008 C 
ATOM     19  C   UNL     1      74.196  43.050   7.271  1.00  0.00     0.012 C 
ATOM     20  C   UNL     1      71.254  41.348   8.619  1.00  0.00    -0.025 C 
ATOM     21  C   UNL     1      71.162  40.801   6.150  1.00  0.00     0.005 C 
ATOM     22  C   UNL     1      70.303  41.178   7.401  1.00  0.00     0.003 C 
ATOM     23  C   UNL     1      70.439  41.314   9.944  1.00  0.00     0.010 C 
ATOM     24  C   UNL     1      72.316  40.202   8.727  1.00  0.00     0.012 C 
ATOM     25  C   UNL     1      68.897  40.438   7.655  1.00  0.00    -0.006 C 
ATOM     26  C   UNL     1      69.720  39.972  10.125  1.00  0.00     0.033 C 
ATOM     27  C   UNL     1      68.985  39.441   8.872  1.00  0.00     0.120 C 
ATOM     28  C   UNL     1      67.748  41.514   7.898  1.00  0.00     0.014 C 
ATOM     29  C   UNL     1      68.473  39.640   6.359  1.00  0.00     0.014 C 
ENDROOT
BRANCH   1  30
ATOM     30  C   UNL     1      72.633  47.328   3.936  1.00  0.00     0.048 C 
ATOM     31  O   UNL     1      72.117  48.442   3.648  1.00  0.00    -0.550 OA
ATOM     32  O   UNL     1      72.534  46.318   3.017  1.00  0.00    -0.550 OA
ENDBRANCH   1  30
BRANCH  27  33
ATOM     33  O   UNL     1      67.731  38.943   9.276  1.00  0.00    -0.393 OA
ATOM     34  H   UNL     1      67.851  38.038   9.692  1.00  0.00     0.210 HD
ENDBRANCH  27  33
TORSDOF 2
ENDMDL
MODEL 3
REMARK VINA RESULT:    -5.802      1.677      7.669
REMARK INTER + INTRA:          -6.613
REMARK INTER:                  -6.347
REMARK INTRA:                  -0.267
REMARK UNBOUND:                -0.303
REMARK SMILES C[C@H]1[C@@H](C)CC[C@@]2(C(=O)[O-])CC[C@]3(C)C(=CC[C@H]4[C@@]5(C)CC[C@@H](O)C(C)(C)[C@@H]5CC[C@]43C)[C@@H]12
REMARK SMILES IDX 7 1 6 2 11 3 33 4 5 5 12 6 15 7 2 8 3 9 13 10 16 11 1 12
REMARK SMILES IDX 4 13 14 14 31 15 17 16 18 17 30 18 32 19 19 20 29 21 28 22
REMARK SMILES IDX 21 23 20 24 25 25 22 26 23 27 26 28 27 29 8 30 9 31 10 32
REMARK SMILES IDX 24 33
REMARK H PARENT 24 34
REMARK Flexibility Score: inf
ROOT
ATOM      1  C   UNL     1      71.244  40.386   7.160  1.00  0.00     0.017 C 
ATOM      2  C   UNL     1      71.797  38.929   7.324  1.00  0.00     0.014 C 
ATOM      3  C   UNL     1      70.961  40.992   8.542  1.00  0.00     0.014 C 
ATOM      4  C   UNL     1      72.210  41.351   6.327  1.00  0.00     0.030 C 
ATOM      5  C   UNL     1      73.301  38.859   7.646  1.00  0.00     0.004 C 
ATOM      6  C   UNL     1      70.401  42.418   8.469  1.00  0.00     0.013 C 
ATOM      7  C   UNL     1      72.541  42.697   7.088  1.00  0.00    -0.063 C 
ATOM      8  C   UNL     1      73.374  40.528   5.688  1.00  0.00    -0.003 C 
ATOM      9  C   UNL     1      74.187  39.731   6.737  1.00  0.00    -0.011 C 
ATOM     10  C   UNL     1      71.390  43.458   7.792  1.00  0.00    -0.006 C 
ATOM     11  C   UNL     1      73.672  43.401   6.807  1.00  0.00    -0.027 C 
ATOM     12  C   UNL     1      74.159  41.169   4.513  1.00  0.00     0.008 C 
ATOM     13  C   UNL     1      75.100  40.625   7.624  1.00  0.00     0.008 C 
ATOM     14  C   UNL     1      70.564  44.155   6.649  1.00  0.00     0.017 C 
ATOM     15  C   UNL     1      71.943  44.490   8.908  1.00  0.00    -0.020 C 
ATOM     16  C   UNL     1      73.783  44.866   7.081  1.00  0.00     0.032 C 
ATOM     17  C   UNL     1      73.244  45.324   8.463  1.00  0.00     0.006 C 
ATOM     18  C   UNL     1      70.746  45.421   9.426  1.00  0.00     0.008 C 
ATOM     19  C   UNL     1      72.455  43.635  10.125  1.00  0.00     0.012 C 
ATOM     20  C   UNL     1      73.112  46.896   8.609  1.00  0.00    -0.025 C 
ATOM     21  C   UNL     1      70.589  46.834   8.782  1.00  0.00     0.005 C 
ATOM     22  C   UNL     1      71.790  47.267   7.880  1.00  0.00     0.003 C 
ATOM     23  C   UNL     1      74.309  47.657   7.969  1.00  0.00     0.010 C 
ATOM     24  C   UNL     1      73.103  47.288  10.125  1.00  0.00     0.012 C 
ATOM     25  C   UNL     1      71.739  48.678   7.108  1.00  0.00    -0.006 C 
ATOM     26  C   UNL     1      74.141  49.176   8.099  1.00  0.00     0.033 C 
ATOM     27  C   UNL     1      72.736  49.718   7.747  1.00  0.00     0.120 C 
ATOM     28  C   UNL     1      72.068  48.469   5.563  1.00  0.00     0.014 C 
ATOM     29  C   UNL     1      70.273  49.263   7.161  1.00  0.00     0.014 C 
ENDROOT
BRANCH   1  30
ATOM     30  C   UNL     1      69.892  40.230   6.424  1.00  0.00     0.048 C 
ATOM     31  O   UNL     1      69.717  40.662   5.252  1.00  0.00    -0.550 OA
ATOM     32  O   UNL     1      68.825  39.655   7.061  1.00  0.00    -0.550 OA
ENDBRANCH   1  30
BRANCH  27  33
ATOM     33  O   UNL     1      72.895  50.884   6.974  1.00  0.00    -0.393 OA
ATOM     34  H   UNL     1      72.568  51.677   7.495  1.00  0.00     0.210 HD
ENDBRANCH  27  33
TORSDOF 2
ENDMDL
MODEL 4
REMARK VINA RESULT:    -5.379      2.116      7.677
REMARK INTER + INTRA:          -6.153
REMARK INTER:                  -5.858
REMARK INTRA:                  -0.296
REMARK UNBOUND:                -0.303
REMARK SMILES C[C@H]1[C@@H](C)CC[C@@]2(C(=O)[O-])CC[C@]3(C)C(=CC[C@H]4[C@@]5(C)CC[C@@H](O)C(C)(C)[C@@H]5CC[C@]43C)[C@@H]12
REMARK SMILES IDX 7 1 6 2 11 3 33 4 5 5 12 6 15 7 2 8 3 9 13 10 16 11 1 12
REMARK SMILES IDX 4 13 14 14 31 15 17 16 18 17 30 18 32 19 19 20 29 21 28 22
REMARK SMILES IDX 21 23 20 24 25 25 22 26 23 27 26 28 27 29 8 30 9 31 10 32
REMARK SMILES IDX 24 33
REMARK H PARENT 24 34
REMARK Flexibility Score: inf
ROOT
ATOM      1  C   UNL     1      72.834  39.392   6.531  1.00  0.00     0.017 C 
ATOM      2  C   UNL     1      72.337  37.947   6.873  1.00  0.00     0.014 C 
ATOM      3  C   UNL     1      71.679  40.210   5.937  1.00  0.00     0.014 C 
ATOM      4  C   UNL     1      73.469  40.167   7.778  1.00  0.00     0.030 C 
ATOM      5  C   UNL     1      71.592  37.839   8.216  1.00  0.00     0.004 C 
ATOM      6  C   UNL     1      72.086  41.640   5.560  1.00  0.00     0.013 C 
ATOM      7  C   UNL     1      72.820  41.590   8.013  1.00  0.00    -0.063 C 
ATOM      8  C   UNL     1      73.639  39.195   8.988  1.00  0.00    -0.003 C 
ATOM      9  C   UNL     1      72.310  38.516   9.398  1.00  0.00    -0.011 C 
ATOM     10  C   UNL     1      72.577  42.511   6.792  1.00  0.00    -0.006 C 
ATOM     11  C   UNL     1      72.850  42.179   9.241  1.00  0.00    -0.027 C 
ATOM     12  C   UNL     1      74.610  39.610  10.125  1.00  0.00     0.008 C 
ATOM     13  C   UNL     1      71.317  39.477  10.113  1.00  0.00     0.008 C 
ATOM     14  C   UNL     1      73.986  43.078   6.385  1.00  0.00     0.017 C 
ATOM     15  C   UNL     1      71.486  43.662   7.112  1.00  0.00    -0.020 C 
ATOM     16  C   UNL     1      72.741  43.660   9.412  1.00  0.00     0.032 C 
ATOM     17  C   UNL     1      71.641  44.347   8.559  1.00  0.00     0.006 C 
ATOM     18  C   UNL     1      71.454  44.726   5.915  1.00  0.00     0.008 C 
ATOM     19  C   UNL     1      70.077  42.968   7.183  1.00  0.00     0.012 C 
ATOM     20  C   UNL     1      71.736  45.928   8.545  1.00  0.00    -0.025 C 
ATOM     21  C   UNL     1      72.288  46.036   6.078  1.00  0.00     0.005 C 
ATOM     22  C   UNL     1      72.854  46.263   7.517  1.00  0.00     0.003 C 
ATOM     23  C   UNL     1      72.096  46.517   9.940  1.00  0.00     0.010 C 
ATOM     24  C   UNL     1      70.348  46.538   8.155  1.00  0.00     0.012 C 
ATOM     25  C   UNL     1      73.778  47.545   7.818  1.00  0.00    -0.006 C 
ATOM     26  C   UNL     1      72.210  48.045   9.889  1.00  0.00     0.033 C 
ATOM     27  C   UNL     1      73.015  48.609   8.695  1.00  0.00     0.120 C 
ATOM     28  C   UNL     1      75.125  47.092   8.538  1.00  0.00     0.014 C 
ATOM     29  C   UNL     1      74.221  48.214   6.457  1.00  0.00     0.014 C 
ENDROOT
BRANCH   1  30
ATOM     30  C   UNL     1      73.901  39.207   5.426  1.00  0.00     0.048 C 
ATOM     31  O   UNL     1      73.716  38.439   4.443  1.00  0.00    -0.550 OA
ATOM     32  O   UNL     1      75.108  39.846   5.521  1.00  0.00    -0.550 OA
ENDBRANCH   1  30
BRANCH  27  33
ATOM     33  O   UNL     1      73.849  49.638   9.173  1.00  0.00    -0.393 OA
ATOM     34  H   UNL     1      74.799  49.315   9.191  1.00  0.00     0.210 HD
ENDBRANCH  27  33
TORSDOF 2
ENDMDL
MODEL 5
REMARK VINA RESULT:    -5.224      2.149      3.838
REMARK INTER + INTRA:          -5.985
REMARK INTER:                  -5.795
REMARK INTRA:                  -0.190
REMARK UNBOUND:                -0.303
REMARK SMILES C[C@H]1[C@@H](C)CC[C@@]2(C(=O)[O-])CC[C@]3(C)C(=CC[C@H]4[C@@]5(C)CC[C@@H](O)C(C)(C)[C@@H]5CC[C@]43C)[C@@H]12
REMARK SMILES IDX 7 1 6 2 11 3 33 4 5 5 12 6 15 7 2 8 3 9 13 10 16 11 1 12
REMARK SMILES IDX 4 13 14 14 31 15 17 16 18 17 30 18 32 19 19 20 29 21 28 22
REMARK SMILES IDX 21 23 20 24 25 25 22 26 23 27 26 28 27 29 8 30 9 31 10 32
REMARK SMILES IDX 24 33
REMARK H PARENT 24 34
REMARK Flexibility Score: inf
ROOT
ATOM      1  C   UNL     1      71.000  47.797   8.154  1.00  0.00     0.017 C 
ATOM      2  C   UNL     1      71.433  49.255   7.780  1.00  0.00     0.014 C 
ATOM      3  C   UNL     1      70.447  47.085   6.912  1.00  0.00     0.014 C 
ATOM      4  C   UNL     1      72.171  46.925   8.809  1.00  0.00     0.030 C 
ATOM      5  C   UNL     1      72.823  49.350   7.127  1.00  0.00     0.004 C 
ATOM      6  C   UNL     1      69.986  45.650   7.196  1.00  0.00     0.013 C 
ATOM      7  C   UNL     1      72.388  45.539   8.078  1.00  0.00    -0.063 C 
ATOM      8  C   UNL     1      73.407  47.828   9.118  1.00  0.00    -0.003 C 
ATOM      9  C   UNL     1      73.929  48.574   7.866  1.00  0.00    -0.011 C 
ATOM     10  C   UNL     1      71.147  44.693   7.699  1.00  0.00    -0.006 C 
ATOM     11  C   UNL     1      73.585  44.894   8.143  1.00  0.00    -0.027 C 
ATOM     12  C   UNL     1      74.462  47.298  10.125  1.00  0.00     0.008 C 
ATOM     13  C   UNL     1      74.665  47.649   6.855  1.00  0.00     0.008 C 
ATOM     14  C   UNL     1      70.628  44.053   9.038  1.00  0.00     0.017 C 
ATOM     15  C   UNL     1      71.488  43.603   6.553  1.00  0.00    -0.020 C 
ATOM     16  C   UNL     1      73.702  43.417   7.942  1.00  0.00     0.032 C 
ATOM     17  C   UNL     1      72.893  42.845   6.747  1.00  0.00     0.006 C 
ATOM     18  C   UNL     1      70.252  42.600   6.375  1.00  0.00     0.008 C 
ATOM     19  C   UNL     1      71.677  44.385   5.202  1.00  0.00     0.012 C 
ATOM     20  C   UNL     1      72.807  41.263   6.732  1.00  0.00    -0.025 C 
ATOM     21  C   UNL     1      70.308  41.231   7.125  1.00  0.00     0.005 C 
ATOM     22  C   UNL     1      71.697  40.902   7.761  1.00  0.00     0.003 C 
ATOM     23  C   UNL     1      74.150  40.588   7.135  1.00  0.00     0.010 C 
ATOM     24  C   UNL     1      72.481  40.764   5.285  1.00  0.00     0.012 C 
ATOM     25  C   UNL     1      71.885  39.550   8.611  1.00  0.00    -0.006 C 
ATOM     26  C   UNL     1      74.029  39.059   7.140  1.00  0.00     0.033 C 
ATOM     27  C   UNL     1      72.764  38.499   7.831  1.00  0.00     0.120 C 
ATOM     28  C   UNL     1      72.537  39.879  10.027  1.00  0.00     0.014 C 
ATOM     29  C   UNL     1      70.473  38.916   8.923  1.00  0.00     0.014 C 
ENDROOT
BRANCH   1  30
ATOM     30  C   UNL     1      69.838  47.961   9.163  1.00  0.00     0.048 C 
ATOM     31  O   UNL     1      69.673  47.162  10.125  1.00  0.00    -0.550 OA
ATOM     32  O   UNL     1      68.921  48.964   8.998  1.00  0.00    -0.550 OA
ENDBRANCH   1  30
BRANCH  27  33
ATOM     33  O   UNL     1      73.145  37.397   8.620  1.00  0.00    -0.393 OA
ATOM     34  H   UNL     1      73.016  36.551   8.096  1.00  0.00     0.210 HD
ENDBRANCH  27  33
TORSDOF 2
ENDMDL
MODEL 6
REMARK VINA RESULT:    -4.780      1.610      7.751
REMARK INTER + INTRA:          -5.502
REMARK INTER:                  -5.203
REMARK INTRA:                  -0.299
REMARK UNBOUND:                -0.303
REMARK SMILES C[C@H]1[C@@H](C)CC[C@@]2(C(=O)[O-])CC[C@]3(C)C(=CC[C@H]4[C@@]5(C)CC[C@@H](O)C(C)(C)[C@@H]5CC[C@]43C)[C@@H]12
REMARK SMILES IDX 7 1 6 2 11 3 33 4 5 5 12 6 15 7 2 8 3 9 13 10 16 11 1 12
REMARK SMILES IDX 4 13 14 14 31 15 17 16 18 17 30 18 32 19 19 20 29 21 28 22
REMARK SMILES IDX 21 23 20 24 25 25 22 26 23 27 26 28 27 29 8 30 9 31 10 32
REMARK SMILES IDX 24 33
REMARK H PARENT 24 34
REMARK Flexibility Score: inf
ROOT
ATOM      1  C   UNL     1      72.279  39.877   8.352  1.00  0.00     0.017 C 
ATOM      2  C   UNL     1      72.799  38.507   7.799  1.00  0.00     0.014 C 
ATOM      3  C   UNL     1      73.364  40.533   9.217  1.00  0.00     0.014 C 
ATOM      4  C   UNL     1      71.800  40.892   7.211  1.00  0.00     0.030 C 
ATOM      5  C   UNL     1      73.695  38.630   6.553  1.00  0.00     0.004 C 
ATOM      6  C   UNL     1      72.928  41.878   9.810  1.00  0.00     0.013 C 
ATOM      7  C   UNL     1      72.486  42.313   7.325  1.00  0.00    -0.063 C 
ATOM      8  C   UNL     1      71.765  40.170   5.827  1.00  0.00    -0.003 C 
ATOM      9  C   UNL     1      73.126  39.539   5.448  1.00  0.00    -0.011 C 
ATOM     10  C   UNL     1      72.593  42.980   8.719  1.00  0.00    -0.006 C 
ATOM     11  C   UNL     1      72.604  43.123   6.237  1.00  0.00    -0.027 C 
ATOM     12  C   UNL     1      70.937  40.821   4.687  1.00  0.00     0.008 C 
ATOM     13  C   UNL     1      74.204  40.586   5.045  1.00  0.00     0.008 C 
ATOM     14  C   UNL     1      71.151  43.504   9.065  1.00  0.00     0.017 C 
ATOM     15  C   UNL     1      73.723  44.137   8.748  1.00  0.00    -0.020 C 
ATOM     16  C   UNL     1      72.746  44.606   6.364  1.00  0.00     0.032 C 
ATOM     17  C   UNL     1      73.745  45.085   7.450  1.00  0.00     0.006 C 
ATOM     18  C   UNL     1      73.625  44.955  10.122  1.00  0.00     0.008 C 
ATOM     19  C   UNL     1      75.125  43.425   8.707  1.00  0.00     0.012 C 
ATOM     20  C   UNL     1      73.663  46.638   7.754  1.00  0.00    -0.025 C 
ATOM     21  C   UNL     1      72.828  46.298  10.118  1.00  0.00     0.005 C 
ATOM     22  C   UNL     1      72.435  46.808   8.693  1.00  0.00     0.003 C 
ATOM     23  C   UNL     1      73.473  47.489   6.465  1.00  0.00     0.010 C 
ATOM     24  C   UNL     1      75.001  47.121   8.407  1.00  0.00     0.012 C 
ATOM     25  C   UNL     1      71.564  48.151   8.539  1.00  0.00    -0.006 C 
ATOM     26  C   UNL     1      73.367  48.984   6.792  1.00  0.00     0.033 C 
ATOM     27  C   UNL     1      72.433  49.338   7.973  1.00  0.00     0.120 C 
ATOM     28  C   UNL     1      70.307  47.884   7.599  1.00  0.00     0.014 C 
ATOM     29  C   UNL     1      70.971  48.566   9.944  1.00  0.00     0.014 C 
ENDROOT
BRANCH   1  30
ATOM     30  C   UNL     1      71.088  39.521   9.274  1.00  0.00     0.048 C 
ATOM     31  O   UNL     1      71.157  38.588  10.120  1.00  0.00    -0.550 OA
ATOM     32  O   UNL     1      69.900  40.190   9.152  1.00  0.00    -0.550 OA
ENDBRANCH   1  30
BRANCH  27  33
ATOM     33  O   UNL     1      71.670  50.463   7.608  1.00  0.00    -0.393 OA
ATOM     34  H   UNL     1      72.264  51.270   7.570  1.00  0.00     0.210 HD
ENDBRANCH  27  33
TORSDOF 2
ENDMDL
MODEL 7
REMARK VINA RESULT:    -4.610      2.051      3.799
REMARK INTER + INTRA:          -5.317
REMARK INTER:                  -5.047
REMARK INTRA:                  -0.270
REMARK UNBOUND:                -0.303
REMARK SMILES C[C@H]1[C@@H](C)CC[C@@]2(C(=O)[O-])CC[C@]3(C)C(=CC[C@H]4[C@@]5(C)CC[C@@H](O)C(C)(C)[C@@H]5CC[C@]43C)[C@@H]12
REMARK SMILES IDX 7 1 6 2 11 3 33 4 5 5 12 6 15 7 2 8 3 9 13 10 16 11 1 12
REMARK SMILES IDX 4 13 14 14 31 15 17 16 18 17 30 18 32 19 19 20 29 21 28 22
REMARK SMILES IDX 21 23 20 24 25 25 22 26 23 27 26 28 27 29 8 30 9 31 10 32
REMARK SMILES IDX 24 33
REMARK H PARENT 24 34
REMARK Flexibility Score: inf
ROOT
ATOM      1  C   UNL     1      73.342  47.675   7.911  1.00  0.00     0.017 C 
ATOM      2  C   UNL     1      73.650  49.030   7.187  1.00  0.00     0.014 C 
ATOM      3  C   UNL     1      71.915  47.702   8.476  1.00  0.00     0.014 C 
ATOM      4  C   UNL     1      73.538  46.388   6.981  1.00  0.00     0.030 C 
ATOM      5  C   UNL     1      73.100  49.115   5.751  1.00  0.00     0.004 C 
ATOM      6  C   UNL     1      71.537  46.413   9.216  1.00  0.00     0.013 C 
ATOM      7  C   UNL     1      72.268  45.445   6.960  1.00  0.00    -0.063 C 
ATOM      8  C   UNL     1      74.209  46.796   5.631  1.00  0.00    -0.003 C 
ATOM      9  C   UNL     1      73.415  47.889   4.875  1.00  0.00    -0.011 C 
ATOM     10  C   UNL     1      71.559  45.119   8.298  1.00  0.00    -0.006 C 
ATOM     11  C   UNL     1      72.035  44.608   5.911  1.00  0.00    -0.027 C 
ATOM     12  C   UNL     1      74.873  45.679   4.782  1.00  0.00     0.008 C 
ATOM     13  C   UNL     1      72.096  47.367   4.237  1.00  0.00     0.008 C 
ATOM     14  C   UNL     1      72.479  44.081   9.039  1.00  0.00     0.017 C 
ATOM     15  C   UNL     1      70.048  44.590   8.066  1.00  0.00    -0.020 C 
ATOM     16  C   UNL     1      71.201  43.375   6.052  1.00  0.00     0.032 C 
ATOM     17  C   UNL     1      69.880  43.556   6.846  1.00  0.00     0.006 C 
ATOM     18  C   UNL     1      69.449  44.038   9.445  1.00  0.00     0.008 C 
ATOM     19  C   UNL     1      69.181  45.825   7.621  1.00  0.00     0.012 C 
ATOM     20  C   UNL     1      69.167  42.191   7.219  1.00  0.00    -0.025 C 
ATOM     21  C   UNL     1      69.516  42.500   9.706  1.00  0.00     0.005 C 
ATOM     22  C   UNL     1      69.934  41.653   8.460  1.00  0.00     0.003 C 
ATOM     23  C   UNL     1      69.223  41.152   6.062  1.00  0.00     0.010 C 
ATOM     24  C   UNL     1      67.649  42.448   7.506  1.00  0.00     0.012 C 
ATOM     25  C   UNL     1      70.097  40.059   8.598  1.00  0.00    -0.006 C 
ATOM     26  C   UNL     1      68.552  39.833   6.463  1.00  0.00     0.033 C 
ATOM     27  C   UNL     1      68.929  39.297   7.864  1.00  0.00     0.120 C 
ATOM     28  C   UNL     1      71.509  39.601   8.022  1.00  0.00     0.014 C 
ATOM     29  C   UNL     1      70.102  39.653  10.125  1.00  0.00     0.014 C 
ENDROOT
BRANCH   1  30
ATOM     30  C   UNL     1      74.324  47.617   9.106  1.00  0.00     0.048 C 
ATOM     31  O   UNL     1      74.577  48.633   9.810  1.00  0.00    -0.550 OA
ATOM     32  O   UNL     1      74.986  46.455   9.395  1.00  0.00    -0.550 OA
ENDBRANCH   1  30
BRANCH  27  33
ATOM     33  O   UNL     1      69.147  37.910   7.761  1.00  0.00    -0.393 OA
ATOM     34  H   UNL     1      69.958  37.659   8.294  1.00  0.00     0.210 HD
ENDBRANCH  27  33
TORSDOF 2
ENDMDL
MODEL 8
REMARK VINA RESULT:    -4.506      1.917      3.070
REMARK INTER + INTRA:          -5.203
REMARK INTER:                  -5.586
REMARK INTRA:                   0.382
REMARK UNBOUND:                -0.303
REMARK SMILES C[C@H]1[C@@H](C)CC[C@@]2(C(=O)[O-])CC[C@]3(C)C(=CC[C@H]4[C@@]5(C)CC[C@@H](O)C(C)(C)[C@@H]5CC[C@]43C)[C@@H]12
REMARK SMILES IDX 7 1 6 2 11 3 33 4 5 5 12 6 15 7 2 8 3 9 13 10 16 11 1 12
REMARK SMILES IDX 4 13 14 14 31 15 17 16 18 17 30 18 32 19 19 20 29 21 28 22
REMARK SMILES IDX 21 23 20 24 25 25 22 26 23 27 26 28 27 29 8 30 9 31 10 32
REMARK SMILES IDX 24 33
REMARK H PARENT 24 34
REMARK Flexibility Score: inf
ROOT
ATOM      1  C   UNL     1      71.853  48.660   9.034  1.00  0.00     0.017 C 
ATOM      2  C   UNL     1      70.930  49.913   9.213  1.00  0.00     0.014 C 
ATOM      3  C   UNL     1      71.539  47.625  10.124  1.00  0.00     0.014 C 
ATOM      4  C   UNL     1      71.744  47.982   7.589  1.00  0.00     0.030 C 
ATOM      5  C   UNL     1      69.517  49.744   8.625  1.00  0.00     0.004 C 
ATOM      6  C   UNL     1      72.413  46.368  10.028  1.00  0.00     0.013 C 
ATOM      7  C   UNL     1      71.442  46.431   7.658  1.00  0.00    -0.063 C 
ATOM      8  C   UNL     1      70.900  48.883   6.633  1.00  0.00    -0.003 C 
ATOM      9  C   UNL     1      69.488  49.186   7.191  1.00  0.00    -0.011 C 
ATOM     10  C   UNL     1      72.226  45.563   8.673  1.00  0.00    -0.006 C 
ATOM     11  C   UNL     1      70.847  45.786   6.616  1.00  0.00    -0.027 C 
ATOM     12  C   UNL     1      71.027  48.643   5.105  1.00  0.00     0.008 C 
ATOM     13  C   UNL     1      68.525  47.965   7.139  1.00  0.00     0.008 C 
ATOM     14  C   UNL     1      73.670  45.387   8.075  1.00  0.00     0.017 C 
ATOM     15  C   UNL     1      71.478  44.160   8.972  1.00  0.00    -0.020 C 
ATOM     16  C   UNL     1      71.005  44.315   6.400  1.00  0.00     0.032 C 
ATOM     17  C   UNL     1      70.863  43.439   7.673  1.00  0.00     0.006 C 
ATOM     18  C   UNL     1      72.439  43.204   9.826  1.00  0.00     0.008 C 
ATOM     19  C   UNL     1      70.211  44.481   9.847  1.00  0.00     0.012 C 
ATOM     20  C   UNL     1      71.313  41.934   7.467  1.00  0.00    -0.025 C 
ATOM     21  C   UNL     1      73.272  42.131   9.056  1.00  0.00     0.005 C 
ATOM     22  C   UNL     1      72.865  41.954   7.557  1.00  0.00     0.003 C 
ATOM     23  C   UNL     1      70.862  41.359   6.093  1.00  0.00     0.010 C 
ATOM     24  C   UNL     1      70.651  41.029   8.560  1.00  0.00     0.012 C 
ATOM     25  C   UNL     1      73.675  40.920   6.628  1.00  0.00    -0.006 C 
ATOM     26  C   UNL     1      71.337  39.912   5.910  1.00  0.00     0.033 C 
ATOM     27  C   UNL     1      72.810  39.645   6.299  1.00  0.00     0.120 C 
ATOM     28  C   UNL     1      74.139  41.640   5.285  1.00  0.00     0.014 C 
ATOM     29  C   UNL     1      75.002  40.473   7.359  1.00  0.00     0.014 C 
ENDROOT
BRANCH   1  30
ATOM     30  C   UNL     1      73.293  49.174   9.268  1.00  0.00     0.048 C 
ATOM     31  O   UNL     1      73.750  50.176   8.653  1.00  0.00    -0.550 OA
ATOM     32  O   UNL     1      74.129  48.511  10.125  1.00  0.00    -0.550 OA
ENDBRANCH   1  30
BRANCH  27  33
ATOM     33  O   UNL     1      73.383  38.822   5.310  1.00  0.00    -0.393 OA
ATOM     34  H   UNL     1      73.678  39.388   4.536  1.00  0.00     0.210 HD
ENDBRANCH  27  33
TORSDOF 2
ENDMDL
