MODEL 1
REMARK VINA RESULT:    -3.847      0.000      0.000
REMARK INTER + INTRA:          -5.427
REMARK INTER:                  -5.196
REMARK INTRA:                  -0.231
REMARK UNBOUND:                -0.231
REMARK SMILES CCCCCCCC=O
REMARK SMILES IDX 5 1 4 2 3 3 2 4 1 5 6 6 7 7 8 8 9 9
REMARK H PARENT
REMARK Flexibility Score: inf
ROOT
ATOM      1  C   UNL     1      25.598  57.043  -8.729  1.00  0.00     0.000 C 
ENDROOT
BRANCH   1   2
ATOM      2  C   UNL     1      25.234  58.385  -8.075  1.00  0.00     0.000 C 
BRANCH   2   3
ATOM      3  C   UNL     1      26.188  59.519  -8.487  1.00  0.00    -0.000 C 
BRANCH   3   4
ATOM      4  C   UNL     1      27.194  59.085  -9.563  1.00  0.00    -0.003 C 
ATOM      5  C   UNL     1      28.337  60.090  -9.683  1.00  0.00     0.004 C 
ENDBRANCH   3   4
ENDBRANCH   2   3
ENDBRANCH   1   2
BRANCH   1   6
ATOM      6  C   UNL     1      24.823  55.854  -8.133  1.00  0.00     0.008 C 
BRANCH   6   7
ATOM      7  C   UNL     1      24.243  56.128  -6.733  1.00  0.00     0.072 C 
BRANCH   7   8
ATOM      8  C   UNL     1      22.937  55.422  -6.500  1.00  0.00     0.224 C 
ATOM      9  O   UNL     1      22.618  55.092  -5.369  1.00  0.00    -0.303 OA
ENDBRANCH   7   8
ENDBRANCH   6   7
ENDBRANCH   1   6
TORSDOF 6
ENDMDL
MODEL 2
REMARK VINA RESULT:    -3.802      1.037      1.676
REMARK INTER + INTRA:          -5.367
REMARK INTER:                  -5.233
REMARK INTRA:                  -0.134
REMARK UNBOUND:                -0.231
REMARK SMILES CCCCCCCC=O
REMARK SMILES IDX 5 1 4 2 3 3 2 4 1 5 6 6 7 7 8 8 9 9
REMARK H PARENT
REMARK Flexibility Score: inf
ROOT
ATOM      1  C   UNL     1      25.756  58.474  -8.317  1.00  0.00     0.000 C 
ENDROOT
BRANCH   1   2
ATOM      2  C   UNL     1      26.922  59.110  -9.090  1.00  0.00     0.000 C 
BRANCH   2   3
ATOM      3  C   UNL     1      27.138  60.587  -8.722  1.00  0.00    -0.000 C 
BRANCH   3   4
ATOM      4  C   UNL     1      28.417  61.171  -9.340  1.00  0.00    -0.003 C 
ATOM      5  C   UNL     1      29.253  60.079 -10.004  1.00  0.00     0.004 C 
ENDBRANCH   3   4
ENDBRANCH   2   3
ENDBRANCH   1   2
BRANCH   1   6
ATOM      6  C   UNL     1      25.542  56.990  -8.664  1.00  0.00     0.008 C 
BRANCH   6   7
ATOM      7  C   UNL     1      25.469  56.068  -7.432  1.00  0.00     0.072 C 
BRANCH   7   8
ATOM      8  C   UNL     1      24.110  56.067  -6.790  1.00  0.00     0.224 C 
ATOM      9  O   UNL     1      23.254  55.292  -7.182  1.00  0.00    -0.303 OA
ENDBRANCH   7   8
ENDBRANCH   6   7
ENDBRANCH   1   6
TORSDOF 6
ENDMDL
MODEL 3
REMARK VINA RESULT:    -3.713      3.533      6.115
REMARK INTER + INTRA:          -5.247
REMARK INTER:                  -5.126
REMARK INTRA:                  -0.121
REMARK UNBOUND:                -0.231
REMARK SMILES CCCCCCCC=O
REMARK SMILES IDX 5 1 4 2 3 3 2 4 1 5 6 6 7 7 8 8 9 9
REMARK H PARENT
REMARK Flexibility Score: inf
ROOT
ATOM      1  C   UNL     1      26.974  59.037  -9.151  1.00  0.00     0.000 C 
ENDROOT
BRANCH   1   2
ATOM      2  C   UNL     1      25.794  58.493  -8.333  1.00  0.00     0.000 C 
BRANCH   2   3
ATOM      3  C   UNL     1      25.541  56.997  -8.583  1.00  0.00    -0.000 C 
BRANCH   3   4
ATOM      4  C   UNL     1      25.298  56.212  -7.286  1.00  0.00    -0.003 C 
ATOM      5  C   UNL     1      23.817  55.884  -7.112  1.00  0.00     0.004 C 
ENDBRANCH   3   4
ENDBRANCH   2   3
ENDBRANCH   1   2
BRANCH   1   6
ATOM      6  C   UNL     1      27.292  60.511  -8.844  1.00  0.00     0.008 C 
BRANCH   6   7
ATOM      7  C   UNL     1      28.515  61.055  -9.606  1.00  0.00     0.072 C 
BRANCH   7   8
ATOM      8  C   UNL     1      29.691  60.121  -9.552  1.00  0.00     0.224 C 
ATOM      9  O   UNL     1      30.174  59.692 -10.588  1.00  0.00    -0.303 OA
ENDBRANCH   7   8
ENDBRANCH   6   7
ENDBRANCH   1   6
TORSDOF 6
ENDMDL
MODEL 4
REMARK VINA RESULT:    -3.697      3.301      5.939
REMARK INTER + INTRA:          -5.224
REMARK INTER:                  -5.130
REMARK INTRA:                  -0.095
REMARK UNBOUND:                -0.231
REMARK SMILES CCCCCCCC=O
REMARK SMILES IDX 5 1 4 2 3 3 2 4 1 5 6 6 7 7 8 8 9 9
REMARK H PARENT
REMARK Flexibility Score: inf
ROOT
ATOM      1  C   UNL     1      25.737  57.378  -8.673  1.00  0.00     0.000 C 
ENDROOT
BRANCH   1   2
ATOM      2  C   UNL     1      25.340  56.689  -7.359  1.00  0.00     0.000 C 
BRANCH   2   3
ATOM      3  C   UNL     1      24.411  55.483  -7.582  1.00  0.00    -0.000 C 
BRANCH   3   4
ATOM      4  C   UNL     1      23.004  55.706  -7.010  1.00  0.00    -0.003 C 
ATOM      5  C   UNL     1      22.906  55.191  -5.576  1.00  0.00     0.004 C 
ENDBRANCH   3   4
ENDBRANCH   2   3
ENDBRANCH   1   2
BRANCH   1   6
ATOM      6  C   UNL     1      26.120  58.857  -8.486  1.00  0.00     0.008 C 
BRANCH   6   7
ATOM      7  C   UNL     1      27.293  59.313  -9.374  1.00  0.00     0.072 C 
BRANCH   7   8
ATOM      8  C   UNL     1      27.715  60.727  -9.093  1.00  0.00     0.224 C 
ATOM      9  O   UNL     1      28.618  61.232  -9.740  1.00  0.00    -0.303 OA
ENDBRANCH   7   8
ENDBRANCH   6   7
ENDBRANCH   1   6
TORSDOF 6
ENDMDL
MODEL 5
REMARK VINA RESULT:    -3.645      1.186      2.088
REMARK INTER + INTRA:          -5.154
REMARK INTER:                  -4.990
REMARK INTRA:                  -0.165
REMARK UNBOUND:                -0.231
REMARK SMILES CCCCCCCC=O
REMARK SMILES IDX 5 1 4 2 3 3 2 4 1 5 6 6 7 7 8 8 9 9
REMARK H PARENT
REMARK Flexibility Score: inf
ROOT
ATOM      1  C   UNL     1      26.629  58.749  -8.853  1.00  0.00     0.000 C 
ENDROOT
BRANCH   1   2
ATOM      2  C   UNL     1      26.648  60.284  -8.798  1.00  0.00     0.000 C 
BRANCH   2   3
ATOM      3  C   UNL     1      28.063  60.863  -8.958  1.00  0.00    -0.000 C 
BRANCH   3   4
ATOM      4  C   UNL     1      28.947  60.019  -9.887  1.00  0.00    -0.003 C 
ATOM      5  C   UNL     1      30.409  60.068  -9.449  1.00  0.00     0.004 C 
ENDBRANCH   3   4
ENDBRANCH   2   3
ENDBRANCH   1   2
BRANCH   1   6
ATOM      6  C   UNL     1      25.406  58.135  -8.150  1.00  0.00     0.008 C 
BRANCH   6   7
ATOM      7  C   UNL     1      25.522  56.618  -7.910  1.00  0.00     0.072 C 
BRANCH   7   8
ATOM      8  C   UNL     1      24.196  55.976  -7.616  1.00  0.00     0.224 C 
ATOM      9  O   UNL     1      23.803  55.891  -6.464  1.00  0.00    -0.303 OA
ENDBRANCH   7   8
ENDBRANCH   6   7
ENDBRANCH   1   6
TORSDOF 6
ENDMDL
MODEL 6
REMARK VINA RESULT:    -3.475     16.551     17.778
REMARK INTER + INTRA:          -4.926
REMARK INTER:                  -4.632
REMARK INTRA:                  -0.293
REMARK UNBOUND:                -0.231
REMARK SMILES CCCCCCCC=O
REMARK SMILES IDX 5 1 4 2 3 3 2 4 1 5 6 6 7 7 8 8 9 9
REMARK H PARENT
REMARK Flexibility Score: inf
ROOT
ATOM      1  C   UNL     1      18.306  44.281   0.727  1.00  0.00     0.000 C 
ENDROOT
BRANCH   1   2
ATOM      2  C   UNL     1      17.546  44.160   2.056  1.00  0.00     0.000 C 
BRANCH   2   3
ATOM      3  C   UNL     1      16.188  44.882   2.028  1.00  0.00    -0.000 C 
BRANCH   3   4
ATOM      4  C   UNL     1      15.951  45.646   0.717  1.00  0.00    -0.003 C 
ATOM      5  C   UNL     1      14.646  46.435   0.769  1.00  0.00     0.004 C 
ENDBRANCH   3   4
ENDBRANCH   2   3
ENDBRANCH   1   2
BRANCH   1   6
ATOM      6  C   UNL     1      19.657  45.003   0.869  1.00  0.00     0.008 C 
BRANCH   6   7
ATOM      7  C   UNL     1      20.530  44.469   2.020  1.00  0.00     0.072 C 
BRANCH   7   8
ATOM      8  C   UNL     1      21.200  43.167   1.682  1.00  0.00     0.224 C 
ATOM      9  O   UNL     1      21.688  43.005   0.576  1.00  0.00    -0.303 OA
ENDBRANCH   7   8
ENDBRANCH   6   7
ENDBRANCH   1   6
TORSDOF 6
ENDMDL
MODEL 7
REMARK VINA RESULT:    -3.339     15.168     16.297
REMARK INTER + INTRA:          -4.742
REMARK INTER:                  -4.533
REMARK INTRA:                  -0.208
REMARK UNBOUND:                -0.231
REMARK SMILES CCCCCCCC=O
REMARK SMILES IDX 5 1 4 2 3 3 2 4 1 5 6 6 7 7 8 8 9 9
REMARK H PARENT
REMARK Flexibility Score: inf
ROOT
ATOM      1  C   UNL     1      32.915  45.544   2.044  1.00  0.00     0.000 C 
ENDROOT
BRANCH   1   2
ATOM      2  C   UNL     1      33.148  47.039   2.313  1.00  0.00     0.000 C 
BRANCH   2   3
ATOM      3  C   UNL     1      33.291  47.354   3.811  1.00  0.00    -0.000 C 
BRANCH   3   4
ATOM      4  C   UNL     1      32.188  48.290   4.327  1.00  0.00    -0.003 C 
ATOM      5  C   UNL     1      32.657  49.743   4.329  1.00  0.00     0.004 C 
ENDBRANCH   3   4
ENDBRANCH   2   3
ENDBRANCH   1   2
BRANCH   1   6
ATOM      6  C   UNL     1      31.864  45.285   0.951  1.00  0.00     0.008 C 
BRANCH   6   7
ATOM      7  C   UNL     1      30.443  45.737   1.335  1.00  0.00     0.072 C 
BRANCH   7   8
ATOM      8  C   UNL     1      29.451  45.534   0.225  1.00  0.00     0.224 C 
ATOM      9  O   UNL     1      28.484  46.272   0.131  1.00  0.00    -0.303 OA
ENDBRANCH   7   8
ENDBRANCH   6   7
ENDBRANCH   1   6
TORSDOF 6
ENDMDL
MODEL 8
REMARK VINA RESULT:    -3.339     16.532     17.601
REMARK INTER + INTRA:          -4.741
REMARK INTER:                  -4.468
REMARK INTRA:                  -0.273
REMARK UNBOUND:                -0.231
REMARK SMILES CCCCCCCC=O
REMARK SMILES IDX 5 1 4 2 3 3 2 4 1 5 6 6 7 7 8 8 9 9
REMARK H PARENT
REMARK Flexibility Score: inf
ROOT
ATOM      1  C   UNL     1      17.905  43.972   1.769  1.00  0.00     0.000 C 
ENDROOT
BRANCH   1   2
ATOM      2  C   UNL     1      18.811  44.656   0.734  1.00  0.00     0.000 C 
BRANCH   2   3
ATOM      3  C   UNL     1      20.217  44.949   1.282  1.00  0.00    -0.000 C 
BRANCH   3   4
ATOM      4  C   UNL     1      20.876  43.713   1.913  1.00  0.00    -0.003 C 
ATOM      5  C   UNL     1      21.417  42.772   0.840  1.00  0.00     0.004 C 
ENDBRANCH   3   4
ENDBRANCH   2   3
ENDBRANCH   1   2
BRANCH   1   6
ATOM      6  C   UNL     1      16.413  44.029   1.396  1.00  0.00     0.008 C 
BRANCH   6   7
ATOM      7  C   UNL     1      15.650  45.190   2.060  1.00  0.00     0.072 C 
BRANCH   7   8
ATOM      8  C   UNL     1      15.106  46.172   1.061  1.00  0.00     0.224 C 
ATOM      9  O   UNL     1      15.651  46.300  -0.023  1.00  0.00    -0.303 OA
ENDBRANCH   7   8
ENDBRANCH   6   7
ENDBRANCH   1   6
TORSDOF 6
ENDMDL
MODEL 9
REMARK VINA RESULT:    -3.273     15.731     17.611
REMARK INTER + INTRA:          -4.652
REMARK INTER:                  -4.165
REMARK INTRA:                  -0.487
REMARK UNBOUND:                -0.231
REMARK SMILES CCCCCCCC=O
REMARK SMILES IDX 5 1 4 2 3 3 2 4 1 5 6 6 7 7 8 8 9 9
REMARK H PARENT
REMARK Flexibility Score: inf
ROOT
ATOM      1  C   UNL     1      16.959  43.143   1.358  1.00  0.00     0.000 C 
ENDROOT
BRANCH   1   2
ATOM      2  C   UNL     1      18.453  42.813   1.215  1.00  0.00     0.000 C 
BRANCH   2   3
ATOM      3  C   UNL     1      19.342  43.706   2.096  1.00  0.00    -0.000 C 
BRANCH   3   4
ATOM      4  C   UNL     1      20.454  44.405   1.300  1.00  0.00    -0.003 C 
ATOM      5  C   UNL     1      19.901  45.584   0.504  1.00  0.00     0.004 C 
ENDBRANCH   3   4
ENDBRANCH   2   3
ENDBRANCH   1   2
BRANCH   1   6
ATOM      6  C   UNL     1      16.704  44.467   2.102  1.00  0.00     0.008 C 
BRANCH   6   7
ATOM      7  C   UNL     1      15.730  45.411   1.372  1.00  0.00     0.072 C 
BRANCH   7   8
ATOM      8  C   UNL     1      16.032  45.531  -0.095  1.00  0.00     0.224 C 
ATOM      9  O   UNL     1      16.438  46.589  -0.548  1.00  0.00    -0.303 OA
ENDBRANCH   7   8
ENDBRANCH   6   7
ENDBRANCH   1   6
TORSDOF 6
ENDMDL
