MODEL 1
REMARK VINA RESULT:    -4.634      0.000      0.000
REMARK INTER + INTRA:          -6.383
REMARK INTER:                  -5.988
REMARK INTRA:                  -0.394
REMARK UNBOUND:                -0.394
REMARK SMILES CCO[C@H]1O[C@@H](CO)[C@H](O)[C@@H](O)[C@H]1O
REMARK SMILES IDX 4 1 13 2 11 3 9 4 6 5 5 6 3 7 2 8 1 9 14 10 12 12 7 14 8 15
REMARK SMILES IDX 10 17
REMARK H PARENT 14 11 12 13 8 16 10 18
REMARK Flexibility Score: inf
ROOT
ATOM      1  C   UNL     1      37.509   4.032  43.499  1.00  0.00     0.281 C 
ATOM      2  C   UNL     1      36.032   4.217  43.886  1.00  0.00     0.202 C 
ATOM      3  C   UNL     1      35.561   5.650  43.607  1.00  0.00     0.179 C 
ATOM      4  C   UNL     1      36.528   6.654  44.262  1.00  0.00     0.177 C 
ATOM      5  C   UNL     1      38.009   6.333  43.934  1.00  0.00     0.178 C 
ATOM      6  O   UNL     1      38.357   4.970  44.153  1.00  0.00    -0.341 OA
ENDROOT
BRANCH   1   7
ATOM      7  O   UNL     1      37.665   4.079  42.092  1.00  0.00    -0.350 OA
BRANCH   7   8
ATOM      8  C   UNL     1      38.684   3.193  41.679  1.00  0.00     0.160 C 
ATOM      9  C   UNL     1      38.441   1.829  42.304  1.00  0.00     0.035 C 
ENDBRANCH   7   8
ENDBRANCH   1   7
BRANCH   2  10
ATOM     10  O   UNL     1      35.241   3.293  43.183  1.00  0.00    -0.385 OA
ATOM     11  H   UNL     1      34.413   3.161  43.715  1.00  0.00     0.211 HD
ENDBRANCH   2  10
BRANCH   3  12
ATOM     12  O   UNL     1      35.468   5.869  42.223  1.00  0.00    -0.387 OA
ATOM     13  H   UNL     1      34.902   6.675  42.097  1.00  0.00     0.211 HD
ENDBRANCH   3  12
BRANCH   5  14
ATOM     14  C   UNL     1      38.478   6.852  42.557  1.00  0.00     0.191 C 
BRANCH  14  15
ATOM     15  O   UNL     1      37.952   8.126  42.302  1.00  0.00    -0.394 OA
ATOM     16  H   UNL     1      38.094   8.666  43.123  1.00  0.00     0.210 HD
ENDBRANCH  14  15
ENDBRANCH   5  14
BRANCH   4  17
ATOM     17  O   UNL     1      36.360   6.622  45.658  1.00  0.00    -0.387 OA
ATOM     18  H   UNL     1      36.724   7.475  46.013  1.00  0.00     0.211 HD
ENDBRANCH   4  17
TORSDOF 7
ENDMDL
MODEL 2
REMARK VINA RESULT:    -4.629      1.494      3.231
REMARK INTER + INTRA:          -6.376
REMARK INTER:                  -6.157
REMARK INTRA:                  -0.220
REMARK UNBOUND:                -0.394
REMARK SMILES CCO[C@H]1O[C@@H](CO)[C@H](O)[C@@H](O)[C@H]1O
REMARK SMILES IDX 4 1 13 2 11 3 9 4 6 5 5 6 3 7 2 8 1 9 14 10 12 12 7 14 8 15
REMARK SMILES IDX 10 17
REMARK H PARENT 14 11 12 13 8 16 10 18
REMARK Flexibility Score: inf
ROOT
ATOM      1  C   UNL     1      36.102   4.801  42.301  1.00  0.00     0.281 C 
ATOM      2  C   UNL     1      37.585   5.205  42.244  1.00  0.00     0.202 C 
ATOM      3  C   UNL     1      38.086   5.671  43.617  1.00  0.00     0.179 C 
ATOM      4  C   UNL     1      37.145   6.756  44.174  1.00  0.00     0.177 C 
ATOM      5  C   UNL     1      35.655   6.335  44.084  1.00  0.00     0.178 C 
ATOM      6  O   UNL     1      35.279   5.849  42.799  1.00  0.00    -0.341 OA
ENDROOT
BRANCH   1   7
ATOM      7  O   UNL     1      35.940   3.608  43.048  1.00  0.00    -0.350 OA
BRANCH   7   8
ATOM      8  C   UNL     1      34.965   2.780  42.447  1.00  0.00     0.160 C 
ATOM      9  C   UNL     1      35.439   1.336  42.496  1.00  0.00     0.035 C 
ENDBRANCH   7   8
ENDBRANCH   1   7
BRANCH   2  10
ATOM     10  O   UNL     1      38.353   4.122  41.784  1.00  0.00    -0.385 OA
ATOM     11  H   UNL     1      37.876   3.747  40.997  1.00  0.00     0.211 HD
ENDBRANCH   2  10
BRANCH   3  12
ATOM     12  O   UNL     1      38.175   4.581  44.498  1.00  0.00    -0.387 OA
ATOM     13  H   UNL     1      38.673   3.866  44.021  1.00  0.00     0.211 HD
ENDBRANCH   3  12
BRANCH   5  14
ATOM     14  C   UNL     1      35.189   5.409  45.229  1.00  0.00     0.191 C 
BRANCH  14  15
ATOM     15  O   UNL     1      35.003   6.138  46.412  1.00  0.00    -0.394 OA
ATOM     16  H   UNL     1      34.081   6.504  46.382  1.00  0.00     0.210 HD
ENDBRANCH  14  15
ENDBRANCH   5  14
BRANCH   4  17
ATOM     17  O   UNL     1      37.320   7.946  43.447  1.00  0.00    -0.387 OA
ATOM     18  H   UNL     1      37.199   8.697  44.085  1.00  0.00     0.211 HD
ENDBRANCH   4  17
TORSDOF 7
ENDMDL
MODEL 3
REMARK VINA RESULT:    -4.409      1.642      3.905
REMARK INTER + INTRA:          -6.093
REMARK INTER:                  -5.637
REMARK INTRA:                  -0.456
REMARK UNBOUND:                -0.394
REMARK SMILES CCO[C@H]1O[C@@H](CO)[C@H](O)[C@@H](O)[C@H]1O
REMARK SMILES IDX 4 1 13 2 11 3 9 4 6 5 5 6 3 7 2 8 1 9 14 10 12 12 7 14 8 15
REMARK SMILES IDX 10 17
REMARK H PARENT 14 11 12 13 8 16 10 18
REMARK Flexibility Score: inf
ROOT
ATOM      1  C   UNL     1      36.274   4.260  43.161  1.00  0.00     0.281 C 
ATOM      2  C   UNL     1      36.807   2.879  43.579  1.00  0.00     0.202 C 
ATOM      3  C   UNL     1      38.339   2.830  43.500  1.00  0.00     0.179 C 
ATOM      4  C   UNL     1      38.805   3.306  42.112  1.00  0.00     0.177 C 
ATOM      5  C   UNL     1      38.131   4.640  41.698  1.00  0.00     0.178 C 
ATOM      6  O   UNL     1      36.716   4.636  41.862  1.00  0.00    -0.341 OA
ENDROOT
BRANCH   1   7
ATOM      7  O   UNL     1      36.608   5.237  44.131  1.00  0.00    -0.350 OA
BRANCH   7   8
ATOM      8  C   UNL     1      35.663   6.287  44.118  1.00  0.00     0.160 C 
ATOM      9  C   UNL     1      36.279   7.519  44.763  1.00  0.00     0.035 C 
ENDBRANCH   7   8
ENDBRANCH   1   7
BRANCH   2  10
ATOM     10  O   UNL     1      36.373   2.579  44.881  1.00  0.00    -0.385 OA
ATOM     11  H   UNL     1      36.536   1.610  45.021  1.00  0.00     0.211 HD
ENDBRANCH   2  10
BRANCH   3  12
ATOM     12  O   UNL     1      38.903   3.615  44.519  1.00  0.00    -0.387 OA
ATOM     13  H   UNL     1      38.439   4.493  44.495  1.00  0.00     0.211 HD
ENDBRANCH   3  12
BRANCH   5  14
ATOM     14  C   UNL     1      38.795   5.898  42.301  1.00  0.00     0.191 C 
BRANCH  14  15
ATOM     15  O   UNL     1      40.124   5.633  42.660  1.00  0.00    -0.394 OA
ATOM     16  H   UNL     1      40.155   4.692  42.974  1.00  0.00     0.210 HD
ENDBRANCH  14  15
ENDBRANCH   5  14
BRANCH   4  17
ATOM     17  O   UNL     1      38.492   2.328  41.151  1.00  0.00    -0.387 OA
ATOM     18  H   UNL     1      38.414   1.463  41.633  1.00  0.00     0.211 HD
ENDBRANCH   4  17
TORSDOF 7
ENDMDL
MODEL 4
REMARK VINA RESULT:    -4.333      1.710      3.351
REMARK INTER + INTRA:          -5.993
REMARK INTER:                  -5.489
REMARK INTRA:                  -0.504
REMARK UNBOUND:                -0.394
REMARK SMILES CCO[C@H]1O[C@@H](CO)[C@H](O)[C@@H](O)[C@H]1O
REMARK SMILES IDX 4 1 13 2 11 3 9 4 6 5 5 6 3 7 2 8 1 9 14 10 12 12 7 14 8 15
REMARK SMILES IDX 10 17
REMARK H PARENT 14 11 12 13 8 16 10 18
REMARK Flexibility Score: inf
ROOT
ATOM      1  C   UNL     1      38.822   3.547  43.085  1.00  0.00     0.281 C 
ATOM      2  C   UNL     1      39.643   4.765  43.540  1.00  0.00     0.202 C 
ATOM      3  C   UNL     1      38.809   6.051  43.478  1.00  0.00     0.179 C 
ATOM      4  C   UNL     1      38.170   6.191  42.083  1.00  0.00     0.177 C 
ATOM      5  C   UNL     1      37.467   4.884  41.632  1.00  0.00     0.178 C 
ATOM      6  O   UNL     1      38.278   3.722  41.781  1.00  0.00    -0.341 OA
ENDROOT
BRANCH   1   7
ATOM      7  O   UNL     1      37.816   3.241  44.035  1.00  0.00    -0.350 OA
BRANCH   7   8
ATOM      8  C   UNL     1      37.857   1.871  44.372  1.00  0.00     0.160 C 
ATOM      9  C   UNL     1      36.695   1.157  43.701  1.00  0.00     0.035 C 
ENDBRANCH   7   8
ENDBRANCH   1   7
BRANCH   2  10
ATOM     10  O   UNL     1      40.120   4.552  44.844  1.00  0.00    -0.385 OA
ATOM     11  H   UNL     1      41.111   4.522  44.785  1.00  0.00     0.211 HD
ENDBRANCH   2  10
BRANCH   3  12
ATOM     12  O   UNL     1      37.827   6.043  44.483  1.00  0.00    -0.387 OA
ATOM     13  H   UNL     1      36.950   6.150  44.030  1.00  0.00     0.211 HD
ENDBRANCH   3  12
BRANCH   5  14
ATOM     14  C   UNL     1      36.048   4.696  42.212  1.00  0.00     0.191 C 
BRANCH  14  15
ATOM     15  O   UNL     1      35.486   5.933  42.558  1.00  0.00    -0.394 OA
ATOM     16  H   UNL     1      36.238   6.529  42.813  1.00  0.00     0.210 HD
ENDBRANCH  14  15
ENDBRANCH   5  14
BRANCH   4  17
ATOM     17  O   UNL     1      39.164   6.514  41.143  1.00  0.00    -0.387 OA
ATOM     18  H   UNL     1      38.813   7.264  40.595  1.00  0.00     0.211 HD
ENDBRANCH   4  17
TORSDOF 7
ENDMDL
MODEL 5
REMARK VINA RESULT:    -4.304     14.418     16.177
REMARK INTER + INTRA:          -5.957
REMARK INTER:                  -5.517
REMARK INTRA:                  -0.439
REMARK UNBOUND:                -0.394
REMARK SMILES CCO[C@H]1O[C@@H](CO)[C@H](O)[C@@H](O)[C@H]1O
REMARK SMILES IDX 4 1 13 2 11 3 9 4 6 5 5 6 3 7 2 8 1 9 14 10 12 12 7 14 8 15
REMARK SMILES IDX 10 17
REMARK H PARENT 14 11 12 13 8 16 10 18
REMARK Flexibility Score: inf
ROOT
ATOM      1  C   UNL     1      22.749   3.986  40.955  1.00  0.00     0.281 C 
ATOM      2  C   UNL     1      22.274   3.937  39.493  1.00  0.00     0.202 C 
ATOM      3  C   UNL     1      20.761   3.698  39.409  1.00  0.00     0.179 C 
ATOM      4  C   UNL     1      20.381   2.464  40.250  1.00  0.00     0.177 C 
ATOM      5  C   UNL     1      20.999   2.517  41.672  1.00  0.00     0.178 C 
ATOM      6  O   UNL     1      22.393   2.811  41.675  1.00  0.00    -0.341 OA
ENDROOT
BRANCH   1   7
ATOM      7  O   UNL     1      22.272   5.157  41.595  1.00  0.00    -0.350 OA
BRANCH   7   8
ATOM      8  C   UNL     1      23.231   5.642  42.511  1.00  0.00     0.160 C 
ATOM      9  C   UNL     1      23.679   7.028  42.076  1.00  0.00     0.035 C 
ENDBRANCH   7   8
ENDBRANCH   1   7
BRANCH   2  10
ATOM     10  O   UNL     1      22.618   5.135  38.845  1.00  0.00    -0.385 OA
ATOM     11  H   UNL     1      21.956   5.268  38.117  1.00  0.00     0.211 HD
ENDBRANCH   2  10
BRANCH   3  12
ATOM     12  O   UNL     1      20.064   4.837  39.843  1.00  0.00    -0.387 OA
ATOM     13  H   UNL     1      19.223   4.878  39.317  1.00  0.00     0.211 HD
ENDBRANCH   3  12
BRANCH   5  14
ATOM     14  C   UNL     1      20.207   3.386  42.674  1.00  0.00     0.191 C 
BRANCH  14  15
ATOM     15  O   UNL     1      20.895   3.490  43.891  1.00  0.00    -0.394 OA
ATOM     16  H   UNL     1      20.212   3.464  44.611  1.00  0.00     0.210 HD
ENDBRANCH  14  15
ENDBRANCH   5  14
BRANCH   4  17
ATOM     17  O   UNL     1      20.837   1.300  39.606  1.00  0.00    -0.387 OA
ATOM     18  H   UNL     1      21.233   0.718  40.306  1.00  0.00     0.211 HD
ENDBRANCH   4  17
TORSDOF 7
ENDMDL
MODEL 6
REMARK VINA RESULT:    -4.302     11.027     12.791
REMARK INTER + INTRA:          -5.954
REMARK INTER:                  -5.489
REMARK INTRA:                  -0.465
REMARK UNBOUND:                -0.394
REMARK SMILES CCO[C@H]1O[C@@H](CO)[C@H](O)[C@@H](O)[C@H]1O
REMARK SMILES IDX 4 1 13 2 11 3 9 4 6 5 5 6 3 7 2 8 1 9 14 10 12 12 7 14 8 15
REMARK SMILES IDX 10 17
REMARK H PARENT 14 11 12 13 8 16 10 18
REMARK Flexibility Score: inf
ROOT
ATOM      1  C   UNL     1      31.051  -2.962  34.824  1.00  0.00     0.281 C 
ATOM      2  C   UNL     1      29.569  -2.679  34.523  1.00  0.00     0.202 C 
ATOM      3  C   UNL     1      28.880  -2.003  35.715  1.00  0.00     0.179 C 
ATOM      4  C   UNL     1      29.131  -2.822  36.995  1.00  0.00     0.177 C 
ATOM      5  C   UNL     1      30.630  -3.182  37.171  1.00  0.00     0.178 C 
ATOM      6  O   UNL     1      31.220  -3.742  36.002  1.00  0.00    -0.341 OA
ENDROOT
BRANCH   1   7
ATOM      7  O   UNL     1      31.786  -1.752  34.887  1.00  0.00    -0.350 OA
BRANCH   7   8
ATOM      8  C   UNL     1      33.073  -1.929  34.334  1.00  0.00     0.160 C 
ATOM      9  C   UNL     1      33.012  -3.008  33.265  1.00  0.00     0.035 C 
ENDBRANCH   7   8
ENDBRANCH   1   7
BRANCH   2  10
ATOM     10  O   UNL     1      29.466  -1.875  33.375  1.00  0.00    -0.385 OA
ATOM     11  H   UNL     1      30.303  -1.345  33.321  1.00  0.00     0.211 HD
ENDBRANCH   2  10
BRANCH   3  12
ATOM     12  O   UNL     1      29.344  -0.685  35.861  1.00  0.00    -0.387 OA
ATOM     13  H   UNL     1      28.817  -0.124  35.234  1.00  0.00     0.211 HD
ENDBRANCH   3  12
BRANCH   5  14
ATOM     14  C   UNL     1      31.485  -2.050  37.783  1.00  0.00     0.191 C 
BRANCH  14  15
ATOM     15  O   UNL     1      30.679  -1.154  38.501  1.00  0.00    -0.394 OA
ATOM     16  H   UNL     1      29.754  -1.260  38.156  1.00  0.00     0.210 HD
ENDBRANCH  14  15
ENDBRANCH   5  14
BRANCH   4  17
ATOM     17  O   UNL     1      28.387  -4.014  36.943  1.00  0.00    -0.387 OA
ATOM     18  H   UNL     1      28.049  -4.104  36.013  1.00  0.00     0.211 HD
ENDBRANCH   4  17
TORSDOF 7
ENDMDL
MODEL 7
REMARK VINA RESULT:    -4.295      1.422      3.253
REMARK INTER + INTRA:          -5.944
REMARK INTER:                  -5.467
REMARK INTRA:                  -0.477
REMARK UNBOUND:                -0.394
REMARK SMILES CCO[C@H]1O[C@@H](CO)[C@H](O)[C@@H](O)[C@H]1O
REMARK SMILES IDX 4 1 13 2 11 3 9 4 6 5 5 6 3 7 2 8 1 9 14 10 12 12 7 14 8 15
REMARK SMILES IDX 10 17
REMARK H PARENT 14 11 12 13 8 16 10 18
REMARK Flexibility Score: inf
ROOT
ATOM      1  C   UNL     1      38.138   5.157  41.534  1.00  0.00     0.281 C 
ATOM      2  C   UNL     1      38.728   6.143  42.556  1.00  0.00     0.202 C 
ATOM      3  C   UNL     1      38.121   5.928  43.949  1.00  0.00     0.179 C 
ATOM      4  C   UNL     1      36.584   5.943  43.855  1.00  0.00     0.177 C 
ATOM      5  C   UNL     1      36.061   5.024  42.720  1.00  0.00     0.178 C 
ATOM      6  O   UNL     1      36.718   5.233  41.473  1.00  0.00    -0.341 OA
ENDROOT
BRANCH   1   7
ATOM      7  O   UNL     1      38.580   3.838  41.802  1.00  0.00    -0.350 OA
BRANCH   7   8
ATOM      8  C   UNL     1      38.753   3.122  40.596  1.00  0.00     0.160 C 
ATOM      9  C   UNL     1      38.366   1.669  40.820  1.00  0.00     0.035 C 
ENDBRANCH   7   8
ENDBRANCH   1   7
BRANCH   2  10
ATOM     10  O   UNL     1      40.125   5.996  42.601  1.00  0.00    -0.385 OA
ATOM     11  H   UNL     1      40.514   6.866  42.322  1.00  0.00     0.211 HD
ENDBRANCH   2  10
BRANCH   3  12
ATOM     12  O   UNL     1      38.581   4.720  44.498  1.00  0.00    -0.387 OA
ATOM     13  H   UNL     1      37.858   4.052  44.369  1.00  0.00     0.211 HD
ENDBRANCH   3  12
BRANCH   5  14
ATOM     14  C   UNL     1      35.977   3.530  43.104  1.00  0.00     0.191 C 
BRANCH  14  15
ATOM     15  O   UNL     1      36.002   3.375  44.497  1.00  0.00    -0.394 OA
ATOM     16  H   UNL     1      35.183   2.871  44.744  1.00  0.00     0.210 HD
ENDBRANCH  14  15
ENDBRANCH   5  14
BRANCH   4  17
ATOM     17  O   UNL     1      36.142   7.255  43.609  1.00  0.00    -0.387 OA
ATOM     18  H   UNL     1      36.170   7.738  44.476  1.00  0.00     0.211 HD
ENDBRANCH   4  17
TORSDOF 7
ENDMDL
MODEL 8
REMARK VINA RESULT:    -4.267      2.025      3.190
REMARK INTER + INTRA:          -5.909
REMARK INTER:                  -5.416
REMARK INTRA:                  -0.493
REMARK UNBOUND:                -0.394
REMARK SMILES CCO[C@H]1O[C@@H](CO)[C@H](O)[C@@H](O)[C@H]1O
REMARK SMILES IDX 4 1 13 2 11 3 9 4 6 5 5 6 3 7 2 8 1 9 14 10 12 12 7 14 8 15
REMARK SMILES IDX 10 17
REMARK H PARENT 14 11 12 13 8 16 10 18
REMARK Flexibility Score: inf
ROOT
ATOM      1  C   UNL     1      39.203   5.089  41.047  1.00  0.00     0.281 C 
ATOM      2  C   UNL     1      38.278   3.955  41.521  1.00  0.00     0.202 C 
ATOM      3  C   UNL     1      37.249   4.467  42.537  1.00  0.00     0.179 C 
ATOM      4  C   UNL     1      37.967   5.227  43.669  1.00  0.00     0.177 C 
ATOM      5  C   UNL     1      38.980   6.266  43.121  1.00  0.00     0.178 C 
ATOM      6  O   UNL     1      39.858   5.736  42.132  1.00  0.00    -0.341 OA
ENDROOT
BRANCH   1   7
ATOM      7  O   UNL     1      38.489   6.010  40.241  1.00  0.00    -0.350 OA
BRANCH   7   8
ATOM      8  C   UNL     1      39.307   6.482  39.191  1.00  0.00     0.160 C 
ATOM      9  C   UNL     1      39.016   7.956  38.957  1.00  0.00     0.035 C 
ENDBRANCH   7   8
ENDBRANCH   1   7
BRANCH   2  10
ATOM     10  O   UNL     1      37.630   3.380  40.415  1.00  0.00    -0.385 OA
ATOM     11  H   UNL     1      37.365   2.462  40.683  1.00  0.00     0.211 HD
ENDBRANCH   2  10
BRANCH   3  12
ATOM     12  O   UNL     1      36.304   5.289  41.900  1.00  0.00    -0.387 OA
ATOM     13  H   UNL     1      36.331   5.062  40.934  1.00  0.00     0.211 HD
ENDBRANCH   3  12
BRANCH   5  14
ATOM     14  C   UNL     1      38.341   7.605  42.691  1.00  0.00     0.191 C 
BRANCH  14  15
ATOM     15  O   UNL     1      37.136   7.822  43.376  1.00  0.00    -0.394 OA
ATOM     16  H   UNL     1      36.833   6.938  43.711  1.00  0.00     0.210 HD
ENDBRANCH  14  15
ENDBRANCH   5  14
BRANCH   4  17
ATOM     17  O   UNL     1      38.660   4.311  44.481  1.00  0.00    -0.387 OA
ATOM     18  H   UNL     1      38.857   3.517  43.919  1.00  0.00     0.211 HD
ENDBRANCH   4  17
TORSDOF 7
ENDMDL
MODEL 9
REMARK VINA RESULT:    -4.254      1.755      2.788
REMARK INTER + INTRA:          -5.892
REMARK INTER:                  -5.405
REMARK INTRA:                  -0.487
REMARK UNBOUND:                -0.394
REMARK SMILES CCO[C@H]1O[C@@H](CO)[C@H](O)[C@@H](O)[C@H]1O
REMARK SMILES IDX 4 1 13 2 11 3 9 4 6 5 5 6 3 7 2 8 1 9 14 10 12 12 7 14 8 15
REMARK SMILES IDX 10 17
REMARK H PARENT 14 11 12 13 8 16 10 18
REMARK Flexibility Score: inf
ROOT
ATOM      1  C   UNL     1      37.146   4.926  43.371  1.00  0.00     0.281 C 
ATOM      2  C   UNL     1      37.183   6.223  44.197  1.00  0.00     0.202 C 
ATOM      3  C   UNL     1      38.268   7.178  43.682  1.00  0.00     0.179 C 
ATOM      4  C   UNL     1      39.615   6.436  43.590  1.00  0.00     0.177 C 
ATOM      5  C   UNL     1      39.481   5.076  42.857  1.00  0.00     0.178 C 
ATOM      6  O   UNL     1      38.410   4.272  43.343  1.00  0.00    -0.341 OA
ENDROOT
BRANCH   1   7
ATOM      7  O   UNL     1      36.659   5.181  42.065  1.00  0.00    -0.350 OA
BRANCH   7   8
ATOM      8  C   UNL     1      36.030   4.031  41.542  1.00  0.00     0.160 C 
ATOM      9  C   UNL     1      35.153   3.409  42.617  1.00  0.00     0.035 C 
ENDBRANCH   7   8
ENDBRANCH   1   7
BRANCH   2  10
ATOM     10  O   UNL     1      35.924   6.844  44.157  1.00  0.00    -0.385 OA
ATOM     11  H   UNL     1      35.275   6.157  43.853  1.00  0.00     0.211 HD
ENDBRANCH   2  10
BRANCH   3  12
ATOM     12  O   UNL     1      37.898   7.707  42.435  1.00  0.00    -0.387 OA
ATOM     13  H   UNL     1      37.062   7.245  42.163  1.00  0.00     0.211 HD
ENDBRANCH   3  12
BRANCH   5  14
ATOM     14  C   UNL     1      39.489   5.185  41.316  1.00  0.00     0.191 C 
BRANCH  14  15
ATOM     15  O   UNL     1      40.123   6.366  40.906  1.00  0.00    -0.394 OA
ATOM     16  H   UNL     1      40.358   6.867  41.731  1.00  0.00     0.210 HD
ENDBRANCH  14  15
ENDBRANCH   5  14
BRANCH   4  17
ATOM     17  O   UNL     1      40.109   6.200  44.885  1.00  0.00    -0.387 OA
ATOM     18  H   UNL     1      41.099   6.187  44.820  1.00  0.00     0.211 HD
ENDBRANCH   4  17
TORSDOF 7
ENDMDL
