MODEL 1
REMARK VINA RESULT:    -3.799      0.000      0.000
REMARK INTER + INTRA:          -4.508
REMARK INTER:                  -4.465
REMARK INTRA:                  -0.043
REMARK UNBOUND:                -0.043
REMARK SMILES O=C([O-])CCC(=O)[O-]
REMARK SMILES IDX 4 1 2 2 1 3 3 4 5 5 6 6 7 7 8 8
REMARK H PARENT
REMARK Flexibility Score: inf
ROOT
ATOM      1  C   UNL     1       3.077 -37.092  16.218  1.00  0.00     0.059 C 
ENDROOT
BRANCH   1   2
ATOM      2  C   UNL     1       2.982 -37.547  14.794  1.00  0.00     0.042 C 
ATOM      3  O   UNL     1       2.020 -37.174  14.072  1.00  0.00    -0.550 OA
ATOM      4  O   UNL     1       3.934 -38.417  14.276  1.00  0.00    -0.550 OA
ENDBRANCH   1   2
BRANCH   1   5
ATOM      5  C   UNL     1       1.885 -37.580  17.048  1.00  0.00     0.059 C 
BRANCH   5   6
ATOM      6  C   UNL     1       2.325 -38.179  18.349  1.00  0.00     0.042 C 
ATOM      7  O   UNL     1       1.478 -38.670  19.140  1.00  0.00    -0.550 OA
ATOM      8  O   UNL     1       3.669 -38.159  18.704  1.00  0.00    -0.550 OA
ENDBRANCH   5   6
ENDBRANCH   1   5
TORSDOF 3
ENDMDL
MODEL 2
REMARK VINA RESULT:    -3.742      2.044      2.815
REMARK INTER + INTRA:          -4.441
REMARK INTER:                  -4.342
REMARK INTRA:                  -0.100
REMARK UNBOUND:                -0.043
REMARK SMILES O=C([O-])CCC(=O)[O-]
REMARK SMILES IDX 4 1 2 2 1 3 3 4 5 5 6 6 7 7 8 8
REMARK H PARENT
REMARK Flexibility Score: inf
ROOT
ATOM      1  C   UNL     1       2.395 -37.905  18.199  1.00  0.00     0.059 C 
ENDROOT
BRANCH   1   2
ATOM      2  C   UNL     1       2.396 -37.683  16.718  1.00  0.00     0.042 C 
ATOM      3  O   UNL     1       3.173 -38.343  15.979  1.00  0.00    -0.550 OA
ATOM      4  O   UNL     1       1.570 -36.716  16.158  1.00  0.00    -0.550 OA
ENDBRANCH   1   2
BRANCH   1   5
ATOM      5  C   UNL     1       3.817 -37.932  18.768  1.00  0.00     0.059 C 
BRANCH   5   6
ATOM      6  C   UNL     1       4.225 -36.591  19.299  1.00  0.00     0.042 C 
ATOM      7  O   UNL     1       4.153 -36.349  20.532  1.00  0.00    -0.550 OA
ATOM      8  O   UNL     1       4.647 -35.596  18.425  1.00  0.00    -0.550 OA
ENDBRANCH   5   6
ENDBRANCH   1   5
TORSDOF 3
ENDMDL
MODEL 3
REMARK VINA RESULT:    -3.730      2.036      4.073
REMARK INTER + INTRA:          -4.427
REMARK INTER:                  -4.329
REMARK INTRA:                  -0.098
REMARK UNBOUND:                -0.043
REMARK SMILES O=C([O-])CCC(=O)[O-]
REMARK SMILES IDX 4 1 2 2 1 3 3 4 5 5 6 6 7 7 8 8
REMARK H PARENT
REMARK Flexibility Score: inf
ROOT
ATOM      1  C   UNL     1       3.811 -37.920  18.733  1.00  0.00     0.059 C 
ENDROOT
BRANCH   1   2
ATOM      2  C   UNL     1       4.220 -36.576  19.255  1.00  0.00     0.042 C 
ATOM      3  O   UNL     1       4.172 -36.334  20.490  1.00  0.00    -0.550 OA
ATOM      4  O   UNL     1       4.615 -35.578  18.373  1.00  0.00    -0.550 OA
ENDBRANCH   1   2
BRANCH   1   5
ATOM      5  C   UNL     1       2.394 -37.892  18.150  1.00  0.00     0.059 C 
BRANCH   5   6
ATOM      6  C   UNL     1       2.412 -37.689  16.665  1.00  0.00     0.042 C 
ATOM      7  O   UNL     1       3.169 -38.386  15.939  1.00  0.00    -0.550 OA
ATOM      8  O   UNL     1       1.622 -36.703  16.088  1.00  0.00    -0.550 OA
ENDBRANCH   5   6
ENDBRANCH   1   5
TORSDOF 3
ENDMDL
MODEL 4
REMARK VINA RESULT:    -3.711      0.698      4.100
REMARK INTER + INTRA:          -4.405
REMARK INTER:                  -4.373
REMARK INTRA:                  -0.032
REMARK UNBOUND:                -0.043
REMARK SMILES O=C([O-])CCC(=O)[O-]
REMARK SMILES IDX 4 1 2 2 1 3 3 4 5 5 6 6 7 7 8 8
REMARK H PARENT
REMARK Flexibility Score: inf
ROOT
ATOM      1  C   UNL     1       1.695 -37.816  17.174  1.00  0.00     0.059 C 
ENDROOT
BRANCH   1   2
ATOM      2  C   UNL     1       1.672 -38.241  18.610  1.00  0.00     0.042 C 
ATOM      3  O   UNL     1       0.596 -38.621  19.142  1.00  0.00    -0.550 OA
ATOM      4  O   UNL     1       2.832 -38.177  19.373  1.00  0.00    -0.550 OA
ENDBRANCH   1   2
BRANCH   1   5
ATOM      5  C   UNL     1       3.103 -37.916  16.577  1.00  0.00     0.059 C 
BRANCH   5   6
ATOM      6  C   UNL     1       3.072 -37.884  15.080  1.00  0.00     0.042 C 
ATOM      7  O   UNL     1       2.282 -37.109  14.479  1.00  0.00    -0.550 OA
ATOM      8  O   UNL     1       3.887 -38.739  14.348  1.00  0.00    -0.550 OA
ENDBRANCH   5   6
ENDBRANCH   1   5
TORSDOF 3
ENDMDL
MODEL 5
REMARK VINA RESULT:    -3.679      2.941      4.215
REMARK INTER + INTRA:          -4.367
REMARK INTER:                  -4.339
REMARK INTRA:                  -0.028
REMARK UNBOUND:                -0.043
REMARK SMILES O=C([O-])CCC(=O)[O-]
REMARK SMILES IDX 4 1 2 2 1 3 3 4 5 5 6 6 7 7 8 8
REMARK H PARENT
REMARK Flexibility Score: inf
ROOT
ATOM      1  C   UNL     1       3.887 -37.047  19.267  1.00  0.00     0.059 C 
ENDROOT
BRANCH   1   2
ATOM      2  C   UNL     1       2.938 -37.900  18.482  1.00  0.00     0.042 C 
ATOM      3  O   UNL     1       3.093 -38.045  17.241  1.00  0.00    -0.550 OA
ATOM      4  O   UNL     1       1.857 -38.502  19.115  1.00  0.00    -0.550 OA
ENDBRANCH   1   2
BRANCH   1   5
ATOM      5  C   UNL     1       4.825 -37.895  20.132  1.00  0.00     0.059 C 
BRANCH   5   6
ATOM      6  C   UNL     1       5.325 -37.128  21.318  1.00  0.00     0.042 C 
ATOM      7  O   UNL     1       4.994 -37.473  22.483  1.00  0.00    -0.550 OA
ATOM      8  O   UNL     1       6.125 -36.006  21.135  1.00  0.00    -0.550 OA
ENDBRANCH   5   6
ENDBRANCH   1   5
TORSDOF 3
ENDMDL
MODEL 6
REMARK VINA RESULT:    -3.650      4.086      5.451
REMARK INTER + INTRA:          -4.334
REMARK INTER:                  -4.223
REMARK INTRA:                  -0.110
REMARK UNBOUND:                -0.043
REMARK SMILES O=C([O-])CCC(=O)[O-]
REMARK SMILES IDX 4 1 2 2 1 3 3 4 5 5 6 6 7 7 8 8
REMARK H PARENT
REMARK Flexibility Score: inf
ROOT
ATOM      1  C   UNL     1       4.403 -36.402  20.378  1.00  0.00     0.059 C 
ENDROOT
BRANCH   1   2
ATOM      2  C   UNL     1       4.397 -37.668  19.578  1.00  0.00     0.042 C 
ATOM      3  O   UNL     1       5.162 -38.619  19.891  1.00  0.00    -0.550 OA
ATOM      4  O   UNL     1       3.577 -37.784  18.463  1.00  0.00    -0.550 OA
ENDBRANCH   1   2
BRANCH   1   5
ATOM      5  C   UNL     1       5.613 -36.331  21.316  1.00  0.00     0.059 C 
BRANCH   5   6
ATOM      6  C   UNL     1       5.196 -36.297  22.754  1.00  0.00     0.042 C 
ATOM      7  O   UNL     1       4.786 -37.345  23.321  1.00  0.00    -0.550 OA
ATOM      8  O   UNL     1       5.220 -35.099  23.458  1.00  0.00    -0.550 OA
ENDBRANCH   5   6
ENDBRANCH   1   5
TORSDOF 3
ENDMDL
MODEL 7
REMARK VINA RESULT:    -3.604      5.457      6.852
REMARK INTER + INTRA:          -4.280
REMARK INTER:                  -4.245
REMARK INTRA:                  -0.034
REMARK UNBOUND:                -0.043
REMARK SMILES O=C([O-])CCC(=O)[O-]
REMARK SMILES IDX 4 1 2 2 1 3 3 4 5 5 6 6 7 7 8 8
REMARK H PARENT
REMARK Flexibility Score: inf
ROOT
ATOM      1  C   UNL     1       5.078 -36.492  22.333  1.00  0.00     0.059 C 
ENDROOT
BRANCH   1   2
ATOM      2  C   UNL     1       5.354 -36.872  20.911  1.00  0.00     0.042 C 
ATOM      3  O   UNL     1       5.815 -36.020  20.105  1.00  0.00    -0.550 OA
ATOM      4  O   UNL     1       5.063 -38.155  20.464  1.00  0.00    -0.550 OA
ENDBRANCH   1   2
BRANCH   1   5
ATOM      5  C   UNL     1       5.045 -37.720  23.250  1.00  0.00     0.059 C 
BRANCH   5   6
ATOM      6  C   UNL     1       5.206 -37.338  24.690  1.00  0.00     0.042 C 
ATOM      7  O   UNL     1       4.573 -37.957  25.584  1.00  0.00    -0.550 OA
ATOM      8  O   UNL     1       6.025 -36.271  25.040  1.00  0.00    -0.550 OA
ENDBRANCH   5   6
ENDBRANCH   1   5
TORSDOF 3
ENDMDL
MODEL 8
REMARK VINA RESULT:    -3.600      5.600      7.866
REMARK INTER + INTRA:          -4.275
REMARK INTER:                  -4.153
REMARK INTRA:                  -0.121
REMARK UNBOUND:                -0.043
REMARK SMILES O=C([O-])CCC(=O)[O-]
REMARK SMILES IDX 4 1 2 2 1 3 3 4 5 5 6 6 7 7 8 8
REMARK H PARENT
REMARK Flexibility Score: inf
ROOT
ATOM      1  C   UNL     1       5.839 -37.151  23.743  1.00  0.00     0.059 C 
ENDROOT
BRANCH   1   2
ATOM      2  C   UNL     1       5.034 -38.210  24.430  1.00  0.00     0.042 C 
ATOM      3  O   UNL     1       4.627 -38.033  25.609  1.00  0.00    -0.550 OA
ATOM      4  O   UNL     1       4.767 -39.411  23.784  1.00  0.00    -0.550 OA
ENDBRANCH   1   2
BRANCH   1   5
ATOM      5  C   UNL     1       5.010 -36.402  22.694  1.00  0.00     0.059 C 
BRANCH   5   6
ATOM      6  C   UNL     1       5.430 -36.758  21.301  1.00  0.00     0.042 C 
ATOM      7  O   UNL     1       6.125 -35.956  20.623  1.00  0.00    -0.550 OA
ATOM      8  O   UNL     1       5.020 -37.960  20.736  1.00  0.00    -0.550 OA
ENDBRANCH   5   6
ENDBRANCH   1   5
TORSDOF 3
ENDMDL
MODEL 9
REMARK VINA RESULT:    -3.028      2.873      5.213
REMARK INTER + INTRA:          -3.603
REMARK INTER:                  -3.574
REMARK INTRA:                  -0.029
REMARK UNBOUND:                -0.043
REMARK SMILES O=C([O-])CCC(=O)[O-]
REMARK SMILES IDX 4 1 2 2 1 3 3 4 5 5 6 6 7 7 8 8
REMARK H PARENT
REMARK Flexibility Score: inf
ROOT
ATOM      1  C   UNL     1       4.740 -37.947  20.082  1.00  0.00     0.059 C 
ENDROOT
BRANCH   1   2
ATOM      2  C   UNL     1       5.268 -37.124  21.216  1.00  0.00     0.042 C 
ATOM      3  O   UNL     1       4.908 -37.369  22.398  1.00  0.00    -0.550 OA
ATOM      4  O   UNL     1       6.125 -36.060  20.965  1.00  0.00    -0.550 OA
ENDBRANCH   1   2
BRANCH   1   5
ATOM      5  C   UNL     1       3.917 -37.101  19.105  1.00  0.00     0.059 C 
BRANCH   5   6
ATOM      6  C   UNL     1       2.924 -37.934  18.352  1.00  0.00     0.042 C 
ATOM      7  O   UNL     1       3.053 -38.107  17.112  1.00  0.00    -0.550 OA
ATOM      8  O   UNL     1       1.835 -38.486  19.015  1.00  0.00    -0.550 OA
ENDBRANCH   5   6
ENDBRANCH   1   5
TORSDOF 3
ENDMDL
