MODEL 1
REMARK VINA RESULT:    -5.562      0.000      0.000
REMARK INTER + INTRA:         -10.136
REMARK INTER:                  -8.489
REMARK INTRA:                  -1.647
REMARK UNBOUND:                -1.647
REMARK SMILES COc1cc(C=CC(=O)CC(=O)C=Cc2ccc(O)c(OC)c2)ccc1O
REMARK SMILES IDX 10 1 8 2 9 3 7 4 6 5 5 6 3 7 26 8 4 9 25 10 24 11 2 12 1 13
REMARK SMILES IDX 27 14 11 16 12 17 13 18 14 19 15 20 23 21 16 22 20 23 17 24
REMARK SMILES IDX 18 25 21 26 22 27 19 28
REMARK H PARENT 27 15 19 29
REMARK Flexibility Score: inf
ROOT
ATOM      1  C   UNL     1     152.258 153.957 183.427  1.00  0.00     0.160 C 
ENDROOT
BRANCH   1   2
ATOM      2  C   UNL     1     150.913 153.310 183.256  1.00  0.00     0.163 C 
ATOM      3  O   UNL     1     149.878 154.030 183.261  1.00  0.00    -0.294 OA
BRANCH   2   4
ATOM      4  C   UNL     1     150.813 151.835 183.198  1.00  0.00     0.048 C 
ATOM      5  C   UNL     1     150.922 151.090 182.087  1.00  0.00     0.012 C 
BRANCH   5   6
ATOM      6  C   UNL     1     151.343 151.589 180.761  1.00  0.00    -0.022 A 
ATOM      7  C   UNL     1     153.137 152.035 179.164  1.00  0.00     0.161 A 
ATOM      8  C   UNL     1     152.203 152.642 178.301  1.00  0.00     0.157 A 
ATOM      9  C   UNL     1     152.697 151.523 180.401  1.00  0.00     0.058 A 
ATOM     10  C   UNL     1     150.859 152.734 178.676  1.00  0.00     0.051 A 
ATOM     11  C   UNL     1     150.430 152.220 179.901  1.00  0.00     0.012 A 
BRANCH   7  12
ATOM     12  O   UNL     1     154.479 151.956 178.759  1.00  0.00    -0.493 OA
ATOM     13  C   UNL     1     155.018 150.916 177.950  1.00  0.00     0.278 C 
ENDBRANCH   7  12
BRANCH   8  14
ATOM     14  O   UNL     1     152.594 153.162 177.067  1.00  0.00    -0.504 OA
ATOM     15  H   UNL     1     153.460 152.889 176.617  1.00  0.00     0.293 HD
ENDBRANCH   8  14
ENDBRANCH   5   6
ENDBRANCH   2   4
ENDBRANCH   1   2
BRANCH   1  16
ATOM     16  C   UNL     1     153.208 153.095 184.223  1.00  0.00     0.163 C 
ATOM     17  O   UNL     1     153.225 153.175 185.483  1.00  0.00    -0.294 OA
BRANCH  16  18
ATOM     18  C   UNL     1     154.151 152.159 183.577  1.00  0.00     0.048 C 
ATOM     19  C   UNL     1     154.381 150.916 184.027  1.00  0.00     0.012 C 
BRANCH  19  20
ATOM     20  C   UNL     1     155.324 149.978 183.375  1.00  0.00    -0.022 A 
ATOM     21  C   UNL     1     156.221 149.186 184.114  1.00  0.00     0.058 A 
ATOM     22  C   UNL     1     155.289 149.844 181.980  1.00  0.00     0.012 A 
ATOM     23  C   UNL     1     157.095 148.290 183.465  1.00  0.00     0.161 A 
ATOM     24  C   UNL     1     156.155 148.964 181.332  1.00  0.00     0.051 A 
ATOM     25  C   UNL     1     157.057 148.190 182.063  1.00  0.00     0.157 A 
BRANCH  23  26
ATOM     26  O   UNL     1     158.000 147.487 184.175  1.00  0.00    -0.493 OA
ATOM     27  C   UNL     1     159.361 147.827 184.420  1.00  0.00     0.278 C 
ENDBRANCH  23  26
BRANCH  25  28
ATOM     28  O   UNL     1     157.908 147.321 181.380  1.00  0.00    -0.504 OA
ATOM     29  H   UNL     1     158.890 147.521 181.246  1.00  0.00     0.293 HD
ENDBRANCH  25  28
ENDBRANCH  19  20
ENDBRANCH  16  18
ENDBRANCH   1  16
TORSDOF 10
ENDMDL
MODEL 2
REMARK VINA RESULT:    -5.295      1.176      2.103
REMARK INTER + INTRA:          -9.729
REMARK INTER:                  -8.551
REMARK INTRA:                  -1.178
REMARK UNBOUND:                -1.647
REMARK SMILES COc1cc(C=CC(=O)CC(=O)C=Cc2ccc(O)c(OC)c2)ccc1O
REMARK SMILES IDX 10 1 8 2 9 3 7 4 6 5 5 6 3 7 26 8 4 9 25 10 24 11 2 12 1 13
REMARK SMILES IDX 27 14 11 16 12 17 13 18 14 19 15 20 23 21 16 22 20 23 17 24
REMARK SMILES IDX 18 25 21 26 22 27 19 28
REMARK H PARENT 27 15 19 29
REMARK Flexibility Score: inf
ROOT
ATOM      1  C   UNL     1     152.835 152.963 183.941  1.00  0.00     0.160 C 
ENDROOT
BRANCH   1   2
ATOM      2  C   UNL     1     151.416 152.744 183.499  1.00  0.00     0.163 C 
ATOM      3  O   UNL     1     150.613 153.716 183.502  1.00  0.00    -0.294 OA
BRANCH   2   4
ATOM      4  C   UNL     1     150.954 151.376 183.176  1.00  0.00     0.048 C 
ATOM      5  C   UNL     1     150.820 150.871 181.940  1.00  0.00     0.012 C 
BRANCH   5   6
ATOM      6  C   UNL     1     151.282 151.520 180.696  1.00  0.00    -0.022 A 
ATOM      7  C   UNL     1     153.112 152.062 179.170  1.00  0.00     0.161 A 
ATOM      8  C   UNL     1     152.227 152.847 178.405  1.00  0.00     0.157 A 
ATOM      9  C   UNL     1     152.630 151.413 180.325  1.00  0.00     0.058 A 
ATOM     10  C   UNL     1     150.890 152.976 178.794  1.00  0.00     0.051 A 
ATOM     11  C   UNL     1     150.419 152.327 179.936  1.00  0.00     0.012 A 
BRANCH   7  12
ATOM     12  O   UNL     1     154.447 151.949 178.754  1.00  0.00    -0.493 OA
ATOM     13  C   UNL     1     155.033 150.760 178.234  1.00  0.00     0.278 C 
ENDBRANCH   7  12
BRANCH   8  14
ATOM     14  O   UNL     1     152.659 153.506 177.254  1.00  0.00    -0.504 OA
ATOM     15  H   UNL     1     152.206 154.346 176.912  1.00  0.00     0.293 HD
ENDBRANCH   8  14
ENDBRANCH   5   6
ENDBRANCH   2   4
ENDBRANCH   1   2
BRANCH   1  16
ATOM     16  C   UNL     1     153.253 151.992 185.018  1.00  0.00     0.163 C 
ATOM     17  O   UNL     1     152.668 152.003 186.137  1.00  0.00    -0.294 OA
BRANCH  16  18
ATOM     18  C   UNL     1     154.354 151.026 184.823  1.00  0.00     0.048 C 
ATOM     19  C   UNL     1     154.865 150.281 185.815  1.00  0.00     0.012 C 
BRANCH  19  20
ATOM     20  C   UNL     1     155.966 149.310 185.617  1.00  0.00    -0.022 A 
ATOM     21  C   UNL     1     156.518 149.055 184.348  1.00  0.00     0.058 A 
ATOM     22  C   UNL     1     156.505 148.661 186.736  1.00  0.00     0.012 A 
ATOM     23  C   UNL     1     157.578 148.137 184.195  1.00  0.00     0.161 A 
ATOM     24  C   UNL     1     157.548 147.748 186.590  1.00  0.00     0.051 A 
ATOM     25  C   UNL     1     158.085 147.480 185.330  1.00  0.00     0.157 A 
BRANCH  23  26
ATOM     26  O   UNL     1     158.148 147.861 182.944  1.00  0.00    -0.493 OA
ATOM     27  C   UNL     1     157.406 147.576 181.763  1.00  0.00     0.278 C 
ENDBRANCH  23  26
BRANCH  25  28
ATOM     28  O   UNL     1     159.128 146.561 185.223  1.00  0.00    -0.504 OA
ATOM     29  H   UNL     1     158.968 145.584 185.017  1.00  0.00     0.293 HD
ENDBRANCH  25  28
ENDBRANCH  19  20
ENDBRANCH  16  18
ENDBRANCH   1  16
TORSDOF 10
ENDMDL
MODEL 3
REMARK VINA RESULT:    -5.289      2.199      6.555
REMARK INTER + INTRA:          -9.719
REMARK INTER:                  -7.843
REMARK INTRA:                  -1.875
REMARK UNBOUND:                -1.647
REMARK SMILES COc1cc(C=CC(=O)CC(=O)C=Cc2ccc(O)c(OC)c2)ccc1O
REMARK SMILES IDX 10 1 8 2 9 3 7 4 6 5 5 6 3 7 26 8 4 9 25 10 24 11 2 12 1 13
REMARK SMILES IDX 27 14 11 16 12 17 13 18 14 19 15 20 23 21 16 22 20 23 17 24
REMARK SMILES IDX 18 25 21 26 22 27 19 28
REMARK H PARENT 27 15 19 29
REMARK Flexibility Score: inf
ROOT
ATOM      1  C   UNL     1     157.129 149.767 186.445  1.00  0.00     0.160 C 
ENDROOT
BRANCH   1   2
ATOM      2  C   UNL     1     157.011 148.273 186.341  1.00  0.00     0.163 C 
ATOM      3  O   UNL     1     155.983 147.703 186.797  1.00  0.00    -0.294 OA
BRANCH   2   4
ATOM      4  C   UNL     1     158.144 147.485 185.809  1.00  0.00     0.048 C 
ATOM      5  C   UNL     1     158.461 147.354 184.512  1.00  0.00     0.012 C 
BRANCH   5   6
ATOM      6  C   UNL     1     157.852 148.114 183.401  1.00  0.00    -0.022 A 
ATOM      7  C   UNL     1     157.767 150.152 182.057  1.00  0.00     0.161 A 
ATOM      8  C   UNL     1     156.640 149.646 181.380  1.00  0.00     0.157 A 
ATOM      9  C   UNL     1     158.358 149.382 183.078  1.00  0.00     0.058 A 
ATOM     10  C   UNL     1     156.119 148.394 181.724  1.00  0.00     0.051 A 
ATOM     11  C   UNL     1     156.713 147.634 182.734  1.00  0.00     0.012 A 
BRANCH   7  12
ATOM     12  O   UNL     1     158.267 151.410 181.688  1.00  0.00    -0.493 OA
ATOM     13  C   UNL     1     157.966 152.628 182.362  1.00  0.00     0.278 C 
ENDBRANCH   7  12
BRANCH   8  14
ATOM     14  O   UNL     1     156.023 150.373 180.362  1.00  0.00    -0.504 OA
ATOM     15  H   UNL     1     155.062 150.687 180.430  1.00  0.00     0.293 HD
ENDBRANCH   8  14
ENDBRANCH   5   6
ENDBRANCH   2   4
ENDBRANCH   1   2
BRANCH   1  16
ATOM     16  C   UNL     1     155.781 150.447 186.452  1.00  0.00     0.163 C 
ATOM     17  O   UNL     1     155.315 150.909 187.530  1.00  0.00    -0.294 OA
BRANCH  16  18
ATOM     18  C   UNL     1     154.959 150.575 185.231  1.00  0.00     0.048 C 
ATOM     19  C   UNL     1     153.711 151.067 185.231  1.00  0.00     0.012 C 
BRANCH  19  20
ATOM     20  C   UNL     1     152.889 151.198 184.006  1.00  0.00    -0.022 A 
ATOM     21  C   UNL     1     153.462 151.227 182.721  1.00  0.00     0.058 A 
ATOM     22  C   UNL     1     151.494 151.250 184.129  1.00  0.00     0.012 A 
ATOM     23  C   UNL     1     152.651 151.335 181.573  1.00  0.00     0.161 A 
ATOM     24  C   UNL     1     150.687 151.364 182.998  1.00  0.00     0.051 A 
ATOM     25  C   UNL     1     151.255 151.410 181.723  1.00  0.00     0.157 A 
BRANCH  23  26
ATOM     26  O   UNL     1     153.193 151.366 180.280  1.00  0.00    -0.493 OA
ATOM     27  C   UNL     1     153.481 152.556 179.552  1.00  0.00     0.278 C 
ENDBRANCH  23  26
BRANCH  25  28
ATOM     28  O   UNL     1     150.417 151.524 180.615  1.00  0.00    -0.504 OA
ATOM     29  H   UNL     1     149.415 151.398 180.681  1.00  0.00     0.293 HD
ENDBRANCH  25  28
ENDBRANCH  19  20
ENDBRANCH  16  18
ENDBRANCH   1  16
TORSDOF 10
ENDMDL
MODEL 4
REMARK VINA RESULT:    -5.155      2.513      8.211
REMARK INTER + INTRA:          -9.515
REMARK INTER:                  -7.947
REMARK INTRA:                  -1.568
REMARK UNBOUND:                -1.647
REMARK SMILES COc1cc(C=CC(=O)CC(=O)C=Cc2ccc(O)c(OC)c2)ccc1O
REMARK SMILES IDX 10 1 8 2 9 3 7 4 6 5 5 6 3 7 26 8 4 9 25 10 24 11 2 12 1 13
REMARK SMILES IDX 27 14 11 16 12 17 13 18 14 19 15 20 23 21 16 22 20 23 17 24
REMARK SMILES IDX 18 25 21 26 22 27 19 28
REMARK H PARENT 27 15 19 29
REMARK Flexibility Score: inf
ROOT
ATOM      1  C   UNL     1     158.468 151.194 182.797  1.00  0.00     0.160 C 
ENDROOT
BRANCH   1   2
ATOM      2  C   UNL     1     158.934 149.769 182.894  1.00  0.00     0.163 C 
ATOM      3  O   UNL     1     160.094 149.527 183.326  1.00  0.00    -0.294 OA
BRANCH   2   4
ATOM      4  C   UNL     1     158.073 148.681 182.379  1.00  0.00     0.048 C 
ATOM      5  C   UNL     1     157.506 147.719 183.123  1.00  0.00     0.012 C 
BRANCH   5   6
ATOM      6  C   UNL     1     157.488 147.677 184.599  1.00  0.00    -0.022 A 
ATOM      7  C   UNL     1     156.367 148.236 186.697  1.00  0.00     0.161 A 
ATOM      8  C   UNL     1     157.473 147.733 187.410  1.00  0.00     0.157 A 
ATOM      9  C   UNL     1     156.391 148.215 185.288  1.00  0.00     0.058 A 
ATOM     10  C   UNL     1     158.579 147.225 186.720  1.00  0.00     0.051 A 
ATOM     11  C   UNL     1     158.594 147.204 185.324  1.00  0.00     0.012 A 
BRANCH   7  12
ATOM     12  O   UNL     1     155.271 148.738 187.416  1.00  0.00    -0.493 OA
ATOM     13  C   UNL     1     155.056 150.116 187.701  1.00  0.00     0.278 C 
ENDBRANCH   7  12
BRANCH   8  14
ATOM     14  O   UNL     1     157.492 147.732 188.804  1.00  0.00    -0.504 OA
ATOM     15  H   UNL     1     158.260 148.128 189.333  1.00  0.00     0.293 HD
ENDBRANCH   8  14
ENDBRANCH   5   6
ENDBRANCH   2   4
ENDBRANCH   1   2
BRANCH   1  16
ATOM     16  C   UNL     1     157.208 151.437 183.592  1.00  0.00     0.163 C 
ATOM     17  O   UNL     1     157.237 151.373 184.852  1.00  0.00    -0.294 OA
BRANCH  16  18
ATOM     18  C   UNL     1     155.914 151.731 182.943  1.00  0.00     0.048 C 
ATOM     19  C   UNL     1     154.922 150.833 182.838  1.00  0.00     0.012 C 
BRANCH  19  20
ATOM     20  C   UNL     1     153.623 151.131 182.191  1.00  0.00    -0.022 A 
ATOM     21  C   UNL     1     152.479 151.477 182.933  1.00  0.00     0.058 A 
ATOM     22  C   UNL     1     153.545 151.111 180.792  1.00  0.00     0.012 A 
ATOM     23  C   UNL     1     151.262 151.771 182.286  1.00  0.00     0.161 A 
ATOM     24  C   UNL     1     152.342 151.395 180.146  1.00  0.00     0.051 A 
ATOM     25  C   UNL     1     151.202 151.722 180.882  1.00  0.00     0.157 A 
BRANCH  23  26
ATOM     26  O   UNL     1     150.105 152.119 182.999  1.00  0.00    -0.493 OA
ATOM     27  C   UNL     1     149.766 151.612 184.285  1.00  0.00     0.278 C 
ENDBRANCH  23  26
BRANCH  25  28
ATOM     28  O   UNL     1     150.017 151.999 180.202  1.00  0.00    -0.504 OA
ATOM     29  H   UNL     1     149.674 152.943 180.078  1.00  0.00     0.293 HD
ENDBRANCH  25  28
ENDBRANCH  19  20
ENDBRANCH  16  18
ENDBRANCH   1  16
TORSDOF 10
ENDMDL
MODEL 5
REMARK VINA RESULT:    -5.133      2.616      5.399
REMARK INTER + INTRA:          -9.482
REMARK INTER:                  -7.966
REMARK INTRA:                  -1.516
REMARK UNBOUND:                -1.647
REMARK SMILES COc1cc(C=CC(=O)CC(=O)C=Cc2ccc(O)c(OC)c2)ccc1O
REMARK SMILES IDX 10 1 8 2 9 3 7 4 6 5 5 6 3 7 26 8 4 9 25 10 24 11 2 12 1 13
REMARK SMILES IDX 27 14 11 16 12 17 13 18 14 19 15 20 23 21 16 22 20 23 17 24
REMARK SMILES IDX 18 25 21 26 22 27 19 28
REMARK H PARENT 27 15 19 29
REMARK Flexibility Score: inf
ROOT
ATOM      1  C   UNL     1     152.607 152.381 181.515  1.00  0.00     0.160 C 
ENDROOT
BRANCH   1   2
ATOM      2  C   UNL     1     151.298 151.792 181.956  1.00  0.00     0.163 C 
ATOM      3  O   UNL     1     150.920 150.693 181.466  1.00  0.00    -0.294 OA
BRANCH   2   4
ATOM      4  C   UNL     1     150.421 152.559 182.868  1.00  0.00     0.048 C 
ATOM      5  C   UNL     1     150.263 152.321 184.180  1.00  0.00     0.012 C 
BRANCH   5   6
ATOM      6  C   UNL     1     151.069 151.376 184.980  1.00  0.00    -0.022 A 
ATOM      7  C   UNL     1     151.156 149.498 186.540  1.00  0.00     0.161 A 
ATOM      8  C   UNL     1     152.556 149.641 186.617  1.00  0.00     0.157 A 
ATOM      9  C   UNL     1     150.419 150.382 185.728  1.00  0.00     0.058 A 
ATOM     10  C   UNL     1     153.198 150.651 185.894  1.00  0.00     0.051 A 
ATOM     11  C   UNL     1     152.462 151.522 185.088  1.00  0.00     0.012 A 
BRANCH   7  12
ATOM     12  O   UNL     1     150.541 148.473 187.275  1.00  0.00    -0.493 OA
ATOM     13  C   UNL     1     149.231 147.974 187.024  1.00  0.00     0.278 C 
ENDBRANCH   7  12
BRANCH   8  14
ATOM     14  O   UNL     1     153.326 148.787 187.407  1.00  0.00    -0.504 OA
ATOM     15  H   UNL     1     153.191 148.712 188.409  1.00  0.00     0.293 HD
ENDBRANCH   8  14
ENDBRANCH   5   6
ENDBRANCH   2   4
ENDBRANCH   1   2
BRANCH   1  16
ATOM     16  C   UNL     1     153.392 151.434 180.639  1.00  0.00     0.163 C 
ATOM     17  O   UNL     1     153.201 151.426 179.391  1.00  0.00    -0.294 OA
BRANCH  16  18
ATOM     18  C   UNL     1     154.378 150.484 181.195  1.00  0.00     0.048 C 
ATOM     19  C   UNL     1     154.918 150.613 182.416  1.00  0.00     0.012 C 
BRANCH  19  20
ATOM     20  C   UNL     1     155.904 149.657 182.972  1.00  0.00    -0.022 A 
ATOM     21  C   UNL     1     156.328 149.716 184.312  1.00  0.00     0.058 A 
ATOM     22  C   UNL     1     156.393 148.634 182.149  1.00  0.00     0.012 A 
ATOM     23  C   UNL     1     157.255 148.780 184.817  1.00  0.00     0.161 A 
ATOM     24  C   UNL     1     157.314 147.710 182.640  1.00  0.00     0.051 A 
ATOM     25  C   UNL     1     157.749 147.777 183.965  1.00  0.00     0.157 A 
BRANCH  23  26
ATOM     26  O   UNL     1     157.696 148.814 186.147  1.00  0.00    -0.493 OA
ATOM     27  C   UNL     1     156.859 149.067 187.270  1.00  0.00     0.278 C 
ENDBRANCH  23  26
BRANCH  25  28
ATOM     28  O   UNL     1     158.671 146.836 184.420  1.00  0.00    -0.504 OA
ATOM     29  H   UNL     1     158.637 145.866 184.136  1.00  0.00     0.293 HD
ENDBRANCH  25  28
ENDBRANCH  19  20
ENDBRANCH  16  18
ENDBRANCH   1  16
TORSDOF 10
ENDMDL
MODEL 6
REMARK VINA RESULT:    -5.125      1.500      6.527
REMARK INTER + INTRA:          -9.469
REMARK INTER:                  -7.817
REMARK INTRA:                  -1.651
REMARK UNBOUND:                -1.647
REMARK SMILES COc1cc(C=CC(=O)CC(=O)C=Cc2ccc(O)c(OC)c2)ccc1O
REMARK SMILES IDX 10 1 8 2 9 3 7 4 6 5 5 6 3 7 26 8 4 9 25 10 24 11 2 12 1 13
REMARK SMILES IDX 27 14 11 16 12 17 13 18 14 19 15 20 23 21 16 22 20 23 17 24
REMARK SMILES IDX 18 25 21 26 22 27 19 28
REMARK H PARENT 27 15 19 29
REMARK Flexibility Score: inf
ROOT
ATOM      1  C   UNL     1     152.027 150.424 185.547  1.00  0.00     0.160 C 
ENDROOT
BRANCH   1   2
ATOM      2  C   UNL     1     153.407 150.551 186.127  1.00  0.00     0.163 C 
ATOM      3  O   UNL     1     153.770 149.756 187.036  1.00  0.00    -0.294 OA
BRANCH   2   4
ATOM      4  C   UNL     1     154.277 151.671 185.705  1.00  0.00     0.048 C 
ATOM      5  C   UNL     1     155.366 151.562 184.928  1.00  0.00     0.012 C 
BRANCH   5   6
ATOM      6  C   UNL     1     155.784 150.342 184.209  1.00  0.00    -0.022 A 
ATOM      7  C   UNL     1     157.117 148.295 184.155  1.00  0.00     0.161 A 
ATOM      8  C   UNL     1     156.705 148.074 182.826  1.00  0.00     0.157 A 
ATOM      9  C   UNL     1     156.661 149.442 184.834  1.00  0.00     0.058 A 
ATOM     10  C   UNL     1     155.856 148.989 182.195  1.00  0.00     0.051 A 
ATOM     11  C   UNL     1     155.404 150.121 182.875  1.00  0.00     0.012 A 
BRANCH   7  12
ATOM     12  O   UNL     1     157.969 147.359 184.762  1.00  0.00    -0.493 OA
ATOM     13  C   UNL     1     158.352 147.387 186.133  1.00  0.00     0.278 C 
ENDBRANCH   7  12
BRANCH   8  14
ATOM     14  O   UNL     1     157.131 146.952 182.116  1.00  0.00    -0.504 OA
ATOM     15  H   UNL     1     157.201 146.948 181.105  1.00  0.00     0.293 HD
ENDBRANCH   8  14
ENDBRANCH   5   6
ENDBRANCH   2   4
ENDBRANCH   1   2
BRANCH   1  16
ATOM     16  C   UNL     1     151.487 151.749 185.065  1.00  0.00     0.163 C 
ATOM     17  O   UNL     1     150.923 152.532 185.878  1.00  0.00    -0.294 OA
BRANCH  16  18
ATOM     18  C   UNL     1     151.574 152.165 183.650  1.00  0.00     0.048 C 
ATOM     19  C   UNL     1     151.683 151.298 182.632  1.00  0.00     0.012 C 
BRANCH  19  20
ATOM     20  C   UNL     1     151.766 151.717 181.213  1.00  0.00    -0.022 A 
ATOM     21  C   UNL     1     152.928 151.524 180.444  1.00  0.00     0.058 A 
ATOM     22  C   UNL     1     150.636 152.283 180.608  1.00  0.00     0.012 A 
ATOM     23  C   UNL     1     152.970 151.919 179.091  1.00  0.00     0.161 A 
ATOM     24  C   UNL     1     150.673 152.681 179.272  1.00  0.00     0.051 A 
ATOM     25  C   UNL     1     151.831 152.505 178.512  1.00  0.00     0.157 A 
BRANCH  23  26
ATOM     26  O   UNL     1     154.113 151.739 178.299  1.00  0.00    -0.493 OA
ATOM     27  C   UNL     1     155.234 152.616 178.288  1.00  0.00     0.278 C 
ENDBRANCH  23  26
BRANCH  25  28
ATOM     28  O   UNL     1     151.830 152.915 177.179  1.00  0.00    -0.504 OA
ATOM     29  H   UNL     1     151.135 152.599 176.517  1.00  0.00     0.293 HD
ENDBRANCH  25  28
ENDBRANCH  19  20
ENDBRANCH  16  18
ENDBRANCH   1  16
TORSDOF 10
ENDMDL
MODEL 7
REMARK VINA RESULT:    -5.061      2.940      8.900
REMARK INTER + INTRA:          -9.371
REMARK INTER:                  -8.419
REMARK INTRA:                  -0.952
REMARK UNBOUND:                -1.647
REMARK SMILES COc1cc(C=CC(=O)CC(=O)C=Cc2ccc(O)c(OC)c2)ccc1O
REMARK SMILES IDX 10 1 8 2 9 3 7 4 6 5 5 6 3 7 26 8 4 9 25 10 24 11 2 12 1 13
REMARK SMILES IDX 27 14 11 16 12 17 13 18 14 19 15 20 23 21 16 22 20 23 17 24
REMARK SMILES IDX 18 25 21 26 22 27 19 28
REMARK H PARENT 27 15 19 29
REMARK Flexibility Score: inf
ROOT
ATOM      1  C   UNL     1     158.492 149.586 182.660  1.00  0.00     0.160 C 
ENDROOT
BRANCH   1   2
ATOM      2  C   UNL     1     158.954 149.220 184.042  1.00  0.00     0.163 C 
ATOM      3  O   UNL     1     159.110 150.130 184.902  1.00  0.00    -0.294 OA
BRANCH   2   4
ATOM      4  C   UNL     1     159.325 147.820 184.343  1.00  0.00     0.048 C 
ATOM      5  C   UNL     1     158.887 147.105 185.391  1.00  0.00     0.012 C 
BRANCH   5   6
ATOM      6  C   UNL     1     157.822 147.522 186.325  1.00  0.00    -0.022 A 
ATOM      7  C   UNL     1     157.072 147.879 188.623  1.00  0.00     0.161 A 
ATOM      8  C   UNL     1     155.783 148.186 188.143  1.00  0.00     0.157 A 
ATOM      9  C   UNL     1     158.082 147.534 187.703  1.00  0.00     0.058 A 
ATOM     10  C   UNL     1     155.518 148.144 186.770  1.00  0.00     0.051 A 
ATOM     11  C   UNL     1     156.525 147.806 185.865  1.00  0.00     0.012 A 
BRANCH   7  12
ATOM     12  O   UNL     1     157.308 147.931 190.005  1.00  0.00    -0.493 OA
ATOM     13  C   UNL     1     157.564 146.795 190.824  1.00  0.00     0.278 C 
ENDBRANCH   7  12
BRANCH   8  14
ATOM     14  O   UNL     1     154.753 148.534 189.016  1.00  0.00    -0.504 OA
ATOM     15  H   UNL     1     154.246 147.842 189.556  1.00  0.00     0.293 HD
ENDBRANCH   8  14
ENDBRANCH   5   6
ENDBRANCH   2   4
ENDBRANCH   1   2
BRANCH   1  16
ATOM     16  C   UNL     1     157.269 148.806 182.243  1.00  0.00     0.163 C 
ATOM     17  O   UNL     1     157.399 147.687 181.674  1.00  0.00    -0.294 OA
BRANCH  16  18
ATOM     18  C   UNL     1     155.899 149.318 182.458  1.00  0.00     0.048 C 
ATOM     19  C   UNL     1     155.370 150.325 181.748  1.00  0.00     0.012 C 
BRANCH  19  20
ATOM     20  C   UNL     1     153.995 150.834 181.962  1.00  0.00    -0.022 A 
ATOM     21  C   UNL     1     153.077 150.976 180.906  1.00  0.00     0.058 A 
ATOM     22  C   UNL     1     153.583 151.141 183.266  1.00  0.00     0.012 A 
ATOM     23  C   UNL     1     151.770 151.448 181.145  1.00  0.00     0.161 A 
ATOM     24  C   UNL     1     152.294 151.614 183.509  1.00  0.00     0.051 A 
ATOM     25  C   UNL     1     151.388 151.771 182.459  1.00  0.00     0.157 A 
BRANCH  23  26
ATOM     26  O   UNL     1     150.833 151.600 180.113  1.00  0.00    -0.493 OA
ATOM     27  C   UNL     1     150.749 152.736 179.259  1.00  0.00     0.278 C 
ENDBRANCH  23  26
BRANCH  25  28
ATOM     28  O   UNL     1     150.107 152.246 182.740  1.00  0.00    -0.504 OA
ATOM     29  H   UNL     1     149.289 151.654 182.695  1.00  0.00     0.293 HD
ENDBRANCH  25  28
ENDBRANCH  19  20
ENDBRANCH  16  18
ENDBRANCH   1  16
TORSDOF 10
ENDMDL
MODEL 8
REMARK VINA RESULT:    -5.029      2.634      7.457
REMARK INTER + INTRA:          -9.322
REMARK INTER:                  -7.958
REMARK INTRA:                  -1.365
REMARK UNBOUND:                -1.647
REMARK SMILES COc1cc(C=CC(=O)CC(=O)C=Cc2ccc(O)c(OC)c2)ccc1O
REMARK SMILES IDX 10 1 8 2 9 3 7 4 6 5 5 6 3 7 26 8 4 9 25 10 24 11 2 12 1 13
REMARK SMILES IDX 27 14 11 16 12 17 13 18 14 19 15 20 23 21 16 22 20 23 17 24
REMARK SMILES IDX 18 25 21 26 22 27 19 28
REMARK H PARENT 27 15 19 29
REMARK Flexibility Score: inf
ROOT
ATOM      1  C   UNL     1     155.157 151.163 187.346  1.00  0.00     0.160 C 
ENDROOT
BRANCH   1   2
ATOM      2  C   UNL     1     155.521 150.031 188.266  1.00  0.00     0.163 C 
ATOM      3  O   UNL     1     156.417 150.207 189.135  1.00  0.00    -0.294 OA
BRANCH   2   4
ATOM      4  C   UNL     1     154.905 148.701 188.067  1.00  0.00     0.048 C 
ATOM      5  C   UNL     1     155.347 147.756 187.223  1.00  0.00     0.012 C 
BRANCH   5   6
ATOM      6  C   UNL     1     156.625 147.801 186.483  1.00  0.00    -0.022 A 
ATOM      7  C   UNL     1     157.817 148.184 184.384  1.00  0.00     0.161 A 
ATOM      8  C   UNL     1     159.015 147.776 185.004  1.00  0.00     0.157 A 
ATOM      9  C   UNL     1     156.622 148.179 185.131  1.00  0.00     0.058 A 
ATOM     10  C   UNL     1     159.009 147.371 186.342  1.00  0.00     0.051 A 
ATOM     11  C   UNL     1     157.823 147.372 187.077  1.00  0.00     0.012 A 
BRANCH   7  12
ATOM     12  O   UNL     1     157.854 148.587 183.041  1.00  0.00    -0.493 OA
ATOM     13  C   UNL     1     157.588 147.731 181.934  1.00  0.00     0.278 C 
ENDBRANCH   7  12
BRANCH   8  14
ATOM     14  O   UNL     1     160.221 147.766 184.303  1.00  0.00    -0.504 OA
ATOM     15  H   UNL     1     160.260 147.641 183.298  1.00  0.00     0.293 HD
ENDBRANCH   8  14
ENDBRANCH   5   6
ENDBRANCH   2   4
ENDBRANCH   1   2
BRANCH   1  16
ATOM     16  C   UNL     1     153.678 151.462 187.368  1.00  0.00     0.163 C 
ATOM     17  O   UNL     1     153.075 151.578 188.471  1.00  0.00    -0.294 OA
BRANCH  16  18
ATOM     18  C   UNL     1     152.887 151.605 186.128  1.00  0.00     0.048 C 
ATOM     19  C   UNL     1     153.364 151.307 184.911  1.00  0.00     0.012 C 
BRANCH  19  20
ATOM     20  C   UNL     1     152.568 151.448 183.669  1.00  0.00    -0.022 A 
ATOM     21  C   UNL     1     153.147 151.330 182.392  1.00  0.00     0.058 A 
ATOM     22  C   UNL     1     151.187 151.659 183.772  1.00  0.00     0.012 A 
ATOM     23  C   UNL     1     152.359 151.453 181.230  1.00  0.00     0.161 A 
ATOM     24  C   UNL     1     150.402 151.787 182.626  1.00  0.00     0.051 A 
ATOM     25  C   UNL     1     150.979 151.688 181.359  1.00  0.00     0.157 A 
BRANCH  23  26
ATOM     26  O   UNL     1     152.907 151.341 179.944  1.00  0.00    -0.493 OA
ATOM     27  C   UNL     1     154.059 150.569 179.621  1.00  0.00     0.278 C 
ENDBRANCH  23  26
BRANCH  25  28
ATOM     28  O   UNL     1     150.163 151.821 180.236  1.00  0.00    -0.504 OA
ATOM     29  H   UNL     1     149.525 152.597 180.121  1.00  0.00     0.293 HD
ENDBRANCH  25  28
ENDBRANCH  19  20
ENDBRANCH  16  18
ENDBRANCH   1  16
TORSDOF 10
ENDMDL
MODEL 9
REMARK VINA RESULT:    -4.982      1.712      2.593
REMARK INTER + INTRA:          -9.251
REMARK INTER:                  -7.498
REMARK INTRA:                  -1.752
REMARK UNBOUND:                -1.647
REMARK SMILES COc1cc(C=CC(=O)CC(=O)C=Cc2ccc(O)c(OC)c2)ccc1O
REMARK SMILES IDX 10 1 8 2 9 3 7 4 6 5 5 6 3 7 26 8 4 9 25 10 24 11 2 12 1 13
REMARK SMILES IDX 27 14 11 16 12 17 13 18 14 19 15 20 23 21 16 22 20 23 17 24
REMARK SMILES IDX 18 25 21 26 22 27 19 28
REMARK H PARENT 27 15 19 29
REMARK Flexibility Score: inf
ROOT
ATOM      1  C   UNL     1     153.120 152.981 183.416  1.00  0.00     0.160 C 
ENDROOT
BRANCH   1   2
ATOM      2  C   UNL     1     152.005 153.100 182.416  1.00  0.00     0.163 C 
ATOM      3  O   UNL     1     151.685 154.241 181.983  1.00  0.00    -0.294 OA
BRANCH   2   4
ATOM      4  C   UNL     1     151.229 151.899 182.039  1.00  0.00     0.048 C 
ATOM      5  C   UNL     1     151.496 151.094 180.998  1.00  0.00     0.012 C 
BRANCH   5   6
ATOM      6  C   UNL     1     152.709 151.155 180.158  1.00  0.00    -0.022 A 
ATOM      7  C   UNL     1     153.939 152.210 178.329  1.00  0.00     0.161 A 
ATOM      8  C   UNL     1     154.943 151.230 178.454  1.00  0.00     0.157 A 
ATOM      9  C   UNL     1     152.816 152.155 179.179  1.00  0.00     0.058 A 
ATOM     10  C   UNL     1     154.819 150.217 179.411  1.00  0.00     0.051 A 
ATOM     11  C   UNL     1     153.707 150.171 180.252  1.00  0.00     0.012 A 
BRANCH   7  12
ATOM     12  O   UNL     1     154.092 153.214 177.361  1.00  0.00    -0.493 OA
ATOM     13  C   UNL     1     153.544 153.161 176.048  1.00  0.00     0.278 C 
ENDBRANCH   7  12
BRANCH   8  14
ATOM     14  O   UNL     1     156.072 151.246 177.635  1.00  0.00    -0.504 OA
ATOM     15  H   UNL     1     156.062 151.662 176.711  1.00  0.00     0.293 HD
ENDBRANCH   8  14
ENDBRANCH   5   6
ENDBRANCH   2   4
ENDBRANCH   1   2
BRANCH   1  16
ATOM     16  C   UNL     1     154.466 152.822 182.752  1.00  0.00     0.163 C 
ATOM     17  O   UNL     1     154.765 153.536 181.755  1.00  0.00    -0.294 OA
BRANCH  16  18
ATOM     18  C   UNL     1     155.459 151.831 183.216  1.00  0.00     0.048 C 
ATOM     19  C   UNL     1     155.228 150.510 183.236  1.00  0.00     0.012 C 
BRANCH  19  20
ATOM     20  C   UNL     1     156.226 149.517 183.698  1.00  0.00    -0.022 A 
ATOM     21  C   UNL     1     156.689 149.485 185.026  1.00  0.00     0.058 A 
ATOM     22  C   UNL     1     156.689 148.552 182.794  1.00  0.00     0.012 A 
ATOM     23  C   UNL     1     157.627 148.516 185.439  1.00  0.00     0.161 A 
ATOM     24  C   UNL     1     157.621 147.596 183.194  1.00  0.00     0.051 A 
ATOM     25  C   UNL     1     158.094 147.573 184.507  1.00  0.00     0.157 A 
BRANCH  23  26
ATOM     26  O   UNL     1     158.106 148.459 186.756  1.00  0.00    -0.493 OA
ATOM     27  C   UNL     1     157.410 147.863 187.845  1.00  0.00     0.278 C 
ENDBRANCH  23  26
BRANCH  25  28
ATOM     28  O   UNL     1     159.026 146.602 184.871  1.00  0.00    -0.504 OA
ATOM     29  H   UNL     1     159.656 146.181 184.202  1.00  0.00     0.293 HD
ENDBRANCH  25  28
ENDBRANCH  19  20
ENDBRANCH  16  18
ENDBRANCH   1  16
TORSDOF 10
ENDMDL
