MODEL 1
REMARK VINA RESULT:    -4.688      0.000      0.000
REMARK INTER + INTRA:         -11.323
REMARK INTER:                  -7.703
REMARK INTRA:                  -3.620
REMARK UNBOUND:                -3.620
REMARK SMILES C[C@H]1O[C@@H](OC[C@@H]2O[C@@H](Oc3c(-c4ccc(O)c(O)c4)oc4cc(O)cc(O)c4c3=O)[C@H](O)[C@@H](O)[C@@H]2O)[C@H](O)[C@@H](O)[C@H]1O
REMARK SMILES IDX 7 1 36 2 34 3 32 4 9 5 8 6 6 7 5 8 4 9 1 10 2 11 42 12 3 13
REMARK SMILES IDX 40 14 38 15 43 16 41 18 39 20 37 22 35 24 10 26 11 27 12 28
REMARK SMILES IDX 30 29 21 30 29 31 31 32 22 33 27 34 23 35 26 36 24 37 13 38
REMARK SMILES IDX 20 39 14 40 18 41 15 42 16 43 19 44 17 46 28 48 25 50 33 52
REMARK H PARENT 43 17 41 19 39 21 37 23 35 25 19 45 17 47 28 49 25 51 33 53
REMARK Flexibility Score: inf
ROOT
ATOM      1  C   UNL     1     -30.813  44.426  38.137  1.00  0.00     0.180 C 
ATOM      2  C   UNL     1     -31.691  43.212  37.784  1.00  0.00     0.177 C 
ATOM      3  C   UNL     1     -31.226  42.627  36.438  1.00  0.00     0.180 C 
ATOM      4  C   UNL     1     -31.085  43.734  35.365  1.00  0.00     0.214 C 
ATOM      5  C   UNL     1     -30.374  44.997  35.907  1.00  0.00     0.339 C 
ATOM      6  O   UNL     1     -30.930  45.428  37.138  1.00  0.00    -0.332 OA
ENDROOT
BRANCH   1   7
ATOM      7  C   UNL     1     -31.165  45.018  39.514  1.00  0.00     0.198 C 
BRANCH   7   8
ATOM      8  O   UNL     1     -32.478  45.555  39.503  1.00  0.00    -0.347 OA
BRANCH   8   9
ATOM      9  C   UNL     1     -32.557  46.830  40.118  1.00  0.00     0.281 C 
ATOM     10  C   UNL     1     -35.520  45.687  39.326  1.00  0.00     0.041 C 
ATOM     11  C   UNL     1     -34.849  47.062  39.457  1.00  0.00     0.150 C 
ATOM     12  C   UNL     1     -34.313  47.628  38.110  1.00  0.00     0.174 C 
ATOM     13  O   UNL     1     -33.898  47.074  40.528  1.00  0.00    -0.344 OA
ATOM     14  C   UNL     1     -33.205  48.650  38.433  1.00  0.00     0.179 C 
ATOM     15  C   UNL     1     -32.038  47.960  39.176  1.00  0.00     0.202 C 
BRANCH  12  16
ATOM     16  O   UNL     1     -33.814  46.593  37.298  1.00  0.00    -0.388 OA
ATOM     17  H   UNL     1     -33.988  45.739  37.776  1.00  0.00     0.211 HD
ENDBRANCH  12  16
BRANCH  14  18
ATOM     18  O   UNL     1     -32.768  49.335  37.279  1.00  0.00    -0.387 OA
ATOM     19  H   UNL     1     -33.194  50.232  37.280  1.00  0.00     0.211 HD
ENDBRANCH  14  18
BRANCH  15  20
ATOM     20  O   UNL     1     -31.332  48.910  39.938  1.00  0.00    -0.385 OA
ATOM     21  H   UNL     1     -30.363  48.713  39.821  1.00  0.00     0.211 HD
ENDBRANCH  15  20
ENDBRANCH   8   9
ENDBRANCH   7   8
ENDBRANCH   1   7
BRANCH   2  22
ATOM     22  O   UNL     1     -33.039  43.598  37.726  1.00  0.00    -0.387 OA
ATOM     23  H   UNL     1     -33.573  42.765  37.701  1.00  0.00     0.211 HD
ENDBRANCH   2  22
BRANCH   3  24
ATOM     24  O   UNL     1     -29.993  41.976  36.623  1.00  0.00    -0.387 OA
ATOM     25  H   UNL     1     -29.358  42.359  35.963  1.00  0.00     0.211 HD
ENDBRANCH   3  24
BRANCH   5  26
ATOM     26  O   UNL     1     -28.967  44.760  36.032  1.00  0.00    -0.454 OA
BRANCH  26  27
ATOM     27  C   UNL     1     -27.990  45.015  35.048  1.00  0.00     0.214 A 
ATOM     28  C   UNL     1     -27.515  46.330  34.906  1.00  0.00     0.180 A 
ATOM     29  C   UNL     1     -27.475  44.021  34.187  1.00  0.00     0.239 A 
ATOM     30  O   UNL     1     -26.619  46.623  33.972  1.00  0.00    -0.452 OA
ATOM     31  C   UNL     1     -26.571  44.378  33.158  1.00  0.00     0.111 A 
ATOM     32  O   UNL     1     -27.791  42.820  34.372  1.00  0.00    -0.285 OA
ATOM     33  C   UNL     1     -26.133  45.727  33.122  1.00  0.00     0.146 A 
ATOM     34  C   UNL     1     -26.058  43.471  32.181  1.00  0.00     0.134 A 
ATOM     35  C   UNL     1     -25.177  46.139  32.192  1.00  0.00     0.094 A 
ATOM     36  C   UNL     1     -25.075  43.906  31.283  1.00  0.00     0.093 A 
ATOM     37  C   UNL     1     -24.637  45.228  31.282  1.00  0.00     0.123 A 
BRANCH  28  38
ATOM     38  C   UNL     1     -28.023  47.429  35.754  1.00  0.00     0.025 A 
ATOM     39  C   UNL     1     -29.024  48.303  35.299  1.00  0.00     0.062 A 
ATOM     40  C   UNL     1     -27.512  47.589  37.051  1.00  0.00     0.016 A 
ATOM     41  C   UNL     1     -29.479  49.350  36.114  1.00  0.00     0.158 A 
ATOM     42  C   UNL     1     -27.963  48.632  37.866  1.00  0.00     0.051 A 
ATOM     43  C   UNL     1     -28.940  49.519  37.402  1.00  0.00     0.157 A 
BRANCH  41  44
ATOM     44  O   UNL     1     -30.467  50.220  35.653  1.00  0.00    -0.504 OA
ATOM     45  H   UNL     1     -30.235  51.107  35.214  1.00  0.00     0.293 HD
ENDBRANCH  41  44
BRANCH  43  46
ATOM     46  O   UNL     1     -29.366  50.557  38.233  1.00  0.00    -0.504 OA
ATOM     47  H   UNL     1     -30.291  50.955  38.157  1.00  0.00     0.293 HD
ENDBRANCH  43  46
ENDBRANCH  28  38
BRANCH  34  48
ATOM     48  O   UNL     1     -26.503  42.155  32.031  1.00  0.00    -0.507 OA
ATOM     49  H   UNL     1     -26.050  41.348  32.439  1.00  0.00     0.293 HD
ENDBRANCH  34  48
BRANCH  37  50
ATOM     50  O   UNL     1     -23.659  45.628  30.371  1.00  0.00    -0.508 OA
ATOM     51  H   UNL     1     -23.411  45.055  29.570  1.00  0.00     0.293 HD
ENDBRANCH  37  50
ENDBRANCH  26  27
ENDBRANCH   5  26
BRANCH   4  52
ATOM     52  O   UNL     1     -32.338  44.047  34.806  1.00  0.00    -0.384 OA
ATOM     53  H   UNL     1     -33.034  43.897  35.501  1.00  0.00     0.211 HD
ENDBRANCH   4  52
TORSDOF 16
ENDMDL
MODEL 2
REMARK VINA RESULT:    -4.441      3.052      4.881
REMARK INTER + INTRA:         -10.917
REMARK INTER:                  -8.047
REMARK INTRA:                  -2.871
REMARK UNBOUND:                -3.620
REMARK SMILES C[C@H]1O[C@@H](OC[C@@H]2O[C@@H](Oc3c(-c4ccc(O)c(O)c4)oc4cc(O)cc(O)c4c3=O)[C@H](O)[C@@H](O)[C@@H]2O)[C@H](O)[C@@H](O)[C@H]1O
REMARK SMILES IDX 7 1 36 2 34 3 32 4 9 5 8 6 6 7 5 8 4 9 1 10 2 11 42 12 3 13
REMARK SMILES IDX 40 14 38 15 43 16 41 18 39 20 37 22 35 24 10 26 11 27 12 28
REMARK SMILES IDX 30 29 21 30 29 31 31 32 22 33 27 34 23 35 26 36 24 37 13 38
REMARK SMILES IDX 20 39 14 40 18 41 15 42 16 43 19 44 17 46 28 48 25 50 33 52
REMARK H PARENT 43 17 41 19 39 21 37 23 35 25 19 45 17 47 28 49 25 51 33 53
REMARK Flexibility Score: inf
ROOT
ATOM      1  C   UNL     1     -28.522  46.166  37.132  1.00  0.00     0.180 C 
ATOM      2  C   UNL     1     -27.810  44.946  36.523  1.00  0.00     0.177 C 
ATOM      3  C   UNL     1     -26.888  45.416  35.384  1.00  0.00     0.180 C 
ATOM      4  C   UNL     1     -27.636  46.357  34.409  1.00  0.00     0.214 C 
ATOM      5  C   UNL     1     -28.495  47.411  35.147  1.00  0.00     0.339 C 
ATOM      6  O   UNL     1     -29.308  46.822  36.149  1.00  0.00    -0.332 OA
ENDROOT
BRANCH   1   7
ATOM      7  C   UNL     1     -29.404  45.786  38.336  1.00  0.00     0.198 C 
BRANCH   7   8
ATOM      8  O   UNL     1     -30.731  45.518  37.914  1.00  0.00    -0.347 OA
BRANCH   8   9
ATOM      9  C   UNL     1     -31.700  45.873  38.886  1.00  0.00     0.281 C 
ATOM     10  C   UNL     1     -32.315  42.932  37.590  1.00  0.00     0.041 C 
ATOM     11  C   UNL     1     -33.135  44.087  38.182  1.00  0.00     0.150 C 
ATOM     12  C   UNL     1     -33.692  45.071  37.113  1.00  0.00     0.174 C 
ATOM     13  O   UNL     1     -32.437  44.716  39.264  1.00  0.00    -0.344 OA
ATOM     14  C   UNL     1     -33.960  46.422  37.806  1.00  0.00     0.179 C 
ATOM     15  C   UNL     1     -32.645  47.005  38.373  1.00  0.00     0.202 C 
BRANCH  12  16
ATOM     16  O   UNL     1     -32.776  45.228  36.055  1.00  0.00    -0.388 OA
ATOM     17  H   UNL     1     -32.339  46.113  36.178  1.00  0.00     0.211 HD
ENDBRANCH  12  16
BRANCH  14  18
ATOM     18  O   UNL     1     -34.618  47.332  36.950  1.00  0.00    -0.387 OA
ATOM     19  H   UNL     1     -34.015  48.108  36.813  1.00  0.00     0.211 HD
ENDBRANCH  14  18
BRANCH  15  20
ATOM     20  O   UNL     1     -32.935  47.882  39.435  1.00  0.00    -0.385 OA
ATOM     21  H   UNL     1     -32.667  48.794  39.139  1.00  0.00     0.211 HD
ENDBRANCH  15  20
ENDBRANCH   8   9
ENDBRANCH   7   8
ENDBRANCH   1   7
BRANCH   2  22
ATOM     22  O   UNL     1     -28.759  44.023  36.054  1.00  0.00    -0.387 OA
ATOM     23  H   UNL     1     -29.188  44.434  35.263  1.00  0.00     0.211 HD
ENDBRANCH   2  22
BRANCH   3  24
ATOM     24  O   UNL     1     -25.777  46.079  35.937  1.00  0.00    -0.387 OA
ATOM     25  H   UNL     1     -25.637  45.705  36.847  1.00  0.00     0.211 HD
ENDBRANCH   3  24
BRANCH   5  26
ATOM     26  O   UNL     1     -27.660  48.436  35.698  1.00  0.00    -0.454 OA
BRANCH  26  27
ATOM     27  C   UNL     1     -27.256  49.620  35.047  1.00  0.00     0.214 A 
ATOM     28  C   UNL     1     -28.080  50.753  35.157  1.00  0.00     0.180 A 
ATOM     29  C   UNL     1     -26.077  49.722  34.279  1.00  0.00     0.239 A 
ATOM     30  O   UNL     1     -27.758  51.881  34.535  1.00  0.00    -0.452 OA
ATOM     31  C   UNL     1     -25.794  50.917  33.574  1.00  0.00     0.111 A 
ATOM     32  O   UNL     1     -25.264  48.765  34.265  1.00  0.00    -0.285 OA
ATOM     33  C   UNL     1     -26.675  52.010  33.777  1.00  0.00     0.146 A 
ATOM     34  C   UNL     1     -24.678  51.098  32.702  1.00  0.00     0.134 A 
ATOM     35  C   UNL     1     -26.419  53.249  33.187  1.00  0.00     0.094 A 
ATOM     36  C   UNL     1     -24.429  52.361  32.151  1.00  0.00     0.093 A 
ATOM     37  C   UNL     1     -25.290  53.430  32.386  1.00  0.00     0.123 A 
BRANCH  28  38
ATOM     38  C   UNL     1     -29.343  50.717  35.924  1.00  0.00     0.025 A 
ATOM     39  C   UNL     1     -29.375  50.291  37.263  1.00  0.00     0.062 A 
ATOM     40  C   UNL     1     -30.532  51.140  35.311  1.00  0.00     0.016 A 
ATOM     41  C   UNL     1     -30.589  50.248  37.966  1.00  0.00     0.158 A 
ATOM     42  C   UNL     1     -31.742  51.099  36.011  1.00  0.00     0.051 A 
ATOM     43  C   UNL     1     -31.779  50.648  37.334  1.00  0.00     0.157 A 
BRANCH  41  44
ATOM     44  O   UNL     1     -30.615  49.816  39.292  1.00  0.00    -0.504 OA
ATOM     45  H   UNL     1     -29.866  50.040  39.942  1.00  0.00     0.293 HD
ENDBRANCH  41  44
BRANCH  43  46
ATOM     46  O   UNL     1     -33.002  50.609  38.005  1.00  0.00    -0.504 OA
ATOM     47  H   UNL     1     -33.448  49.736  38.252  1.00  0.00     0.293 HD
ENDBRANCH  43  46
ENDBRANCH  28  38
BRANCH  34  48
ATOM     48  O   UNL     1     -23.813  50.068  32.321  1.00  0.00    -0.507 OA
ATOM     49  H   UNL     1     -23.236  49.540  32.962  1.00  0.00     0.293 HD
ENDBRANCH  34  48
BRANCH  37  50
ATOM     50  O   UNL     1     -25.014  54.674  31.817  1.00  0.00    -0.508 OA
ATOM     51  H   UNL     1     -24.561  55.412  32.347  1.00  0.00     0.293 HD
ENDBRANCH  37  50
ENDBRANCH  26  27
ENDBRANCH   5  26
BRANCH   4  52
ATOM     52  O   UNL     1     -28.405  45.615  33.492  1.00  0.00    -0.384 OA
ATOM     53  H   UNL     1     -28.132  45.882  32.573  1.00  0.00     0.211 HD
ENDBRANCH   4  52
TORSDOF 16
ENDMDL
MODEL 3
REMARK VINA RESULT:    -4.412      3.015      6.103
REMARK INTER + INTRA:         -10.869
REMARK INTER:                  -7.108
REMARK INTRA:                  -3.761
REMARK UNBOUND:                -3.620
REMARK SMILES C[C@H]1O[C@@H](OC[C@@H]2O[C@@H](Oc3c(-c4ccc(O)c(O)c4)oc4cc(O)cc(O)c4c3=O)[C@H](O)[C@@H](O)[C@@H]2O)[C@H](O)[C@@H](O)[C@H]1O
REMARK SMILES IDX 7 1 36 2 34 3 32 4 9 5 8 6 6 7 5 8 4 9 1 10 2 11 42 12 3 13
REMARK SMILES IDX 40 14 38 15 43 16 41 18 39 20 37 22 35 24 10 26 11 27 12 28
REMARK SMILES IDX 30 29 21 30 29 31 31 32 22 33 27 34 23 35 26 36 24 37 13 38
REMARK SMILES IDX 20 39 14 40 18 41 15 42 16 43 19 44 17 46 28 48 25 50 33 52
REMARK H PARENT 43 17 41 19 39 21 37 23 35 25 19 45 17 47 28 49 25 51 33 53
REMARK Flexibility Score: inf
ROOT
ATOM      1  C   UNL     1     -29.514  47.213  38.204  1.00  0.00     0.180 C 
ATOM      2  C   UNL     1     -28.452  46.204  37.736  1.00  0.00     0.177 C 
ATOM      3  C   UNL     1     -27.608  46.842  36.617  1.00  0.00     0.180 C 
ATOM      4  C   UNL     1     -28.508  47.478  35.530  1.00  0.00     0.214 C 
ATOM      5  C   UNL     1     -29.676  48.294  36.131  1.00  0.00     0.339 C 
ATOM      6  O   UNL     1     -30.372  47.564  37.128  1.00  0.00    -0.332 OA
ENDROOT
BRANCH   1   7
ATOM      7  C   UNL     1     -30.349  46.676  39.382  1.00  0.00     0.198 C 
BRANCH   7   8
ATOM      8  O   UNL     1     -31.081  45.527  38.988  1.00  0.00    -0.347 OA
BRANCH   8   9
ATOM      9  C   UNL     1     -32.408  45.521  39.487  1.00  0.00     0.281 C 
ATOM     10  C   UNL     1     -31.841  42.950  37.544  1.00  0.00     0.041 C 
ATOM     11  C   UNL     1     -33.045  43.826  37.917  1.00  0.00     0.150 C 
ATOM     12  C   UNL     1     -33.316  44.982  36.911  1.00  0.00     0.174 C 
ATOM     13  O   UNL     1     -32.983  44.235  39.289  1.00  0.00    -0.344 OA
ATOM     14  C   UNL     1     -34.107  46.079  37.650  1.00  0.00     0.179 C 
ATOM     15  C   UNL     1     -33.278  46.638  38.829  1.00  0.00     0.202 C 
BRANCH  12  16
ATOM     16  O   UNL     1     -32.107  45.496  36.405  1.00  0.00    -0.388 OA
ATOM     17  H   UNL     1     -31.844  46.252  36.994  1.00  0.00     0.211 HD
ENDBRANCH  12  16
BRANCH  14  18
ATOM     18  O   UNL     1     -34.538  47.098  36.774  1.00  0.00    -0.387 OA
ATOM     19  H   UNL     1     -34.255  46.849  35.856  1.00  0.00     0.211 HD
ENDBRANCH  14  18
BRANCH  15  20
ATOM     20  O   UNL     1     -34.140  47.185  39.798  1.00  0.00    -0.385 OA
ATOM     21  H   UNL     1     -34.769  47.789  39.318  1.00  0.00     0.211 HD
ENDBRANCH  15  20
ENDBRANCH   8   9
ENDBRANCH   7   8
ENDBRANCH   1   7
BRANCH   2  22
ATOM     22  O   UNL     1     -29.074  45.028  37.287  1.00  0.00    -0.387 OA
ATOM     23  H   UNL     1     -30.031  45.104  37.523  1.00  0.00     0.211 HD
ENDBRANCH   2  22
BRANCH   3  24
ATOM     24  O   UNL     1     -26.767  47.819  37.180  1.00  0.00    -0.387 OA
ATOM     25  H   UNL     1     -27.276  48.672  37.191  1.00  0.00     0.211 HD
ENDBRANCH   3  24
BRANCH   5  26
ATOM     26  O   UNL     1     -29.197  49.542  36.647  1.00  0.00    -0.454 OA
BRANCH  26  27
ATOM     27  C   UNL     1     -29.346  50.806  36.039  1.00  0.00     0.214 A 
ATOM     28  C   UNL     1     -30.403  51.628  36.464  1.00  0.00     0.180 A 
ATOM     29  C   UNL     1     -28.498  51.281  35.015  1.00  0.00     0.239 A 
ATOM     30  O   UNL     1     -30.602  52.812  35.897  1.00  0.00    -0.452 OA
ATOM     31  C   UNL     1     -28.775  52.519  34.386  1.00  0.00     0.111 A 
ATOM     32  O   UNL     1     -27.477  50.620  34.703  1.00  0.00    -0.285 OA
ATOM     33  C   UNL     1     -29.849  53.283  34.911  1.00  0.00     0.146 A 
ATOM     34  C   UNL     1     -28.037  53.051  33.286  1.00  0.00     0.134 A 
ATOM     35  C   UNL     1     -30.132  54.552  34.403  1.00  0.00     0.094 A 
ATOM     36  C   UNL     1     -28.324  54.340  32.820  1.00  0.00     0.093 A 
ATOM     37  C   UNL     1     -29.363  55.087  33.368  1.00  0.00     0.123 A 
BRANCH  28  38
ATOM     38  C   UNL     1     -31.347  51.190  37.514  1.00  0.00     0.025 A 
ATOM     39  C   UNL     1     -32.603  50.650  37.191  1.00  0.00     0.062 A 
ATOM     40  C   UNL     1     -30.972  51.294  38.861  1.00  0.00     0.016 A 
ATOM     41  C   UNL     1     -33.490  50.258  38.205  1.00  0.00     0.158 A 
ATOM     42  C   UNL     1     -31.854  50.903  39.874  1.00  0.00     0.051 A 
ATOM     43  C   UNL     1     -33.116  50.392  39.553  1.00  0.00     0.157 A 
BRANCH  41  44
ATOM     44  O   UNL     1     -34.739  49.730  37.878  1.00  0.00    -0.504 OA
ATOM     45  H   UNL     1     -34.864  48.742  37.672  1.00  0.00     0.293 HD
ENDBRANCH  41  44
BRANCH  43  46
ATOM     46  O   UNL     1     -33.980  50.018  40.583  1.00  0.00    -0.504 OA
ATOM     47  H   UNL     1     -34.964  50.245  40.563  1.00  0.00     0.293 HD
ENDBRANCH  43  46
ENDBRANCH  28  38
BRANCH  34  48
ATOM     48  O   UNL     1     -27.044  52.344  32.600  1.00  0.00    -0.507 OA
ATOM     49  H   UNL     1     -27.022  51.338  32.505  1.00  0.00     0.293 HD
ENDBRANCH  34  48
BRANCH  37  50
ATOM     50  O   UNL     1     -29.624  56.367  32.877  1.00  0.00    -0.508 OA
ATOM     51  H   UNL     1     -28.893  57.067  32.802  1.00  0.00     0.293 HD
ENDBRANCH  37  50
ENDBRANCH  26  27
ENDBRANCH   5  26
BRANCH   4  52
ATOM     52  O   UNL     1     -28.972  46.498  34.632  1.00  0.00    -0.384 OA
ATOM     53  H   UNL     1     -29.911  46.277  34.873  1.00  0.00     0.211 HD
ENDBRANCH   4  52
TORSDOF 16
ENDMDL
MODEL 4
REMARK VINA RESULT:    -4.346     10.075     13.312
REMARK INTER + INTRA:         -10.761
REMARK INTER:                  -7.536
REMARK INTRA:                  -3.224
REMARK UNBOUND:                -3.620
REMARK SMILES C[C@H]1O[C@@H](OC[C@@H]2O[C@@H](Oc3c(-c4ccc(O)c(O)c4)oc4cc(O)cc(O)c4c3=O)[C@H](O)[C@@H](O)[C@@H]2O)[C@H](O)[C@@H](O)[C@H]1O
REMARK SMILES IDX 7 1 36 2 34 3 32 4 9 5 8 6 6 7 5 8 4 9 1 10 2 11 42 12 3 13
REMARK SMILES IDX 40 14 38 15 43 16 41 18 39 20 37 22 35 24 10 26 11 27 12 28
REMARK SMILES IDX 30 29 21 30 29 31 31 32 22 33 27 34 23 35 26 36 24 37 13 38
REMARK SMILES IDX 20 39 14 40 18 41 15 42 16 43 19 44 17 46 28 48 25 50 33 52
REMARK H PARENT 43 17 41 19 39 21 37 23 35 25 19 45 17 47 28 49 25 51 33 53
REMARK Flexibility Score: inf
ROOT
ATOM      1  C   UNL     1     -20.423  53.121  36.646  1.00  0.00     0.180 C 
ATOM      2  C   UNL     1     -21.787  53.706  37.050  1.00  0.00     0.177 C 
ATOM      3  C   UNL     1     -22.888  53.060  36.188  1.00  0.00     0.180 C 
ATOM      4  C   UNL     1     -22.517  53.100  34.685  1.00  0.00     0.214 C 
ATOM      5  C   UNL     1     -21.046  52.698  34.427  1.00  0.00     0.339 C 
ATOM      6  O   UNL     1     -20.152  53.394  35.280  1.00  0.00    -0.332 OA
ENDROOT
BRANCH   1   7
ATOM      7  C   UNL     1     -19.277  53.659  37.523  1.00  0.00     0.198 C 
BRANCH   7   8
ATOM      8  O   UNL     1     -19.022  55.023  37.225  1.00  0.00    -0.347 OA
BRANCH   8   9
ATOM      9  C   UNL     1     -17.663  55.273  36.907  1.00  0.00     0.281 C 
ATOM     10  C   UNL     1     -19.207  58.006  37.833  1.00  0.00     0.041 C 
ATOM     11  C   UNL     1     -18.049  57.638  36.895  1.00  0.00     0.150 C 
ATOM     12  C   UNL     1     -18.476  57.473  35.407  1.00  0.00     0.174 C 
ATOM     13  O   UNL     1     -17.284  56.545  37.418  1.00  0.00    -0.344 OA
ATOM     14  C   UNL     1     -17.434  56.576  34.711  1.00  0.00     0.179 C 
ATOM     15  C   UNL     1     -17.401  55.178  35.371  1.00  0.00     0.202 C 
BRANCH  12  16
ATOM     16  O   UNL     1     -19.761  56.905  35.318  1.00  0.00    -0.388 OA
ATOM     17  H   UNL     1     -20.413  57.654  35.350  1.00  0.00     0.211 HD
ENDBRANCH  12  16
BRANCH  14  18
ATOM     18  O   UNL     1     -17.650  56.499  33.318  1.00  0.00    -0.387 OA
ATOM     19  H   UNL     1     -18.630  56.449  33.166  1.00  0.00     0.211 HD
ENDBRANCH  14  18
BRANCH  15  20
ATOM     20  O   UNL     1     -16.147  54.578  35.152  1.00  0.00    -0.385 OA
ATOM     21  H   UNL     1     -15.541  54.902  35.874  1.00  0.00     0.211 HD
ENDBRANCH  15  20
ENDBRANCH   8   9
ENDBRANCH   7   8
ENDBRANCH   1   7
BRANCH   2  22
ATOM     22  O   UNL     1     -21.777  55.101  36.889  1.00  0.00    -0.387 OA
ATOM     23  H   UNL     1     -21.516  55.278  35.952  1.00  0.00     0.211 HD
ENDBRANCH   2  22
BRANCH   3  24
ATOM     24  O   UNL     1     -23.074  51.730  36.604  1.00  0.00    -0.387 OA
ATOM     25  H   UNL     1     -23.944  51.691  37.080  1.00  0.00     0.211 HD
ENDBRANCH   3  24
BRANCH   5  26
ATOM     26  O   UNL     1     -20.887  51.280  34.561  1.00  0.00    -0.454 OA
BRANCH  26  27
ATOM     27  C   UNL     1     -20.297  50.416  33.616  1.00  0.00     0.214 A 
ATOM     28  C   UNL     1     -19.084  49.792  33.951  1.00  0.00     0.180 A 
ATOM     29  C   UNL     1     -20.853  50.158  32.344  1.00  0.00     0.239 A 
ATOM     30  O   UNL     1     -18.475  48.996  33.081  1.00  0.00    -0.452 OA
ATOM     31  C   UNL     1     -20.148  49.357  31.414  1.00  0.00     0.111 A 
ATOM     32  O   UNL     1     -21.994  50.606  32.067  1.00  0.00    -0.285 OA
ATOM     33  C   UNL     1     -18.947  48.751  31.865  1.00  0.00     0.146 A 
ATOM     34  C   UNL     1     -20.576  49.104  30.076  1.00  0.00     0.134 A 
ATOM     35  C   UNL     1     -18.238  47.879  31.037  1.00  0.00     0.094 A 
ATOM     36  C   UNL     1     -19.861  48.200  29.281  1.00  0.00     0.093 A 
ATOM     37  C   UNL     1     -18.700  47.592  29.751  1.00  0.00     0.123 A 
BRANCH  28  38
ATOM     38  C   UNL     1     -18.428  50.031  35.254  1.00  0.00     0.025 A 
ATOM     39  C   UNL     1     -17.462  51.040  35.414  1.00  0.00     0.062 A 
ATOM     40  C   UNL     1     -18.792  49.250  36.361  1.00  0.00     0.016 A 
ATOM     41  C   UNL     1     -16.839  51.237  36.656  1.00  0.00     0.158 A 
ATOM     42  C   UNL     1     -18.173  49.446  37.600  1.00  0.00     0.051 A 
ATOM     43  C   UNL     1     -17.192  50.431  37.752  1.00  0.00     0.157 A 
BRANCH  41  44
ATOM     44  O   UNL     1     -15.876  52.235  36.806  1.00  0.00    -0.504 OA
ATOM     45  H   UNL     1     -16.090  53.118  37.261  1.00  0.00     0.293 HD
ENDBRANCH  41  44
BRANCH  43  46
ATOM     46  O   UNL     1     -16.584  50.598  38.997  1.00  0.00    -0.504 OA
ATOM     47  H   UNL     1     -17.081  50.431  39.861  1.00  0.00     0.293 HD
ENDBRANCH  43  46
ENDBRANCH  28  38
BRANCH  34  48
ATOM     48  O   UNL     1     -21.667  49.739  29.474  1.00  0.00    -0.507 OA
ATOM     49  H   UNL     1     -21.979  49.565  28.528  1.00  0.00     0.293 HD
ENDBRANCH  34  48
BRANCH  37  50
ATOM     50  O   UNL     1     -18.011  46.698  28.931  1.00  0.00    -0.508 OA
ATOM     51  H   UNL     1     -17.548  47.004  28.081  1.00  0.00     0.293 HD
ENDBRANCH  37  50
ENDBRANCH  26  27
ENDBRANCH   5  26
BRANCH   4  52
ATOM     52  O   UNL     1     -22.812  54.360  34.132  1.00  0.00    -0.384 OA
ATOM     53  H   UNL     1     -22.467  54.378  33.199  1.00  0.00     0.211 HD
ENDBRANCH   4  52
TORSDOF 16
ENDMDL
MODEL 5
REMARK VINA RESULT:    -4.325      3.619      6.723
REMARK INTER + INTRA:         -10.726
REMARK INTER:                  -7.430
REMARK INTRA:                  -3.296
REMARK UNBOUND:                -3.620
REMARK SMILES C[C@H]1O[C@@H](OC[C@@H]2O[C@@H](Oc3c(-c4ccc(O)c(O)c4)oc4cc(O)cc(O)c4c3=O)[C@H](O)[C@@H](O)[C@@H]2O)[C@H](O)[C@@H](O)[C@H]1O
REMARK SMILES IDX 7 1 36 2 34 3 32 4 9 5 8 6 6 7 5 8 4 9 1 10 2 11 42 12 3 13
REMARK SMILES IDX 40 14 38 15 43 16 41 18 39 20 37 22 35 24 10 26 11 27 12 28
REMARK SMILES IDX 30 29 21 30 29 31 31 32 22 33 27 34 23 35 26 36 24 37 13 38
REMARK SMILES IDX 20 39 14 40 18 41 15 42 16 43 19 44 17 46 28 48 25 50 33 52
REMARK H PARENT 43 17 41 19 39 21 37 23 35 25 19 45 17 47 28 49 25 51 33 53
REMARK Flexibility Score: inf
ROOT
ATOM      1  C   UNL     1     -30.577  47.726  39.118  1.00  0.00     0.180 C 
ATOM      2  C   UNL     1     -29.278  47.025  39.552  1.00  0.00     0.177 C 
ATOM      3  C   UNL     1     -28.075  47.768  38.943  1.00  0.00     0.180 C 
ATOM      4  C   UNL     1     -28.276  48.011  37.428  1.00  0.00     0.214 C 
ATOM      5  C   UNL     1     -29.700  48.511  37.092  1.00  0.00     0.339 C 
ATOM      6  O   UNL     1     -30.698  47.711  37.704  1.00  0.00    -0.332 OA
ENDROOT
BRANCH   1   7
ATOM      7  C   UNL     1     -31.824  47.086  39.756  1.00  0.00     0.198 C 
BRANCH   7   8
ATOM      8  O   UNL     1     -32.012  45.768  39.267  1.00  0.00    -0.347 OA
BRANCH   8   9
ATOM      9  C   UNL     1     -33.304  45.562  38.719  1.00  0.00     0.281 C 
ATOM     10  C   UNL     1     -31.834  42.728  39.438  1.00  0.00     0.041 C 
ATOM     11  C   UNL     1     -32.854  43.229  38.406  1.00  0.00     0.150 C 
ATOM     12  C   UNL     1     -32.222  43.623  37.039  1.00  0.00     0.174 C 
ATOM     13  O   UNL     1     -33.716  44.224  38.971  1.00  0.00    -0.344 OA
ATOM     14  C   UNL     1     -33.177  44.611  36.342  1.00  0.00     0.179 C 
ATOM     15  C   UNL     1     -33.344  45.890  37.193  1.00  0.00     0.202 C 
BRANCH  12  16
ATOM     16  O   UNL     1     -30.954  44.205  37.227  1.00  0.00    -0.388 OA
ATOM     17  H   UNL     1     -31.089  45.027  37.770  1.00  0.00     0.211 HD
ENDBRANCH  12  16
BRANCH  14  18
ATOM     18  O   UNL     1     -32.764  44.901  35.024  1.00  0.00    -0.387 OA
ATOM     19  H   UNL     1     -32.686  44.041  34.534  1.00  0.00     0.211 HD
ENDBRANCH  14  18
BRANCH  15  20
ATOM     20  O   UNL     1     -34.569  46.510  36.886  1.00  0.00    -0.385 OA
ATOM     21  H   UNL     1     -34.353  47.401  36.496  1.00  0.00     0.211 HD
ENDBRANCH  15  20
ENDBRANCH   8   9
ENDBRANCH   7   8
ENDBRANCH   1   7
BRANCH   2  22
ATOM     22  O   UNL     1     -29.299  45.682  39.142  1.00  0.00    -0.387 OA
ATOM     23  H   UNL     1     -29.474  45.684  38.169  1.00  0.00     0.211 HD
ENDBRANCH   2  22
BRANCH   3  24
ATOM     24  O   UNL     1     -27.910  48.995  39.611  1.00  0.00    -0.387 OA
ATOM     25  H   UNL     1     -27.005  48.986  40.021  1.00  0.00     0.211 HD
ENDBRANCH   3  24
BRANCH   5  26
ATOM     26  O   UNL     1     -29.845  49.887  37.462  1.00  0.00    -0.454 OA
BRANCH  26  27
ATOM     27  C   UNL     1     -30.297  50.930  36.628  1.00  0.00     0.214 A 
ATOM     28  C   UNL     1     -31.587  51.444  36.846  1.00  0.00     0.180 A 
ATOM     29  C   UNL     1     -29.529  51.474  35.577  1.00  0.00     0.239 A 
ATOM     30  O   UNL     1     -32.068  52.404  36.065  1.00  0.00    -0.452 OA
ATOM     31  C   UNL     1     -30.093  52.451  34.721  1.00  0.00     0.111 A 
ATOM     32  O   UNL     1     -28.332  51.119  35.439  1.00  0.00    -0.285 OA
ATOM     33  C   UNL     1     -31.391  52.921  35.046  1.00  0.00     0.146 A 
ATOM     34  C   UNL     1     -29.437  53.003  33.579  1.00  0.00     0.134 A 
ATOM     35  C   UNL     1     -31.983  53.944  34.303  1.00  0.00     0.094 A 
ATOM     36  C   UNL     1     -30.043  54.050  32.873  1.00  0.00     0.093 A 
ATOM     37  C   UNL     1     -31.306  54.518  33.226  1.00  0.00     0.123 A 
BRANCH  28  38
ATOM     38  C   UNL     1     -32.461  50.910  37.911  1.00  0.00     0.025 A 
ATOM     39  C   UNL     1     -33.504  50.014  37.623  1.00  0.00     0.062 A 
ATOM     40  C   UNL     1     -32.229  51.286  39.243  1.00  0.00     0.016 A 
ATOM     41  C   UNL     1     -34.333  49.534  38.649  1.00  0.00     0.158 A 
ATOM     42  C   UNL     1     -33.053  50.808  40.267  1.00  0.00     0.051 A 
ATOM     43  C   UNL     1     -34.110  49.939  39.977  1.00  0.00     0.157 A 
BRANCH  41  44
ATOM     44  O   UNL     1     -35.372  48.651  38.355  1.00  0.00    -0.504 OA
ATOM     45  H   UNL     1     -36.234  48.643  38.894  1.00  0.00     0.293 HD
ENDBRANCH  41  44
BRANCH  43  46
ATOM     46  O   UNL     1     -34.922  49.484  41.017  1.00  0.00    -0.504 OA
ATOM     47  H   UNL     1     -34.556  49.310  41.942  1.00  0.00     0.293 HD
ENDBRANCH  43  46
ENDBRANCH  28  38
BRANCH  34  48
ATOM     48  O   UNL     1     -28.217  52.536  33.081  1.00  0.00    -0.507 OA
ATOM     49  H   UNL     1     -27.545  53.108  32.587  1.00  0.00     0.293 HD
ENDBRANCH  34  48
BRANCH  37  50
ATOM     50  O   UNL     1     -31.881  55.561  32.499  1.00  0.00    -0.508 OA
ATOM     51  H   UNL     1     -31.417  55.965  31.691  1.00  0.00     0.293 HD
ENDBRANCH  37  50
ENDBRANCH  26  27
ENDBRANCH   5  26
BRANCH   4  52
ATOM     52  O   UNL     1     -27.946  46.858  36.691  1.00  0.00    -0.384 OA
ATOM     53  H   UNL     1     -26.967  46.705  36.776  1.00  0.00     0.211 HD
ENDBRANCH   4  52
TORSDOF 16
ENDMDL
MODEL 6
REMARK VINA RESULT:    -4.239      1.545      4.651
REMARK INTER + INTRA:         -10.585
REMARK INTER:                  -7.086
REMARK INTRA:                  -3.500
REMARK UNBOUND:                -3.620
REMARK SMILES C[C@H]1O[C@@H](OC[C@@H]2O[C@@H](Oc3c(-c4ccc(O)c(O)c4)oc4cc(O)cc(O)c4c3=O)[C@H](O)[C@@H](O)[C@@H]2O)[C@H](O)[C@@H](O)[C@H]1O
REMARK SMILES IDX 7 1 36 2 34 3 32 4 9 5 8 6 6 7 5 8 4 9 1 10 2 11 42 12 3 13
REMARK SMILES IDX 40 14 38 15 43 16 41 18 39 20 37 22 35 24 10 26 11 27 12 28
REMARK SMILES IDX 30 29 21 30 29 31 31 32 22 33 27 34 23 35 26 36 24 37 13 38
REMARK SMILES IDX 20 39 14 40 18 41 15 42 16 43 19 44 17 46 28 48 25 50 33 52
REMARK H PARENT 43 17 41 19 39 21 37 23 35 25 19 45 17 47 28 49 25 51 33 53
REMARK Flexibility Score: inf
ROOT
ATOM      1  C   UNL     1     -30.300  49.500  37.316  1.00  0.00     0.180 C 
ATOM      2  C   UNL     1     -29.219  50.440  37.879  1.00  0.00     0.177 C 
ATOM      3  C   UNL     1     -27.836  49.964  37.398  1.00  0.00     0.180 C 
ATOM      4  C   UNL     1     -27.651  48.446  37.641  1.00  0.00     0.214 C 
ATOM      5  C   UNL     1     -28.897  47.625  37.235  1.00  0.00     0.339 C 
ATOM      6  O   UNL     1     -30.089  48.173  37.773  1.00  0.00    -0.332 OA
ENDROOT
BRANCH   1   7
ATOM      7  C   UNL     1     -31.722  49.960  37.687  1.00  0.00     0.198 C 
BRANCH   7   8
ATOM      8  O   UNL     1     -32.111  49.412  38.936  1.00  0.00    -0.347 OA
BRANCH   8   9
ATOM      9  C   UNL     1     -33.517  49.379  39.110  1.00  0.00     0.281 C 
ATOM     10  C   UNL     1     -31.972  47.732  41.478  1.00  0.00     0.041 C 
ATOM     11  C   UNL     1     -33.325  47.648  40.756  1.00  0.00     0.150 C 
ATOM     12  C   UNL     1     -33.341  46.639  39.572  1.00  0.00     0.174 C 
ATOM     13  O   UNL     1     -33.821  48.953  40.433  1.00  0.00    -0.344 OA
ATOM     14  C   UNL     1     -34.474  47.054  38.612  1.00  0.00     0.179 C 
ATOM     15  C   UNL     1     -34.210  48.469  38.048  1.00  0.00     0.202 C 
BRANCH  12  16
ATOM     16  O   UNL     1     -32.101  46.633  38.905  1.00  0.00    -0.388 OA
ATOM     17  H   UNL     1     -31.597  47.429  39.222  1.00  0.00     0.211 HD
ENDBRANCH  12  16
BRANCH  14  18
ATOM     18  O   UNL     1     -34.670  46.103  37.587  1.00  0.00    -0.387 OA
ATOM     19  H   UNL     1     -33.905  46.173  36.958  1.00  0.00     0.211 HD
ENDBRANCH  14  18
BRANCH  15  20
ATOM     20  O   UNL     1     -35.426  49.059  37.656  1.00  0.00    -0.385 OA
ATOM     21  H   UNL     1     -36.036  48.317  37.393  1.00  0.00     0.211 HD
ENDBRANCH  15  20
ENDBRANCH   8   9
ENDBRANCH   7   8
ENDBRANCH   1   7
BRANCH   2  22
ATOM     22  O   UNL     1     -29.285  50.459  39.281  1.00  0.00    -0.387 OA
ATOM     23  H   UNL     1     -30.005  49.832  39.541  1.00  0.00     0.211 HD
ENDBRANCH   2  22
BRANCH   3  24
ATOM     24  O   UNL     1     -27.703  50.253  36.028  1.00  0.00    -0.387 OA
ATOM     25  H   UNL     1     -28.469  50.833  35.776  1.00  0.00     0.211 HD
ENDBRANCH   3  24
BRANCH   5  26
ATOM     26  O   UNL     1     -28.978  47.517  35.809  1.00  0.00    -0.454 OA
BRANCH  26  27
ATOM     27  C   UNL     1     -28.214  46.656  34.994  1.00  0.00     0.214 A 
ATOM     28  C   UNL     1     -28.617  45.315  34.883  1.00  0.00     0.180 A 
ATOM     29  C   UNL     1     -27.057  47.067  34.298  1.00  0.00     0.239 A 
ATOM     30  O   UNL     1     -27.910  44.460  34.154  1.00  0.00    -0.452 OA
ATOM     31  C   UNL     1     -26.288  46.118  33.583  1.00  0.00     0.111 A 
ATOM     32  O   UNL     1     -26.745  48.284  34.283  1.00  0.00    -0.285 OA
ATOM     33  C   UNL     1     -26.800  44.797  33.510  1.00  0.00     0.146 A 
ATOM     34  C   UNL     1     -25.058  46.408  32.918  1.00  0.00     0.134 A 
ATOM     35  C   UNL     1     -26.146  43.823  32.752  1.00  0.00     0.094 A 
ATOM     36  C   UNL     1     -24.444  45.419  32.139  1.00  0.00     0.093 A 
ATOM     37  C   UNL     1     -24.978  44.135  32.056  1.00  0.00     0.123 A 
BRANCH  28  38
ATOM     38  C   UNL     1     -29.804  44.804  35.600  1.00  0.00     0.025 A 
ATOM     39  C   UNL     1     -31.093  44.906  35.050  1.00  0.00     0.062 A 
ATOM     40  C   UNL     1     -29.638  44.182  36.847  1.00  0.00     0.016 A 
ATOM     41  C   UNL     1     -32.208  44.429  35.758  1.00  0.00     0.158 A 
ATOM     42  C   UNL     1     -30.748  43.706  37.554  1.00  0.00     0.051 A 
ATOM     43  C   UNL     1     -32.034  43.833  37.019  1.00  0.00     0.157 A 
BRANCH  41  44
ATOM     44  O   UNL     1     -33.486  44.541  35.210  1.00  0.00    -0.504 OA
ATOM     45  H   UNL     1     -33.633  44.586  34.205  1.00  0.00     0.293 HD
ENDBRANCH  41  44
BRANCH  43  46
ATOM     46  O   UNL     1     -33.124  43.357  37.749  1.00  0.00    -0.504 OA
ATOM     47  H   UNL     1     -33.022  42.641  38.455  1.00  0.00     0.293 HD
ENDBRANCH  43  46
ENDBRANCH  28  38
BRANCH  34  48
ATOM     48  O   UNL     1     -24.388  47.630  33.020  1.00  0.00    -0.507 OA
ATOM     49  H   UNL     1     -24.451  48.376  32.339  1.00  0.00     0.293 HD
ENDBRANCH  34  48
BRANCH  37  50
ATOM     50  O   UNL     1     -24.337  43.174  31.274  1.00  0.00    -0.508 OA
ATOM     51  H   UNL     1     -24.429  42.182  31.468  1.00  0.00     0.293 HD
ENDBRANCH  37  50
ENDBRANCH  26  27
ENDBRANCH   5  26
BRANCH   4  52
ATOM     52  O   UNL     1     -27.281  48.197  38.976  1.00  0.00    -0.384 OA
ATOM     53  H   UNL     1     -26.754  48.976  39.303  1.00  0.00     0.211 HD
ENDBRANCH   4  52
TORSDOF 16
ENDMDL
MODEL 7
REMARK VINA RESULT:    -4.217      8.656     13.134
REMARK INTER + INTRA:         -10.549
REMARK INTER:                  -7.632
REMARK INTRA:                  -2.917
REMARK UNBOUND:                -3.620
REMARK SMILES C[C@H]1O[C@@H](OC[C@@H]2O[C@@H](Oc3c(-c4ccc(O)c(O)c4)oc4cc(O)cc(O)c4c3=O)[C@H](O)[C@@H](O)[C@@H]2O)[C@H](O)[C@@H](O)[C@H]1O
REMARK SMILES IDX 7 1 36 2 34 3 32 4 9 5 8 6 6 7 5 8 4 9 1 10 2 11 42 12 3 13
REMARK SMILES IDX 40 14 38 15 43 16 41 18 39 20 37 22 35 24 10 26 11 27 12 28
REMARK SMILES IDX 30 29 21 30 29 31 31 32 22 33 27 34 23 35 26 36 24 37 13 38
REMARK SMILES IDX 20 39 14 40 18 41 15 42 16 43 19 44 17 46 28 48 25 50 33 52
REMARK H PARENT 43 17 41 19 39 21 37 23 35 25 19 45 17 47 28 49 25 51 33 53
REMARK Flexibility Score: inf
ROOT
ATOM      1  C   UNL     1     -22.629  55.592  34.486  1.00  0.00     0.180 C 
ATOM      2  C   UNL     1     -22.948  57.095  34.417  1.00  0.00     0.177 C 
ATOM      3  C   UNL     1     -24.455  57.302  34.651  1.00  0.00     0.180 C 
ATOM      4  C   UNL     1     -25.296  56.359  33.757  1.00  0.00     0.214 C 
ATOM      5  C   UNL     1     -24.743  54.915  33.736  1.00  0.00     0.339 C 
ATOM      6  O   UNL     1     -23.348  54.887  33.485  1.00  0.00    -0.332 OA
ENDROOT
BRANCH   1   7
ATOM      7  C   UNL     1     -21.122  55.309  34.341  1.00  0.00     0.198 C 
BRANCH   7   8
ATOM      8  O   UNL     1     -20.365  56.459  34.683  1.00  0.00    -0.347 OA
BRANCH   8   9
ATOM      9  C   UNL     1     -19.624  56.296  35.880  1.00  0.00     0.281 C 
ATOM     10  C   UNL     1     -18.796  59.048  34.316  1.00  0.00     0.041 C 
ATOM     11  C   UNL     1     -18.103  58.032  35.235  1.00  0.00     0.150 C 
ATOM     12  C   UNL     1     -17.310  56.934  34.469  1.00  0.00     0.174 C 
ATOM     13  O   UNL     1     -19.007  57.530  36.226  1.00  0.00    -0.344 OA
ATOM     14  C   UNL     1     -17.175  55.712  35.398  1.00  0.00     0.179 C 
ATOM     15  C   UNL     1     -18.570  55.151  35.756  1.00  0.00     0.202 C 
BRANCH  12  16
ATOM     16  O   UNL     1     -17.971  56.581  33.277  1.00  0.00    -0.388 OA
ATOM     17  H   UNL     1     -18.804  57.123  33.236  1.00  0.00     0.211 HD
ENDBRANCH  12  16
BRANCH  14  18
ATOM     18  O   UNL     1     -16.331  54.722  34.849  1.00  0.00    -0.387 OA
ATOM     19  H   UNL     1     -15.792  54.338  35.589  1.00  0.00     0.211 HD
ENDBRANCH  14  18
BRANCH  15  20
ATOM     20  O   UNL     1     -18.503  54.451  36.975  1.00  0.00    -0.385 OA
ATOM     21  H   UNL     1     -17.865  54.946  37.558  1.00  0.00     0.211 HD
ENDBRANCH  15  20
ENDBRANCH   8   9
ENDBRANCH   7   8
ENDBRANCH   1   7
BRANCH   2  22
ATOM     22  O   UNL     1     -22.557  57.611  33.171  1.00  0.00    -0.387 OA
ATOM     23  H   UNL     1     -23.066  58.449  33.037  1.00  0.00     0.211 HD
ENDBRANCH   2  22
BRANCH   3  24
ATOM     24  O   UNL     1     -24.745  57.066  36.007  1.00  0.00    -0.387 OA
ATOM     25  H   UNL     1     -25.548  56.482  36.037  1.00  0.00     0.211 HD
ENDBRANCH   3  24
BRANCH   5  26
ATOM     26  O   UNL     1     -25.059  54.244  34.961  1.00  0.00    -0.454 OA
BRANCH  26  27
ATOM     27  C   UNL     1     -25.768  53.031  35.087  1.00  0.00     0.214 A 
ATOM     28  C   UNL     1     -25.032  51.845  35.254  1.00  0.00     0.180 A 
ATOM     29  C   UNL     1     -27.176  52.944  35.039  1.00  0.00     0.239 A 
ATOM     30  O   UNL     1     -25.655  50.676  35.344  1.00  0.00    -0.452 OA
ATOM     31  C   UNL     1     -27.807  51.677  35.072  1.00  0.00     0.111 A 
ATOM     32  O   UNL     1     -27.859  53.997  35.014  1.00  0.00    -0.285 OA
ATOM     33  C   UNL     1     -26.974  50.546  35.272  1.00  0.00     0.146 A 
ATOM     34  C   UNL     1     -29.214  51.470  34.943  1.00  0.00     0.134 A 
ATOM     35  C   UNL     1     -27.527  49.271  35.402  1.00  0.00     0.094 A 
ATOM     36  C   UNL     1     -29.741  50.183  35.111  1.00  0.00     0.093 A 
ATOM     37  C   UNL     1     -28.909  49.090  35.336  1.00  0.00     0.123 A 
BRANCH  28  38
ATOM     38  C   UNL     1     -23.555  51.853  35.290  1.00  0.00     0.025 A 
ATOM     39  C   UNL     1     -22.792  51.526  34.155  1.00  0.00     0.062 A 
ATOM     40  C   UNL     1     -22.898  52.216  36.475  1.00  0.00     0.016 A 
ATOM     41  C   UNL     1     -21.391  51.522  34.218  1.00  0.00     0.158 A 
ATOM     42  C   UNL     1     -21.501  52.214  36.539  1.00  0.00     0.051 A 
ATOM     43  C   UNL     1     -20.742  51.861  35.418  1.00  0.00     0.157 A 
BRANCH  41  44
ATOM     44  O   UNL     1     -20.640  51.189  33.090  1.00  0.00    -0.504 OA
ATOM     45  H   UNL     1     -20.468  50.221  32.830  1.00  0.00     0.293 HD
ENDBRANCH  41  44
BRANCH  43  46
ATOM     46  O   UNL     1     -19.349  51.858  35.513  1.00  0.00    -0.504 OA
ATOM     47  H   UNL     1     -18.760  51.764  34.698  1.00  0.00     0.293 HD
ENDBRANCH  43  46
ENDBRANCH  28  38
BRANCH  34  48
ATOM     48  O   UNL     1     -30.123  52.481  34.618  1.00  0.00    -0.507 OA
ATOM     49  H   UNL     1     -31.047  52.569  35.019  1.00  0.00     0.293 HD
ENDBRANCH  34  48
BRANCH  37  50
ATOM     50  O   UNL     1     -29.468  47.821  35.495  1.00  0.00    -0.508 OA
ATOM     51  H   UNL     1     -28.890  46.990  35.567  1.00  0.00     0.293 HD
ENDBRANCH  37  50
ENDBRANCH  26  27
ENDBRANCH   5  26
BRANCH   4  52
ATOM     52  O   UNL     1     -25.417  56.884  32.456  1.00  0.00    -0.384 OA
ATOM     53  H   UNL     1     -26.245  56.511  32.048  1.00  0.00     0.211 HD
ENDBRANCH   4  52
TORSDOF 16
ENDMDL
MODEL 8
REMARK VINA RESULT:    -4.206      5.352      8.714
REMARK INTER + INTRA:         -10.530
REMARK INTER:                  -8.324
REMARK INTRA:                  -2.206
REMARK UNBOUND:                -3.620
REMARK SMILES C[C@H]1O[C@@H](OC[C@@H]2O[C@@H](Oc3c(-c4ccc(O)c(O)c4)oc4cc(O)cc(O)c4c3=O)[C@H](O)[C@@H](O)[C@@H]2O)[C@H](O)[C@@H](O)[C@H]1O
REMARK SMILES IDX 7 1 36 2 34 3 32 4 9 5 8 6 6 7 5 8 4 9 1 10 2 11 42 12 3 13
REMARK SMILES IDX 40 14 38 15 43 16 41 18 39 20 37 22 35 24 10 26 11 27 12 28
REMARK SMILES IDX 30 29 21 30 29 31 31 32 22 33 27 34 23 35 26 36 24 37 13 38
REMARK SMILES IDX 20 39 14 40 18 41 15 42 16 43 19 44 17 46 28 48 25 50 33 52
REMARK H PARENT 43 17 41 19 39 21 37 23 35 25 19 45 17 47 28 49 25 51 33 53
REMARK Flexibility Score: inf
ROOT
ATOM      1  C   UNL     1     -30.882  51.362  36.449  1.00  0.00     0.180 C 
ATOM      2  C   UNL     1     -29.769  50.705  37.283  1.00  0.00     0.177 C 
ATOM      3  C   UNL     1     -28.405  51.254  36.826  1.00  0.00     0.180 C 
ATOM      4  C   UNL     1     -28.264  51.193  35.286  1.00  0.00     0.214 C 
ATOM      5  C   UNL     1     -29.538  51.679  34.555  1.00  0.00     0.339 C 
ATOM      6  O   UNL     1     -30.708  51.066  35.071  1.00  0.00    -0.332 OA
ENDROOT
BRANCH   1   7
ATOM      7  C   UNL     1     -32.286  50.924  36.903  1.00  0.00     0.198 C 
BRANCH   7   8
ATOM      8  O   UNL     1     -32.217  50.248  38.148  1.00  0.00    -0.347 OA
BRANCH   8   9
ATOM      9  C   UNL     1     -33.495  49.930  38.674  1.00  0.00     0.281 C 
ATOM     10  C   UNL     1     -31.112  48.333  40.248  1.00  0.00     0.041 C 
ATOM     11  C   UNL     1     -32.586  48.083  39.901  1.00  0.00     0.150 C 
ATOM     12  C   UNL     1     -32.790  47.237  38.610  1.00  0.00     0.174 C 
ATOM     13  O   UNL     1     -33.342  49.299  39.940  1.00  0.00    -0.344 OA
ATOM     14  C   UNL     1     -34.198  47.543  38.061  1.00  0.00     0.179 C 
ATOM     15  C   UNL     1     -34.319  49.039  37.693  1.00  0.00     0.202 C 
BRANCH  12  16
ATOM     16  O   UNL     1     -31.806  47.545  37.652  1.00  0.00    -0.388 OA
ATOM     17  H   UNL     1     -30.963  47.726  38.149  1.00  0.00     0.211 HD
ENDBRANCH  12  16
BRANCH  14  18
ATOM     18  O   UNL     1     -34.535  46.701  36.978  1.00  0.00    -0.387 OA
ATOM     19  H   UNL     1     -34.193  45.793  37.183  1.00  0.00     0.211 HD
ENDBRANCH  14  18
BRANCH  15  20
ATOM     20  O   UNL     1     -35.670  49.431  37.735  1.00  0.00    -0.385 OA
ATOM     21  H   UNL     1     -36.205  48.608  37.903  1.00  0.00     0.211 HD
ENDBRANCH  15  20
ENDBRANCH   8   9
ENDBRANCH   7   8
ENDBRANCH   1   7
BRANCH   2  22
ATOM     22  O   UNL     1     -29.823  49.309  37.138  1.00  0.00    -0.387 OA
ATOM     23  H   UNL     1     -29.025  49.046  36.617  1.00  0.00     0.211 HD
ENDBRANCH   2  22
BRANCH   3  24
ATOM     24  O   UNL     1     -28.273  52.582  37.270  1.00  0.00    -0.387 OA
ATOM     25  H   UNL     1     -27.506  52.979  36.781  1.00  0.00     0.211 HD
ENDBRANCH   3  24
BRANCH   5  26
ATOM     26  O   UNL     1     -29.633  53.107  34.619  1.00  0.00    -0.454 OA
BRANCH  26  27
ATOM     27  C   UNL     1     -30.119  53.955  33.602  1.00  0.00     0.214 A 
ATOM     28  C   UNL     1     -29.193  54.523  32.711  1.00  0.00     0.180 A 
ATOM     29  C   UNL     1     -31.485  54.275  33.442  1.00  0.00     0.239 A 
ATOM     30  O   UNL     1     -29.600  55.353  31.758  1.00  0.00    -0.452 OA
ATOM     31  C   UNL     1     -31.880  55.213  32.459  1.00  0.00     0.111 A 
ATOM     32  O   UNL     1     -32.343  53.687  34.146  1.00  0.00    -0.285 OA
ATOM     33  C   UNL     1     -30.869  55.705  31.593  1.00  0.00     0.146 A 
ATOM     34  C   UNL     1     -33.219  55.672  32.270  1.00  0.00     0.134 A 
ATOM     35  C   UNL     1     -31.191  56.567  30.543  1.00  0.00     0.094 A 
ATOM     36  C   UNL     1     -33.515  56.511  31.188  1.00  0.00     0.093 A 
ATOM     37  C   UNL     1     -32.513  56.960  30.331  1.00  0.00     0.123 A 
BRANCH  28  38
ATOM     38  C   UNL     1     -27.744  54.255  32.829  1.00  0.00     0.025 A 
ATOM     39  C   UNL     1     -27.028  53.630  31.794  1.00  0.00     0.062 A 
ATOM     40  C   UNL     1     -27.064  54.653  33.989  1.00  0.00     0.016 A 
ATOM     41  C   UNL     1     -25.657  53.369  31.935  1.00  0.00     0.158 A 
ATOM     42  C   UNL     1     -25.697  54.394  34.132  1.00  0.00     0.051 A 
ATOM     43  C   UNL     1     -24.989  53.747  33.113  1.00  0.00     0.157 A 
BRANCH  41  44
ATOM     44  O   UNL     1     -24.953  52.741  30.907  1.00  0.00    -0.504 OA
ATOM     45  H   UNL     1     -24.535  53.270  30.146  1.00  0.00     0.293 HD
ENDBRANCH  41  44
BRANCH  43  46
ATOM     46  O   UNL     1     -23.628  53.494  33.286  1.00  0.00    -0.504 OA
ATOM     47  H   UNL     1     -23.028  54.125  33.798  1.00  0.00     0.293 HD
ENDBRANCH  43  46
ENDBRANCH  28  38
BRANCH  34  48
ATOM     48  O   UNL     1     -34.276  55.364  33.131  1.00  0.00    -0.507 OA
ATOM     49  H   UNL     1     -34.338  54.517  33.680  1.00  0.00     0.293 HD
ENDBRANCH  34  48
BRANCH  37  50
ATOM     50  O   UNL     1     -32.845  57.797  29.266  1.00  0.00    -0.508 OA
ATOM     51  H   UNL     1     -33.483  58.578  29.380  1.00  0.00     0.293 HD
ENDBRANCH  37  50
ENDBRANCH  26  27
ENDBRANCH   5  26
BRANCH   4  52
ATOM     52  O   UNL     1     -27.893  49.901  34.870  1.00  0.00    -0.384 OA
ATOM     53  H   UNL     1     -28.008  49.282  35.641  1.00  0.00     0.211 HD
ENDBRANCH   4  52
TORSDOF 16
ENDMDL
MODEL 9
REMARK VINA RESULT:    -4.203     11.509     15.448
REMARK INTER + INTRA:         -10.526
REMARK INTER:                  -6.985
REMARK INTRA:                  -3.541
REMARK UNBOUND:                -3.620
REMARK SMILES C[C@H]1O[C@@H](OC[C@@H]2O[C@@H](Oc3c(-c4ccc(O)c(O)c4)oc4cc(O)cc(O)c4c3=O)[C@H](O)[C@@H](O)[C@@H]2O)[C@H](O)[C@@H](O)[C@H]1O
REMARK SMILES IDX 7 1 36 2 34 3 32 4 9 5 8 6 6 7 5 8 4 9 1 10 2 11 42 12 3 13
REMARK SMILES IDX 40 14 38 15 43 16 41 18 39 20 37 22 35 24 10 26 11 27 12 28
REMARK SMILES IDX 30 29 21 30 29 31 31 32 22 33 27 34 23 35 26 36 24 37 13 38
REMARK SMILES IDX 20 39 14 40 18 41 15 42 16 43 19 44 17 46 28 48 25 50 33 52
REMARK H PARENT 43 17 41 19 39 21 37 23 35 25 19 45 17 47 28 49 25 51 33 53
REMARK Flexibility Score: inf
ROOT
ATOM      1  C   UNL     1     -19.292  56.031  36.774  1.00  0.00     0.180 C 
ATOM      2  C   UNL     1     -17.798  56.398  36.752  1.00  0.00     0.177 C 
ATOM      3  C   UNL     1     -17.568  57.518  35.721  1.00  0.00     0.180 C 
ATOM      4  C   UNL     1     -18.233  57.176  34.366  1.00  0.00     0.214 C 
ATOM      5  C   UNL     1     -19.662  56.607  34.533  1.00  0.00     0.339 C 
ATOM      6  O   UNL     1     -19.707  55.569  35.497  1.00  0.00    -0.332 OA
ENDROOT
BRANCH   1   7
ATOM      7  C   UNL     1     -19.615  54.971  37.843  1.00  0.00     0.198 C 
BRANCH   7   8
ATOM      8  O   UNL     1     -18.952  53.751  37.550  1.00  0.00    -0.347 OA
BRANCH   8   9
ATOM      9  C   UNL     1     -19.831  52.640  37.512  1.00  0.00     0.281 C 
ATOM     10  C   UNL     1     -16.704  51.710  37.263  1.00  0.00     0.041 C 
ATOM     11  C   UNL     1     -18.065  51.203  36.765  1.00  0.00     0.150 C 
ATOM     12  C   UNL     1     -18.415  51.666  35.321  1.00  0.00     0.174 C 
ATOM     13  O   UNL     1     -19.093  51.445  37.733  1.00  0.00    -0.344 OA
ATOM     14  C   UNL     1     -19.948  51.613  35.166  1.00  0.00     0.179 C 
ATOM     15  C   UNL     1     -20.624  52.577  36.168  1.00  0.00     0.202 C 
BRANCH  12  16
ATOM     16  O   UNL     1     -17.936  52.968  35.085  1.00  0.00    -0.388 OA
ATOM     17  H   UNL     1     -17.982  53.456  35.950  1.00  0.00     0.211 HD
ENDBRANCH  12  16
BRANCH  14  18
ATOM     18  O   UNL     1     -20.351  51.863  33.836  1.00  0.00    -0.387 OA
ATOM     19  H   UNL     1     -20.836  51.060  33.511  1.00  0.00     0.211 HD
ENDBRANCH  14  18
BRANCH  15  20
ATOM     20  O   UNL     1     -21.939  52.147  36.427  1.00  0.00    -0.385 OA
ATOM     21  H   UNL     1     -22.500  52.966  36.509  1.00  0.00     0.211 HD
ENDBRANCH  15  20
ENDBRANCH   8   9
ENDBRANCH   7   8
ENDBRANCH   1   7
BRANCH   2  22
ATOM     22  O   UNL     1     -17.031  55.263  36.442  1.00  0.00    -0.387 OA
ATOM     23  H   UNL     1     -16.279  55.573  35.879  1.00  0.00     0.211 HD
ENDBRANCH   2  22
BRANCH   3  24
ATOM     24  O   UNL     1     -18.095  58.720  36.226  1.00  0.00    -0.387 OA
ATOM     25  H   UNL     1     -19.077  58.693  36.082  1.00  0.00     0.211 HD
ENDBRANCH   3  24
BRANCH   5  26
ATOM     26  O   UNL     1     -20.579  57.657  34.864  1.00  0.00    -0.454 OA
BRANCH  26  27
ATOM     27  C   UNL     1     -21.348  58.408  33.951  1.00  0.00     0.214 A 
ATOM     28  C   UNL     1     -22.639  57.952  33.636  1.00  0.00     0.180 A 
ATOM     29  C   UNL     1     -20.882  59.585  33.326  1.00  0.00     0.239 A 
ATOM     30  O   UNL     1     -23.387  58.609  32.757  1.00  0.00    -0.452 OA
ATOM     31  C   UNL     1     -21.678  60.226  32.345  1.00  0.00     0.111 A 
ATOM     32  O   UNL     1     -19.784  60.080  33.680  1.00  0.00    -0.285 OA
ATOM     33  C   UNL     1     -22.976  59.700  32.124  1.00  0.00     0.146 A 
ATOM     34  C   UNL     1     -21.269  61.368  31.591  1.00  0.00     0.134 A 
ATOM     35  C   UNL     1     -23.854  60.326  31.236  1.00  0.00     0.094 A 
ATOM     36  C   UNL     1     -22.183  61.992  30.733  1.00  0.00     0.093 A 
ATOM     37  C   UNL     1     -23.464  61.478  30.551  1.00  0.00     0.123 A 
BRANCH  28  38
ATOM     38  C   UNL     1     -23.187  56.715  34.231  1.00  0.00     0.025 A 
ATOM     39  C   UNL     1     -22.924  55.454  33.671  1.00  0.00     0.062 A 
ATOM     40  C   UNL     1     -23.966  56.799  35.394  1.00  0.00     0.016 A 
ATOM     41  C   UNL     1     -23.470  54.294  34.243  1.00  0.00     0.158 A 
ATOM     42  C   UNL     1     -24.511  55.645  35.966  1.00  0.00     0.051 A 
ATOM     43  C   UNL     1     -24.273  54.392  35.393  1.00  0.00     0.157 A 
BRANCH  41  44
ATOM     44  O   UNL     1     -23.212  53.045  33.677  1.00  0.00    -0.504 OA
ATOM     45  H   UNL     1     -23.848  52.621  33.008  1.00  0.00     0.293 HD
ENDBRANCH  41  44
BRANCH  43  46
ATOM     46  O   UNL     1     -24.836  53.257  35.979  1.00  0.00    -0.504 OA
ATOM     47  H   UNL     1     -25.575  53.322  36.664  1.00  0.00     0.293 HD
ENDBRANCH  43  46
ENDBRANCH  28  38
BRANCH  34  48
ATOM     48  O   UNL     1     -19.977  61.901  31.624  1.00  0.00    -0.507 OA
ATOM     49  H   UNL     1     -19.608  62.459  32.382  1.00  0.00     0.293 HD
ENDBRANCH  34  48
BRANCH  37  50
ATOM     50  O   UNL     1     -24.348  62.123  29.685  1.00  0.00    -0.508 OA
ATOM     51  H   UNL     1     -25.330  62.239  29.915  1.00  0.00     0.293 HD
ENDBRANCH  37  50
ENDBRANCH  26  27
ENDBRANCH   5  26
BRANCH   4  52
ATOM     52  O   UNL     1     -17.417  56.307  33.616  1.00  0.00    -0.384 OA
ATOM     53  H   UNL     1     -17.961  55.515  33.360  1.00  0.00     0.211 HD
ENDBRANCH   4  52
TORSDOF 16
ENDMDL
