MODEL 1
REMARK VINA RESULT:    -7.986      0.000      0.000
REMARK INTER + INTRA:          -9.367
REMARK INTER:                  -9.153
REMARK INTRA:                  -0.215
REMARK UNBOUND:                -0.215
REMARK SMILES O=c1c(-c2ccc(O)cc2)coc2c(O)c(O)ccc12
REMARK SMILES IDX 3 1 11 2 12 3 13 4 20 5 2 6 1 7 19 8 18 9 16 10 14 11 4 12
REMARK SMILES IDX 5 13 6 14 7 15 10 16 9 17 8 18 15 20 17 22
REMARK H PARENT 8 19 15 21 17 23
REMARK Flexibility Score: inf
ROOT
ATOM      1  C   UNL     1       2.182  45.847   2.802  1.00  0.00     0.065 A 
ATOM      2  C   UNL     1       1.244  46.292   3.746  1.00  0.00     0.208 A 
ATOM      3  O   UNL     1      -0.053  46.049   3.588  1.00  0.00    -0.459 OA
ATOM      4  C   UNL     1      -0.538  45.381   2.546  1.00  0.00     0.183 A 
ATOM      5  C   UNL     1       0.332  44.900   1.542  1.00  0.00     0.069 A 
ATOM      6  C   UNL     1       1.710  45.145   1.676  1.00  0.00     0.200 A 
ATOM      7  O   UNL     1       2.516  44.757   0.785  1.00  0.00    -0.288 OA
ATOM      8  C   UNL     1      -0.198  44.200   0.445  1.00  0.00     0.020 A 
ATOM      9  C   UNL     1      -1.575  43.980   0.351  1.00  0.00     0.051 A 
ATOM     10  C   UNL     1      -2.439  44.456   1.346  1.00  0.00     0.161 A 
ATOM     11  C   UNL     1      -1.919  45.160   2.447  1.00  0.00     0.201 A 
ENDROOT
BRANCH   1  12
ATOM     12  C   UNL     1       3.626  46.126   3.005  1.00  0.00    -0.011 A 
ATOM     13  C   UNL     1       4.263  47.139   2.265  1.00  0.00     0.013 A 
ATOM     14  C   UNL     1       5.621  47.409   2.460  1.00  0.00     0.047 A 
ATOM     15  C   UNL     1       6.357  46.679   3.398  1.00  0.00     0.115 A 
ATOM     16  C   UNL     1       4.371  45.401   3.953  1.00  0.00     0.013 A 
ATOM     17  C   UNL     1       5.728  45.675   4.146  1.00  0.00     0.047 A 
BRANCH  15  18
ATOM     18  O   UNL     1       7.709  46.961   3.582  1.00  0.00    -0.508 OA
ATOM     19  H   UNL     1       8.378  46.229   3.790  1.00  0.00     0.293 HD
ENDBRANCH  15  18
ENDBRANCH   1  12
BRANCH  11  20
ATOM     20  O   UNL     1      -2.761  45.643   3.450  1.00  0.00    -0.502 OA
ATOM     21  H   UNL     1      -2.887  45.155   4.329  1.00  0.00     0.293 HD
ENDBRANCH  11  20
BRANCH  10  22
ATOM     22  O   UNL     1      -3.811  44.234   1.245  1.00  0.00    -0.504 OA
ATOM     23  H   UNL     1      -4.400  44.810   0.655  1.00  0.00     0.293 HD
ENDBRANCH  10  22
TORSDOF 4
ENDMDL
MODEL 2
REMARK VINA RESULT:    -7.925      1.461      2.663
REMARK INTER + INTRA:          -9.298
REMARK INTER:                  -9.138
REMARK INTRA:                  -0.160
REMARK UNBOUND:                -0.215
REMARK SMILES O=c1c(-c2ccc(O)cc2)coc2c(O)c(O)ccc12
REMARK SMILES IDX 3 1 11 2 12 3 13 4 20 5 2 6 1 7 19 8 18 9 16 10 14 11 4 12
REMARK SMILES IDX 5 13 6 14 7 15 10 16 9 17 8 18 15 20 17 22
REMARK H PARENT 8 19 15 21 17 23
REMARK Flexibility Score: inf
ROOT
ATOM      1  C   UNL     1       2.440  45.281   2.509  1.00  0.00     0.065 A 
ATOM      2  C   UNL     1       2.491  44.785   1.197  1.00  0.00     0.208 A 
ATOM      3  O   UNL     1       1.393  44.701   0.454  1.00  0.00    -0.459 OA
ATOM      4  C   UNL     1       0.196  45.076   0.894  1.00  0.00     0.183 A 
ATOM      5  C   UNL     1       0.047  45.584   2.204  1.00  0.00     0.069 A 
ATOM      6  C   UNL     1       1.189  45.680   3.019  1.00  0.00     0.200 A 
ATOM      7  O   UNL     1       1.090  46.101   4.206  1.00  0.00    -0.288 OA
ATOM      8  C   UNL     1      -1.227  45.971   2.655  1.00  0.00     0.020 A 
ATOM      9  C   UNL     1      -2.334  45.857   1.812  1.00  0.00     0.051 A 
ATOM     10  C   UNL     1      -2.188  45.354   0.512  1.00  0.00     0.161 A 
ATOM     11  C   UNL     1      -0.919  44.962   0.052  1.00  0.00     0.201 A 
ENDROOT
BRANCH   1  12
ATOM     12  C   UNL     1       3.682  45.370   3.317  1.00  0.00    -0.011 A 
ATOM     13  C   UNL     1       3.880  44.506   4.409  1.00  0.00     0.013 A 
ATOM     14  C   UNL     1       5.053  44.582   5.166  1.00  0.00     0.047 A 
ATOM     15  C   UNL     1       6.043  45.514   4.841  1.00  0.00     0.115 A 
ATOM     16  C   UNL     1       4.685  46.300   2.990  1.00  0.00     0.013 A 
ATOM     17  C   UNL     1       5.857  46.373   3.749  1.00  0.00     0.047 A 
BRANCH  15  18
ATOM     18  O   UNL     1       7.206  45.577   5.604  1.00  0.00    -0.508 OA
ATOM     19  H   UNL     1       8.122  45.478   5.181  1.00  0.00     0.293 HD
ENDBRANCH  15  18
ENDBRANCH   1  12
BRANCH  11  20
ATOM     20  O   UNL     1      -0.750  44.458  -1.239  1.00  0.00    -0.502 OA
ATOM     21  H   UNL     1      -0.213  43.618  -1.424  1.00  0.00     0.293 HD
ENDBRANCH  11  20
BRANCH  10  22
ATOM     22  O   UNL     1      -3.298  45.242  -0.323  1.00  0.00    -0.504 OA
ATOM     23  H   UNL     1      -4.150  45.763  -0.147  1.00  0.00     0.293 HD
ENDBRANCH  10  22
TORSDOF 4
ENDMDL
MODEL 3
REMARK VINA RESULT:    -7.609      4.251      6.347
REMARK INTER + INTRA:          -8.936
REMARK INTER:                  -9.209
REMARK INTRA:                   0.273
REMARK UNBOUND:                -0.215
REMARK SMILES O=c1c(-c2ccc(O)cc2)coc2c(O)c(O)ccc12
REMARK SMILES IDX 3 1 11 2 12 3 13 4 20 5 2 6 1 7 19 8 18 9 16 10 14 11 4 12
REMARK SMILES IDX 5 13 6 14 7 15 10 16 9 17 8 18 15 20 17 22
REMARK H PARENT 8 19 15 21 17 23
REMARK Flexibility Score: inf
ROOT
ATOM      1  C   UNL     1      -2.042  45.150   1.446  1.00  0.00     0.065 A 
ATOM      2  C   UNL     1      -3.043  45.302   0.474  1.00  0.00     0.208 A 
ATOM      3  O   UNL     1      -2.760  45.206  -0.820  1.00  0.00    -0.459 OA
ATOM      4  C   UNL     1      -1.534  44.964  -1.272  1.00  0.00     0.183 A 
ATOM      5  C   UNL     1      -0.461  44.802  -0.368  1.00  0.00     0.069 A 
ATOM      6  C   UNL     1      -0.726  44.903   1.010  1.00  0.00     0.200 A 
ATOM      7  O   UNL     1       0.213  44.794   1.847  1.00  0.00    -0.288 OA
ATOM      8  C   UNL     1       0.830  44.551  -0.864  1.00  0.00     0.020 A 
ATOM      9  C   UNL     1       1.047  44.461  -2.240  1.00  0.00     0.051 A 
ATOM     10  C   UNL     1      -0.016  44.620  -3.139  1.00  0.00     0.161 A 
ATOM     11  C   UNL     1      -1.311  44.873  -2.654  1.00  0.00     0.201 A 
ENDROOT
BRANCH   1  12
ATOM     12  C   UNL     1      -2.385  45.256   2.886  1.00  0.00    -0.011 A 
ATOM     13  C   UNL     1      -1.492  45.867   3.785  1.00  0.00     0.013 A 
ATOM     14  C   UNL     1      -1.816  45.976   5.140  1.00  0.00     0.047 A 
ATOM     15  C   UNL     1      -3.035  45.482   5.614  1.00  0.00     0.115 A 
ATOM     16  C   UNL     1      -3.613  44.769   3.369  1.00  0.00     0.013 A 
ATOM     17  C   UNL     1      -3.934  44.880   4.725  1.00  0.00     0.047 A 
BRANCH  15  18
ATOM     18  O   UNL     1      -3.344  45.598   6.968  1.00  0.00    -0.508 OA
ATOM     19  H   UNL     1      -2.636  45.487   7.684  1.00  0.00     0.293 HD
ENDBRANCH  15  18
ENDBRANCH   1  12
BRANCH  11  20
ATOM     20  O   UNL     1      -2.385  45.036  -3.531  1.00  0.00    -0.502 OA
ATOM     21  H   UNL     1      -2.625  44.336  -4.224  1.00  0.00     0.293 HD
ENDBRANCH  11  20
BRANCH  10  22
ATOM     22  O   UNL     1       0.210  44.529  -4.512  1.00  0.00    -0.504 OA
ATOM     23  H   UNL     1       1.116  44.735  -4.916  1.00  0.00     0.293 HD
ENDBRANCH  10  22
TORSDOF 4
ENDMDL
MODEL 4
REMARK VINA RESULT:    -7.552      4.221      5.922
REMARK INTER + INTRA:          -8.870
REMARK INTER:                  -9.121
REMARK INTRA:                   0.251
REMARK UNBOUND:                -0.215
REMARK SMILES O=c1c(-c2ccc(O)cc2)coc2c(O)c(O)ccc12
REMARK SMILES IDX 3 1 11 2 12 3 13 4 20 5 2 6 1 7 19 8 18 9 16 10 14 11 4 12
REMARK SMILES IDX 5 13 6 14 7 15 10 16 9 17 8 18 15 20 17 22
REMARK H PARENT 8 19 15 21 17 23
REMARK Flexibility Score: inf
ROOT
ATOM      1  C   UNL     1      -1.902  44.909   1.112  1.00  0.00     0.065 A 
ATOM      2  C   UNL     1      -3.214  44.435   1.267  1.00  0.00     0.208 A 
ATOM      3  O   UNL     1      -3.826  44.492   2.445  1.00  0.00    -0.459 OA
ATOM      4  C   UNL     1      -3.249  44.992   3.533  1.00  0.00     0.183 A 
ATOM      5  C   UNL     1      -1.927  45.488   3.473  1.00  0.00     0.069 A 
ATOM      6  C   UNL     1      -1.249  45.438   2.242  1.00  0.00     0.200 A 
ATOM      7  O   UNL     1      -0.056  45.844   2.156  1.00  0.00    -0.288 OA
ATOM      8  C   UNL     1      -1.332  46.010   4.634  1.00  0.00     0.020 A 
ATOM      9  C   UNL     1      -2.042  46.039   5.835  1.00  0.00     0.051 A 
ATOM     10  C   UNL     1      -3.354  45.548   5.896  1.00  0.00     0.161 A 
ATOM     11  C   UNL     1      -3.959  45.022   4.742  1.00  0.00     0.201 A 
ENDROOT
BRANCH   1  12
ATOM     12  C   UNL     1      -1.241  44.840  -0.215  1.00  0.00    -0.011 A 
ATOM     13  C   UNL     1      -1.973  45.109  -1.386  1.00  0.00     0.013 A 
ATOM     14  C   UNL     1      -1.351  45.054  -2.637  1.00  0.00     0.047 A 
ATOM     15  C   UNL     1       0.007  44.736  -2.735  1.00  0.00     0.115 A 
ATOM     16  C   UNL     1       0.127  44.529  -0.321  1.00  0.00     0.013 A 
ATOM     17  C   UNL     1       0.746  44.475  -1.573  1.00  0.00     0.047 A 
BRANCH  15  18
ATOM     18  O   UNL     1       0.613  44.685  -3.988  1.00  0.00    -0.508 OA
ATOM     19  H   UNL     1       0.283  45.255  -4.759  1.00  0.00     0.293 HD
ENDBRANCH  15  18
ENDBRANCH   1  12
BRANCH  11  20
ATOM     20  O   UNL     1      -5.264  44.528   4.779  1.00  0.00    -0.502 OA
ATOM     21  H   UNL     1      -5.477  43.556   4.588  1.00  0.00     0.293 HD
ENDBRANCH  11  20
BRANCH  10  22
ATOM     22  O   UNL     1      -4.056  45.580   7.100  1.00  0.00    -0.504 OA
ATOM     23  H   UNL     1      -3.579  45.637   7.992  1.00  0.00     0.293 HD
ENDBRANCH  10  22
TORSDOF 4
ENDMDL
MODEL 5
REMARK VINA RESULT:    -7.154      3.798      5.500
REMARK INTER + INTRA:          -8.414
REMARK INTER:                  -8.533
REMARK INTRA:                   0.119
REMARK UNBOUND:                -0.215
REMARK SMILES O=c1c(-c2ccc(O)cc2)coc2c(O)c(O)ccc12
REMARK SMILES IDX 3 1 11 2 12 3 13 4 20 5 2 6 1 7 19 8 18 9 16 10 14 11 4 12
REMARK SMILES IDX 5 13 6 14 7 15 10 16 9 17 8 18 15 20 17 22
REMARK H PARENT 8 19 15 21 17 23
REMARK Flexibility Score: inf
ROOT
ATOM      1  C   UNL     1      -1.107  45.289   2.197  1.00  0.00     0.065 A 
ATOM      2  C   UNL     1      -0.401  46.047   3.143  1.00  0.00     0.208 A 
ATOM      3  O   UNL     1      -0.915  46.294   4.343  1.00  0.00    -0.459 OA
ATOM      4  C   UNL     1      -2.108  45.847   4.720  1.00  0.00     0.183 A 
ATOM      5  C   UNL     1      -2.894  45.079   3.831  1.00  0.00     0.069 A 
ATOM      6  C   UNL     1      -2.381  44.805   2.551  1.00  0.00     0.200 A 
ATOM      7  O   UNL     1      -3.066  44.148   1.719  1.00  0.00    -0.288 OA
ATOM      8  C   UNL     1      -4.155  44.619   4.245  1.00  0.00     0.020 A 
ATOM      9  C   UNL     1      -4.626  44.917   5.526  1.00  0.00     0.051 A 
ATOM     10  C   UNL     1      -3.848  45.677   6.409  1.00  0.00     0.161 A 
ATOM     11  C   UNL     1      -2.585  46.145   6.005  1.00  0.00     0.201 A 
ENDROOT
BRANCH   1  12
ATOM     12  C   UNL     1      -0.508  45.022   0.865  1.00  0.00    -0.011 A 
ATOM     13  C   UNL     1      -1.260  45.231  -0.305  1.00  0.00     0.013 A 
ATOM     14  C   UNL     1      -0.696  44.989  -1.561  1.00  0.00     0.047 A 
ATOM     15  C   UNL     1       0.625  44.543  -1.666  1.00  0.00     0.115 A 
ATOM     16  C   UNL     1       0.823  44.582   0.752  1.00  0.00     0.013 A 
ATOM     17  C   UNL     1       1.384  44.341  -0.506  1.00  0.00     0.047 A 
BRANCH  15  18
ATOM     18  O   UNL     1       1.174  44.307  -2.924  1.00  0.00    -0.508 OA
ATOM     19  H   UNL     1       0.594  44.048  -3.714  1.00  0.00     0.293 HD
ENDBRANCH  15  18
ENDBRANCH   1  12
BRANCH  11  20
ATOM     20  O   UNL     1      -1.794  46.904   6.867  1.00  0.00    -0.502 OA
ATOM     21  H   UNL     1      -1.380  47.785   6.584  1.00  0.00     0.293 HD
ENDBRANCH  11  20
BRANCH  10  22
ATOM     22  O   UNL     1      -4.325  45.970   7.685  1.00  0.00    -0.504 OA
ATOM     23  H   UNL     1      -4.333  46.918   8.045  1.00  0.00     0.293 HD
ENDBRANCH  10  22
TORSDOF 4
ENDMDL
MODEL 6
REMARK VINA RESULT:    -7.115      1.536      7.326
REMARK INTER + INTRA:          -8.369
REMARK INTER:                  -8.244
REMARK INTRA:                  -0.125
REMARK UNBOUND:                -0.215
REMARK SMILES O=c1c(-c2ccc(O)cc2)coc2c(O)c(O)ccc12
REMARK SMILES IDX 3 1 11 2 12 3 13 4 20 5 2 6 1 7 19 8 18 9 16 10 14 11 4 12
REMARK SMILES IDX 5 13 6 14 7 15 10 16 9 17 8 18 15 20 17 22
REMARK H PARENT 8 19 15 21 17 23
REMARK Flexibility Score: inf
ROOT
ATOM      1  C   UNL     1       2.909  45.815   2.725  1.00  0.00     0.065 A 
ATOM      2  C   UNL     1       3.679  46.669   1.921  1.00  0.00     0.208 A 
ATOM      3  O   UNL     1       4.945  46.936   2.223  1.00  0.00    -0.459 OA
ATOM      4  C   UNL     1       5.555  46.421   3.286  1.00  0.00     0.183 A 
ATOM      5  C   UNL     1       4.857  45.554   4.156  1.00  0.00     0.069 A 
ATOM      6  C   UNL     1       3.513  45.255   3.868  1.00  0.00     0.200 A 
ATOM      7  O   UNL     1       2.848  44.509   4.639  1.00  0.00    -0.288 OA
ATOM      8  C   UNL     1       5.516  45.022   5.277  1.00  0.00     0.020 A 
ATOM      9  C   UNL     1       6.852  45.347   5.526  1.00  0.00     0.051 A 
ATOM     10  C   UNL     1       7.546  46.206   4.664  1.00  0.00     0.161 A 
ATOM     11  C   UNL     1       6.895  46.746   3.540  1.00  0.00     0.201 A 
ENDROOT
BRANCH   1  12
ATOM     12  C   UNL     1       1.499  45.528   2.363  1.00  0.00    -0.011 A 
ATOM     13  C   UNL     1       1.201  44.782   1.208  1.00  0.00     0.013 A 
ATOM     14  C   UNL     1      -0.126  44.502   0.870  1.00  0.00     0.047 A 
ATOM     15  C   UNL     1      -1.171  44.957   1.680  1.00  0.00     0.115 A 
ATOM     16  C   UNL     1       0.443  45.974   3.179  1.00  0.00     0.013 A 
ATOM     17  C   UNL     1      -0.883  45.693   2.837  1.00  0.00     0.047 A 
BRANCH  15  18
ATOM     18  O   UNL     1      -2.488  44.670   1.330  1.00  0.00    -0.508 OA
ATOM     19  H   UNL     1      -2.713  44.181   0.471  1.00  0.00     0.293 HD
ENDBRANCH  15  18
ENDBRANCH   1  12
BRANCH  11  20
ATOM     20  O   UNL     1       7.567  47.604   2.668  1.00  0.00    -0.502 OA
ATOM     21  H   UNL     1       8.469  48.006   2.896  1.00  0.00     0.293 HD
ENDBRANCH  11  20
BRANCH  10  22
ATOM     22  O   UNL     1       8.878  46.526   4.920  1.00  0.00    -0.504 OA
ATOM     23  H   UNL     1       9.605  45.820   4.911  1.00  0.00     0.293 HD
ENDBRANCH  10  22
TORSDOF 4
ENDMDL
MODEL 7
REMARK VINA RESULT:    -7.107      1.686      7.210
REMARK INTER + INTRA:          -8.360
REMARK INTER:                  -8.221
REMARK INTRA:                  -0.139
REMARK UNBOUND:                -0.215
REMARK SMILES O=c1c(-c2ccc(O)cc2)coc2c(O)c(O)ccc12
REMARK SMILES IDX 3 1 11 2 12 3 13 4 20 5 2 6 1 7 19 8 18 9 16 10 14 11 4 12
REMARK SMILES IDX 5 13 6 14 7 15 10 16 9 17 8 18 15 20 17 22
REMARK H PARENT 8 19 15 21 17 23
REMARK Flexibility Score: inf
ROOT
ATOM      1  C   UNL     1       2.904  45.553   3.189  1.00  0.00     0.065 A 
ATOM      2  C   UNL     1       3.222  44.845   4.358  1.00  0.00     0.208 A 
ATOM      3  O   UNL     1       4.444  44.896   4.877  1.00  0.00    -0.459 OA
ATOM      4  C   UNL     1       5.427  45.606   4.333  1.00  0.00     0.183 A 
ATOM      5  C   UNL     1       5.201  46.347   3.152  1.00  0.00     0.069 A 
ATOM      6  C   UNL     1       3.919  46.311   2.574  1.00  0.00     0.200 A 
ATOM      7  O   UNL     1       3.687  46.935   1.502  1.00  0.00    -0.288 OA
ATOM      8  C   UNL     1       6.253  47.090   2.589  1.00  0.00     0.020 A 
ATOM      9  C   UNL     1       7.511  47.096   3.196  1.00  0.00     0.051 A 
ATOM     10  C   UNL     1       7.737  46.362   4.369  1.00  0.00     0.161 A 
ATOM     11  C   UNL     1       6.692  45.614   4.939  1.00  0.00     0.201 A 
ENDROOT
BRANCH   1  12
ATOM     12  C   UNL     1       1.529  45.485   2.632  1.00  0.00    -0.011 A 
ATOM     13  C   UNL     1       1.290  44.831   1.411  1.00  0.00     0.013 A 
ATOM     14  C   UNL     1      -0.005  44.757   0.889  1.00  0.00     0.047 A 
ATOM     15  C   UNL     1      -1.076  45.330   1.581  1.00  0.00     0.115 A 
ATOM     16  C   UNL     1       0.445  46.052   3.327  1.00  0.00     0.013 A 
ATOM     17  C   UNL     1      -0.848  45.977   2.803  1.00  0.00     0.047 A 
BRANCH  15  18
ATOM     18  O   UNL     1      -2.361  45.249   1.049  1.00  0.00    -0.508 OA
ATOM     19  H   UNL     1      -2.824  44.357   0.917  1.00  0.00     0.293 HD
ENDBRANCH  15  18
ENDBRANCH   1  12
BRANCH  11  20
ATOM     20  O   UNL     1       6.895  44.876   6.106  1.00  0.00    -0.502 OA
ATOM     21  H   UNL     1       7.707  44.284   6.235  1.00  0.00     0.293 HD
ENDBRANCH  11  20
BRANCH  10  22
ATOM     22  O   UNL     1       8.995  46.373   4.968  1.00  0.00    -0.504 OA
ATOM     23  H   UNL     1       9.363  47.204   5.416  1.00  0.00     0.293 HD
ENDBRANCH  10  22
TORSDOF 4
ENDMDL
MODEL 8
REMARK VINA RESULT:    -7.042      4.005      6.377
REMARK INTER + INTRA:          -8.286
REMARK INTER:                  -8.454
REMARK INTRA:                   0.168
REMARK UNBOUND:                -0.215
REMARK SMILES O=c1c(-c2ccc(O)cc2)coc2c(O)c(O)ccc12
REMARK SMILES IDX 3 1 11 2 12 3 13 4 20 5 2 6 1 7 19 8 18 9 16 10 14 11 4 12
REMARK SMILES IDX 5 13 6 14 7 15 10 16 9 17 8 18 15 20 17 22
REMARK H PARENT 8 19 15 21 17 23
REMARK Flexibility Score: inf
ROOT
ATOM      1  C   UNL     1      -1.143  44.965   1.156  1.00  0.00     0.065 A 
ATOM      2  C   UNL     1       0.219  44.669   0.997  1.00  0.00     0.208 A 
ATOM      3  O   UNL     1       0.751  44.529  -0.212  1.00  0.00    -0.459 OA
ATOM      4  C   UNL     1       0.043  44.657  -1.329  1.00  0.00     0.183 A 
ATOM      5  C   UNL     1      -1.338  44.951  -1.267  1.00  0.00     0.069 A 
ATOM      6  C   UNL     1      -1.934  45.100  -0.002  1.00  0.00     0.200 A 
ATOM      7  O   UNL     1      -3.171  45.332   0.096  1.00  0.00    -0.288 OA
ATOM      8  C   UNL     1      -2.072  45.079  -2.458  1.00  0.00     0.020 A 
ATOM      9  C   UNL     1      -1.440  44.920  -3.693  1.00  0.00     0.051 A 
ATOM     10  C   UNL     1      -0.070  44.631  -3.757  1.00  0.00     0.161 A 
ATOM     11  C   UNL     1       0.674  44.498  -2.572  1.00  0.00     0.201 A 
ENDROOT
BRANCH   1  12
ATOM     12  C   UNL     1      -1.713  45.123   2.518  1.00  0.00    -0.011 A 
ATOM     13  C   UNL     1      -1.032  45.881   3.488  1.00  0.00     0.013 A 
ATOM     14  C   UNL     1      -1.570  46.039   4.768  1.00  0.00     0.047 A 
ATOM     15  C   UNL     1      -2.795  45.449   5.095  1.00  0.00     0.115 A 
ATOM     16  C   UNL     1      -2.949  44.540   2.851  1.00  0.00     0.013 A 
ATOM     17  C   UNL     1      -3.485  44.701   4.132  1.00  0.00     0.047 A 
BRANCH  15  18
ATOM     18  O   UNL     1      -3.319  45.616   6.374  1.00  0.00    -0.508 OA
ATOM     19  H   UNL     1      -4.244  45.278   6.616  1.00  0.00     0.293 HD
ENDBRANCH  15  18
ENDBRANCH   1  12
BRANCH  11  20
ATOM     20  O   UNL     1       2.039  44.209  -2.612  1.00  0.00    -0.502 OA
ATOM     21  H   UNL     1       2.745  44.935  -2.557  1.00  0.00     0.293 HD
ENDBRANCH  11  20
BRANCH  10  22
ATOM     22  O   UNL     1       0.553  44.474  -4.994  1.00  0.00    -0.504 OA
ATOM     23  H   UNL     1       1.444  44.911  -5.199  1.00  0.00     0.293 HD
ENDBRANCH  10  22
TORSDOF 4
ENDMDL
MODEL 9
REMARK VINA RESULT:    -6.587      5.334      7.361
REMARK INTER + INTRA:          -7.765
REMARK INTER:                  -7.920
REMARK INTRA:                   0.155
REMARK UNBOUND:                -0.215
REMARK SMILES O=c1c(-c2ccc(O)cc2)coc2c(O)c(O)ccc12
REMARK SMILES IDX 3 1 11 2 12 3 13 4 20 5 2 6 1 7 19 8 18 9 16 10 14 11 4 12
REMARK SMILES IDX 5 13 6 14 7 15 10 16 9 17 8 18 15 20 17 22
REMARK H PARENT 8 19 15 21 17 23
REMARK Flexibility Score: inf
ROOT
ATOM      1  C   UNL     1       6.851  46.619   3.409  1.00  0.00     0.065 A 
ATOM      2  C   UNL     1       8.157  46.692   2.902  1.00  0.00     0.208 A 
ATOM      3  O   UNL     1       8.401  47.242   1.717  1.00  0.00    -0.459 OA
ATOM      4  C   UNL     1       7.442  47.751   0.950  1.00  0.00     0.183 A 
ATOM      5  C   UNL     1       6.096  47.717   1.377  1.00  0.00     0.069 A 
ATOM      6  C   UNL     1       5.803  47.137   2.623  1.00  0.00     0.200 A 
ATOM      7  O   UNL     1       4.609  47.061   3.025  1.00  0.00    -0.288 OA
ATOM      8  C   UNL     1       5.095  48.256   0.550  1.00  0.00     0.020 A 
ATOM      9  C   UNL     1       5.431  48.821  -0.682  1.00  0.00     0.051 A 
ATOM     10  C   UNL     1       6.766  48.856  -1.107  1.00  0.00     0.161 A 
ATOM     11  C   UNL     1       7.775  48.318  -0.288  1.00  0.00     0.201 A 
ENDROOT
BRANCH   1  12
ATOM     12  C   UNL     1       6.605  46.005   4.738  1.00  0.00    -0.011 A 
ATOM     13  C   UNL     1       7.417  46.342   5.836  1.00  0.00     0.013 A 
ATOM     14  C   UNL     1       7.182  45.772   7.091  1.00  0.00     0.047 A 
ATOM     15  C   UNL     1       6.134  44.865   7.267  1.00  0.00     0.115 A 
ATOM     16  C   UNL     1       5.546  45.098   4.925  1.00  0.00     0.013 A 
ATOM     17  C   UNL     1       5.314  44.530   6.181  1.00  0.00     0.047 A 
BRANCH  15  18
ATOM     18  O   UNL     1       5.912  44.306   8.524  1.00  0.00    -0.508 OA
ATOM     19  H   UNL     1       6.037  44.845   9.373  1.00  0.00     0.293 HD
ENDBRANCH  15  18
ENDBRANCH   1  12
BRANCH  11  20
ATOM     20  O   UNL     1       9.111  48.342  -0.691  1.00  0.00    -0.502 OA
ATOM     21  H   UNL     1       9.839  47.860  -0.175  1.00  0.00     0.293 HD
ENDBRANCH  11  20
BRANCH  10  22
ATOM     22  O   UNL     1       7.093  49.422  -2.338  1.00  0.00    -0.504 OA
ATOM     23  H   UNL     1       7.522  50.338  -2.404  1.00  0.00     0.293 HD
ENDBRANCH  10  22
TORSDOF 4
ENDMDL
