MODEL 1
REMARK VINA RESULT:    -0.961      0.000      0.000
REMARK INTER + INTRA:          -3.348
REMARK INTER:                  -2.085
REMARK INTRA:                  -1.263
REMARK UNBOUND:                -1.263
REMARK SMILES CCCCCCCCCCCCCCCCCCCCCC(=O)[O-]
REMARK SMILES IDX 12 1 11 2 10 3 9 4 8 5 7 6 6 7 5 8 4 9 3 10 2 11 1 12 13 13
REMARK SMILES IDX 14 14 15 15 16 16 17 17 18 18 19 19 20 20 21 21 22 22 23 23
REMARK SMILES IDX 24 24
REMARK H PARENT
REMARK Flexibility Score: inf
ROOT
ATOM      1  C   UNL     1     -21.012  -1.710   6.860  1.00  0.00     0.000 C 
ENDROOT
BRANCH   1   2
ATOM      2  C   UNL     1     -20.808  -0.338   6.184  1.00  0.00     0.000 C 
BRANCH   2   3
ATOM      3  C   UNL     1     -20.553   0.809   7.184  1.00  0.00     0.000 C 
BRANCH   3   4
ATOM      4  C   UNL     1     -21.550   1.980   7.077  1.00  0.00    -0.000 C 
BRANCH   4   5
ATOM      5  C   UNL     1     -21.951   2.537   8.454  1.00  0.00    -0.000 C 
BRANCH   5   6
ATOM      6  C   UNL     1     -22.048   1.437   9.527  1.00  0.00    -0.000 C 
BRANCH   6   7
ATOM      7  C   UNL     1     -21.719   1.913  10.954  1.00  0.00    -0.000 C 
BRANCH   7   8
ATOM      8  C   UNL     1     -22.331   1.009  12.037  1.00  0.00    -0.000 C 
BRANCH   8   9
ATOM      9  C   UNL     1     -21.348   0.805  13.204  1.00  0.00    -0.000 C 
BRANCH   9  10
ATOM     10  C   UNL     1     -21.661  -0.473  14.015  1.00  0.00    -0.000 C 
BRANCH  10  11
ATOM     11  C   UNL     1     -21.748  -1.740  13.150  1.00  0.00    -0.003 C 
ATOM     12  C   UNL     1     -20.679  -1.794  12.063  1.00  0.00     0.004 C 
ENDBRANCH  10  11
ENDBRANCH   9  10
ENDBRANCH   8   9
ENDBRANCH   7   8
ENDBRANCH   6   7
ENDBRANCH   5   6
ENDBRANCH   4   5
ENDBRANCH   3   4
ENDBRANCH   2   3
ENDBRANCH   1   2
BRANCH   1  13
ATOM     13  C   UNL     1     -20.621  -1.729   8.351  1.00  0.00     0.000 C 
BRANCH  13  14
ATOM     14  C   UNL     1     -20.195  -3.131   8.822  1.00  0.00     0.000 C 
BRANCH  14  15
ATOM     15  C   UNL     1     -20.271  -4.185   7.704  1.00  0.00     0.000 C 
BRANCH  15  16
ATOM     16  C   UNL     1     -20.201  -5.624   8.239  1.00  0.00     0.000 C 
BRANCH  16  17
ATOM     17  C   UNL     1     -21.515  -6.025   8.929  1.00  0.00     0.000 C 
BRANCH  17  18
ATOM     18  C   UNL     1     -22.487  -6.751   7.986  1.00  0.00     0.000 C 
BRANCH  18  19
ATOM     19  C   UNL     1     -23.794  -7.162   8.680  1.00  0.00     0.000 C 
BRANCH  19  20
ATOM     20  C   UNL     1     -24.285  -8.523   8.173  1.00  0.00     0.006 C 
BRANCH  20  21
ATOM     21  C   UNL     1     -25.562  -8.365   7.340  1.00  0.00     0.053 C 
BRANCH  21  22
ATOM     22  C   UNL     1     -26.552  -9.438   7.670  1.00  0.00     0.041 C 
ATOM     23  O   UNL     1     -27.177 -10.027   6.750  1.00  0.00    -0.550 OA
ATOM     24  O   UNL     1     -26.802  -9.772   8.998  1.00  0.00    -0.550 OA
ENDBRANCH  21  22
ENDBRANCH  20  21
ENDBRANCH  19  20
ENDBRANCH  18  19
ENDBRANCH  17  18
ENDBRANCH  16  17
ENDBRANCH  15  16
ENDBRANCH  14  15
ENDBRANCH  13  14
ENDBRANCH   1  13
TORSDOF 20
ENDMDL
MODEL 2
REMARK VINA RESULT:    -0.919      3.559      8.682
REMARK INTER + INTRA:          -3.256
REMARK INTER:                  -1.915
REMARK INTRA:                  -1.341
REMARK UNBOUND:                -1.263
REMARK SMILES CCCCCCCCCCCCCCCCCCCCCC(=O)[O-]
REMARK SMILES IDX 12 1 11 2 10 3 9 4 8 5 7 6 6 7 5 8 4 9 3 10 2 11 1 12 13 13
REMARK SMILES IDX 14 14 15 15 16 16 17 17 18 18 19 19 20 20 21 21 22 22 23 23
REMARK SMILES IDX 24 24
REMARK H PARENT
REMARK Flexibility Score: inf
ROOT
ATOM      1  C   UNL     1     -21.039  -1.747   6.875  1.00  0.00     0.000 C 
ENDROOT
BRANCH   1   2
ATOM      2  C   UNL     1     -20.675  -1.694   8.374  1.00  0.00     0.000 C 
BRANCH   2   3
ATOM      3  C   UNL     1     -20.354  -3.075   8.980  1.00  0.00     0.000 C 
BRANCH   3   4
ATOM      4  C   UNL     1     -19.881  -4.126   7.955  1.00  0.00    -0.000 C 
BRANCH   4   5
ATOM      5  C   UNL     1     -20.222  -5.562   8.388  1.00  0.00    -0.000 C 
BRANCH   5   6
ATOM      6  C   UNL     1     -21.627  -5.996   7.932  1.00  0.00    -0.000 C 
BRANCH   6   7
ATOM      7  C   UNL     1     -22.442  -6.737   9.009  1.00  0.00    -0.000 C 
BRANCH   7   8
ATOM      8  C   UNL     1     -23.945  -6.786   8.686  1.00  0.00    -0.000 C 
BRANCH   8   9
ATOM      9  C   UNL     1     -24.319  -8.115   8.008  1.00  0.00    -0.000 C 
BRANCH   9  10
ATOM     10  C   UNL     1     -25.844  -8.260   7.807  1.00  0.00    -0.000 C 
BRANCH  10  11
ATOM     11  C   UNL     1     -26.344  -9.707   7.941  1.00  0.00    -0.003 C 
ATOM     12  C   UNL     1     -27.439  -9.864   8.992  1.00  0.00     0.004 C 
ENDBRANCH  10  11
ENDBRANCH   9  10
ENDBRANCH   8   9
ENDBRANCH   7   8
ENDBRANCH   6   7
ENDBRANCH   5   6
ENDBRANCH   4   5
ENDBRANCH   3   4
ENDBRANCH   2   3
ENDBRANCH   1   2
BRANCH   1  13
ATOM     13  C   UNL     1     -20.584  -0.506   6.084  1.00  0.00     0.000 C 
BRANCH  13  14
ATOM     14  C   UNL     1     -20.348   0.710   6.997  1.00  0.00     0.000 C 
BRANCH  14  15
ATOM     15  C   UNL     1     -21.530   1.695   6.998  1.00  0.00     0.000 C 
BRANCH  15  16
ATOM     16  C   UNL     1     -21.741   2.368   8.363  1.00  0.00     0.000 C 
BRANCH  16  17
ATOM     17  C   UNL     1     -21.926   1.325   9.476  1.00  0.00     0.000 C 
BRANCH  17  18
ATOM     18  C   UNL     1     -22.173   1.960  10.854  1.00  0.00     0.000 C 
BRANCH  18  19
ATOM     19  C   UNL     1     -22.096   0.942  12.001  1.00  0.00     0.000 C 
BRANCH  19  20
ATOM     20  C   UNL     1     -21.267  -0.282  11.599  1.00  0.00     0.006 C 
BRANCH  20  21
ATOM     21  C   UNL     1     -21.373  -1.384  12.658  1.00  0.00     0.053 C 
BRANCH  21  22
ATOM     22  C   UNL     1     -21.529  -0.797  14.026  1.00  0.00     0.041 C 
ATOM     23  O   UNL     1     -20.525  -0.352  14.641  1.00  0.00    -0.550 OA
ATOM     24  O   UNL     1     -22.780  -0.763  14.634  1.00  0.00    -0.550 OA
ENDBRANCH  21  22
ENDBRANCH  20  21
ENDBRANCH  19  20
ENDBRANCH  18  19
ENDBRANCH  17  18
ENDBRANCH  16  17
ENDBRANCH  15  16
ENDBRANCH  14  15
ENDBRANCH  13  14
ENDBRANCH   1  13
TORSDOF 20
ENDMDL
MODEL 3
REMARK VINA RESULT:    -0.735      7.546     11.492
REMARK INTER + INTRA:          -2.858
REMARK INTER:                  -1.399
REMARK INTRA:                  -1.459
REMARK UNBOUND:                -1.263
REMARK SMILES CCCCCCCCCCCCCCCCCCCCCC(=O)[O-]
REMARK SMILES IDX 12 1 11 2 10 3 9 4 8 5 7 6 6 7 5 8 4 9 3 10 2 11 1 12 13 13
REMARK SMILES IDX 14 14 15 15 16 16 17 17 18 18 19 19 20 20 21 21 22 22 23 23
REMARK SMILES IDX 24 24
REMARK H PARENT
REMARK Flexibility Score: inf
ROOT
ATOM      1  C   UNL     1     -21.118   1.860   7.424  1.00  0.00     0.000 C 
ENDROOT
BRANCH   1   2
ATOM      2  C   UNL     1     -21.417   0.819   6.324  1.00  0.00     0.000 C 
BRANCH   2   3
ATOM      3  C   UNL     1     -20.465  -0.394   6.350  1.00  0.00     0.000 C 
BRANCH   3   4
ATOM      4  C   UNL     1     -21.100  -1.691   6.890  1.00  0.00    -0.000 C 
BRANCH   4   5
ATOM      5  C   UNL     1     -20.466  -2.147   8.216  1.00  0.00    -0.000 C 
BRANCH   5   6
ATOM      6  C   UNL     1     -21.013  -1.370   9.427  1.00  0.00    -0.000 C 
BRANCH   6   7
ATOM      7  C   UNL     1     -20.366  -1.755  10.772  1.00  0.00    -0.000 C 
BRANCH   7   8
ATOM      8  C   UNL     1     -21.395  -2.231  11.810  1.00  0.00    -0.000 C 
BRANCH   8   9
ATOM      9  C   UNL     1     -20.971  -1.824  13.232  1.00  0.00    -0.000 C 
BRANCH   9  10
ATOM     10  C   UNL     1     -21.808  -0.644  13.777  1.00  0.00    -0.000 C 
BRANCH  10  11
ATOM     11  C   UNL     1     -21.280   0.732  13.341  1.00  0.00    -0.003 C 
ATOM     12  C   UNL     1     -22.050   1.319  12.161  1.00  0.00     0.004 C 
ENDBRANCH  10  11
ENDBRANCH   9  10
ENDBRANCH   8   9
ENDBRANCH   7   8
ENDBRANCH   6   7
ENDBRANCH   5   6
ENDBRANCH   4   5
ENDBRANCH   3   4
ENDBRANCH   2   3
ENDBRANCH   1   2
BRANCH   1  13
ATOM     13  C   UNL     1     -22.092   1.795   8.616  1.00  0.00     0.000 C 
BRANCH  13  14
ATOM     14  C   UNL     1     -22.426   3.192   9.169  1.00  0.00     0.000 C 
BRANCH  14  15
ATOM     15  C   UNL     1     -22.123   4.319   8.168  1.00  0.00     0.000 C 
BRANCH  15  16
ATOM     16  C   UNL     1     -21.985   5.692   8.843  1.00  0.00     0.000 C 
BRANCH  16  17
ATOM     17  C   UNL     1     -20.720   5.760   9.714  1.00  0.00     0.000 C 
BRANCH  17  18
ATOM     18  C   UNL     1     -19.674   6.746   9.169  1.00  0.00     0.000 C 
BRANCH  18  19
ATOM     19  C   UNL     1     -18.384   6.764  10.002  1.00  0.00     0.000 C 
BRANCH  19  20
ATOM     20  C   UNL     1     -17.292   7.589   9.313  1.00  0.00     0.006 C 
BRANCH  20  21
ATOM     21  C   UNL     1     -17.196   8.989   9.929  1.00  0.00     0.053 C 
BRANCH  21  22
ATOM     22  C   UNL     1     -15.771   9.439  10.016  1.00  0.00     0.041 C 
ATOM     23  O   UNL     1     -15.253   9.683  11.137  1.00  0.00    -0.550 OA
ATOM     24  O   UNL     1     -15.021   9.612   8.857  1.00  0.00    -0.550 OA
ENDBRANCH  21  22
ENDBRANCH  20  21
ENDBRANCH  19  20
ENDBRANCH  18  19
ENDBRANCH  17  18
ENDBRANCH  16  17
ENDBRANCH  15  16
ENDBRANCH  14  15
ENDBRANCH  13  14
ENDBRANCH   1  13
TORSDOF 20
ENDMDL
MODEL 4
REMARK VINA RESULT:    -0.726      0.634      1.237
REMARK INTER + INTRA:          -2.837
REMARK INTER:                  -1.933
REMARK INTRA:                  -0.904
REMARK UNBOUND:                -1.263
REMARK SMILES CCCCCCCCCCCCCCCCCCCCCC(=O)[O-]
REMARK SMILES IDX 12 1 11 2 10 3 9 4 8 5 7 6 6 7 5 8 4 9 3 10 2 11 1 12 13 13
REMARK SMILES IDX 14 14 15 15 16 16 17 17 18 18 19 19 20 20 21 21 22 22 23 23
REMARK SMILES IDX 24 24
REMARK H PARENT
REMARK Flexibility Score: inf
ROOT
ATOM      1  C   UNL     1     -20.913  -1.272   8.645  1.00  0.00     0.000 C 
ENDROOT
BRANCH   1   2
ATOM      2  C   UNL     1     -21.330  -1.196   7.162  1.00  0.00     0.000 C 
BRANCH   2   3
ATOM      3  C   UNL     1     -20.550  -0.138   6.356  1.00  0.00     0.000 C 
BRANCH   3   4
ATOM      4  C   UNL     1     -20.549   1.269   6.985  1.00  0.00    -0.000 C 
BRANCH   4   5
ATOM      5  C   UNL     1     -21.925   1.659   7.552  1.00  0.00    -0.000 C 
BRANCH   5   6
ATOM      6  C   UNL     1     -21.814   2.507   8.833  1.00  0.00    -0.000 C 
BRANCH   6   7
ATOM      7  C   UNL     1     -22.621   1.961  10.026  1.00  0.00    -0.000 C 
BRANCH   7   8
ATOM      8  C   UNL     1     -21.767   1.104  10.976  1.00  0.00    -0.000 C 
BRANCH   8   9
ATOM      9  C   UNL     1     -22.119   1.394  12.445  1.00  0.00    -0.000 C 
BRANCH   9  10
ATOM     10  C   UNL     1     -21.348   0.479  13.423  1.00  0.00    -0.000 C 
BRANCH  10  11
ATOM     11  C   UNL     1     -21.755  -1.000  13.325  1.00  0.00    -0.003 C 
ATOM     12  C   UNL     1     -20.973  -1.764  12.261  1.00  0.00     0.004 C 
ENDBRANCH  10  11
ENDBRANCH   9  10
ENDBRANCH   8   9
ENDBRANCH   7   8
ENDBRANCH   6   7
ENDBRANCH   5   6
ENDBRANCH   4   5
ENDBRANCH   3   4
ENDBRANCH   2   3
ENDBRANCH   1   2
BRANCH   1  13
ATOM     13  C   UNL     1     -20.219  -2.595   9.025  1.00  0.00     0.000 C 
BRANCH  13  14
ATOM     14  C   UNL     1     -20.507  -3.714   8.010  1.00  0.00     0.000 C 
BRANCH  14  15
ATOM     15  C   UNL     1     -19.579  -4.929   8.179  1.00  0.00     0.000 C 
BRANCH  15  16
ATOM     16  C   UNL     1     -20.338  -6.264   8.164  1.00  0.00     0.000 C 
BRANCH  16  17
ATOM     17  C   UNL     1     -21.765  -6.099   8.711  1.00  0.00     0.000 C 
BRANCH  17  18
ATOM     18  C   UNL     1     -22.758  -7.101   8.100  1.00  0.00     0.000 C 
BRANCH  18  19
ATOM     19  C   UNL     1     -24.160  -7.002   8.719  1.00  0.00     0.000 C 
BRANCH  19  20
ATOM     20  C   UNL     1     -25.214  -7.637   7.805  1.00  0.00     0.006 C 
BRANCH  20  21
ATOM     21  C   UNL     1     -25.260  -9.156   8.001  1.00  0.00     0.053 C 
BRANCH  21  22
ATOM     22  C   UNL     1     -26.670  -9.658   7.962  1.00  0.00     0.041 C 
ATOM     23  O   UNL     1     -27.293  -9.873   9.034  1.00  0.00    -0.550 OA
ATOM     24  O   UNL     1     -27.288  -9.912   6.742  1.00  0.00    -0.550 OA
ENDBRANCH  21  22
ENDBRANCH  20  21
ENDBRANCH  19  20
ENDBRANCH  18  19
ENDBRANCH  17  18
ENDBRANCH  16  17
ENDBRANCH  15  16
ENDBRANCH  14  15
ENDBRANCH  13  14
ENDBRANCH   1  13
TORSDOF 20
ENDMDL
MODEL 5
REMARK VINA RESULT:    -0.678      5.812      8.260
REMARK INTER + INTRA:          -2.733
REMARK INTER:                  -1.444
REMARK INTRA:                  -1.289
REMARK UNBOUND:                -1.263
REMARK SMILES CCCCCCCCCCCCCCCCCCCCCC(=O)[O-]
REMARK SMILES IDX 12 1 11 2 10 3 9 4 8 5 7 6 6 7 5 8 4 9 3 10 2 11 1 12 13 13
REMARK SMILES IDX 14 14 15 15 16 16 17 17 18 18 19 19 20 20 21 21 22 22 23 23
REMARK SMILES IDX 24 24
REMARK H PARENT
REMARK Flexibility Score: inf
ROOT
ATOM      1  C   UNL     1     -21.712   1.466   8.694  1.00  0.00     0.000 C 
ENDROOT
BRANCH   1   2
ATOM      2  C   UNL     1     -22.432   2.710   9.257  1.00  0.00     0.000 C 
BRANCH   2   3
ATOM      3  C   UNL     1     -22.355   3.938   8.328  1.00  0.00     0.000 C 
BRANCH   3   4
ATOM      4  C   UNL     1     -22.182   5.283   9.063  1.00  0.00    -0.000 C 
BRANCH   4   5
ATOM      5  C   UNL     1     -20.920   6.039   8.612  1.00  0.00    -0.000 C 
BRANCH   5   6
ATOM      6  C   UNL     1     -19.957   6.324   9.779  1.00  0.00    -0.000 C 
BRANCH   6   7
ATOM      7  C   UNL     1     -18.946   7.454   9.505  1.00  0.00    -0.000 C 
BRANCH   7   8
ATOM      8  C   UNL     1     -17.515   7.085   9.930  1.00  0.00    -0.000 C 
BRANCH   8   9
ATOM      9  C   UNL     1     -16.481   7.958   9.196  1.00  0.00    -0.000 C 
BRANCH   9  10
ATOM     10  C   UNL     1     -16.465   9.411   9.722  1.00  0.00    -0.000 C 
BRANCH  10  11
ATOM     11  C   UNL     1     -15.086   9.861  10.231  1.00  0.00    -0.003 C 
ATOM     12  C   UNL     1     -15.029  10.004  11.749  1.00  0.00     0.004 C 
ENDBRANCH  10  11
ENDBRANCH   9  10
ENDBRANCH   8   9
ENDBRANCH   7   8
ENDBRANCH   6   7
ENDBRANCH   5   6
ENDBRANCH   4   5
ENDBRANCH   3   4
ENDBRANCH   2   3
ENDBRANCH   1   2
BRANCH   1  13
ATOM     13  C   UNL     1     -21.192   1.651   7.256  1.00  0.00     0.000 C 
BRANCH  13  14
ATOM     14  C   UNL     1     -20.899   0.306   6.567  1.00  0.00     0.000 C 
BRANCH  14  15
ATOM     15  C   UNL     1     -21.536  -0.889   7.296  1.00  0.00     0.000 C 
BRANCH  15  16
ATOM     16  C   UNL     1     -20.631  -2.130   7.306  1.00  0.00     0.000 C 
BRANCH  16  17
ATOM     17  C   UNL     1     -20.296  -2.563   8.742  1.00  0.00     0.000 C 
BRANCH  17  18
ATOM     18  C   UNL     1     -20.960  -1.671   9.804  1.00  0.00     0.000 C 
BRANCH  18  19
ATOM     19  C   UNL     1     -20.167  -1.620  11.118  1.00  0.00     0.000 C 
BRANCH  19  20
ATOM     20  C   UNL     1     -20.984  -2.196  12.280  1.00  0.00     0.006 C 
BRANCH  20  21
ATOM     21  C   UNL     1     -21.938  -1.141  12.850  1.00  0.00     0.053 C 
BRANCH  21  22
ATOM     22  C   UNL     1     -21.196  -0.142  13.682  1.00  0.00     0.041 C 
ATOM     23  O   UNL     1     -20.423  -0.531  14.596  1.00  0.00    -0.550 OA
ATOM     24  O   UNL     1     -21.376   1.221  13.463  1.00  0.00    -0.550 OA
ENDBRANCH  21  22
ENDBRANCH  20  21
ENDBRANCH  19  20
ENDBRANCH  18  19
ENDBRANCH  17  18
ENDBRANCH  16  17
ENDBRANCH  15  16
ENDBRANCH  14  15
ENDBRANCH  13  14
ENDBRANCH   1  13
TORSDOF 20
ENDMDL
MODEL 6
REMARK VINA RESULT:    -0.565      0.779      3.794
REMARK INTER + INTRA:          -2.489
REMARK INTER:                  -0.768
REMARK INTRA:                  -1.721
REMARK UNBOUND:                -1.263
REMARK SMILES CCCCCCCCCCCCCCCCCCCCCC(=O)[O-]
REMARK SMILES IDX 12 1 11 2 10 3 9 4 8 5 7 6 6 7 5 8 4 9 3 10 2 11 1 12 13 13
REMARK SMILES IDX 14 14 15 15 16 16 17 17 18 18 19 19 20 20 21 21 22 22 23 23
REMARK SMILES IDX 24 24
REMARK H PARENT
REMARK Flexibility Score: inf
ROOT
ATOM      1  C   UNL     1     -21.075  -2.391  10.821  1.00  0.00     0.000 C 
ENDROOT
BRANCH   1   2
ATOM      2  C   UNL     1     -20.407  -1.756  12.059  1.00  0.00     0.000 C 
BRANCH   2   3
ATOM      3  C   UNL     1     -21.390  -1.477  13.214  1.00  0.00     0.000 C 
BRANCH   3   4
ATOM      4  C   UNL     1     -21.429  -0.007  13.676  1.00  0.00    -0.000 C 
BRANCH   4   5
ATOM      5  C   UNL     1     -22.391   0.848  12.831  1.00  0.00    -0.000 C 
BRANCH   5   6
ATOM      6  C   UNL     1     -21.655   1.678  11.764  1.00  0.00    -0.000 C 
BRANCH   6   7
ATOM      7  C   UNL     1     -21.923   1.228  10.315  1.00  0.00    -0.000 C 
BRANCH   7   8
ATOM      8  C   UNL     1     -22.219   2.407   9.373  1.00  0.00    -0.000 C 
BRANCH   8   9
ATOM      9  C   UNL     1     -21.647   2.148   7.969  1.00  0.00    -0.000 C 
BRANCH   9  10
ATOM     10  C   UNL     1     -21.138   0.698   7.804  1.00  0.00    -0.000 C 
BRANCH  10  11
ATOM     11  C   UNL     1     -21.443   0.096   6.423  1.00  0.00    -0.003 C 
ATOM     12  C   UNL     1     -20.215  -0.518   5.757  1.00  0.00     0.004 C 
ENDBRANCH  10  11
ENDBRANCH   9  10
ENDBRANCH   8   9
ENDBRANCH   7   8
ENDBRANCH   6   7
ENDBRANCH   5   6
ENDBRANCH   4   5
ENDBRANCH   3   4
ENDBRANCH   2   3
ENDBRANCH   1   2
BRANCH   1  13
ATOM     13  C   UNL     1     -20.309  -2.139   9.508  1.00  0.00     0.000 C 
BRANCH  13  14
ATOM     14  C   UNL     1     -19.558  -3.393   9.024  1.00  0.00     0.000 C 
BRANCH  14  15
ATOM     15  C   UNL     1     -20.334  -4.178   7.953  1.00  0.00     0.000 C 
BRANCH  15  16
ATOM     16  C   UNL     1     -20.313  -5.694   8.196  1.00  0.00     0.000 C 
BRANCH  16  17
ATOM     17  C   UNL     1     -21.679  -6.327   7.883  1.00  0.00     0.000 C 
BRANCH  17  18
ATOM     18  C   UNL     1     -22.540  -6.538   9.139  1.00  0.00     0.000 C 
BRANCH  18  19
ATOM     19  C   UNL     1     -24.022  -6.774   8.811  1.00  0.00     0.000 C 
BRANCH  19  20
ATOM     20  C   UNL     1     -24.218  -8.090   8.051  1.00  0.00     0.006 C 
BRANCH  20  21
ATOM     21  C   UNL     1     -25.552  -8.090   7.297  1.00  0.00     0.053 C 
BRANCH  21  22
ATOM     22  C   UNL     1     -26.421  -9.223   7.749  1.00  0.00     0.041 C 
ATOM     23  O   UNL     1     -26.938  -9.998   6.903  1.00  0.00    -0.550 OA
ATOM     24  O   UNL     1     -26.680  -9.407   9.104  1.00  0.00    -0.550 OA
ENDBRANCH  21  22
ENDBRANCH  20  21
ENDBRANCH  19  20
ENDBRANCH  18  19
ENDBRANCH  17  18
ENDBRANCH  16  17
ENDBRANCH  15  16
ENDBRANCH  14  15
ENDBRANCH  13  14
ENDBRANCH   1  13
TORSDOF 20
ENDMDL
MODEL 7
REMARK VINA RESULT:    -0.506      5.305      7.955
REMARK INTER + INTRA:          -2.361
REMARK INTER:                  -0.938
REMARK INTRA:                  -1.423
REMARK UNBOUND:                -1.263
REMARK SMILES CCCCCCCCCCCCCCCCCCCCCC(=O)[O-]
REMARK SMILES IDX 12 1 11 2 10 3 9 4 8 5 7 6 6 7 5 8 4 9 3 10 2 11 1 12 13 13
REMARK SMILES IDX 14 14 15 15 16 16 17 17 18 18 19 19 20 20 21 21 22 22 23 23
REMARK SMILES IDX 24 24
REMARK H PARENT
REMARK Flexibility Score: inf
ROOT
ATOM      1  C   UNL     1     -22.145   1.126  11.328  1.00  0.00     0.000 C 
ENDROOT
BRANCH   1   2
ATOM      2  C   UNL     1     -21.725   1.960  10.100  1.00  0.00     0.000 C 
BRANCH   2   3
ATOM      3  C   UNL     1     -22.863   2.826   9.524  1.00  0.00     0.000 C 
BRANCH   3   4
ATOM      4  C   UNL     1     -22.432   3.768   8.382  1.00  0.00    -0.000 C 
BRANCH   4   5
ATOM      5  C   UNL     1     -22.376   5.240   8.826  1.00  0.00    -0.000 C 
BRANCH   5   6
ATOM      6  C   UNL     1     -20.969   5.846   8.674  1.00  0.00    -0.000 C 
BRANCH   6   7
ATOM      7  C   UNL     1     -20.359   6.367   9.989  1.00  0.00    -0.000 C 
BRANCH   7   8
ATOM      8  C   UNL     1     -18.825   6.471   9.931  1.00  0.00    -0.000 C 
BRANCH   8   9
ATOM      9  C   UNL     1     -18.383   7.906   9.597  1.00  0.00    -0.000 C 
BRANCH   9  10
ATOM     10  C   UNL     1     -16.858   8.011   9.375  1.00  0.00    -0.000 C 
BRANCH  10  11
ATOM     11  C   UNL     1     -16.183   9.071  10.261  1.00  0.00    -0.003 C 
ATOM     12  C   UNL     1     -15.107   9.864   9.525  1.00  0.00     0.004 C 
ENDBRANCH  10  11
ENDBRANCH   9  10
ENDBRANCH   8   9
ENDBRANCH   7   8
ENDBRANCH   6   7
ENDBRANCH   5   6
ENDBRANCH   4   5
ENDBRANCH   3   4
ENDBRANCH   2   3
ENDBRANCH   1   2
BRANCH   1  13
ATOM     13  C   UNL     1     -21.411   1.521  12.624  1.00  0.00     0.000 C 
BRANCH  13  14
ATOM     14  C   UNL     1     -21.399   0.379  13.656  1.00  0.00     0.000 C 
BRANCH  14  15
ATOM     15  C   UNL     1     -22.133  -0.880  13.162  1.00  0.00     0.000 C 
BRANCH  15  16
ATOM     16  C   UNL     1     -21.181  -2.053  12.887  1.00  0.00     0.000 C 
BRANCH  16  17
ATOM     17  C   UNL     1     -20.418  -1.853  11.568  1.00  0.00     0.000 C 
BRANCH  17  18
ATOM     18  C   UNL     1     -21.042  -2.627  10.395  1.00  0.00     0.000 C 
BRANCH  18  19
ATOM     19  C   UNL     1     -20.407  -2.271   9.043  1.00  0.00     0.000 C 
BRANCH  19  20
ATOM     20  C   UNL     1     -20.998  -0.975   8.478  1.00  0.00     0.006 C 
BRANCH  20  21
ATOM     21  C   UNL     1     -20.751  -0.875   6.969  1.00  0.00     0.053 C 
BRANCH  21  22
ATOM     22  C   UNL     1     -21.074   0.496   6.464  1.00  0.00     0.041 C 
ATOM     23  O   UNL     1     -20.471   1.499   6.927  1.00  0.00    -0.550 OA
ATOM     24  O   UNL     1     -22.061   0.670   5.498  1.00  0.00    -0.550 OA
ENDBRANCH  21  22
ENDBRANCH  20  21
ENDBRANCH  19  20
ENDBRANCH  18  19
ENDBRANCH  17  18
ENDBRANCH  16  17
ENDBRANCH  15  16
ENDBRANCH  14  15
ENDBRANCH  13  14
ENDBRANCH   1  13
TORSDOF 20
ENDMDL
MODEL 8
REMARK VINA RESULT:    -0.484      7.497     11.967
REMARK INTER + INTRA:          -2.313
REMARK INTER:                  -0.648
REMARK INTRA:                  -1.665
REMARK UNBOUND:                -1.263
REMARK SMILES CCCCCCCCCCCCCCCCCCCCCC(=O)[O-]
REMARK SMILES IDX 12 1 11 2 10 3 9 4 8 5 7 6 6 7 5 8 4 9 3 10 2 11 1 12 13 13
REMARK SMILES IDX 14 14 15 15 16 16 17 17 18 18 19 19 20 20 21 21 22 22 23 23
REMARK SMILES IDX 24 24
REMARK H PARENT
REMARK Flexibility Score: inf
ROOT
ATOM      1  C   UNL     1     -22.354   1.447  10.931  1.00  0.00     0.000 C 
ENDROOT
BRANCH   1   2
ATOM      2  C   UNL     1     -21.401   2.095  11.957  1.00  0.00     0.000 C 
BRANCH   2   3
ATOM      3  C   UNL     1     -21.428   1.411  13.339  1.00  0.00     0.000 C 
BRANCH   3   4
ATOM      4  C   UNL     1     -22.102   0.025  13.351  1.00  0.00    -0.000 C 
BRANCH   4   5
ATOM      5  C   UNL     1     -21.080  -1.125  13.358  1.00  0.00    -0.000 C 
BRANCH   5   6
ATOM      6  C   UNL     1     -21.299  -2.114  12.198  1.00  0.00    -0.000 C 
BRANCH   6   7
ATOM      7  C   UNL     1     -20.228  -2.042  11.094  1.00  0.00    -0.000 C 
BRANCH   7   8
ATOM      8  C   UNL     1     -20.786  -1.520   9.759  1.00  0.00    -0.000 C 
BRANCH   8   9
ATOM      9  C   UNL     1     -20.310  -2.392   8.584  1.00  0.00    -0.000 C 
BRANCH   9  10
ATOM     10  C   UNL     1     -20.961  -1.976   7.246  1.00  0.00    -0.000 C 
BRANCH  10  11
ATOM     11  C   UNL     1     -21.321  -0.483   7.180  1.00  0.00    -0.003 C 
ATOM     12  C   UNL     1     -20.509   0.279   6.137  1.00  0.00     0.004 C 
ENDBRANCH  10  11
ENDBRANCH   9  10
ENDBRANCH   8   9
ENDBRANCH   7   8
ENDBRANCH   6   7
ENDBRANCH   5   6
ENDBRANCH   4   5
ENDBRANCH   3   4
ENDBRANCH   2   3
ENDBRANCH   1   2
BRANCH   1  13
ATOM     13  C   UNL     1     -22.125   1.930   9.485  1.00  0.00     0.000 C 
BRANCH  13  14
ATOM     14  C   UNL     1     -22.899   3.223   9.176  1.00  0.00     0.000 C 
BRANCH  14  15
ATOM     15  C   UNL     1     -22.126   4.173   8.244  1.00  0.00     0.000 C 
BRANCH  15  16
ATOM     16  C   UNL     1     -22.037   5.604   8.795  1.00  0.00     0.000 C 
BRANCH  16  17
ATOM     17  C   UNL     1     -20.835   5.762   9.741  1.00  0.00     0.000 C 
BRANCH  17  18
ATOM     18  C   UNL     1     -19.726   6.648   9.152  1.00  0.00     0.000 C 
BRANCH  18  19
ATOM     19  C   UNL     1     -18.543   6.839  10.113  1.00  0.00     0.000 C 
BRANCH  19  20
ATOM     20  C   UNL     1     -17.366   7.525   9.412  1.00  0.00     0.006 C 
BRANCH  20  21
ATOM     21  C   UNL     1     -17.256   8.992   9.841  1.00  0.00     0.053 C 
BRANCH  21  22
ATOM     22  C   UNL     1     -15.825   9.388  10.030  1.00  0.00     0.041 C 
ATOM     23  O   UNL     1     -15.326   9.423  11.185  1.00  0.00    -0.550 OA
ATOM     24  O   UNL     1     -15.047   9.744   8.932  1.00  0.00    -0.550 OA
ENDBRANCH  21  22
ENDBRANCH  20  21
ENDBRANCH  19  20
ENDBRANCH  18  19
ENDBRANCH  17  18
ENDBRANCH  16  17
ENDBRANCH  15  16
ENDBRANCH  14  15
ENDBRANCH  13  14
ENDBRANCH   1  13
TORSDOF 20
ENDMDL
MODEL 9
REMARK VINA RESULT:    -0.429      3.352      8.747
REMARK INTER + INTRA:          -2.193
REMARK INTER:                  -0.617
REMARK INTRA:                  -1.575
REMARK UNBOUND:                -1.263
REMARK SMILES CCCCCCCCCCCCCCCCCCCCCC(=O)[O-]
REMARK SMILES IDX 12 1 11 2 10 3 9 4 8 5 7 6 6 7 5 8 4 9 3 10 2 11 1 12 13 13
REMARK SMILES IDX 14 14 15 15 16 16 17 17 18 18 19 19 20 20 21 21 22 22 23 23
REMARK SMILES IDX 24 24
REMARK H PARENT
REMARK Flexibility Score: inf
ROOT
ATOM      1  C   UNL     1     -20.409  -1.876  11.302  1.00  0.00     0.000 C 
ENDROOT
BRANCH   1   2
ATOM      2  C   UNL     1     -20.881  -2.392   9.926  1.00  0.00     0.000 C 
BRANCH   2   3
ATOM      3  C   UNL     1     -19.767  -3.080   9.112  1.00  0.00     0.000 C 
BRANCH   3   4
ATOM      4  C   UNL     1     -20.275  -3.929   7.929  1.00  0.00    -0.000 C 
BRANCH   4   5
ATOM      5  C   UNL     1     -19.929  -5.420   8.086  1.00  0.00    -0.000 C 
BRANCH   5   6
ATOM      6  C   UNL     1     -21.039  -6.209   8.805  1.00  0.00    -0.000 C 
BRANCH   6   7
ATOM      7  C   UNL     1     -22.277  -6.496   7.936  1.00  0.00    -0.000 C 
BRANCH   7   8
ATOM      8  C   UNL     1     -23.456  -7.057   8.749  1.00  0.00    -0.000 C 
BRANCH   8   9
ATOM      9  C   UNL     1     -24.056  -8.297   8.064  1.00  0.00    -0.000 C 
BRANCH   9  10
ATOM     10  C   UNL     1     -25.535  -8.087   7.667  1.00  0.00    -0.000 C 
BRANCH  10  11
ATOM     11  C   UNL     1     -26.333  -9.397   7.568  1.00  0.00    -0.003 C 
ATOM     12  C   UNL     1     -27.055  -9.752   8.865  1.00  0.00     0.004 C 
ENDBRANCH  10  11
ENDBRANCH   9  10
ENDBRANCH   8   9
ENDBRANCH   7   8
ENDBRANCH   6   7
ENDBRANCH   5   6
ENDBRANCH   4   5
ENDBRANCH   3   4
ENDBRANCH   2   3
ENDBRANCH   1   2
BRANCH   1  13
ATOM     13  C   UNL     1     -21.375  -2.215  12.454  1.00  0.00     0.000 C 
BRANCH  13  14
ATOM     14  C   UNL     1     -21.221  -1.251  13.643  1.00  0.00     0.000 C 
BRANCH  14  15
ATOM     15  C   UNL     1     -22.124  -0.010  13.527  1.00  0.00     0.000 C 
BRANCH  15  16
ATOM     16  C   UNL     1     -21.327   1.291  13.353  1.00  0.00     0.000 C 
BRANCH  16  17
ATOM     17  C   UNL     1     -21.797   2.070  12.114  1.00  0.00     0.000 C 
BRANCH  17  18
ATOM     18  C   UNL     1     -21.757   1.228  10.829  1.00  0.00     0.000 C 
BRANCH  18  19
ATOM     19  C   UNL     1     -22.598   1.832   9.695  1.00  0.00     0.000 C 
BRANCH  19  20
ATOM     20  C   UNL     1     -21.786   1.940   8.400  1.00  0.00     0.006 C 
BRANCH  20  21
ATOM     21  C   UNL     1     -21.027   0.638   8.123  1.00  0.00     0.053 C 
BRANCH  21  22
ATOM     22  C   UNL     1     -21.443   0.045   6.813  1.00  0.00     0.041 C 
ATOM     23  O   UNL     1     -21.812  -1.157   6.752  1.00  0.00    -0.550 OA
ATOM     24  O   UNL     1     -21.400   0.813   5.653  1.00  0.00    -0.550 OA
ENDBRANCH  21  22
ENDBRANCH  20  21
ENDBRANCH  19  20
ENDBRANCH  18  19
ENDBRANCH  17  18
ENDBRANCH  16  17
ENDBRANCH  15  16
ENDBRANCH  14  15
ENDBRANCH  13  14
ENDBRANCH   1  13
TORSDOF 20
ENDMDL
