MODEL 1
REMARK VINA RESULT:    -4.526      0.000      0.000
REMARK INTER + INTRA:          -6.250
REMARK INTER:                  -6.378
REMARK INTRA:                   0.127
REMARK UNBOUND:                 0.127
REMARK SMILES CC1=CCC(=C(C)C)C(=O)CC(C)=CCC1
REMARK SMILES IDX 12 1 14 2 13 3 15 4 16 5 2 6 1 7 3 8 11 10 9 11 10 12 5 13
REMARK SMILES IDX 6 14 7 15 8 16 4 17
REMARK H PARENT
REMARK Flexibility Score: 60.00
ROOT
ATOM      1  C   UNL     1     -25.877 -54.812  25.824  1.00  0.00    -0.070 C 
ATOM      2  C   UNL     1     -26.148 -54.520  27.116  1.00  0.00    -0.027 C 
ATOM      3  C   UNL     1     -27.040 -55.041  24.893  1.00  0.00     0.039 C 
ENDROOT
BRANCH   2   4
ATOM      4  C   UNL     1     -25.126 -54.164  28.174  1.00  0.00     0.032 C 
BRANCH   4   5
ATOM      5  C   UNL     1     -24.618 -52.708  28.119  1.00  0.00     0.034 C 
BRANCH   5   6
ATOM      6  C   UNL     1     -23.106 -52.599  28.205  1.00  0.00    -0.077 C 
ATOM      7  C   UNL     1     -22.445 -53.021  29.494  1.00  0.00     0.039 C 
ATOM      8  C   UNL     1     -22.308 -52.213  27.181  1.00  0.00    -0.023 CG0
ATOM      9  G   UNL     1     -22.747 -51.731  25.811  1.00  0.00     0.000 G0
ENDBRANCH   5   6
ENDBRANCH   4   5
ENDBRANCH   2   4
BRANCH   1  10
ATOM     10  C   UNL     1     -24.474 -54.828  25.253  1.00  0.00     0.111 C 
BRANCH  10  11
ATOM     11  C   UNL     1     -24.132 -53.523  24.583  1.00  0.00     0.163 C 
ATOM     12  O   UNL     1     -25.019 -52.965  23.881  1.00  0.00    -0.294 OA
BRANCH  11  13
ATOM     13  C   UNL     1     -22.814 -52.847  24.771  1.00  0.00    -0.002 C 
ATOM     14  C   UNL     1     -21.745 -53.166  23.979  1.00  0.00    -0.069 C 
ATOM     15  C   UNL     1     -21.812 -54.316  22.997  1.00  0.00     0.039 C 
ATOM     16  C   UNL     1     -20.447 -52.392  24.038  1.00  0.00     0.039 C 
BRANCH  13  17
ATOM     17  C   UNL     1     -22.743 -51.736  25.805  1.00  0.00     0.066 CG0
ATOM     18  G   UNL     1     -22.289 -52.239  27.162  1.00  0.00     0.000 G0
ENDBRANCH  13  17
ENDBRANCH  11  13
ENDBRANCH  10  11
ENDBRANCH   1  10
TORSDOF 0
ENDMDL
MODEL 2
REMARK VINA RESULT:    -4.366      1.765      2.923
REMARK INTER + INTRA:          -6.025
REMARK INTER:                  -6.214
REMARK INTRA:                   0.190
REMARK UNBOUND:                 0.127
REMARK SMILES CC1=CCC(=C(C)C)C(=O)CC(C)=CCC1
REMARK SMILES IDX 12 1 14 2 13 3 15 4 16 5 2 6 1 7 3 8 11 10 9 11 10 12 5 13
REMARK SMILES IDX 6 14 7 15 8 16 4 17
REMARK H PARENT
REMARK Flexibility Score: 60.00
ROOT
ATOM      1  C   UNL     1     -23.713 -55.010  24.837  1.00  0.00    -0.070 C 
ATOM      2  C   UNL     1     -24.977 -55.178  25.289  1.00  0.00    -0.027 C 
ATOM      3  C   UNL     1     -22.778 -56.191  24.901  1.00  0.00     0.039 C 
ENDROOT
BRANCH   2   4
ATOM      4  C   UNL     1     -26.084 -54.149  25.219  1.00  0.00     0.032 C 
BRANCH   4   5
ATOM      5  C   UNL     1     -25.836 -52.875  26.054  1.00  0.00     0.034 C 
BRANCH   5   6
ATOM      6  C   UNL     1     -25.288 -53.166  27.441  1.00  0.00    -0.077 C 
ATOM      7  C   UNL     1     -26.186 -53.894  28.410  1.00  0.00     0.039 C 
ATOM      8  C   UNL     1     -24.027 -52.877  27.840  1.00  0.00    -0.023 CG0
ATOM      9  G   UNL     1     -22.963 -52.139  27.050  1.00  0.00     0.000 G0
ENDBRANCH   5   6
ENDBRANCH   4   5
ENDBRANCH   2   4
BRANCH   1  10
ATOM     10  C   UNL     1     -23.226 -53.730  24.190  1.00  0.00     0.111 C 
BRANCH  10  11
ATOM     11  C   UNL     1     -22.020 -53.173  24.900  1.00  0.00     0.163 C 
ATOM     12  O   UNL     1     -21.061 -52.750  24.199  1.00  0.00    -0.294 OA
BRANCH  11  13
ATOM     13  C   UNL     1     -21.951 -53.051  26.387  1.00  0.00    -0.002 C 
ATOM     14  C   UNL     1     -20.970 -53.689  27.096  1.00  0.00    -0.069 C 
ATOM     15  C   UNL     1     -20.024 -54.660  26.426  1.00  0.00     0.039 C 
ATOM     16  C   UNL     1     -20.778 -53.459  28.579  1.00  0.00     0.039 C 
BRANCH  13  17
ATOM     17  C   UNL     1     -22.949 -52.120  27.056  1.00  0.00     0.066 CG0
ATOM     18  G   UNL     1     -24.017 -52.875  27.823  1.00  0.00     0.000 G0
ENDBRANCH  13  17
ENDBRANCH  11  13
ENDBRANCH  10  11
ENDBRANCH   1  10
TORSDOF 0
ENDMDL
MODEL 3
REMARK VINA RESULT:    -4.301      1.883      4.634
REMARK INTER + INTRA:          -5.934
REMARK INTER:                  -6.109
REMARK INTRA:                   0.175
REMARK UNBOUND:                 0.127
REMARK SMILES CC1=CCC(=C(C)C)C(=O)CC(C)=CCC1
REMARK SMILES IDX 12 1 14 2 13 3 15 4 16 5 2 6 1 7 3 8 11 10 9 11 10 12 5 13
REMARK SMILES IDX 6 14 7 15 8 16 4 17
REMARK H PARENT
REMARK Flexibility Score: 60.00
ROOT
ATOM      1  C   UNL     1     -20.670 -53.065  23.881  1.00  0.00    -0.070 C 
ATOM      2  C   UNL     1     -21.709 -53.633  23.227  1.00  0.00    -0.027 C 
ATOM      3  C   UNL     1     -19.654 -52.305  23.066  1.00  0.00     0.039 C 
ENDROOT
BRANCH   2   4
ATOM      4  C   UNL     1     -22.875 -54.348  23.874  1.00  0.00     0.032 C 
BRANCH   4   5
ATOM      5  C   UNL     1     -24.012 -53.425  24.358  1.00  0.00     0.034 C 
BRANCH   5   6
ATOM      6  C   UNL     1     -24.413 -53.677  25.802  1.00  0.00    -0.077 C 
ATOM      7  C   UNL     1     -25.152 -54.955  26.111  1.00  0.00     0.039 C 
ATOM      8  C   UNL     1     -24.092 -52.864  26.837  1.00  0.00    -0.023 CG0
ATOM      9  G   UNL     1     -23.375 -51.530  26.764  1.00  0.00     0.000 G0
ENDBRANCH   5   6
ENDBRANCH   4   5
ENDBRANCH   2   4
BRANCH   1  10
ATOM     10  C   UNL     1     -20.532 -53.077  25.389  1.00  0.00     0.111 C 
BRANCH  10  11
ATOM     11  C   UNL     1     -20.917 -51.752  25.994  1.00  0.00     0.163 C 
ATOM     12  O   UNL     1     -20.432 -50.704  25.486  1.00  0.00    -0.294 OA
BRANCH  11  13
ATOM     13  C   UNL     1     -21.891 -51.639  27.119  1.00  0.00    -0.002 C 
ATOM     14  C   UNL     1     -21.457 -51.558  28.414  1.00  0.00    -0.069 C 
ATOM     15  C   UNL     1     -19.996 -51.739  28.764  1.00  0.00     0.039 C 
ATOM     16  C   UNL     1     -22.405 -51.284  29.560  1.00  0.00     0.039 C 
BRANCH  13  17
ATOM     17  C   UNL     1     -23.362 -51.521  26.757  1.00  0.00     0.066 CG0
ATOM     18  G   UNL     1     -24.086 -52.851  26.841  1.00  0.00     0.000 G0
ENDBRANCH  13  17
ENDBRANCH  11  13
ENDBRANCH  10  11
ENDBRANCH   1  10
TORSDOF 0
ENDMDL
MODEL 4
REMARK VINA RESULT:    -4.299      2.109      4.765
REMARK INTER + INTRA:          -5.931
REMARK INTER:                  -6.139
REMARK INTRA:                   0.208
REMARK UNBOUND:                 0.127
REMARK SMILES CC1=CCC(=C(C)C)C(=O)CC(C)=CCC1
REMARK SMILES IDX 12 1 14 2 13 3 15 4 16 5 2 6 1 7 3 8 11 10 9 11 10 12 5 13
REMARK SMILES IDX 6 14 7 15 8 16 4 17
REMARK H PARENT
REMARK Flexibility Score: 60.00
ROOT
ATOM      1  C   UNL     1     -21.422 -52.911  23.754  1.00  0.00    -0.070 C 
ATOM      2  C   UNL     1     -20.157 -52.459  23.598  1.00  0.00    -0.027 C 
ATOM      3  C   UNL     1     -21.794 -54.209  23.083  1.00  0.00     0.039 C 
ENDROOT
BRANCH   2   4
ATOM      4  C   UNL     1     -19.568 -51.235  24.267  1.00  0.00     0.032 C 
BRANCH   4   5
ATOM      5  C   UNL     1     -19.229 -51.416  25.761  1.00  0.00     0.034 C 
BRANCH   5   6
ATOM      6  C   UNL     1     -19.826 -50.334  26.645  1.00  0.00    -0.077 C 
ATOM      7  C   UNL     1     -19.370 -48.914  26.420  1.00  0.00     0.039 C 
ATOM      8  C   UNL     1     -20.789 -50.551  27.572  1.00  0.00    -0.023 CG0
ATOM      9  G   UNL     1     -21.383 -51.886  27.980  1.00  0.00     0.000 G0
ENDBRANCH   5   6
ENDBRANCH   4   5
ENDBRANCH   2   4
BRANCH   1  10
ATOM     10  C   UNL     1     -22.445 -52.229  24.638  1.00  0.00     0.111 C 
BRANCH  10  11
ATOM     11  C   UNL     1     -22.589 -52.931  25.964  1.00  0.00     0.163 C 
ATOM     12  O   UNL     1     -22.572 -54.192  25.974  1.00  0.00    -0.294 OA
BRANCH  11  13
ATOM     13  C   UNL     1     -22.687 -52.189  27.256  1.00  0.00    -0.002 C 
ATOM     14  C   UNL     1     -23.907 -51.871  27.789  1.00  0.00    -0.069 C 
ATOM     15  C   UNL     1     -25.186 -52.117  27.019  1.00  0.00     0.039 C 
ATOM     16  C   UNL     1     -24.043 -51.263  29.167  1.00  0.00     0.039 C 
BRANCH  13  17
ATOM     17  C   UNL     1     -21.389 -51.892  27.989  1.00  0.00     0.066 CG0
ATOM     18  G   UNL     1     -20.782 -50.566  27.573  1.00  0.00     0.000 G0
ENDBRANCH  13  17
ENDBRANCH  11  13
ENDBRANCH  10  11
ENDBRANCH   1  10
TORSDOF 0
ENDMDL
MODEL 5
REMARK VINA RESULT:    -4.298      2.183      4.763
REMARK INTER + INTRA:          -5.929
REMARK INTER:                  -6.141
REMARK INTRA:                   0.211
REMARK UNBOUND:                 0.127
REMARK SMILES CC1=CCC(=C(C)C)C(=O)CC(C)=CCC1
REMARK SMILES IDX 12 1 14 2 13 3 15 4 16 5 2 6 1 7 3 8 11 10 9 11 10 12 5 13
REMARK SMILES IDX 6 14 7 15 8 16 4 17
REMARK H PARENT
REMARK Flexibility Score: 60.00
ROOT
ATOM      1  C   UNL     1     -19.816 -51.646  24.977  1.00  0.00    -0.070 C 
ATOM      2  C   UNL     1     -19.074 -50.728  25.638  1.00  0.00    -0.027 C 
ATOM      3  C   UNL     1     -19.706 -51.693  23.475  1.00  0.00     0.039 C 
ENDROOT
BRANCH   2   4
ATOM      4  C   UNL     1     -18.974 -50.589  27.141  1.00  0.00     0.032 C 
BRANCH   4   5
ATOM      5  C   UNL     1     -20.158 -49.854  27.804  1.00  0.00     0.034 C 
BRANCH   5   6
ATOM      6  C   UNL     1     -20.743 -50.608  28.986  1.00  0.00    -0.077 C 
ATOM      7  C   UNL     1     -19.898 -50.725  30.230  1.00  0.00     0.039 C 
ATOM      8  C   UNL     1     -21.996 -51.120  29.020  1.00  0.00    -0.023 CG0
ATOM      9  G   UNL     1     -23.009 -51.137  27.892  1.00  0.00     0.000 G0
ENDBRANCH   5   6
ENDBRANCH   4   5
ENDBRANCH   2   4
BRANCH   1  10
ATOM     10  C   UNL     1     -20.673 -52.680  25.678  1.00  0.00     0.111 C 
BRANCH  10  11
ATOM     11  C   UNL     1     -22.113 -52.247  25.757  1.00  0.00     0.163 C 
ATOM     12  O   UNL     1     -22.664 -51.820  24.705  1.00  0.00    -0.294 OA
BRANCH  11  13
ATOM     13  C   UNL     1     -22.917 -52.363  27.010  1.00  0.00    -0.002 C 
ATOM     14  C   UNL     1     -23.458 -53.563  27.384  1.00  0.00    -0.069 C 
ATOM     15  C   UNL     1     -23.398 -54.769  26.472  1.00  0.00     0.039 C 
ATOM     16  C   UNL     1     -24.139 -53.750  28.722  1.00  0.00     0.039 C 
BRANCH  13  17
ATOM     17  C   UNL     1     -23.023 -51.127  27.887  1.00  0.00     0.066 CG0
ATOM     18  G   UNL     1     -22.004 -51.127  29.010  1.00  0.00     0.000 G0
ENDBRANCH  13  17
ENDBRANCH  11  13
ENDBRANCH  10  11
ENDBRANCH   1  10
TORSDOF 0
ENDMDL
MODEL 6
REMARK VINA RESULT:    -4.294      1.744      3.861
REMARK INTER + INTRA:          -5.924
REMARK INTER:                  -6.330
REMARK INTRA:                   0.406
REMARK UNBOUND:                 0.127
REMARK SMILES CC1=CCC(=C(C)C)C(=O)CC(C)=CCC1
REMARK SMILES IDX 12 1 14 2 13 3 15 4 16 5 2 6 1 7 3 8 11 10 9 11 10 12 5 13
REMARK SMILES IDX 6 14 7 15 8 16 4 17
REMARK H PARENT
REMARK Flexibility Score: 60.00
ROOT
ATOM      1  C   UNL     1     -23.113 -55.192  25.563  1.00  0.00    -0.070 C 
ATOM      2  C   UNL     1     -21.971 -54.734  26.124  1.00  0.00    -0.027 C 
ATOM      3  C   UNL     1     -22.996 -56.132  24.391  1.00  0.00     0.039 C 
ENDROOT
BRANCH   2   4
ATOM      4  C   UNL     1     -21.881 -53.866  27.360  1.00  0.00     0.032 C 
BRANCH   4   5
ATOM      5  C   UNL     1     -21.200 -52.498  27.142  1.00  0.00     0.034 C 
BRANCH   5   6
ATOM      6  C   UNL     1     -21.815 -51.700  26.005  1.00  0.00    -0.077 C 
ATOM      7  C   UNL     1     -20.925 -51.340  24.841  1.00  0.00     0.039 C 
ATOM      8  C   UNL     1     -23.121 -51.349  25.936  1.00  0.00    -0.023 CG0
ATOM      9  G   UNL     1     -24.188 -51.585  26.988  1.00  0.00     0.000 G0
ENDBRANCH   5   6
ENDBRANCH   4   5
ENDBRANCH   2   4
BRANCH   1  10
ATOM     10  C   UNL     1     -24.491 -54.879  26.111  1.00  0.00     0.111 C 
BRANCH  10  11
ATOM     11  C   UNL     1     -25.019 -53.574  25.575  1.00  0.00     0.163 C 
ATOM     12  O   UNL     1     -25.230 -53.483  24.335  1.00  0.00    -0.294 OA
BRANCH  11  13
ATOM     13  C   UNL     1     -25.355 -52.421  26.462  1.00  0.00    -0.002 C 
ATOM     14  C   UNL     1     -26.646 -52.192  26.851  1.00  0.00    -0.069 C 
ATOM     15  C   UNL     1     -27.793 -52.994  26.276  1.00  0.00     0.039 C 
ATOM     16  C   UNL     1     -26.997 -51.132  27.873  1.00  0.00     0.039 C 
BRANCH  13  17
ATOM     17  C   UNL     1     -24.199 -51.584  26.984  1.00  0.00     0.066 CG0
ATOM     18  G   UNL     1     -23.129 -51.360  25.933  1.00  0.00     0.000 G0
ENDBRANCH  13  17
ENDBRANCH  11  13
ENDBRANCH  10  11
ENDBRANCH   1  10
TORSDOF 0
ENDMDL
MODEL 7
REMARK VINA RESULT:    -4.292      2.284      3.928
REMARK INTER + INTRA:          -5.921
REMARK INTER:                  -6.151
REMARK INTRA:                   0.230
REMARK UNBOUND:                 0.127
REMARK SMILES CC1=CCC(=C(C)C)C(=O)CC(C)=CCC1
REMARK SMILES IDX 12 1 14 2 13 3 15 4 16 5 2 6 1 7 3 8 11 10 9 11 10 12 5 13
REMARK SMILES IDX 6 14 7 15 8 16 4 17
REMARK H PARENT
REMARK Flexibility Score: 60.00
ROOT
ATOM      1  C   UNL     1     -22.273 -50.947  26.795  1.00  0.00    -0.070 C 
ATOM      2  C   UNL     1     -23.541 -51.234  27.168  1.00  0.00    -0.027 C 
ATOM      3  C   UNL     1     -22.070 -49.875  25.755  1.00  0.00     0.039 C 
ENDROOT
BRANCH   2   4
ATOM      4  C   UNL     1     -23.942 -52.203  28.259  1.00  0.00     0.032 C 
BRANCH   4   5
ATOM      5  C   UNL     1     -23.404 -53.638  28.080  1.00  0.00     0.034 C 
BRANCH   5   6
ATOM      6  C   UNL     1     -23.770 -54.252  26.740  1.00  0.00    -0.077 C 
ATOM      7  C   UNL     1     -25.235 -54.423  26.425  1.00  0.00     0.039 C 
ATOM      8  C   UNL     1     -22.873 -54.591  25.785  1.00  0.00    -0.023 CG0
ATOM      9  G   UNL     1     -21.361 -54.525  25.884  1.00  0.00     0.000 G0
ENDBRANCH   5   6
ENDBRANCH   4   5
ENDBRANCH   2   4
BRANCH   1  10
ATOM     10  C   UNL     1     -21.056 -51.582  27.434  1.00  0.00     0.111 C 
BRANCH  10  11
ATOM     11  C   UNL     1     -20.199 -52.289  26.417  1.00  0.00     0.163 C 
ATOM     12  O   UNL     1     -18.949 -52.130  26.479  1.00  0.00    -0.294 OA
BRANCH  11  13
ATOM     13  C   UNL     1     -20.771 -53.211  25.391  1.00  0.00    -0.002 C 
ATOM     14  C   UNL     1     -20.692 -52.909  24.059  1.00  0.00    -0.069 C 
ATOM     15  C   UNL     1     -20.171 -51.568  23.588  1.00  0.00     0.039 C 
ATOM     16  C   UNL     1     -21.118 -53.891  22.990  1.00  0.00     0.039 C 
BRANCH  13  17
ATOM     17  C   UNL     1     -21.349 -54.527  25.882  1.00  0.00     0.066 CG0
ATOM     18  G   UNL     1     -22.861 -54.570  25.772  1.00  0.00     0.000 G0
ENDBRANCH  13  17
ENDBRANCH  11  13
ENDBRANCH  10  11
ENDBRANCH   1  10
TORSDOF 0
ENDMDL
MODEL 8
REMARK VINA RESULT:    -4.253      3.690      6.449
REMARK INTER + INTRA:          -5.866
REMARK INTER:                  -6.403
REMARK INTRA:                   0.537
REMARK UNBOUND:                 0.127
REMARK SMILES CC1=CCC(=C(C)C)C(=O)CC(C)=CCC1
REMARK SMILES IDX 12 1 14 2 13 3 15 4 16 5 2 6 1 7 3 8 11 10 9 11 10 12 5 13
REMARK SMILES IDX 6 14 7 15 8 16 4 17
REMARK H PARENT
REMARK Flexibility Score: 60.00
ROOT
ATOM      1  C   UNL     1     -20.097 -49.555  27.236  1.00  0.00    -0.070 C 
ATOM      2  C   UNL     1     -21.183 -50.017  26.575  1.00  0.00    -0.027 C 
ATOM      3  C   UNL     1     -19.164 -48.628  26.500  1.00  0.00     0.039 C 
ENDROOT
BRANCH   2   4
ATOM      4  C   UNL     1     -22.280 -50.874  27.169  1.00  0.00     0.032 C 
BRANCH   4   5
ATOM      5  C   UNL     1     -22.397 -52.287  26.562  1.00  0.00     0.034 C 
BRANCH   5   6
ATOM      6  C   UNL     1     -21.053 -52.969  26.370  1.00  0.00    -0.077 C 
ATOM      7  C   UNL     1     -20.609 -53.258  24.958  1.00  0.00     0.039 C 
ATOM      8  C   UNL     1     -20.200 -53.271  27.377  1.00  0.00    -0.023 CG0
ATOM      9  G   UNL     1     -20.438 -53.091  28.864  1.00  0.00     0.000 G0
ENDBRANCH   5   6
ENDBRANCH   4   5
ENDBRANCH   2   4
BRANCH   1  10
ATOM     10  C   UNL     1     -19.828 -49.850  28.697  1.00  0.00     0.111 C 
BRANCH  10  11
ATOM     11  C   UNL     1     -18.902 -51.027  28.865  1.00  0.00     0.163 C 
ATOM     12  O   UNL     1     -17.712 -50.909  28.464  1.00  0.00    -0.294 OA
BRANCH  11  13
ATOM     13  C   UNL     1     -19.327 -52.291  29.537  1.00  0.00    -0.002 C 
ATOM     14  C   UNL     1     -18.793 -52.654  30.743  1.00  0.00    -0.069 C 
ATOM     15  C   UNL     1     -17.648 -51.881  31.359  1.00  0.00     0.039 C 
ATOM     16  C   UNL     1     -19.315 -53.841  31.524  1.00  0.00     0.039 C 
BRANCH  13  17
ATOM     17  C   UNL     1     -20.435 -53.093  28.876  1.00  0.00     0.066 CG0
ATOM     18  G   UNL     1     -20.206 -53.276  27.388  1.00  0.00     0.000 G0
ENDBRANCH  13  17
ENDBRANCH  11  13
ENDBRANCH  10  11
ENDBRANCH   1  10
TORSDOF 0
ENDMDL
MODEL 9
REMARK VINA RESULT:    -4.181      1.564      3.645
REMARK INTER + INTRA:          -5.765
REMARK INTER:                  -6.056
REMARK INTRA:                   0.291
REMARK UNBOUND:                 0.127
REMARK SMILES CC1=CCC(=C(C)C)C(=O)CC(C)=CCC1
REMARK SMILES IDX 12 1 14 2 13 3 15 4 16 5 2 6 1 7 3 8 11 10 9 11 10 12 5 13
REMARK SMILES IDX 6 14 7 15 8 16 4 17
REMARK H PARENT
REMARK Flexibility Score: 60.00
ROOT
ATOM      1  C   UNL     1     -25.453 -54.999  25.592  1.00  0.00    -0.070 C 
ATOM      2  C   UNL     1     -24.280 -55.339  25.012  1.00  0.00    -0.027 C 
ATOM      3  C   UNL     1     -26.726 -55.320  24.851  1.00  0.00     0.039 C 
ENDROOT
BRANCH   2   4
ATOM      4  C   UNL     1     -22.910 -55.188  25.636  1.00  0.00     0.032 C 
BRANCH   4   5
ATOM      5  C   UNL     1     -22.198 -53.856  25.322  1.00  0.00     0.034 C 
BRANCH   5   6
ATOM      6  C   UNL     1     -21.630 -53.176  26.556  1.00  0.00    -0.077 C 
ATOM      7  C   UNL     1     -20.308 -53.674  27.084  1.00  0.00     0.039 C 
ATOM      8  C   UNL     1     -22.197 -52.111  27.171  1.00  0.00    -0.023 CG0
ATOM      9  G   UNL     1     -23.522 -51.456  26.830  1.00  0.00     0.000 G0
ENDBRANCH   5   6
ENDBRANCH   4   5
ENDBRANCH   2   4
BRANCH   1  10
ATOM     10  C   UNL     1     -25.550 -54.400  26.980  1.00  0.00     0.111 C 
BRANCH  10  11
ATOM     11  C   UNL     1     -25.646 -52.897  26.931  1.00  0.00     0.163 C 
ATOM     12  O   UNL     1     -26.611 -52.384  26.301  1.00  0.00    -0.294 OA
BRANCH  11  13
ATOM     13  C   UNL     1     -24.683 -52.009  27.647  1.00  0.00    -0.002 C 
ATOM     14  C   UNL     1     -24.801 -51.790  28.992  1.00  0.00    -0.069 C 
ATOM     15  C   UNL     1     -25.994 -52.304  29.768  1.00  0.00     0.039 C 
ATOM     16  C   UNL     1     -23.754 -51.027  29.773  1.00  0.00     0.039 C 
BRANCH  13  17
ATOM     17  C   UNL     1     -23.524 -51.447  26.841  1.00  0.00     0.066 CG0
ATOM     18  G   UNL     1     -22.206 -52.118  27.179  1.00  0.00     0.000 G0
ENDBRANCH  13  17
ENDBRANCH  11  13
ENDBRANCH  10  11
ENDBRANCH   1  10
TORSDOF 0
ENDMDL
