MODEL 1
REMARK VINA RESULT:    -3.676      0.000      0.000
REMARK INTER + INTRA:          -4.411
REMARK INTER:                  -4.321
REMARK INTRA:                  -0.090
REMARK UNBOUND:                -0.090
REMARK SMILES CCCCC(=O)[O-]
REMARK SMILES IDX 4 1 5 2 6 3 7 4 3 5 2 6 1 7
REMARK H PARENT
REMARK Flexibility Score: inf
ROOT
ATOM      1  C   UNL     1      16.763  21.853  27.979  1.00  0.00     0.053 C 
ENDROOT
BRANCH   1   2
ATOM      2  C   UNL     1      16.622  23.302  28.316  1.00  0.00     0.041 C 
ATOM      3  O   UNL     1      17.543  24.112  28.030  1.00  0.00    -0.550 OA
ATOM      4  O   UNL     1      15.453  23.770  28.904  1.00  0.00    -0.550 OA
ENDBRANCH   1   2
BRANCH   1   5
ATOM      5  C   UNL     1      16.933  21.667  26.468  1.00  0.00     0.006 C 
BRANCH   5   6
ATOM      6  C   UNL     1      15.655  22.063  25.719  1.00  0.00    -0.003 C 
ATOM      7  C   UNL     1      15.894  22.121  24.213  1.00  0.00     0.004 C 
ENDBRANCH   5   6
ENDBRANCH   1   5
TORSDOF 3
ENDMDL
MODEL 2
REMARK VINA RESULT:    -3.557      1.376      1.737
REMARK INTER + INTRA:          -4.271
REMARK INTER:                  -4.212
REMARK INTRA:                  -0.059
REMARK UNBOUND:                -0.090
REMARK SMILES CCCCC(=O)[O-]
REMARK SMILES IDX 4 1 5 2 6 3 7 4 3 5 2 6 1 7
REMARK H PARENT
REMARK Flexibility Score: inf
ROOT
ATOM      1  C   UNL     1      16.858  23.826  27.624  1.00  0.00     0.053 C 
ENDROOT
BRANCH   1   2
ATOM      2  C   UNL     1      15.978  23.517  28.792  1.00  0.00     0.041 C 
ATOM      3  O   UNL     1      14.777  23.895  28.799  1.00  0.00    -0.550 OA
ATOM      4  O   UNL     1      16.469  22.768  29.854  1.00  0.00    -0.550 OA
ENDBRANCH   1   2
BRANCH   1   5
ATOM      5  C   UNL     1      16.073  23.703  26.314  1.00  0.00     0.006 C 
BRANCH   5   6
ATOM      6  C   UNL     1      16.090  22.260  25.797  1.00  0.00    -0.003 C 
ATOM      7  C   UNL     1      15.995  22.219  24.275  1.00  0.00     0.004 C 
ENDBRANCH   5   6
ENDBRANCH   1   5
TORSDOF 3
ENDMDL
MODEL 3
REMARK VINA RESULT:    -3.468      2.360      3.640
REMARK INTER + INTRA:          -4.167
REMARK INTER:                  -4.096
REMARK INTRA:                  -0.071
REMARK UNBOUND:                -0.090
REMARK SMILES CCCCC(=O)[O-]
REMARK SMILES IDX 4 1 5 2 6 3 7 4 3 5 2 6 1 7
REMARK H PARENT
REMARK Flexibility Score: inf
ROOT
ATOM      1  C   UNL     1      15.924  23.573  26.483  1.00  0.00     0.053 C 
ENDROOT
BRANCH   1   2
ATOM      2  C   UNL     1      16.336  22.375  25.689  1.00  0.00     0.041 C 
ATOM      3  O   UNL     1      17.080  21.499  26.203  1.00  0.00    -0.550 OA
ATOM      4  O   UNL     1      15.861  22.200  24.395  1.00  0.00    -0.550 OA
ENDBRANCH   1   2
BRANCH   1   5
ATOM      5  C   UNL     1      16.912  23.824  27.626  1.00  0.00     0.006 C 
BRANCH   5   6
ATOM      6  C   UNL     1      16.292  23.456  28.979  1.00  0.00    -0.003 C 
ATOM      7  C   UNL     1      14.793  23.744  28.995  1.00  0.00     0.004 C 
ENDBRANCH   5   6
ENDBRANCH   1   5
TORSDOF 3
ENDMDL
MODEL 4
REMARK VINA RESULT:    -3.456      2.693      3.394
REMARK INTER + INTRA:          -4.153
REMARK INTER:                  -4.086
REMARK INTRA:                  -0.066
REMARK UNBOUND:                -0.090
REMARK SMILES CCCCC(=O)[O-]
REMARK SMILES IDX 4 1 5 2 6 3 7 4 3 5 2 6 1 7
REMARK H PARENT
REMARK Flexibility Score: inf
ROOT
ATOM      1  C   UNL     1      16.718  21.781  26.303  1.00  0.00     0.053 C 
ENDROOT
BRANCH   1   2
ATOM      2  C   UNL     1      16.169  22.608  25.185  1.00  0.00     0.041 C 
ATOM      3  O   UNL     1      16.026  23.851  25.328  1.00  0.00    -0.550 OA
ATOM      4  O   UNL     1      15.858  22.015  23.968  1.00  0.00    -0.550 OA
ENDBRANCH   1   2
BRANCH   1   5
ATOM      5  C   UNL     1      15.773  21.813  27.508  1.00  0.00     0.006 C 
BRANCH   5   6
ATOM      6  C   UNL     1      14.357  21.384  27.108  1.00  0.00    -0.003 C 
ATOM      7  C   UNL     1      13.643  20.691  28.265  1.00  0.00     0.004 C 
ENDBRANCH   5   6
ENDBRANCH   1   5
TORSDOF 3
ENDMDL
MODEL 5
REMARK VINA RESULT:    -3.443      2.250      3.569
REMARK INTER + INTRA:          -4.137
REMARK INTER:                  -4.101
REMARK INTRA:                  -0.036
REMARK UNBOUND:                -0.090
REMARK SMILES CCCCC(=O)[O-]
REMARK SMILES IDX 4 1 5 2 6 3 7 4 3 5 2 6 1 7
REMARK H PARENT
REMARK Flexibility Score: inf
ROOT
ATOM      1  C   UNL     1      16.958  21.851  26.475  1.00  0.00     0.053 C 
ENDROOT
BRANCH   1   2
ATOM      2  C   UNL     1      15.777  21.936  25.562  1.00  0.00     0.041 C 
ATOM      3  O   UNL     1      14.619  21.710  26.001  1.00  0.00    -0.550 OA
ATOM      4  O   UNL     1      15.949  22.313  24.236  1.00  0.00    -0.550 OA
ENDBRANCH   1   2
BRANCH   1   5
ATOM      5  C   UNL     1      16.507  21.549  27.908  1.00  0.00     0.006 C 
BRANCH   5   6
ATOM      6  C   UNL     1      16.845  22.713  28.846  1.00  0.00    -0.003 C 
ATOM      7  C   UNL     1      17.343  23.925  28.064  1.00  0.00     0.004 C 
ENDBRANCH   5   6
ENDBRANCH   1   5
TORSDOF 3
ENDMDL
MODEL 6
REMARK VINA RESULT:    -3.381     20.814     21.737
REMARK INTER + INTRA:          -4.064
REMARK INTER:                  -4.044
REMARK INTRA:                  -0.021
REMARK UNBOUND:                -0.090
REMARK SMILES CCCCC(=O)[O-]
REMARK SMILES IDX 4 1 5 2 6 3 7 4 3 5 2 6 1 7
REMARK H PARENT
REMARK Flexibility Score: inf
ROOT
ATOM      1  C   UNL     1       5.008  37.544  15.542  1.00  0.00     0.053 C 
ENDROOT
BRANCH   1   2
ATOM      2  C   UNL     1       4.758  36.081  15.721  1.00  0.00     0.041 C 
ATOM      3  O   UNL     1       5.390  35.433  16.597  1.00  0.00    -0.550 OA
ATOM      4  O   UNL     1       3.792  35.441  14.955  1.00  0.00    -0.550 OA
ENDBRANCH   1   2
BRANCH   1   5
ATOM      5  C   UNL     1       6.513  37.832  15.520  1.00  0.00     0.006 C 
BRANCH   5   6
ATOM      6  C   UNL     1       6.835  39.000  14.581  1.00  0.00    -0.003 C 
ATOM      7  C   UNL     1       7.689  38.541  13.403  1.00  0.00     0.004 C 
ENDBRANCH   5   6
ENDBRANCH   1   5
TORSDOF 3
ENDMDL
MODEL 7
REMARK VINA RESULT:    -3.284      2.344      3.374
REMARK INTER + INTRA:          -3.950
REMARK INTER:                  -3.860
REMARK INTRA:                  -0.090
REMARK UNBOUND:                -0.090
REMARK SMILES CCCCC(=O)[O-]
REMARK SMILES IDX 4 1 5 2 6 3 7 4 3 5 2 6 1 7
REMARK H PARENT
REMARK Flexibility Score: inf
ROOT
ATOM      1  C   UNL     1      15.714  23.692  27.460  1.00  0.00     0.053 C 
ENDROOT
BRANCH   1   2
ATOM      2  C   UNL     1      15.968  23.710  25.987  1.00  0.00     0.041 C 
ATOM      3  O   UNL     1      16.066  24.806  25.374  1.00  0.00    -0.550 OA
ATOM      4  O   UNL     1      16.144  22.518  25.296  1.00  0.00    -0.550 OA
ENDBRANCH   1   2
BRANCH   1   5
ATOM      5  C   UNL     1      17.037  23.697  28.233  1.00  0.00     0.006 C 
BRANCH   5   6
ATOM      6  C   UNL     1      17.058  22.591  29.293  1.00  0.00    -0.003 C 
ATOM      7  C   UNL     1      17.079  21.208  28.647  1.00  0.00     0.004 C 
ENDBRANCH   5   6
ENDBRANCH   1   5
TORSDOF 3
ENDMDL
MODEL 8
REMARK VINA RESULT:    -3.271      2.263      3.087
REMARK INTER + INTRA:          -3.934
REMARK INTER:                  -3.817
REMARK INTRA:                  -0.117
REMARK UNBOUND:                -0.090
REMARK SMILES CCCCC(=O)[O-]
REMARK SMILES IDX 4 1 5 2 6 3 7 4 3 5 2 6 1 7
REMARK H PARENT
REMARK Flexibility Score: inf
ROOT
ATOM      1  C   UNL     1      14.533  21.598  26.441  1.00  0.00     0.053 C 
ENDROOT
BRANCH   1   2
ATOM      2  C   UNL     1      14.293  21.203  27.863  1.00  0.00     0.041 C 
ATOM      3  O   UNL     1      15.246  20.791  28.576  1.00  0.00    -0.550 OA
ATOM      4  O   UNL     1      13.026  21.335  28.418  1.00  0.00    -0.550 OA
ENDBRANCH   1   2
BRANCH   1   5
ATOM      5  C   UNL     1      15.977  22.074  26.253  1.00  0.00     0.006 C 
BRANCH   5   6
ATOM      6  C   UNL     1      16.094  23.582  26.499  1.00  0.00    -0.003 C 
ATOM      7  C   UNL     1      17.015  23.879  27.679  1.00  0.00     0.004 C 
ENDBRANCH   5   6
ENDBRANCH   1   5
TORSDOF 3
ENDMDL
MODEL 9
REMARK VINA RESULT:    -3.183     21.411     22.158
REMARK INTER + INTRA:          -3.832
REMARK INTER:                  -3.814
REMARK INTRA:                  -0.017
REMARK UNBOUND:                -0.090
REMARK SMILES CCCCC(=O)[O-]
REMARK SMILES IDX 4 1 5 2 6 3 7 4 3 5 2 6 1 7
REMARK H PARENT
REMARK Flexibility Score: inf
ROOT
ATOM      1  C   UNL     1       4.582  35.950  15.625  1.00  0.00     0.053 C 
ENDROOT
BRANCH   1   2
ATOM      2  C   UNL     1       3.166  35.673  15.235  1.00  0.00     0.041 C 
ATOM      3  O   UNL     1       2.386  35.102  16.042  1.00  0.00    -0.550 OA
ATOM      4  O   UNL     1       2.691  36.089  13.998  1.00  0.00    -0.550 OA
ENDBRANCH   1   2
BRANCH   1   5
ATOM      5  C   UNL     1       4.859  37.457  15.605  1.00  0.00     0.006 C 
BRANCH   5   6
ATOM      6  C   UNL     1       6.366  37.738  15.641  1.00  0.00    -0.003 C 
ATOM      7  C   UNL     1       6.750  38.814  14.630  1.00  0.00     0.004 C 
ENDBRANCH   5   6
ENDBRANCH   1   5
TORSDOF 3
ENDMDL
