MODEL 1
REMARK VINA RESULT:    -5.784      0.000      0.000
REMARK INTER + INTRA:          -9.534
REMARK INTER:                  -7.643
REMARK INTRA:                  -1.890
REMARK UNBOUND:                -1.890
REMARK SMILES CC(C)=CCC[C@H](C(=O)[O-])[C@H]1CC[C@@]2(C)C3=C(CC[C@]12C)[C@@]1(C)CC[C@H](O)C(C)(C)[C@H]1CC3
REMARK SMILES IDX 6 1 7 2 8 3 9 4 10 5 11 6 12 7 20 8 13 9 14 10 19 11 21 12
REMARK SMILES IDX 15 13 16 14 18 15 17 16 33 17 22 18 32 19 31 20 24 21 23 22
REMARK SMILES IDX 28 23 25 24 26 25 29 26 30 27 27 28 5 30 4 31 2 32 1 33 3 34
REMARK H PARENT 27 29
REMARK Flexibility Score: inf
ROOT
ATOM      1  C   UNL     1      28.263 -44.489 -20.901  1.00  0.00     0.014 C 
ENDROOT
BRANCH   1   2
ATOM      2  C   UNL     1      27.885 -43.828 -19.547  1.00  0.00     0.039 C 
BRANCH   2   3
ATOM      3  C   UNL     1      28.990 -44.009 -18.526  1.00  0.00     0.045 C 
ATOM      4  O   UNL     1      29.569 -45.114 -18.368  1.00  0.00    -0.550 OA
ATOM      5  O   UNL     1      29.429 -42.907 -17.800  1.00  0.00    -0.550 OA
ENDBRANCH   2   3
BRANCH   2   6
ATOM      6  C   UNL     1      26.414 -44.150 -19.092  1.00  0.00     0.004 C 
ATOM      7  C   UNL     1      26.156 -44.364 -17.577  1.00  0.00     0.006 C 
ATOM      8  C   UNL     1      25.279 -43.186 -19.539  1.00  0.00    -0.020 C 
ATOM      9  C   UNL     1      24.740 -43.826 -17.287  1.00  0.00     0.012 C 
ATOM     10  C   UNL     1      24.083 -43.672 -18.669  1.00  0.00    -0.006 C 
ATOM     11  C   UNL     1      24.858 -43.275 -21.018  1.00  0.00     0.012 C 
ATOM     12  C   UNL     1      25.677 -41.699 -19.235  1.00  0.00     0.012 C 
ATOM     13  C   UNL     1      23.492 -45.069 -19.058  1.00  0.00     0.017 C 
ATOM     14  C   UNL     1      22.927 -42.699 -18.816  1.00  0.00    -0.064 C 
ATOM     15  C   UNL     1      23.530 -42.504 -21.275  1.00  0.00     0.032 C 
ATOM     16  C   UNL     1      22.622 -42.199 -20.054  1.00  0.00    -0.064 C 
ATOM     17  C   UNL     1      22.040 -42.360 -17.646  1.00  0.00     0.032 C 
ATOM     18  C   UNL     1      21.272 -41.450 -20.251  1.00  0.00    -0.008 C 
ATOM     19  C   UNL     1      21.736 -40.878 -17.717  1.00  0.00     0.009 C 
ATOM     20  C   UNL     1      20.924 -40.495 -19.003  1.00  0.00     0.007 C 
ATOM     21  C   UNL     1      20.221 -42.581 -20.469  1.00  0.00     0.014 C 
ATOM     22  C   UNL     1      21.348 -40.584 -21.541  1.00  0.00     0.016 C 
ATOM     23  C   UNL     1      19.364 -40.189 -18.771  1.00  0.00    -0.006 C 
ATOM     24  C   UNL     1      18.775 -42.123 -20.376  1.00  0.00     0.033 C 
ATOM     25  C   UNL     1      18.503 -41.462 -19.016  1.00  0.00     0.120 C 
ATOM     26  C   UNL     1      19.059 -39.705 -17.322  1.00  0.00     0.014 C 
ATOM     27  C   UNL     1      18.889 -39.024 -19.693  1.00  0.00     0.014 C 
BRANCH  25  28
ATOM     28  O   UNL     1      17.129 -41.192 -18.852  1.00  0.00    -0.393 OA
ATOM     29  H   UNL     1      16.914 -40.343 -19.320  1.00  0.00     0.210 HD
ENDBRANCH  25  28
ENDBRANCH   2   6
ENDBRANCH   1   2
BRANCH   1  30
ATOM     30  C   UNL     1      28.843 -43.525 -21.950  1.00  0.00     0.028 C 
BRANCH  30  31
ATOM     31  C   UNL     1      28.270 -42.136 -21.804  1.00  0.00    -0.028 C 
ATOM     32  C   UNL     1      27.550 -41.494 -22.753  1.00  0.00    -0.080 C 
ATOM     33  C   UNL     1      27.251 -42.114 -24.097  1.00  0.00     0.039 C 
ATOM     34  C   UNL     1      26.984 -40.126 -22.465  1.00  0.00     0.039 C 
ENDBRANCH  30  31
ENDBRANCH   1  30
TORSDOF 6
ENDMDL
MODEL 2
REMARK VINA RESULT:    -5.479     12.725     14.388
REMARK INTER + INTRA:          -9.131
REMARK INTER:                  -7.475
REMARK INTRA:                  -1.656
REMARK UNBOUND:                -1.890
REMARK SMILES CC(C)=CCC[C@H](C(=O)[O-])[C@H]1CC[C@@]2(C)C3=C(CC[C@]12C)[C@@]1(C)CC[C@H](O)C(C)(C)[C@H]1CC3
REMARK SMILES IDX 6 1 7 2 8 3 9 4 10 5 11 6 12 7 20 8 13 9 14 10 19 11 21 12
REMARK SMILES IDX 15 13 16 14 18 15 17 16 33 17 22 18 32 19 31 20 24 21 23 22
REMARK SMILES IDX 28 23 25 24 26 25 29 26 30 27 27 28 5 30 4 31 2 32 1 33 3 34
REMARK H PARENT 27 29
REMARK Flexibility Score: inf
ROOT
ATOM      1  C   UNL     1      29.745 -33.829 -14.558  1.00  0.00     0.014 C 
ENDROOT
BRANCH   1   2
ATOM      2  C   UNL     1      29.409 -34.321 -13.124  1.00  0.00     0.039 C 
BRANCH   2   3
ATOM      3  C   UNL     1      29.868 -35.750 -12.917  1.00  0.00     0.045 C 
ATOM      4  O   UNL     1      30.123 -36.203 -11.771  1.00  0.00    -0.550 OA
ATOM      5  O   UNL     1      29.931 -36.607 -14.011  1.00  0.00    -0.550 OA
ENDBRANCH   2   3
BRANCH   2   6
ATOM      6  C   UNL     1      27.948 -33.953 -12.670  1.00  0.00     0.004 C 
ATOM      7  C   UNL     1      26.934 -35.113 -12.484  1.00  0.00     0.006 C 
ATOM      8  C   UNL     1      27.773 -33.085 -11.392  1.00  0.00    -0.020 C 
ATOM      9  C   UNL     1      25.998 -34.703 -11.329  1.00  0.00     0.012 C 
ATOM     10  C   UNL     1      26.241 -33.197 -11.135  1.00  0.00    -0.006 C 
ATOM     11  C   UNL     1      28.122 -31.592 -11.533  1.00  0.00     0.012 C 
ATOM     12  C   UNL     1      28.624 -33.675 -10.213  1.00  0.00     0.012 C 
ATOM     13  C   UNL     1      25.330 -32.446 -12.162  1.00  0.00     0.017 C 
ATOM     14  C   UNL     1      25.911 -32.579  -9.788  1.00  0.00    -0.064 C 
ATOM     15  C   UNL     1      27.622 -30.775 -10.305  1.00  0.00     0.032 C 
ATOM     16  C   UNL     1      26.510 -31.403  -9.424  1.00  0.00    -0.064 C 
ATOM     17  C   UNL     1      24.855 -33.176  -8.894  1.00  0.00     0.032 C 
ATOM     18  C   UNL     1      25.955 -30.625  -8.195  1.00  0.00    -0.008 C 
ATOM     19  C   UNL     1      25.361 -33.092  -7.468  1.00  0.00     0.009 C 
ATOM     20  C   UNL     1      25.552 -31.611  -6.988  1.00  0.00     0.007 C 
ATOM     21  C   UNL     1      24.746 -29.815  -8.754  1.00  0.00     0.014 C 
ATOM     22  C   UNL     1      27.033 -29.625  -7.688  1.00  0.00     0.016 C 
ATOM     23  C   UNL     1      24.427 -31.060  -5.982  1.00  0.00    -0.006 C 
ATOM     24  C   UNL     1      23.844 -29.214  -7.689  1.00  0.00     0.033 C 
ATOM     25  C   UNL     1      23.305 -30.309  -6.755  1.00  0.00     0.120 C 
ATOM     26  C   UNL     1      23.739 -32.200  -5.173  1.00  0.00     0.014 C 
ATOM     27  C   UNL     1      25.063 -30.129  -4.904  1.00  0.00     0.014 C 
BRANCH  25  28
ATOM     28  O   UNL     1      22.334 -29.790  -5.876  1.00  0.00    -0.393 OA
ATOM     29  H   UNL     1      21.482 -30.283  -6.015  1.00  0.00     0.210 HD
ENDBRANCH  25  28
ENDBRANCH   2   6
ENDBRANCH   1   2
BRANCH   1  30
ATOM     30  C   UNL     1      28.622 -33.032 -15.245  1.00  0.00     0.028 C 
BRANCH  30  31
ATOM     31  C   UNL     1      28.776 -31.548 -15.016  1.00  0.00    -0.028 C 
ATOM     32  C   UNL     1      27.761 -30.653 -15.036  1.00  0.00    -0.080 C 
ATOM     33  C   UNL     1      26.333 -31.059 -15.313  1.00  0.00     0.039 C 
ATOM     34  C   UNL     1      28.037 -29.202 -14.738  1.00  0.00     0.039 C 
ENDBRANCH  30  31
ENDBRANCH   1  30
TORSDOF 6
ENDMDL
MODEL 3
REMARK VINA RESULT:    -5.405      5.028      6.820
REMARK INTER + INTRA:          -9.033
REMARK INTER:                  -7.297
REMARK INTRA:                  -1.736
REMARK UNBOUND:                -1.890
REMARK SMILES CC(C)=CCC[C@H](C(=O)[O-])[C@H]1CC[C@@]2(C)C3=C(CC[C@]12C)[C@@]1(C)CC[C@H](O)C(C)(C)[C@H]1CC3
REMARK SMILES IDX 6 1 7 2 8 3 9 4 10 5 11 6 12 7 20 8 13 9 14 10 19 11 21 12
REMARK SMILES IDX 15 13 16 14 18 15 17 16 33 17 22 18 32 19 31 20 24 21 23 22
REMARK SMILES IDX 28 23 25 24 26 25 29 26 30 27 27 28 5 30 4 31 2 32 1 33 3 34
REMARK H PARENT 27 29
REMARK Flexibility Score: inf
ROOT
ATOM      1  C   UNL     1      26.239 -44.263 -18.544  1.00  0.00     0.014 C 
ENDROOT
BRANCH   1   2
ATOM      2  C   UNL     1      27.580 -43.783 -17.925  1.00  0.00     0.039 C 
BRANCH   2   3
ATOM      3  C   UNL     1      28.525 -44.947 -17.703  1.00  0.00     0.045 C 
ATOM      4  O   UNL     1      28.204 -45.932 -16.988  1.00  0.00    -0.550 OA
ATOM      5  O   UNL     1      29.746 -44.965 -18.368  1.00  0.00    -0.550 OA
ENDBRANCH   2   3
BRANCH   2   6
ATOM      6  C   UNL     1      27.385 -42.769 -16.738  1.00  0.00     0.004 C 
ATOM      7  C   UNL     1      28.411 -42.809 -15.575  1.00  0.00     0.006 C 
ATOM      8  C   UNL     1      27.253 -41.258 -17.078  1.00  0.00    -0.020 C 
ATOM      9  C   UNL     1      28.563 -41.361 -15.067  1.00  0.00     0.012 C 
ATOM     10  C   UNL     1      27.371 -40.600 -15.671  1.00  0.00    -0.006 C 
ATOM     11  C   UNL     1      25.913 -40.816 -17.697  1.00  0.00     0.012 C 
ATOM     12  C   UNL     1      28.405 -40.815 -18.046  1.00  0.00     0.012 C 
ATOM     13  C   UNL     1      26.149 -40.824 -14.719  1.00  0.00     0.017 C 
ATOM     14  C   UNL     1      27.478 -39.094 -15.829  1.00  0.00    -0.064 C 
ATOM     15  C   UNL     1      25.778 -39.265 -17.707  1.00  0.00     0.032 C 
ATOM     16  C   UNL     1      26.681 -38.454 -16.740  1.00  0.00    -0.064 C 
ATOM     17  C   UNL     1      28.365 -38.277 -14.924  1.00  0.00     0.032 C 
ATOM     18  C   UNL     1      26.576 -36.902 -16.690  1.00  0.00    -0.008 C 
ATOM     19  C   UNL     1      29.032 -37.215 -15.774  1.00  0.00     0.009 C 
ATOM     20  C   UNL     1      27.999 -36.211 -16.394  1.00  0.00     0.007 C 
ATOM     21  C   UNL     1      25.514 -36.614 -15.585  1.00  0.00     0.014 C 
ATOM     22  C   UNL     1      26.035 -36.378 -18.050  1.00  0.00     0.016 C 
ATOM     23  C   UNL     1      27.942 -34.762 -15.702  1.00  0.00    -0.006 C 
ATOM     24  C   UNL     1      25.458 -35.166 -15.128  1.00  0.00     0.033 C 
ATOM     25  C   UNL     1      26.831 -34.707 -14.613  1.00  0.00     0.120 C 
ATOM     26  C   UNL     1      29.282 -34.379 -15.005  1.00  0.00     0.014 C 
ATOM     27  C   UNL     1      27.713 -33.650 -16.772  1.00  0.00     0.014 C 
BRANCH  25  28
ATOM     28  O   UNL     1      26.749 -33.428 -14.028  1.00  0.00    -0.393 OA
ATOM     29  H   UNL     1      26.691 -33.532 -13.041  1.00  0.00     0.210 HD
ENDBRANCH  25  28
ENDBRANCH   2   6
ENDBRANCH   1   2
BRANCH   1  30
ATOM     30  C   UNL     1      26.194 -44.240 -20.082  1.00  0.00     0.028 C 
BRANCH  30  31
ATOM     31  C   UNL     1      26.424 -42.849 -20.623  1.00  0.00    -0.028 C 
ATOM     32  C   UNL     1      27.546 -42.446 -21.264  1.00  0.00    -0.080 C 
ATOM     33  C   UNL     1      28.719 -43.368 -21.496  1.00  0.00     0.039 C 
ATOM     34  C   UNL     1      27.633 -41.042 -21.806  1.00  0.00     0.039 C 
ENDBRANCH  30  31
ENDBRANCH   1  30
TORSDOF 6
ENDMDL
MODEL 4
REMARK VINA RESULT:    -5.388      9.333     11.533
REMARK INTER + INTRA:          -9.010
REMARK INTER:                  -8.023
REMARK INTRA:                  -0.987
REMARK UNBOUND:                -1.890
REMARK SMILES CC(C)=CCC[C@H](C(=O)[O-])[C@H]1CC[C@@]2(C)C3=C(CC[C@]12C)[C@@]1(C)CC[C@H](O)C(C)(C)[C@H]1CC3
REMARK SMILES IDX 6 1 7 2 8 3 9 4 10 5 11 6 12 7 20 8 13 9 14 10 19 11 21 12
REMARK SMILES IDX 15 13 16 14 18 15 17 16 33 17 22 18 32 19 31 20 24 21 23 22
REMARK SMILES IDX 28 23 25 24 26 25 29 26 30 27 27 28 5 30 4 31 2 32 1 33 3 34
REMARK H PARENT 27 29
REMARK Flexibility Score: inf
ROOT
ATOM      1  C   UNL     1      27.522 -30.730 -12.714  1.00  0.00     0.014 C 
ENDROOT
BRANCH   1   2
ATOM      2  C   UNL     1      27.661 -32.172 -12.154  1.00  0.00     0.039 C 
BRANCH   2   3
ATOM      3  C   UNL     1      28.131 -32.154 -10.713  1.00  0.00     0.045 C 
ATOM      4  O   UNL     1      28.596 -31.113 -10.182  1.00  0.00    -0.550 OA
ATOM      5  O   UNL     1      27.970 -33.295  -9.933  1.00  0.00    -0.550 OA
ENDBRANCH   2   3
BRANCH   2   6
ATOM      6  C   UNL     1      28.393 -33.152 -13.144  1.00  0.00     0.004 C 
ATOM      7  C   UNL     1      29.769 -33.724 -12.712  1.00  0.00     0.006 C 
ATOM      8  C   UNL     1      27.610 -34.391 -13.663  1.00  0.00    -0.020 C 
ATOM      9  C   UNL     1      29.861 -35.148 -13.298  1.00  0.00     0.012 C 
ATOM     10  C   UNL     1      28.738 -35.221 -14.346  1.00  0.00    -0.006 C 
ATOM     11  C   UNL     1      26.522 -34.113 -14.717  1.00  0.00     0.012 C 
ATOM     12  C   UNL     1      26.945 -35.155 -12.465  1.00  0.00     0.012 C 
ATOM     13  C   UNL     1      29.306 -34.618 -15.674  1.00  0.00     0.017 C 
ATOM     14  C   UNL     1      28.195 -36.585 -14.731  1.00  0.00    -0.064 C 
ATOM     15  C   UNL     1      26.028 -35.432 -15.381  1.00  0.00     0.032 C 
ATOM     16  C   UNL     1      26.945 -36.680 -15.281  1.00  0.00    -0.064 C 
ATOM     17  C   UNL     1      29.048 -37.823 -14.623  1.00  0.00     0.032 C 
ATOM     18  C   UNL     1      26.514 -38.021 -15.943  1.00  0.00    -0.008 C 
ATOM     19  C   UNL     1      28.168 -38.941 -14.104  1.00  0.00     0.009 C 
ATOM     20  C   UNL     1      27.008 -39.298 -15.097  1.00  0.00     0.007 C 
ATOM     21  C   UNL     1      27.122 -37.965 -17.378  1.00  0.00     0.014 C 
ATOM     22  C   UNL     1      24.964 -38.064 -16.060  1.00  0.00     0.016 C 
ATOM     23  C   UNL     1      27.206 -40.656 -15.933  1.00  0.00    -0.006 C 
ATOM     24  C   UNL     1      27.106 -39.290 -18.121  1.00  0.00     0.033 C 
ATOM     25  C   UNL     1      27.851 -40.369 -17.320  1.00  0.00     0.120 C 
ATOM     26  C   UNL     1      28.129 -41.677 -15.203  1.00  0.00     0.014 C 
ATOM     27  C   UNL     1      25.845 -41.397 -16.107  1.00  0.00     0.014 C 
BRANCH  25  28
ATOM     28  O   UNL     1      27.993 -41.551 -18.074  1.00  0.00    -0.393 OA
ATOM     29  H   UNL     1      28.358 -41.316 -18.968  1.00  0.00     0.210 HD
ENDBRANCH  25  28
ENDBRANCH   2   6
ENDBRANCH   1   2
BRANCH   1  30
ATOM     30  C   UNL     1      28.179 -30.505 -14.087  1.00  0.00     0.028 C 
BRANCH  30  31
ATOM     31  C   UNL     1      28.197 -29.042 -14.459  1.00  0.00    -0.028 C 
ATOM     32  C   UNL     1      27.232 -28.415 -15.171  1.00  0.00    -0.080 C 
ATOM     33  C   UNL     1      26.014 -29.138 -15.692  1.00  0.00     0.039 C 
ATOM     34  C   UNL     1      27.340 -26.934 -15.433  1.00  0.00     0.039 C 
ENDBRANCH  30  31
ENDBRANCH   1  30
TORSDOF 6
ENDMDL
MODEL 5
REMARK VINA RESULT:    -5.384      8.938     11.297
REMARK INTER + INTRA:          -9.005
REMARK INTER:                  -7.213
REMARK INTRA:                  -1.792
REMARK UNBOUND:                -1.890
REMARK SMILES CC(C)=CCC[C@H](C(=O)[O-])[C@H]1CC[C@@]2(C)C3=C(CC[C@]12C)[C@@]1(C)CC[C@H](O)C(C)(C)[C@H]1CC3
REMARK SMILES IDX 6 1 7 2 8 3 9 4 10 5 11 6 12 7 20 8 13 9 14 10 19 11 21 12
REMARK SMILES IDX 15 13 16 14 18 15 17 16 33 17 22 18 32 19 31 20 24 21 23 22
REMARK SMILES IDX 28 23 25 24 26 25 29 26 30 27 27 28 5 30 4 31 2 32 1 33 3 34
REMARK H PARENT 27 29
REMARK Flexibility Score: inf
ROOT
ATOM      1  C   UNL     1      24.424 -43.310 -11.379  1.00  0.00     0.014 C 
ENDROOT
BRANCH   1   2
ATOM      2  C   UNL     1      23.717 -44.312 -10.425  1.00  0.00     0.039 C 
BRANCH   2   3
ATOM      3  C   UNL     1      24.568 -45.545 -10.201  1.00  0.00     0.045 C 
ATOM      4  O   UNL     1      24.618 -46.120  -9.083  1.00  0.00    -0.550 OA
ATOM      5  O   UNL     1      25.251 -46.102 -11.278  1.00  0.00    -0.550 OA
ENDBRANCH   2   3
BRANCH   2   6
ATOM      6  C   UNL     1      22.198 -44.531 -10.774  1.00  0.00     0.004 C 
ATOM      7  C   UNL     1      21.724 -45.979 -11.065  1.00  0.00     0.006 C 
ATOM      8  C   UNL     1      21.131 -43.970  -9.792  1.00  0.00    -0.020 C 
ATOM      9  C   UNL     1      20.275 -46.084 -10.548  1.00  0.00     0.012 C 
ATOM     10  C   UNL     1      19.825 -44.630 -10.326  1.00  0.00    -0.006 C 
ATOM     11  C   UNL     1      20.931 -42.443  -9.808  1.00  0.00     0.012 C 
ATOM     12  C   UNL     1      21.464 -44.402  -8.322  1.00  0.00     0.012 C 
ATOM     13  C   UNL     1      19.313 -44.090 -11.703  1.00  0.00     0.017 C 
ATOM     14  C   UNL     1      18.693 -44.364  -9.351  1.00  0.00    -0.064 C 
ATOM     15  C   UNL     1      19.647 -42.032  -9.029  1.00  0.00     0.032 C 
ATOM     16  C   UNL     1      18.567 -43.121  -8.790  1.00  0.00    -0.064 C 
ATOM     17  C   UNL     1      17.641 -45.406  -9.074  1.00  0.00     0.032 C 
ATOM     18  C   UNL     1      17.253 -42.765  -8.036  1.00  0.00    -0.008 C 
ATOM     19  C   UNL     1      17.334 -45.365  -7.591  1.00  0.00     0.009 C 
ATOM     20  C   UNL     1      16.716 -43.994  -7.146  1.00  0.00     0.007 C 
ATOM     21  C   UNL     1      16.257 -42.340  -9.158  1.00  0.00     0.014 C 
ATOM     22  C   UNL     1      17.507 -41.545  -7.105  1.00  0.00     0.016 C 
ATOM     23  C   UNL     1      15.135 -44.010  -6.858  1.00  0.00    -0.006 C 
ATOM     24  C   UNL     1      14.808 -42.242  -8.710  1.00  0.00     0.033 C 
ATOM     25  C   UNL     1      14.333 -43.579  -8.120  1.00  0.00     0.120 C 
ATOM     26  C   UNL     1      14.617 -45.421  -6.448  1.00  0.00     0.014 C 
ATOM     27  C   UNL     1      14.788 -43.087  -5.649  1.00  0.00     0.014 C 
BRANCH  25  28
ATOM     28  O   UNL     1      12.947 -43.553  -7.863  1.00  0.00    -0.393 OA
ATOM     29  H   UNL     1      12.475 -43.990  -8.621  1.00  0.00     0.210 HD
ENDBRANCH  25  28
ENDBRANCH   2   6
ENDBRANCH   1   2
BRANCH   1  30
ATOM     30  C   UNL     1      23.870 -43.285 -12.814  1.00  0.00     0.028 C 
BRANCH  30  31
ATOM     31  C   UNL     1      22.812 -42.220 -12.981  1.00  0.00    -0.028 C 
ATOM     32  C   UNL     1      21.750 -42.311 -13.814  1.00  0.00    -0.080 C 
ATOM     33  C   UNL     1      21.517 -43.513 -14.697  1.00  0.00     0.039 C 
ATOM     34  C   UNL     1      20.732 -41.200 -13.851  1.00  0.00     0.039 C 
ENDBRANCH  30  31
ENDBRANCH   1  30
TORSDOF 6
ENDMDL
MODEL 6
REMARK VINA RESULT:    -5.143      6.287      9.480
REMARK INTER + INTRA:          -8.687
REMARK INTER:                  -6.822
REMARK INTRA:                  -1.865
REMARK UNBOUND:                -1.890
REMARK SMILES CC(C)=CCC[C@H](C(=O)[O-])[C@H]1CC[C@@]2(C)C3=C(CC[C@]12C)[C@@]1(C)CC[C@H](O)C(C)(C)[C@H]1CC3
REMARK SMILES IDX 6 1 7 2 8 3 9 4 10 5 11 6 12 7 20 8 13 9 14 10 19 11 21 12
REMARK SMILES IDX 15 13 16 14 18 15 17 16 33 17 22 18 32 19 31 20 24 21 23 22
REMARK SMILES IDX 28 23 25 24 26 25 29 26 30 27 27 28 5 30 4 31 2 32 1 33 3 34
REMARK H PARENT 27 29
REMARK Flexibility Score: inf
ROOT
ATOM      1  C   UNL     1      26.785 -34.760 -13.073  1.00  0.00     0.014 C 
ENDROOT
BRANCH   1   2
ATOM      2  C   UNL     1      27.382 -34.924 -14.498  1.00  0.00     0.039 C 
BRANCH   2   3
ATOM      3  C   UNL     1      27.662 -33.576 -15.130  1.00  0.00     0.045 C 
ATOM      4  O   UNL     1      26.837 -32.629 -15.060  1.00  0.00    -0.550 OA
ATOM      5  O   UNL     1      28.895 -33.354 -15.735  1.00  0.00    -0.550 OA
ENDBRANCH   2   3
BRANCH   2   6
ATOM      6  C   UNL     1      26.619 -35.990 -15.368  1.00  0.00     0.004 C 
ATOM      7  C   UNL     1      26.311 -35.632 -16.846  1.00  0.00     0.006 C 
ATOM      8  C   UNL     1      27.199 -37.431 -15.438  1.00  0.00    -0.020 C 
ATOM      9  C   UNL     1      26.387 -36.948 -17.647  1.00  0.00     0.012 C 
ATOM     10  C   UNL     1      26.357 -38.062 -16.586  1.00  0.00    -0.006 C 
ATOM     11  C   UNL     1      27.011 -38.300 -14.180  1.00  0.00     0.012 C 
ATOM     12  C   UNL     1      28.731 -37.386 -15.773  1.00  0.00     0.012 C 
ATOM     13  C   UNL     1      24.854 -38.335 -16.246  1.00  0.00     0.017 C 
ATOM     14  C   UNL     1      26.934 -39.419 -16.946  1.00  0.00    -0.064 C 
ATOM     15  C   UNL     1      27.346 -39.793 -14.468  1.00  0.00     0.032 C 
ATOM     16  C   UNL     1      27.338 -40.263 -15.947  1.00  0.00    -0.064 C 
ATOM     17  C   UNL     1      26.967 -39.899 -18.374  1.00  0.00     0.032 C 
ATOM     18  C   UNL     1      27.644 -41.749 -16.295  1.00  0.00    -0.008 C 
ATOM     19  C   UNL     1      28.287 -40.610 -18.588  1.00  0.00     0.009 C 
ATOM     20  C   UNL     1      28.426 -41.892 -17.695  1.00  0.00     0.007 C 
ATOM     21  C   UNL     1      26.251 -42.449 -16.299  1.00  0.00     0.014 C 
ATOM     22  C   UNL     1      28.514 -42.375 -15.168  1.00  0.00     0.016 C 
ATOM     23  C   UNL     1      28.238 -43.292 -18.461  1.00  0.00    -0.006 C 
ATOM     24  C   UNL     1      26.245 -43.838 -16.915  1.00  0.00     0.033 C 
ATOM     25  C   UNL     1      26.768 -43.791 -18.359  1.00  0.00     0.120 C 
ATOM     26  C   UNL     1      28.582 -43.194 -19.977  1.00  0.00     0.014 C 
ATOM     27  C   UNL     1      29.219 -44.364 -17.894  1.00  0.00     0.014 C 
BRANCH  25  28
ATOM     28  O   UNL     1      26.603 -45.037 -18.996  1.00  0.00    -0.393 OA
ATOM     29  H   UNL     1      26.165 -45.664 -18.362  1.00  0.00     0.210 HD
ENDBRANCH  25  28
ENDBRANCH   2   6
ENDBRANCH   1   2
BRANCH   1  30
ATOM     30  C   UNL     1      27.813 -34.831 -11.931  1.00  0.00     0.028 C 
BRANCH  30  31
ATOM     31  C   UNL     1      28.918 -35.811 -12.240  1.00  0.00    -0.028 C 
ATOM     32  C   UNL     1      28.996 -37.069 -11.746  1.00  0.00    -0.080 C 
ATOM     33  C   UNL     1      27.964 -37.628 -10.797  1.00  0.00     0.039 C 
ATOM     34  C   UNL     1      30.125 -37.972 -12.174  1.00  0.00     0.039 C 
ENDBRANCH  30  31
ENDBRANCH   1  30
TORSDOF 6
ENDMDL
MODEL 7
REMARK VINA RESULT:    -5.115     11.998     16.268
REMARK INTER + INTRA:          -8.650
REMARK INTER:                  -6.990
REMARK INTRA:                  -1.660
REMARK UNBOUND:                -1.890
REMARK SMILES CC(C)=CCC[C@H](C(=O)[O-])[C@H]1CC[C@@]2(C)C3=C(CC[C@]12C)[C@@]1(C)CC[C@H](O)C(C)(C)[C@H]1CC3
REMARK SMILES IDX 6 1 7 2 8 3 9 4 10 5 11 6 12 7 20 8 13 9 14 10 19 11 21 12
REMARK SMILES IDX 15 13 16 14 18 15 17 16 33 17 22 18 32 19 31 20 24 21 23 22
REMARK SMILES IDX 28 23 25 24 26 25 29 26 30 27 27 28 5 30 4 31 2 32 1 33 3 34
REMARK H PARENT 27 29
REMARK Flexibility Score: inf
ROOT
ATOM      1  C   UNL     1      12.575 -39.891  -6.897  1.00  0.00     0.014 C 
ENDROOT
BRANCH   1   2
ATOM      2  C   UNL     1      12.531 -41.187  -7.752  1.00  0.00     0.039 C 
BRANCH   2   3
ATOM      3  C   UNL     1      11.107 -41.539  -8.135  1.00  0.00     0.045 C 
ATOM      4  O   UNL     1      10.804 -41.885  -9.305  1.00  0.00    -0.550 OA
ATOM      5  O   UNL     1      10.125 -41.557  -7.149  1.00  0.00    -0.550 OA
ENDBRANCH   2   3
BRANCH   2   6
ATOM      6  C   UNL     1      13.434 -42.339  -7.176  1.00  0.00     0.004 C 
ATOM      7  C   UNL     1      13.088 -43.798  -7.573  1.00  0.00     0.006 C 
ATOM      8  C   UNL     1      14.971 -42.241  -7.386  1.00  0.00    -0.020 C 
ATOM      9  C   UNL     1      14.424 -44.565  -7.656  1.00  0.00     0.012 C 
ATOM     10  C   UNL     1      15.447 -43.659  -6.950  1.00  0.00    -0.006 C 
ATOM     11  C   UNL     1      15.710 -41.206  -6.518  1.00  0.00     0.012 C 
ATOM     12  C   UNL     1      15.297 -41.936  -8.890  1.00  0.00     0.012 C 
ATOM     13  C   UNL     1      15.349 -43.959  -5.417  1.00  0.00     0.017 C 
ATOM     14  C   UNL     1      16.916 -43.824  -7.293  1.00  0.00    -0.064 C 
ATOM     15  C   UNL     1      17.253 -41.408  -6.585  1.00  0.00     0.032 C 
ATOM     16  C   UNL     1      17.781 -42.788  -7.059  1.00  0.00    -0.064 C 
ATOM     17  C   UNL     1      17.461 -45.142  -7.780  1.00  0.00     0.032 C 
ATOM     18  C   UNL     1      19.313 -43.057  -7.127  1.00  0.00    -0.008 C 
ATOM     19  C   UNL     1      18.466 -44.846  -8.873  1.00  0.00     0.009 C 
ATOM     20  C   UNL     1      19.700 -44.034  -8.345  1.00  0.00     0.007 C 
ATOM     21  C   UNL     1      19.672 -43.648  -5.730  1.00  0.00     0.014 C 
ATOM     22  C   UNL     1      20.065 -41.708  -7.306  1.00  0.00     0.016 C 
ATOM     23  C   UNL     1      21.055 -44.878  -8.161  1.00  0.00    -0.006 C 
ATOM     24  C   UNL     1      21.050 -44.282  -5.649  1.00  0.00     0.033 C 
ATOM     25  C   UNL     1      21.197 -45.394  -6.700  1.00  0.00     0.120 C 
ATOM     26  C   UNL     1      21.114 -46.125  -9.092  1.00  0.00     0.014 C 
ATOM     27  C   UNL     1      22.296 -44.020  -8.559  1.00  0.00     0.014 C 
BRANCH  25  28
ATOM     28  O   UNL     1      22.402 -46.103  -6.520  1.00  0.00    -0.393 OA
ATOM     29  H   UNL     1      22.356 -46.946  -7.044  1.00  0.00     0.210 HD
ENDBRANCH  25  28
ENDBRANCH   2   6
ENDBRANCH   1   2
BRANCH   1  30
ATOM     30  C   UNL     1      12.690 -38.588  -7.707  1.00  0.00     0.028 C 
BRANCH  30  31
ATOM     31  C   UNL     1      14.074 -38.414  -8.283  1.00  0.00    -0.028 C 
ATOM     32  C   UNL     1      14.398 -38.603  -9.583  1.00  0.00    -0.080 C 
ATOM     33  C   UNL     1      13.384 -39.035 -10.614  1.00  0.00     0.039 C 
ATOM     34  C   UNL     1      15.809 -38.344 -10.047  1.00  0.00     0.039 C 
ENDBRANCH  30  31
ENDBRANCH   1  30
TORSDOF 6
ENDMDL
MODEL 8
REMARK VINA RESULT:    -5.076      2.177      3.228
REMARK INTER + INTRA:          -8.598
REMARK INTER:                  -6.724
REMARK INTRA:                  -1.874
REMARK UNBOUND:                -1.890
REMARK SMILES CC(C)=CCC[C@H](C(=O)[O-])[C@H]1CC[C@@]2(C)C3=C(CC[C@]12C)[C@@]1(C)CC[C@H](O)C(C)(C)[C@H]1CC3
REMARK SMILES IDX 6 1 7 2 8 3 9 4 10 5 11 6 12 7 20 8 13 9 14 10 19 11 21 12
REMARK SMILES IDX 15 13 16 14 18 15 17 16 33 17 22 18 32 19 31 20 24 21 23 22
REMARK SMILES IDX 28 23 25 24 26 25 29 26 30 27 27 28 5 30 4 31 2 32 1 33 3 34
REMARK H PARENT 27 29
REMARK Flexibility Score: inf
ROOT
ATOM      1  C   UNL     1      27.917 -44.158 -17.121  1.00  0.00     0.014 C 
ENDROOT
BRANCH   1   2
ATOM      2  C   UNL     1      27.109 -42.833 -17.055  1.00  0.00     0.039 C 
BRANCH   2   3
ATOM      3  C   UNL     1      27.622 -41.938 -15.945  1.00  0.00     0.045 C 
ATOM      4  O   UNL     1      27.841 -40.713 -16.132  1.00  0.00    -0.550 OA
ATOM      5  O   UNL     1      27.778 -42.464 -14.667  1.00  0.00    -0.550 OA
ENDBRANCH   2   3
BRANCH   2   6
ATOM      6  C   UNL     1      25.554 -43.052 -17.153  1.00  0.00     0.004 C 
ATOM      7  C   UNL     1      24.641 -42.167 -16.265  1.00  0.00     0.006 C 
ATOM      8  C   UNL     1      24.892 -42.992 -18.559  1.00  0.00    -0.020 C 
ATOM      9  C   UNL     1      23.344 -41.924 -17.063  1.00  0.00     0.012 C 
ATOM     10  C   UNL     1      23.377 -42.961 -18.199  1.00  0.00    -0.006 C 
ATOM     11  C   UNL     1      25.136 -44.205 -19.476  1.00  0.00     0.012 C 
ATOM     12  C   UNL     1      25.354 -41.703 -19.324  1.00  0.00     0.012 C 
ATOM     13  C   UNL     1      22.794 -44.295 -17.624  1.00  0.00     0.017 C 
ATOM     14  C   UNL     1      22.568 -42.685 -19.454  1.00  0.00    -0.064 C 
ATOM     15  C   UNL     1      24.190 -44.180 -20.711  1.00  0.00     0.032 C 
ATOM     16  C   UNL     1      22.908 -43.310 -20.623  1.00  0.00    -0.064 C 
ATOM     17  C   UNL     1      21.333 -41.823 -19.411  1.00  0.00     0.032 C 
ATOM     18  C   UNL     1      21.913 -43.262 -21.819  1.00  0.00    -0.008 C 
ATOM     19  C   UNL     1      21.330 -40.964 -20.658  1.00  0.00     0.009 C 
ATOM     20  C   UNL     1      21.222 -41.816 -21.971  1.00  0.00     0.007 C 
ATOM     21  C   UNL     1      20.890 -44.402 -21.528  1.00  0.00     0.014 C 
ATOM     22  C   UNL     1      22.671 -43.596 -23.135  1.00  0.00     0.016 C 
ATOM     23  C   UNL     1      19.784 -41.800 -22.688  1.00  0.00    -0.006 C 
ATOM     24  C   UNL     1      19.638 -44.360 -22.388  1.00  0.00     0.033 C 
ATOM     25  C   UNL     1      18.919 -43.011 -22.232  1.00  0.00     0.120 C 
ATOM     26  C   UNL     1      18.970 -40.512 -22.367  1.00  0.00     0.014 C 
ATOM     27  C   UNL     1      19.945 -41.799 -24.240  1.00  0.00     0.014 C 
BRANCH  25  28
ATOM     28  O   UNL     1      17.671 -43.026 -22.886  1.00  0.00    -0.393 OA
ATOM     29  H   UNL     1      16.955 -43.123 -22.203  1.00  0.00     0.210 HD
ENDBRANCH  25  28
ENDBRANCH   2   6
ENDBRANCH   1   2
BRANCH   1  30
ATOM     30  C   UNL     1      29.148 -44.118 -18.043  1.00  0.00     0.028 C 
BRANCH  30  31
ATOM     31  C   UNL     1      28.759 -44.271 -19.494  1.00  0.00    -0.028 C 
ATOM     32  C   UNL     1      28.682 -43.255 -20.384  1.00  0.00    -0.080 C 
ATOM     33  C   UNL     1      28.970 -41.823 -20.002  1.00  0.00     0.039 C 
ATOM     34  C   UNL     1      28.334 -43.546 -21.822  1.00  0.00     0.039 C 
ENDBRANCH  30  31
ENDBRANCH   1  30
TORSDOF 6
ENDMDL
MODEL 9
REMARK VINA RESULT:    -4.465     12.117     14.015
REMARK INTER + INTRA:          -7.791
REMARK INTER:                  -5.917
REMARK INTRA:                  -1.874
REMARK UNBOUND:                -1.890
REMARK SMILES CC(C)=CCC[C@H](C(=O)[O-])[C@H]1CC[C@@]2(C)C3=C(CC[C@]12C)[C@@]1(C)CC[C@H](O)C(C)(C)[C@H]1CC3
REMARK SMILES IDX 6 1 7 2 8 3 9 4 10 5 11 6 12 7 20 8 13 9 14 10 19 11 21 12
REMARK SMILES IDX 15 13 16 14 18 15 17 16 33 17 22 18 32 19 31 20 24 21 23 22
REMARK SMILES IDX 28 23 25 24 26 25 29 26 30 27 27 28 5 30 4 31 2 32 1 33 3 34
REMARK H PARENT 27 29
REMARK Flexibility Score: inf
ROOT
ATOM      1  C   UNL     1      28.997 -34.020 -16.057  1.00  0.00     0.014 C 
ENDROOT
BRANCH   1   2
ATOM      2  C   UNL     1      27.521 -34.027 -15.575  1.00  0.00     0.039 C 
BRANCH   2   3
ATOM      3  C   UNL     1      26.599 -34.567 -16.650  1.00  0.00     0.045 C 
ATOM      4  O   UNL     1      26.713 -34.221 -17.854  1.00  0.00    -0.550 OA
ATOM      5  O   UNL     1      25.654 -35.530 -16.311  1.00  0.00    -0.550 OA
ENDBRANCH   2   3
BRANCH   2   6
ATOM      6  C   UNL     1      27.098 -32.691 -14.860  1.00  0.00     0.004 C 
ATOM      7  C   UNL     1      25.758 -32.034 -15.285  1.00  0.00     0.006 C 
ATOM      8  C   UNL     1      27.056 -32.671 -13.306  1.00  0.00    -0.020 C 
ATOM      9  C   UNL     1      25.172 -31.366 -14.025  1.00  0.00     0.012 C 
ATOM     10  C   UNL     1      26.335 -31.320 -13.021  1.00  0.00    -0.006 C 
ATOM     11  C   UNL     1      28.420 -32.642 -12.591  1.00  0.00     0.012 C 
ATOM     12  C   UNL     1      26.251 -33.906 -12.768  1.00  0.00     0.012 C 
ATOM     13  C   UNL     1      27.168 -30.034 -13.337  1.00  0.00     0.017 C 
ATOM     14  C   UNL     1      26.010 -31.227 -11.541  1.00  0.00    -0.064 C 
ATOM     15  C   UNL     1      28.258 -32.314 -11.077  1.00  0.00     0.032 C 
ATOM     16  C   UNL     1      26.941 -31.632 -10.622  1.00  0.00    -0.064 C 
ATOM     17  C   UNL     1      24.729 -30.594 -11.062  1.00  0.00     0.032 C 
ATOM     18  C   UNL     1      26.730 -31.262  -9.125  1.00  0.00    -0.008 C 
ATOM     19  C   UNL     1      24.214 -31.423  -9.904  1.00  0.00     0.009 C 
ATOM     20  C   UNL     1      25.191 -31.409  -8.677  1.00  0.00     0.007 C 
ATOM     21  C   UNL     1      27.268 -29.803  -8.999  1.00  0.00     0.014 C 
ATOM     22  C   UNL     1      27.603 -32.193  -8.235  1.00  0.00     0.016 C 
ATOM     23  C   UNL     1      24.733 -30.493  -7.439  1.00  0.00    -0.006 C 
ATOM     24  C   UNL     1      26.891 -29.102  -7.705  1.00  0.00     0.033 C 
ATOM     25  C   UNL     1      25.364 -29.074  -7.530  1.00  0.00     0.120 C 
ATOM     26  C   UNL     1      23.188 -30.301  -7.377  1.00  0.00     0.014 C 
ATOM     27  C   UNL     1      25.108 -31.171  -6.085  1.00  0.00     0.014 C 
BRANCH  25  28
ATOM     28  O   UNL     1      24.997 -28.277  -6.427  1.00  0.00    -0.393 OA
ATOM     29  H   UNL     1      25.743 -28.280  -5.770  1.00  0.00     0.210 HD
ENDBRANCH  25  28
ENDBRANCH   2   6
ENDBRANCH   1   2
BRANCH   1  30
ATOM     30  C   UNL     1      29.810 -35.265 -15.662  1.00  0.00     0.028 C 
BRANCH  30  31
ATOM     31  C   UNL     1      30.125 -35.275 -14.186  1.00  0.00    -0.028 C 
ATOM     32  C   UNL     1      29.531 -36.081 -13.275  1.00  0.00    -0.080 C 
ATOM     33  C   UNL     1      28.453 -37.069 -13.652  1.00  0.00     0.039 C 
ATOM     34  C   UNL     1      29.973 -36.034 -11.834  1.00  0.00     0.039 C 
ENDBRANCH  30  31
ENDBRANCH   1  30
TORSDOF 6
ENDMDL
