MODEL 1
REMARK VINA RESULT:    -4.346      0.000      0.000
REMARK INTER + INTRA:         -10.137
REMARK INTER:                  -7.902
REMARK INTRA:                  -2.235
REMARK UNBOUND:                -2.235
REMARK SMILES CCCCCCCCCCCCCC[C@@H](C)C(=O)[O-]
REMARK SMILES IDX 9 1 10 2 11 3 12 4 13 5 14 6 15 7 16 8 17 9 18 10 19 11 8 12
REMARK SMILES IDX 7 13 6 14 5 15 4 16 3 17 2 18 1 19
REMARK H PARENT
REMARK Flexibility Score: inf
ROOT
ATOM      1  C   UNL     1     -10.896   2.007  19.805  1.00  0.00     0.000 C 
ENDROOT
BRANCH   1   2
ATOM      2  C   UNL     1     -10.914   3.511  20.130  1.00  0.00     0.000 C 
BRANCH   2   3
ATOM      3  C   UNL     1     -11.493   4.353  18.982  1.00  0.00     0.000 C 
BRANCH   3   4
ATOM      4  C   UNL     1     -12.673   3.659  18.279  1.00  0.00     0.000 C 
BRANCH   4   5
ATOM      5  C   UNL     1     -12.487   3.553  16.757  1.00  0.00     0.001 C 
BRANCH   5   6
ATOM      6  C   UNL     1     -12.029   2.174  16.224  1.00  0.00     0.009 C 
BRANCH   6   7
ATOM      7  C   UNL     1     -10.765   2.140  15.324  1.00  0.00     0.032 C 
ATOM      8  C   UNL     1      -9.480   2.544  16.064  1.00  0.00     0.014 C 
BRANCH   7   9
ATOM      9  C   UNL     1     -10.613   0.842  14.576  1.00  0.00     0.044 C 
ATOM     10  O   UNL     1      -9.512   0.228  14.559  1.00  0.00    -0.550 OA
ATOM     11  O   UNL     1     -11.712   0.286  13.935  1.00  0.00    -0.550 OA
ENDBRANCH   7   9
ENDBRANCH   6   7
ENDBRANCH   5   6
ENDBRANCH   4   5
ENDBRANCH   3   4
ENDBRANCH   2   3
ENDBRANCH   1   2
BRANCH   1  12
ATOM     12  C   UNL     1      -9.478   1.476  19.543  1.00  0.00     0.000 C 
BRANCH  12  13
ATOM     13  C   UNL     1      -9.444  -0.045  19.326  1.00  0.00    -0.000 C 
BRANCH  13  14
ATOM     14  C   UNL     1     -10.018  -0.785  20.543  1.00  0.00    -0.000 C 
BRANCH  14  15
ATOM     15  C   UNL     1      -8.981  -0.995  21.662  1.00  0.00    -0.000 C 
BRANCH  15  16
ATOM     16  C   UNL     1      -9.296  -0.278  22.989  1.00  0.00    -0.000 C 
BRANCH  16  17
ATOM     17  C   UNL     1     -10.701   0.350  23.074  1.00  0.00    -0.000 C 
BRANCH  17  18
ATOM     18  C   UNL     1     -10.696   1.825  23.530  1.00  0.00    -0.003 C 
ATOM     19  C   UNL     1      -9.310   2.464  23.450  1.00  0.00     0.004 C 
ENDBRANCH  17  18
ENDBRANCH  16  17
ENDBRANCH  15  16
ENDBRANCH  14  15
ENDBRANCH  13  14
ENDBRANCH  12  13
ENDBRANCH   1  12
TORSDOF 14
ENDMDL
MODEL 2
REMARK VINA RESULT:    -4.302      1.084      2.033
REMARK INTER + INTRA:         -10.058
REMARK INTER:                  -7.860
REMARK INTRA:                  -2.198
REMARK UNBOUND:                -2.235
REMARK SMILES CCCCCCCCCCCCCC[C@@H](C)C(=O)[O-]
REMARK SMILES IDX 9 1 10 2 11 3 12 4 13 5 14 6 15 7 16 8 17 9 18 10 19 11 8 12
REMARK SMILES IDX 7 13 6 14 5 15 4 16 3 17 2 18 1 19
REMARK H PARENT
REMARK Flexibility Score: inf
ROOT
ATOM      1  C   UNL     1     -11.306   3.302  20.121  1.00  0.00     0.000 C 
ENDROOT
BRANCH   1   2
ATOM      2  C   UNL     1     -12.283   3.759  19.023  1.00  0.00     0.000 C 
BRANCH   2   3
ATOM      3  C   UNL     1     -11.598   4.619  17.949  1.00  0.00     0.000 C 
BRANCH   3   4
ATOM      4  C   UNL     1     -11.991   4.204  16.520  1.00  0.00     0.000 C 
BRANCH   4   5
ATOM      5  C   UNL     1     -12.704   2.844  16.464  1.00  0.00     0.001 C 
BRANCH   5   6
ATOM      6  C   UNL     1     -11.797   1.611  16.239  1.00  0.00     0.009 C 
BRANCH   6   7
ATOM      7  C   UNL     1     -10.727   1.706  15.119  1.00  0.00     0.032 C 
ATOM      8  C   UNL     1      -9.338   2.112  15.638  1.00  0.00     0.014 C 
BRANCH   7   9
ATOM      9  C   UNL     1     -10.678   0.479  14.248  1.00  0.00     0.044 C 
ATOM     10  O   UNL     1     -11.737  -0.076  13.848  1.00  0.00    -0.550 OA
ATOM     11  O   UNL     1      -9.450  -0.022  13.835  1.00  0.00    -0.550 OA
ENDBRANCH   7   9
ENDBRANCH   6   7
ENDBRANCH   5   6
ENDBRANCH   4   5
ENDBRANCH   3   4
ENDBRANCH   2   3
ENDBRANCH   1   2
BRANCH   1  12
ATOM     12  C   UNL     1      -9.838   3.579  19.759  1.00  0.00     0.000 C 
BRANCH  12  13
ATOM     13  C   UNL     1      -8.948   2.334  19.892  1.00  0.00    -0.000 C 
BRANCH  13  14
ATOM     14  C   UNL     1      -9.420   1.219  18.947  1.00  0.00    -0.000 C 
BRANCH  14  15
ATOM     15  C   UNL     1      -8.883  -0.169  19.341  1.00  0.00    -0.000 C 
BRANCH  15  16
ATOM     16  C   UNL     1      -9.797  -0.981  20.279  1.00  0.00    -0.000 C 
BRANCH  16  17
ATOM     17  C   UNL     1     -11.277  -0.552  20.282  1.00  0.00    -0.000 C 
BRANCH  17  18
ATOM     18  C   UNL     1     -11.774  -0.038  21.650  1.00  0.00    -0.003 C 
ATOM     19  C   UNL     1     -10.633   0.408  22.564  1.00  0.00     0.004 C 
ENDBRANCH  17  18
ENDBRANCH  16  17
ENDBRANCH  15  16
ENDBRANCH  14  15
ENDBRANCH  13  14
ENDBRANCH  12  13
ENDBRANCH   1  12
TORSDOF 14
ENDMDL
MODEL 3
REMARK VINA RESULT:    -4.227      1.579      2.517
REMARK INTER + INTRA:          -9.921
REMARK INTER:                  -8.384
REMARK INTRA:                  -1.537
REMARK UNBOUND:                -2.235
REMARK SMILES CCCCCCCCCCCCCC[C@@H](C)C(=O)[O-]
REMARK SMILES IDX 9 1 10 2 11 3 12 4 13 5 14 6 15 7 16 8 17 9 18 10 19 11 8 12
REMARK SMILES IDX 7 13 6 14 5 15 4 16 3 17 2 18 1 19
REMARK H PARENT
REMARK Flexibility Score: inf
ROOT
ATOM      1  C   UNL     1     -10.453   0.321  19.060  1.00  0.00     0.000 C 
ENDROOT
BRANCH   1   2
ATOM      2  C   UNL     1      -9.064   0.980  18.980  1.00  0.00     0.000 C 
BRANCH   2   3
ATOM      3  C   UNL     1      -9.129   2.507  19.145  1.00  0.00     0.000 C 
BRANCH   3   4
ATOM      4  C   UNL     1      -8.598   3.257  17.911  1.00  0.00     0.000 C 
BRANCH   4   5
ATOM      5  C   UNL     1      -9.663   3.451  16.820  1.00  0.00     0.001 C 
BRANCH   5   6
ATOM      6  C   UNL     1      -9.581   2.487  15.613  1.00  0.00     0.009 C 
BRANCH   6   7
ATOM      7  C   UNL     1     -10.619   1.335  15.545  1.00  0.00     0.032 C 
ATOM      8  C   UNL     1     -12.044   1.778  15.915  1.00  0.00     0.014 C 
BRANCH   7   9
ATOM      9  C   UNL     1     -10.572   0.578  14.244  1.00  0.00     0.044 C 
ATOM     10  O   UNL     1      -9.473   0.321  13.683  1.00  0.00    -0.550 OA
ATOM     11  O   UNL     1     -11.751   0.112  13.678  1.00  0.00    -0.550 OA
ENDBRANCH   7   9
ENDBRANCH   6   7
ENDBRANCH   5   6
ENDBRANCH   4   5
ENDBRANCH   3   4
ENDBRANCH   2   3
ENDBRANCH   1   2
BRANCH   1  12
ATOM     12  C   UNL     1     -10.706  -0.362  20.413  1.00  0.00     0.000 C 
BRANCH  12  13
ATOM     13  C   UNL     1      -9.587  -1.340  20.804  1.00  0.00    -0.000 C 
BRANCH  13  14
ATOM     14  C   UNL     1      -8.872  -0.873  22.080  1.00  0.00    -0.000 C 
BRANCH  14  15
ATOM     15  C   UNL     1      -9.645   0.226  22.833  1.00  0.00    -0.000 C 
BRANCH  15  16
ATOM     16  C   UNL     1      -9.975  -0.099  24.302  1.00  0.00    -0.000 C 
BRANCH  16  17
ATOM     17  C   UNL     1     -11.402   0.273  24.749  1.00  0.00    -0.000 C 
BRANCH  17  18
ATOM     18  C   UNL     1     -12.451   0.183  23.620  1.00  0.00    -0.003 C 
ATOM     19  C   UNL     1     -13.805  -0.327  24.111  1.00  0.00     0.004 C 
ENDBRANCH  17  18
ENDBRANCH  16  17
ENDBRANCH  15  16
ENDBRANCH  14  15
ENDBRANCH  13  14
ENDBRANCH  12  13
ENDBRANCH   1  12
TORSDOF 14
ENDMDL
MODEL 4
REMARK VINA RESULT:    -4.215      1.598      3.209
REMARK INTER + INTRA:          -9.899
REMARK INTER:                  -7.493
REMARK INTRA:                  -2.407
REMARK UNBOUND:                -2.235
REMARK SMILES CCCCCCCCCCCCCC[C@@H](C)C(=O)[O-]
REMARK SMILES IDX 9 1 10 2 11 3 12 4 13 5 14 6 15 7 16 8 17 9 18 10 19 11 8 12
REMARK SMILES IDX 7 13 6 14 5 15 4 16 3 17 2 18 1 19
REMARK H PARENT
REMARK Flexibility Score: inf
ROOT
ATOM      1  C   UNL     1     -12.521   4.333  18.597  1.00  0.00     0.000 C 
ENDROOT
BRANCH   1   2
ATOM      2  C   UNL     1     -11.510   5.137  17.761  1.00  0.00     0.000 C 
BRANCH   2   3
ATOM      3  C   UNL     1     -10.095   5.102  18.359  1.00  0.00     0.000 C 
BRANCH   3   4
ATOM      4  C   UNL     1      -9.151   4.163  17.588  1.00  0.00     0.000 C 
BRANCH   4   5
ATOM      5  C   UNL     1      -9.797   3.562  16.330  1.00  0.00     0.001 C 
BRANCH   5   6
ATOM      6  C   UNL     1      -9.488   2.071  16.054  1.00  0.00     0.009 C 
BRANCH   6   7
ATOM      7  C   UNL     1     -10.681   1.152  15.680  1.00  0.00     0.032 C 
ATOM      8  C   UNL     1     -12.052   1.795  15.945  1.00  0.00     0.014 C 
BRANCH   7   9
ATOM      9  C   UNL     1     -10.571   0.585  14.289  1.00  0.00     0.044 C 
ATOM     10  O   UNL     1      -9.555   0.806  13.577  1.00  0.00    -0.550 OA
ATOM     11  O   UNL     1     -11.580  -0.234  13.800  1.00  0.00    -0.550 OA
ENDBRANCH   7   9
ENDBRANCH   6   7
ENDBRANCH   5   6
ENDBRANCH   4   5
ENDBRANCH   3   4
ENDBRANCH   2   3
ENDBRANCH   1   2
BRANCH   1  12
ATOM     12  C   UNL     1     -12.108   4.218  20.073  1.00  0.00     0.000 C 
BRANCH  12  13
ATOM     13  C   UNL     1     -11.925   2.761  20.527  1.00  0.00    -0.000 C 
BRANCH  13  14
ATOM     14  C   UNL     1     -10.620   2.594  21.320  1.00  0.00    -0.000 C 
BRANCH  14  15
ATOM     15  C   UNL     1      -9.500   1.929  20.498  1.00  0.00    -0.000 C 
BRANCH  15  16
ATOM     16  C   UNL     1      -9.980   0.924  19.435  1.00  0.00    -0.000 C 
BRANCH  16  17
ATOM     17  C   UNL     1      -9.272  -0.445  19.463  1.00  0.00    -0.000 C 
BRANCH  17  18
ATOM     18  C   UNL     1     -10.095  -1.557  20.147  1.00  0.00    -0.003 C 
ATOM     19  C   UNL     1     -11.602  -1.327  20.042  1.00  0.00     0.004 C 
ENDBRANCH  17  18
ENDBRANCH  16  17
ENDBRANCH  15  16
ENDBRANCH  14  15
ENDBRANCH  13  14
ENDBRANCH  12  13
ENDBRANCH   1  12
TORSDOF 14
ENDMDL
MODEL 5
REMARK VINA RESULT:    -4.194      1.261      2.181
REMARK INTER + INTRA:          -9.861
REMARK INTER:                  -7.654
REMARK INTRA:                  -2.207
REMARK UNBOUND:                -2.235
REMARK SMILES CCCCCCCCCCCCCC[C@@H](C)C(=O)[O-]
REMARK SMILES IDX 9 1 10 2 11 3 12 4 13 5 14 6 15 7 16 8 17 9 18 10 19 11 8 12
REMARK SMILES IDX 7 13 6 14 5 15 4 16 3 17 2 18 1 19
REMARK H PARENT
REMARK Flexibility Score: inf
ROOT
ATOM      1  C   UNL     1      -9.416   2.222  19.758  1.00  0.00     0.000 C 
ENDROOT
BRANCH   1   2
ATOM      2  C   UNL     1     -10.699   3.015  19.454  1.00  0.00     0.000 C 
BRANCH   2   3
ATOM      3  C   UNL     1     -10.419   4.304  18.666  1.00  0.00     0.000 C 
BRANCH   3   4
ATOM      4  C   UNL     1      -9.295   4.131  17.629  1.00  0.00     0.000 C 
BRANCH   4   5
ATOM      5  C   UNL     1      -9.805   3.635  16.267  1.00  0.00     0.001 C 
BRANCH   5   6
ATOM      6  C   UNL     1      -9.385   2.201  15.866  1.00  0.00     0.009 C 
BRANCH   6   7
ATOM      7  C   UNL     1     -10.511   1.146  15.700  1.00  0.00     0.032 C 
ATOM      8  C   UNL     1     -11.890   1.652  16.153  1.00  0.00     0.014 C 
BRANCH   7   9
ATOM      9  C   UNL     1     -10.546   0.538  14.322  1.00  0.00     0.044 C 
ATOM     10  O   UNL     1     -11.633   0.160  13.808  1.00  0.00    -0.550 OA
ATOM     11  O   UNL     1      -9.373   0.437  13.586  1.00  0.00    -0.550 OA
ENDBRANCH   7   9
ENDBRANCH   6   7
ENDBRANCH   5   6
ENDBRANCH   4   5
ENDBRANCH   3   4
ENDBRANCH   2   3
ENDBRANCH   1   2
BRANCH   1  12
ATOM     12  C   UNL     1      -9.489   0.767  19.266  1.00  0.00     0.000 C 
BRANCH  12  13
ATOM     13  C   UNL     1     -10.900   0.171  19.383  1.00  0.00    -0.000 C 
BRANCH  13  14
ATOM     14  C   UNL     1     -11.121  -0.446  20.772  1.00  0.00    -0.000 C 
BRANCH  14  15
ATOM     15  C   UNL     1     -12.045   0.402  21.665  1.00  0.00    -0.000 C 
BRANCH  15  16
ATOM     16  C   UNL     1     -11.553   0.599  23.112  1.00  0.00    -0.000 C 
BRANCH  16  17
ATOM     17  C   UNL     1     -10.063   0.964  23.252  1.00  0.00    -0.000 C 
BRANCH  17  18
ATOM     18  C   UNL     1      -9.223  -0.111  23.973  1.00  0.00    -0.003 C 
ATOM     19  C   UNL     1      -9.811  -0.511  25.326  1.00  0.00     0.004 C 
ENDBRANCH  17  18
ENDBRANCH  16  17
ENDBRANCH  15  16
ENDBRANCH  14  15
ENDBRANCH  13  14
ENDBRANCH  12  13
ENDBRANCH   1  12
TORSDOF 14
ENDMDL
MODEL 6
REMARK VINA RESULT:    -4.183      1.500      2.692
REMARK INTER + INTRA:          -9.841
REMARK INTER:                  -7.323
REMARK INTRA:                  -2.518
REMARK UNBOUND:                -2.235
REMARK SMILES CCCCCCCCCCCCCC[C@@H](C)C(=O)[O-]
REMARK SMILES IDX 9 1 10 2 11 3 12 4 13 5 14 6 15 7 16 8 17 9 18 10 19 11 8 12
REMARK SMILES IDX 7 13 6 14 5 15 4 16 3 17 2 18 1 19
REMARK H PARENT
REMARK Flexibility Score: inf
ROOT
ATOM      1  C   UNL     1     -12.429   2.397  21.157  1.00  0.00     0.000 C 
ENDROOT
BRANCH   1   2
ATOM      2  C   UNL     1     -11.816   3.807  21.205  1.00  0.00     0.000 C 
BRANCH   2   3
ATOM      3  C   UNL     1     -11.833   4.502  19.834  1.00  0.00     0.000 C 
BRANCH   3   4
ATOM      4  C   UNL     1     -12.565   3.675  18.763  1.00  0.00     0.000 C 
BRANCH   4   5
ATOM      5  C   UNL     1     -11.776   3.560  17.449  1.00  0.00     0.001 C 
BRANCH   5   6
ATOM      6  C   UNL     1     -11.865   2.199  16.720  1.00  0.00     0.009 C 
BRANCH   6   7
ATOM      7  C   UNL     1     -11.029   2.026  15.424  1.00  0.00     0.032 C 
ATOM      8  C   UNL     1      -9.524   2.250  15.636  1.00  0.00     0.014 C 
BRANCH   7   9
ATOM      9  C   UNL     1     -11.322   0.735  14.705  1.00  0.00     0.044 C 
ATOM     10  O   UNL     1     -10.417   0.121  14.080  1.00  0.00    -0.550 OA
ATOM     11  O   UNL     1     -12.596   0.185  14.772  1.00  0.00    -0.550 OA
ENDBRANCH   7   9
ENDBRANCH   6   7
ENDBRANCH   5   6
ENDBRANCH   4   5
ENDBRANCH   3   4
ENDBRANCH   2   3
ENDBRANCH   1   2
BRANCH   1  12
ATOM     12  C   UNL     1     -11.658   1.386  22.020  1.00  0.00     0.000 C 
BRANCH  12  13
ATOM     13  C   UNL     1     -11.611  -0.016  21.395  1.00  0.00    -0.000 C 
BRANCH  13  14
ATOM     14  C   UNL     1     -11.189   0.055  19.920  1.00  0.00    -0.000 C 
BRANCH  14  15
ATOM     15  C   UNL     1      -9.663  -0.015  19.728  1.00  0.00    -0.000 C 
BRANCH  15  16
ATOM     16  C   UNL     1      -9.051   1.151  18.928  1.00  0.00    -0.000 C 
BRANCH  16  17
ATOM     17  C   UNL     1      -8.826   2.447  19.731  1.00  0.00    -0.000 C 
BRANCH  17  18
ATOM     18  C   UNL     1      -8.221   3.597  18.899  1.00  0.00    -0.003 C 
ATOM     19  C   UNL     1      -6.698   3.518  18.800  1.00  0.00     0.004 C 
ENDBRANCH  17  18
ENDBRANCH  16  17
ENDBRANCH  15  16
ENDBRANCH  14  15
ENDBRANCH  13  14
ENDBRANCH  12  13
ENDBRANCH   1  12
TORSDOF 14
ENDMDL
MODEL 7
REMARK VINA RESULT:    -4.159      3.490      6.995
REMARK INTER + INTRA:          -9.797
REMARK INTER:                  -7.812
REMARK INTRA:                  -1.985
REMARK UNBOUND:                -2.235
REMARK SMILES CCCCCCCCCCCCCC[C@@H](C)C(=O)[O-]
REMARK SMILES IDX 9 1 10 2 11 3 12 4 13 5 14 6 15 7 16 8 17 9 18 10 19 11 8 12
REMARK SMILES IDX 7 13 6 14 5 15 4 16 3 17 2 18 1 19
REMARK H PARENT
REMARK Flexibility Score: inf
ROOT
ATOM      1  C   UNL     1      -9.415   3.936  19.504  1.00  0.00     0.000 C 
ENDROOT
BRANCH   1   2
ATOM      2  C   UNL     1      -8.695   2.577  19.487  1.00  0.00     0.000 C 
BRANCH   2   3
ATOM      3  C   UNL     1      -9.636   1.418  19.123  1.00  0.00     0.000 C 
BRANCH   3   4
ATOM      4  C   UNL     1      -8.930   0.051  19.153  1.00  0.00     0.000 C 
BRANCH   4   5
ATOM      5  C   UNL     1      -9.626  -0.966  20.070  1.00  0.00     0.001 C 
BRANCH   5   6
ATOM      6  C   UNL     1      -9.405  -0.774  21.589  1.00  0.00     0.009 C 
BRANCH   6   7
ATOM      7  C   UNL     1     -10.280   0.286  22.310  1.00  0.00     0.032 C 
ATOM      8  C   UNL     1     -11.751   0.266  21.864  1.00  0.00     0.014 C 
BRANCH   7   9
ATOM      9  C   UNL     1     -10.134   0.246  23.809  1.00  0.00     0.044 C 
ATOM     10  O   UNL     1      -9.283  -0.503  24.358  1.00  0.00    -0.550 OA
ATOM     11  O   UNL     1     -10.914   1.083  24.597  1.00  0.00    -0.550 OA
ENDBRANCH   7   9
ENDBRANCH   6   7
ENDBRANCH   5   6
ENDBRANCH   4   5
ENDBRANCH   3   4
ENDBRANCH   2   3
ENDBRANCH   1   2
BRANCH   1  12
ATOM     12  C   UNL     1     -10.944   3.795  19.563  1.00  0.00     0.000 C 
BRANCH  12  13
ATOM     13  C   UNL     1     -11.643   4.371  18.322  1.00  0.00    -0.000 C 
BRANCH  13  14
ATOM     14  C   UNL     1     -12.544   3.317  17.661  1.00  0.00    -0.000 C 
BRANCH  14  15
ATOM     15  C   UNL     1     -11.965   2.776  16.341  1.00  0.00    -0.000 C 
BRANCH  15  16
ATOM     16  C   UNL     1     -10.596   3.358  15.940  1.00  0.00    -0.000 C 
BRANCH  16  17
ATOM     17  C   UNL     1      -9.511   2.313  15.616  1.00  0.00    -0.000 C 
BRANCH  17  18
ATOM     18  C   UNL     1     -10.048   0.870  15.514  1.00  0.00    -0.003 C 
ATOM     19  C   UNL     1     -10.076   0.348  14.078  1.00  0.00     0.004 C 
ENDBRANCH  17  18
ENDBRANCH  16  17
ENDBRANCH  15  16
ENDBRANCH  14  15
ENDBRANCH  13  14
ENDBRANCH  12  13
ENDBRANCH   1  12
TORSDOF 14
ENDMDL
MODEL 8
REMARK VINA RESULT:    -4.128      3.041      6.274
REMARK INTER + INTRA:          -9.741
REMARK INTER:                  -7.392
REMARK INTRA:                  -2.350
REMARK UNBOUND:                -2.235
REMARK SMILES CCCCCCCCCCCCCC[C@@H](C)C(=O)[O-]
REMARK SMILES IDX 9 1 10 2 11 3 12 4 13 5 14 6 15 7 16 8 17 9 18 10 19 11 8 12
REMARK SMILES IDX 7 13 6 14 5 15 4 16 3 17 2 18 1 19
REMARK H PARENT
REMARK Flexibility Score: inf
ROOT
ATOM      1  C   UNL     1     -11.948   3.943  19.581  1.00  0.00     0.000 C 
ENDROOT
BRANCH   1   2
ATOM      2  C   UNL     1     -12.130   2.789  20.582  1.00  0.00     0.000 C 
BRANCH   2   3
ATOM      3  C   UNL     1     -10.806   2.079  20.907  1.00  0.00     0.000 C 
BRANCH   3   4
ATOM      4  C   UNL     1     -10.369   1.107  19.796  1.00  0.00     0.000 C 
BRANCH   4   5
ATOM      5  C   UNL     1      -9.091   1.559  19.071  1.00  0.00     0.001 C 
BRANCH   5   6
ATOM      6  C   UNL     1      -8.428   2.850  19.605  1.00  0.00     0.009 C 
BRANCH   6   7
ATOM      7  C   UNL     1      -7.785   3.806  18.565  1.00  0.00     0.032 C 
ATOM      8  C   UNL     1      -8.682   4.999  18.199  1.00  0.00     0.014 C 
BRANCH   7   9
ATOM      9  C   UNL     1      -6.390   4.230  18.942  1.00  0.00     0.044 C 
ATOM     10  O   UNL     1      -6.193   5.243  19.665  1.00  0.00    -0.550 OA
ATOM     11  O   UNL     1      -5.305   3.466  18.529  1.00  0.00    -0.550 OA
ENDBRANCH   7   9
ENDBRANCH   6   7
ENDBRANCH   5   6
ENDBRANCH   4   5
ENDBRANCH   3   4
ENDBRANCH   2   3
ENDBRANCH   1   2
BRANCH   1  12
ATOM     12  C   UNL     1     -13.080   4.013  18.545  1.00  0.00     0.000 C 
BRANCH  12  13
ATOM     13  C   UNL     1     -12.561   4.094  17.101  1.00  0.00    -0.000 C 
BRANCH  13  14
ATOM     14  C   UNL     1     -11.747   2.842  16.740  1.00  0.00    -0.000 C 
BRANCH  14  15
ATOM     15  C   UNL     1     -10.683   3.110  15.660  1.00  0.00    -0.000 C 
BRANCH  15  16
ATOM     16  C   UNL     1      -9.499   2.123  15.650  1.00  0.00    -0.000 C 
BRANCH  16  17
ATOM     17  C   UNL     1      -9.860   0.673  15.273  1.00  0.00    -0.000 C 
BRANCH  17  18
ATOM     18  C   UNL     1     -10.578   0.544  13.913  1.00  0.00    -0.003 C 
ATOM     19  C   UNL     1     -12.034   0.102  14.052  1.00  0.00     0.004 C 
ENDBRANCH  17  18
ENDBRANCH  16  17
ENDBRANCH  15  16
ENDBRANCH  14  15
ENDBRANCH  13  14
ENDBRANCH  12  13
ENDBRANCH   1  12
TORSDOF 14
ENDMDL
MODEL 9
REMARK VINA RESULT:    -4.123      1.316      3.891
REMARK INTER + INTRA:          -9.732
REMARK INTER:                  -7.449
REMARK INTRA:                  -2.284
REMARK UNBOUND:                -2.235
REMARK SMILES CCCCCCCCCCCCCC[C@@H](C)C(=O)[O-]
REMARK SMILES IDX 9 1 10 2 11 3 12 4 13 5 14 6 15 7 16 8 17 9 18 10 19 11 8 12
REMARK SMILES IDX 7 13 6 14 5 15 4 16 3 17 2 18 1 19
REMARK H PARENT
REMARK Flexibility Score: inf
ROOT
ATOM      1  C   UNL     1      -9.121  -0.880  21.848  1.00  0.00     0.000 C 
ENDROOT
BRANCH   1   2
ATOM      2  C   UNL     1      -9.775  -0.988  20.459  1.00  0.00     0.000 C 
BRANCH   2   3
ATOM      3  C   UNL     1      -8.870  -0.448  19.341  1.00  0.00     0.000 C 
BRANCH   3   4
ATOM      4  C   UNL     1      -9.343   0.914  18.804  1.00  0.00     0.000 C 
BRANCH   4   5
ATOM      5  C   UNL     1     -10.861   0.975  18.572  1.00  0.00     0.001 C 
BRANCH   5   6
ATOM      6  C   UNL     1     -11.321   1.686  17.278  1.00  0.00     0.009 C 
BRANCH   6   7
ATOM      7  C   UNL     1     -11.158   0.915  15.941  1.00  0.00     0.032 C 
ATOM      8  C   UNL     1     -12.465   0.799  15.141  1.00  0.00     0.014 C 
BRANCH   7   9
ATOM      9  C   UNL     1     -10.016   1.429  15.103  1.00  0.00     0.044 C 
ATOM     10  O   UNL     1      -9.153   2.207  15.590  1.00  0.00    -0.550 OA
ATOM     11  O   UNL     1      -9.882   1.001  13.789  1.00  0.00    -0.550 OA
ENDBRANCH   7   9
ENDBRANCH   6   7
ENDBRANCH   5   6
ENDBRANCH   4   5
ENDBRANCH   3   4
ENDBRANCH   2   3
ENDBRANCH   1   2
BRANCH   1  12
ATOM     12  C   UNL     1      -9.779   0.193  22.730  1.00  0.00     0.000 C 
BRANCH  12  13
ATOM     13  C   UNL     1     -11.206   0.540  22.279  1.00  0.00    -0.000 C 
BRANCH  13  14
ATOM     14  C   UNL     1     -11.369   2.056  22.092  1.00  0.00    -0.000 C 
BRANCH  14  15
ATOM     15  C   UNL     1     -10.029   2.779  21.863  1.00  0.00    -0.000 C 
BRANCH  15  16
ATOM     16  C   UNL     1     -10.052   3.864  20.769  1.00  0.00    -0.000 C 
BRANCH  16  17
ATOM     17  C   UNL     1     -11.344   4.702  20.707  1.00  0.00    -0.000 C 
BRANCH  17  18
ATOM     18  C   UNL     1     -12.147   4.511  19.403  1.00  0.00    -0.003 C 
ATOM     19  C   UNL     1     -13.636   4.277  19.654  1.00  0.00     0.004 C 
ENDBRANCH  17  18
ENDBRANCH  16  17
ENDBRANCH  15  16
ENDBRANCH  14  15
ENDBRANCH  13  14
ENDBRANCH  12  13
ENDBRANCH   1  12
TORSDOF 14
ENDMDL
