MODEL 1
REMARK VINA RESULT:    -3.502      0.000      0.000
REMARK INTER + INTRA:          -4.388
REMARK INTER:                  -4.116
REMARK INTRA:                  -0.272
REMARK UNBOUND:                -0.272
REMARK SMILES O=c1cc(-c2ccc(O)c(O)c2)oc2cc(O)cc(O)c12
REMARK SMILES IDX 4 1 3 2 2 3 1 4 21 5 19 6 18 7 16 8 15 9 14 10 13 11 5 12
REMARK SMILES IDX 6 13 7 14 8 15 12 16 10 17 9 18 11 20 20 22 17 24
REMARK H PARENT 9 19 11 21 20 23 17 25
REMARK Flexibility Score: inf
ROOT
ATOM      1  C   UNL     1      -6.069  -1.803   2.439  1.00  0.00     0.138 A 
ATOM      2  C   UNL     1      -4.789  -2.175   2.004  1.00  0.00     0.100 A 
ATOM      3  C   UNL     1      -4.568  -2.436   0.651  1.00  0.00     0.197 A 
ATOM      4  O   UNL     1      -3.425  -2.827   0.302  1.00  0.00    -0.289 OA
ATOM      5  C   UNL     1      -5.629  -2.295  -0.275  1.00  0.00     0.107 A 
ATOM      6  C   UNL     1      -5.510  -2.495  -1.683  1.00  0.00     0.134 A 
ATOM      7  C   UNL     1      -6.655  -2.441  -2.486  1.00  0.00     0.093 A 
ATOM      8  C   UNL     1      -7.902  -2.133  -1.944  1.00  0.00     0.123 A 
ATOM      9  C   UNL     1      -8.020  -1.881  -0.576  1.00  0.00     0.094 A 
ATOM     10  C   UNL     1      -6.903  -1.963   0.258  1.00  0.00     0.146 A 
ATOM     11  O   UNL     1      -7.060  -1.731   1.557  1.00  0.00    -0.456 OA
ENDROOT
BRANCH   1  12
ATOM     12  C   UNL     1      -6.359  -1.512   3.866  1.00  0.00     0.021 A 
ATOM     13  C   UNL     1      -7.069  -0.361   4.256  1.00  0.00     0.016 A 
ATOM     14  C   UNL     1      -7.338  -0.118   5.605  1.00  0.00     0.051 A 
ATOM     15  C   UNL     1      -6.912  -1.017   6.586  1.00  0.00     0.157 A 
ATOM     16  C   UNL     1      -5.945  -2.421   4.856  1.00  0.00     0.062 A 
ATOM     17  C   UNL     1      -6.213  -2.176   6.211  1.00  0.00     0.158 A 
BRANCH  15  18
ATOM     18  O   UNL     1      -7.194  -0.745   7.924  1.00  0.00    -0.504 OA
ATOM     19  H   UNL     1      -7.168   0.196   8.298  1.00  0.00     0.293 HD
ENDBRANCH  15  18
BRANCH  17  20
ATOM     20  O   UNL     1      -5.789  -3.080   7.183  1.00  0.00    -0.504 OA
ATOM     21  H   UNL     1      -6.220  -3.116   8.100  1.00  0.00     0.293 HD
ENDBRANCH  17  20
ENDBRANCH   1  12
BRANCH   6  22
ATOM     22  O   UNL     1      -4.297  -2.725  -2.339  1.00  0.00    -0.507 OA
ATOM     23  H   UNL     1      -4.037  -3.592  -2.785  1.00  0.00     0.293 HD
ENDBRANCH   6  22
BRANCH   8  24
ATOM     24  O   UNL     1      -9.018  -2.072  -2.776  1.00  0.00    -0.508 OA
ATOM     25  H   UNL     1      -9.958  -2.040  -2.401  1.00  0.00     0.293 HD
ENDBRANCH   8  24
TORSDOF 5
ENDMDL
MODEL 2
REMARK VINA RESULT:    -3.380      8.621     10.731
REMARK INTER + INTRA:          -4.245
REMARK INTER:                  -3.943
REMARK INTRA:                  -0.301
REMARK UNBOUND:                -0.272
REMARK SMILES O=c1cc(-c2ccc(O)c(O)c2)oc2cc(O)cc(O)c12
REMARK SMILES IDX 4 1 3 2 2 3 1 4 21 5 19 6 18 7 16 8 15 9 14 10 13 11 5 12
REMARK SMILES IDX 6 13 7 14 8 15 12 16 10 17 9 18 11 20 20 22 17 24
REMARK H PARENT 9 19 11 21 20 23 17 25
REMARK Flexibility Score: inf
ROOT
ATOM      1  C   UNL     1      -7.360   5.984  -2.399  1.00  0.00     0.138 A 
ATOM      2  C   UNL     1      -8.396   5.759  -3.316  1.00  0.00     0.100 A 
ATOM      3  C   UNL     1      -9.707   5.623  -2.857  1.00  0.00     0.197 A 
ATOM      4  O   UNL     1     -10.605   5.360  -3.698  1.00  0.00    -0.289 OA
ATOM      5  C   UNL     1      -9.984   5.744  -1.475  1.00  0.00     0.107 A 
ATOM      6  C   UNL     1     -11.287   5.664  -0.898  1.00  0.00     0.134 A 
ATOM      7  C   UNL     1     -11.427   5.682   0.495  1.00  0.00     0.093 A 
ATOM      8  C   UNL     1     -10.321   5.838   1.328  1.00  0.00     0.123 A 
ATOM      9  C   UNL     1      -9.047   5.972   0.773  1.00  0.00     0.094 A 
ATOM     10  C   UNL     1      -8.870   5.923  -0.611  1.00  0.00     0.146 A 
ATOM     11  O   UNL     1      -7.641   6.039  -1.101  1.00  0.00    -0.456 OA
ENDROOT
BRANCH   1  12
ATOM     12  C   UNL     1      -5.948   6.138  -2.832  1.00  0.00     0.021 A 
ATOM     13  C   UNL     1      -5.608   6.813  -4.019  1.00  0.00     0.016 A 
ATOM     14  C   UNL     1      -4.270   6.952  -4.398  1.00  0.00     0.051 A 
ATOM     15  C   UNL     1      -3.250   6.429  -3.598  1.00  0.00     0.157 A 
ATOM     16  C   UNL     1      -4.917   5.626  -2.025  1.00  0.00     0.062 A 
ATOM     17  C   UNL     1      -3.573   5.764  -2.405  1.00  0.00     0.158 A 
BRANCH  15  18
ATOM     18  O   UNL     1      -1.925   6.583  -4.004  1.00  0.00    -0.504 OA
ATOM     19  H   UNL     1      -1.217   5.888  -3.801  1.00  0.00     0.293 HD
ENDBRANCH  15  18
BRANCH  17  20
ATOM     20  O   UNL     1      -2.561   5.243  -1.600  1.00  0.00    -0.504 OA
ATOM     21  H   UNL     1      -2.768   4.687  -0.779  1.00  0.00     0.293 HD
ENDBRANCH  17  20
ENDBRANCH   1  12
BRANCH   6  22
ATOM     22  O   UNL     1     -12.468   5.591  -1.643  1.00  0.00    -0.507 OA
ATOM     23  H   UNL     1     -12.887   4.737  -1.978  1.00  0.00     0.293 HD
ENDBRANCH   6  22
BRANCH   8  24
ATOM     24  O   UNL     1     -10.499   5.867   2.710  1.00  0.00    -0.508 OA
ATOM     25  H   UNL     1     -11.088   6.561   3.154  1.00  0.00     0.293 HD
ENDBRANCH   8  24
TORSDOF 5
ENDMDL
MODEL 3
REMARK VINA RESULT:    -3.335      1.474      2.449
REMARK INTER + INTRA:          -4.192
REMARK INTER:                  -3.877
REMARK INTRA:                  -0.315
REMARK UNBOUND:                -0.272
REMARK SMILES O=c1cc(-c2ccc(O)c(O)c2)oc2cc(O)cc(O)c12
REMARK SMILES IDX 4 1 3 2 2 3 1 4 21 5 19 6 18 7 16 8 15 9 14 10 13 11 5 12
REMARK SMILES IDX 6 13 7 14 8 15 12 16 10 17 9 18 11 20 20 22 17 24
REMARK H PARENT 9 19 11 21 20 23 17 25
REMARK Flexibility Score: inf
ROOT
ATOM      1  C   UNL     1      -5.558  -2.427   0.553  1.00  0.00     0.138 A 
ATOM      2  C   UNL     1      -4.419  -3.000  -0.031  1.00  0.00     0.100 A 
ATOM      3  C   UNL     1      -4.376  -3.197  -1.412  1.00  0.00     0.197 A 
ATOM      4  O   UNL     1      -3.367  -3.769  -1.898  1.00  0.00    -0.289 OA
ATOM      5  C   UNL     1      -5.468  -2.790  -2.215  1.00  0.00     0.107 A 
ATOM      6  C   UNL     1      -5.517  -2.904  -3.637  1.00  0.00     0.134 A 
ATOM      7  C   UNL     1      -6.698  -2.575  -4.314  1.00  0.00     0.093 A 
ATOM      8  C   UNL     1      -7.807  -2.080  -3.631  1.00  0.00     0.123 A 
ATOM      9  C   UNL     1      -7.751  -1.913  -2.246  1.00  0.00     0.094 A 
ATOM     10  C   UNL     1      -6.601  -2.265  -1.537  1.00  0.00     0.146 A 
ATOM     11  O   UNL     1      -6.591  -2.105  -0.218  1.00  0.00    -0.456 OA
ENDROOT
BRANCH   1  12
ATOM     12  C   UNL     1      -5.657  -2.194   2.016  1.00  0.00     0.021 A 
ATOM     13  C   UNL     1      -4.756  -2.784   2.921  1.00  0.00     0.016 A 
ATOM     14  C   UNL     1      -4.866  -2.539   4.293  1.00  0.00     0.051 A 
ATOM     15  C   UNL     1      -5.868  -1.698   4.783  1.00  0.00     0.157 A 
ATOM     16  C   UNL     1      -6.655  -1.338   2.514  1.00  0.00     0.062 A 
ATOM     17  C   UNL     1      -6.768  -1.093   3.891  1.00  0.00     0.158 A 
BRANCH  15  18
ATOM     18  O   UNL     1      -5.953  -1.474   6.157  1.00  0.00    -0.504 OA
ATOM     19  H   UNL     1      -6.432  -2.116   6.778  1.00  0.00     0.293 HD
ENDBRANCH  15  18
BRANCH  17  20
ATOM     20  O   UNL     1      -7.767  -0.250   4.373  1.00  0.00    -0.504 OA
ATOM     21  H   UNL     1      -7.624   0.330   5.192  1.00  0.00     0.293 HD
ENDBRANCH  17  20
ENDBRANCH   1  12
BRANCH   6  22
ATOM     22  O   UNL     1      -4.437  -3.308  -4.425  1.00  0.00    -0.507 OA
ATOM     23  H   UNL     1      -4.484  -3.996  -5.161  1.00  0.00     0.293 HD
ENDBRANCH   6  22
BRANCH   8  24
ATOM     24  O   UNL     1      -8.960  -1.748  -4.340  1.00  0.00    -0.508 OA
ATOM     25  H   UNL     1      -9.818  -2.276  -4.232  1.00  0.00     0.293 HD
ENDBRANCH   8  24
TORSDOF 5
ENDMDL
MODEL 4
REMARK VINA RESULT:    -3.268      8.934     10.571
REMARK INTER + INTRA:          -4.114
REMARK INTER:                  -3.798
REMARK INTRA:                  -0.316
REMARK UNBOUND:                -0.272
REMARK SMILES O=c1cc(-c2ccc(O)c(O)c2)oc2cc(O)cc(O)c12
REMARK SMILES IDX 4 1 3 2 2 3 1 4 21 5 19 6 18 7 16 8 15 9 14 10 13 11 5 12
REMARK SMILES IDX 6 13 7 14 8 15 12 16 10 17 9 18 11 20 20 22 17 24
REMARK H PARENT 9 19 11 21 20 23 17 25
REMARK Flexibility Score: inf
ROOT
ATOM      1  C   UNL     1      -7.887   6.389  -3.144  1.00  0.00     0.138 A 
ATOM      2  C   UNL     1      -7.648   7.045  -4.359  1.00  0.00     0.100 A 
ATOM      3  C   UNL     1      -6.336   7.213  -4.806  1.00  0.00     0.197 A 
ATOM      4  O   UNL     1      -6.150   7.859  -5.869  1.00  0.00    -0.289 OA
ATOM      5  C   UNL     1      -5.262   6.694  -4.045  1.00  0.00     0.107 A 
ATOM      6  C   UNL     1      -3.888   6.770  -4.423  1.00  0.00     0.134 A 
ATOM      7  C   UNL     1      -2.902   6.324  -3.534  1.00  0.00     0.093 A 
ATOM      8  C   UNL     1      -3.242   5.750  -2.310  1.00  0.00     0.123 A 
ATOM      9  C   UNL     1      -4.586   5.621  -1.954  1.00  0.00     0.094 A 
ATOM     10  C   UNL     1      -5.591   6.088  -2.803  1.00  0.00     0.146 A 
ATOM     11  O   UNL     1      -6.858   5.960  -2.422  1.00  0.00    -0.456 OA
ENDROOT
BRANCH   1  12
ATOM     12  C   UNL     1      -9.262   6.182  -2.622  1.00  0.00     0.021 A 
ATOM     13  C   UNL     1     -10.377   6.809  -3.207  1.00  0.00     0.016 A 
ATOM     14  C   UNL     1     -11.661   6.588  -2.702  1.00  0.00     0.051 A 
ATOM     15  C   UNL     1     -11.856   5.735  -1.612  1.00  0.00     0.157 A 
ATOM     16  C   UNL     1      -9.466   5.314  -1.534  1.00  0.00     0.062 A 
ATOM     17  C   UNL     1     -10.754   5.093  -1.025  1.00  0.00     0.158 A 
BRANCH  15  18
ATOM     18  O   UNL     1     -13.150   5.536  -1.130  1.00  0.00    -0.504 OA
ATOM     19  H   UNL     1     -13.653   4.670  -1.283  1.00  0.00     0.293 HD
ENDBRANCH  15  18
BRANCH  17  20
ATOM     20  O   UNL     1     -10.942   4.237   0.058  1.00  0.00    -0.504 OA
ATOM     21  H   UNL     1     -11.285   3.291  -0.064  1.00  0.00     0.293 HD
ENDBRANCH  17  20
ENDBRANCH   1  12
BRANCH   6  22
ATOM     22  O   UNL     1      -3.443   7.249  -5.659  1.00  0.00    -0.507 OA
ATOM     23  H   UNL     1      -3.964   7.869  -6.258  1.00  0.00     0.293 HD
ENDBRANCH   6  22
BRANCH   8  24
ATOM     24  O   UNL     1      -2.236   5.303  -1.456  1.00  0.00    -0.508 OA
ATOM     25  H   UNL     1      -2.447   4.773  -0.619  1.00  0.00     0.293 HD
ENDBRANCH   8  24
TORSDOF 5
ENDMDL
MODEL 5
REMARK VINA RESULT:    -3.254      1.886      7.308
REMARK INTER + INTRA:          -4.097
REMARK INTER:                  -3.819
REMARK INTRA:                  -0.279
REMARK UNBOUND:                -0.272
REMARK SMILES O=c1cc(-c2ccc(O)c(O)c2)oc2cc(O)cc(O)c12
REMARK SMILES IDX 4 1 3 2 2 3 1 4 21 5 19 6 18 7 16 8 15 9 14 10 13 11 5 12
REMARK SMILES IDX 6 13 7 14 8 15 12 16 10 17 9 18 11 20 20 22 17 24
REMARK H PARENT 9 19 11 21 20 23 17 25
REMARK Flexibility Score: inf
ROOT
ATOM      1  C   UNL     1      -7.094  -1.655   3.198  1.00  0.00     0.138 A 
ATOM      2  C   UNL     1      -8.042  -2.517   3.767  1.00  0.00     0.100 A 
ATOM      3  C   UNL     1      -8.569  -2.228   5.026  1.00  0.00     0.197 A 
ATOM      4  O   UNL     1      -9.371  -3.053   5.537  1.00  0.00    -0.289 OA
ATOM      5  C   UNL     1      -8.168  -1.052   5.704  1.00  0.00     0.107 A 
ATOM      6  C   UNL     1      -8.670  -0.636   6.973  1.00  0.00     0.134 A 
ATOM      7  C   UNL     1      -8.113   0.485   7.600  1.00  0.00     0.093 A 
ATOM      8  C   UNL     1      -7.119   1.239   6.980  1.00  0.00     0.123 A 
ATOM      9  C   UNL     1      -6.658   0.871   5.713  1.00  0.00     0.094 A 
ATOM     10  C   UNL     1      -7.168  -0.262   5.077  1.00  0.00     0.146 A 
ATOM     11  O   UNL     1      -6.694  -0.587   3.879  1.00  0.00    -0.456 OA
ENDROOT
BRANCH   1  12
ATOM     12  C   UNL     1      -6.501  -1.914   1.861  1.00  0.00     0.021 A 
ATOM     13  C   UNL     1      -7.294  -1.974   0.700  1.00  0.00     0.016 A 
ATOM     14  C   UNL     1      -6.708  -2.209  -0.547  1.00  0.00     0.051 A 
ATOM     15  C   UNL     1      -5.325  -2.379  -0.659  1.00  0.00     0.157 A 
ATOM     16  C   UNL     1      -5.109  -2.072   1.740  1.00  0.00     0.062 A 
ATOM     17  C   UNL     1      -4.520  -2.309   0.489  1.00  0.00     0.158 A 
BRANCH  15  18
ATOM     18  O   UNL     1      -4.771  -2.613  -1.917  1.00  0.00    -0.504 OA
ATOM     19  H   UNL     1      -4.951  -2.002  -2.705  1.00  0.00     0.293 HD
ENDBRANCH  15  18
BRANCH  17  20
ATOM     20  O   UNL     1      -3.140  -2.473   0.385  1.00  0.00    -0.504 OA
ATOM     21  H   UNL     1      -2.731  -3.132  -0.267  1.00  0.00     0.293 HD
ENDBRANCH  17  20
ENDBRANCH   1  12
BRANCH   6  22
ATOM     22  O   UNL     1      -9.721  -1.268   7.643  1.00  0.00    -0.507 OA
ATOM     23  H   UNL     1     -10.222  -2.074   7.301  1.00  0.00     0.293 HD
ENDBRANCH   6  22
BRANCH   8  24
ATOM     24  O   UNL     1      -6.598   2.358   7.627  1.00  0.00    -0.508 OA
ATOM     25  H   UNL     1      -5.623   2.616   7.537  1.00  0.00     0.293 HD
ENDBRANCH   8  24
TORSDOF 5
ENDMDL
MODEL 6
REMARK VINA RESULT:    -3.201      8.704     10.777
REMARK INTER + INTRA:          -4.035
REMARK INTER:                  -3.763
REMARK INTRA:                  -0.272
REMARK UNBOUND:                -0.272
REMARK SMILES O=c1cc(-c2ccc(O)c(O)c2)oc2cc(O)cc(O)c12
REMARK SMILES IDX 4 1 3 2 2 3 1 4 21 5 19 6 18 7 16 8 15 9 14 10 13 11 5 12
REMARK SMILES IDX 6 13 7 14 8 15 12 16 10 17 9 18 11 20 20 22 17 24
REMARK H PARENT 9 19 11 21 20 23 17 25
REMARK Flexibility Score: inf
ROOT
ATOM      1  C   UNL     1      -7.109   6.363  -1.381  1.00  0.00     0.138 A 
ATOM      2  C   UNL     1      -6.832   6.962  -0.145  1.00  0.00     0.100 A 
ATOM      3  C   UNL     1      -7.765   6.872   0.890  1.00  0.00     0.197 A 
ATOM      4  O   UNL     1      -7.515   7.473   1.967  1.00  0.00    -0.289 OA
ATOM      5  C   UNL     1      -8.966   6.151   0.693  1.00  0.00     0.107 A 
ATOM      6  C   UNL     1      -9.970   5.958   1.689  1.00  0.00     0.134 A 
ATOM      7  C   UNL     1     -11.170   5.326   1.345  1.00  0.00     0.093 A 
ATOM      8  C   UNL     1     -11.379   4.825   0.061  1.00  0.00     0.123 A 
ATOM      9  C   UNL     1     -10.381   4.960  -0.907  1.00  0.00     0.094 A 
ATOM     10  C   UNL     1      -9.187   5.617  -0.605  1.00  0.00     0.146 A 
ATOM     11  O   UNL     1      -8.268   5.738  -1.557  1.00  0.00    -0.456 OA
ENDROOT
BRANCH   1  12
ATOM     12  C   UNL     1      -6.152   6.426  -2.516  1.00  0.00     0.021 A 
ATOM     13  C   UNL     1      -6.548   6.869  -3.792  1.00  0.00     0.016 A 
ATOM     14  C   UNL     1      -5.624   6.928  -4.839  1.00  0.00     0.051 A 
ATOM     15  C   UNL     1      -4.294   6.557  -4.632  1.00  0.00     0.157 A 
ATOM     16  C   UNL     1      -4.809   6.067  -2.309  1.00  0.00     0.062 A 
ATOM     17  C   UNL     1      -3.882   6.126  -3.360  1.00  0.00     0.158 A 
BRANCH  15  18
ATOM     18  O   UNL     1      -3.396   6.627  -5.697  1.00  0.00    -0.504 OA
ATOM     19  H   UNL     1      -3.704   6.586  -6.662  1.00  0.00     0.293 HD
ENDBRANCH  15  18
BRANCH  17  20
ATOM     20  O   UNL     1      -2.555   5.758  -3.145  1.00  0.00    -0.504 OA
ATOM     21  H   UNL     1      -1.793   6.413  -3.280  1.00  0.00     0.293 HD
ENDBRANCH  17  20
ENDBRANCH   1  12
BRANCH   6  22
ATOM     22  O   UNL     1      -9.829   6.345   3.025  1.00  0.00    -0.507 OA
ATOM     23  H   UNL     1     -10.085   5.779   3.820  1.00  0.00     0.293 HD
ENDBRANCH   6  22
BRANCH   8  24
ATOM     24  O   UNL     1     -12.580   4.187  -0.242  1.00  0.00    -0.508 OA
ATOM     25  H   UNL     1     -13.356   4.181   0.409  1.00  0.00     0.293 HD
ENDBRANCH   8  24
TORSDOF 5
ENDMDL
MODEL 7
REMARK VINA RESULT:    -3.178      2.196      3.941
REMARK INTER + INTRA:          -4.008
REMARK INTER:                  -3.742
REMARK INTRA:                  -0.266
REMARK UNBOUND:                -0.272
REMARK SMILES O=c1cc(-c2ccc(O)c(O)c2)oc2cc(O)cc(O)c12
REMARK SMILES IDX 4 1 3 2 2 3 1 4 21 5 19 6 18 7 16 8 15 9 14 10 13 11 5 12
REMARK SMILES IDX 6 13 7 14 8 15 12 16 10 17 9 18 11 20 20 22 17 24
REMARK H PARENT 9 19 11 21 20 23 17 25
REMARK Flexibility Score: inf
ROOT
ATOM      1  C   UNL     1      -6.114  -1.716   3.328  1.00  0.00     0.138 A 
ATOM      2  C   UNL     1      -6.505  -1.465   2.006  1.00  0.00     0.100 A 
ATOM      3  C   UNL     1      -5.666  -1.841   0.955  1.00  0.00     0.197 A 
ATOM      4  O   UNL     1      -6.016  -1.547  -0.217  1.00  0.00    -0.289 OA
ATOM      5  C   UNL     1      -4.444  -2.499   1.232  1.00  0.00     0.107 A 
ATOM      6  C   UNL     1      -3.530  -2.963   0.239  1.00  0.00     0.134 A 
ATOM      7  C   UNL     1      -2.297  -3.496   0.634  1.00  0.00     0.093 A 
ATOM      8  C   UNL     1      -1.970  -3.638   1.981  1.00  0.00     0.123 A 
ATOM      9  C   UNL     1      -2.881  -3.236   2.962  1.00  0.00     0.094 A 
ATOM     10  C   UNL     1      -4.104  -2.669   2.600  1.00  0.00     0.146 A 
ATOM     11  O   UNL     1      -4.937  -2.286   3.562  1.00  0.00    -0.456 OA
ENDROOT
BRANCH   1  12
ATOM     12  C   UNL     1      -6.968  -1.339   4.484  1.00  0.00     0.021 A 
ATOM     13  C   UNL     1      -8.046  -2.143   4.900  1.00  0.00     0.016 A 
ATOM     14  C   UNL     1      -8.826  -1.768   5.997  1.00  0.00     0.051 A 
ATOM     15  C   UNL     1      -8.543  -0.595   6.701  1.00  0.00     0.157 A 
ATOM     16  C   UNL     1      -6.679  -0.166   5.204  1.00  0.00     0.062 A 
ATOM     17  C   UNL     1      -7.463   0.211   6.304  1.00  0.00     0.158 A 
BRANCH  15  18
ATOM     18  O   UNL     1      -9.341  -0.249   7.791  1.00  0.00    -0.504 OA
ATOM     19  H   UNL     1      -9.203  -0.655   8.708  1.00  0.00     0.293 HD
ENDBRANCH  15  18
BRANCH  17  20
ATOM     20  O   UNL     1      -7.172   1.380   7.004  1.00  0.00    -0.504 OA
ATOM     21  H   UNL     1      -7.101   1.391   8.016  1.00  0.00     0.293 HD
ENDBRANCH  17  20
ENDBRANCH   1  12
BRANCH   6  22
ATOM     22  O   UNL     1      -3.792  -2.947  -1.133  1.00  0.00    -0.507 OA
ATOM     23  H   UNL     1      -3.258  -2.433  -1.817  1.00  0.00     0.293 HD
ENDBRANCH   6  22
BRANCH   8  24
ATOM     24  O   UNL     1      -0.740  -4.186   2.338  1.00  0.00    -0.508 OA
ATOM     25  H   UNL     1      -0.396  -4.142   3.289  1.00  0.00     0.293 HD
ENDBRANCH   8  24
TORSDOF 5
ENDMDL
MODEL 8
REMARK VINA RESULT:    -3.162      8.726      9.892
REMARK INTER + INTRA:          -3.989
REMARK INTER:                  -3.690
REMARK INTRA:                  -0.299
REMARK UNBOUND:                -0.272
REMARK SMILES O=c1cc(-c2ccc(O)c(O)c2)oc2cc(O)cc(O)c12
REMARK SMILES IDX 4 1 3 2 2 3 1 4 21 5 19 6 18 7 16 8 15 9 14 10 13 11 5 12
REMARK SMILES IDX 6 13 7 14 8 15 12 16 10 17 9 18 11 20 20 22 17 24
REMARK H PARENT 9 19 11 21 20 23 17 25
REMARK Flexibility Score: inf
ROOT
ATOM      1  C   UNL     1      -7.773   6.105  -2.211  1.00  0.00     0.138 A 
ATOM      2  C   UNL     1      -8.020   6.648  -3.480  1.00  0.00     0.100 A 
ATOM      3  C   UNL     1      -6.951   6.911  -4.338  1.00  0.00     0.197 A 
ATOM      4  O   UNL     1      -7.199   7.456  -5.444  1.00  0.00    -0.289 OA
ATOM      5  C   UNL     1      -5.631   6.600  -3.934  1.00  0.00     0.107 A 
ATOM      6  C   UNL     1      -4.469   6.787  -4.741  1.00  0.00     0.134 A 
ATOM      7  C   UNL     1      -3.203   6.551  -4.192  1.00  0.00     0.093 A 
ATOM      8  C   UNL     1      -3.059   6.078  -2.888  1.00  0.00     0.123 A 
ATOM      9  C   UNL     1      -4.193   5.840  -2.108  1.00  0.00     0.094 A 
ATOM     10  C   UNL     1      -5.467   6.098  -2.614  1.00  0.00     0.146 A 
ATOM     11  O   UNL     1      -6.520   5.873  -1.836  1.00  0.00    -0.456 OA
ENDROOT
BRANCH   1  12
ATOM     12  C   UNL     1      -8.872   5.804  -1.259  1.00  0.00     0.021 A 
ATOM     13  C   UNL     1     -10.093   5.251  -1.690  1.00  0.00     0.016 A 
ATOM     14  C   UNL     1     -11.106   4.968  -0.770  1.00  0.00     0.051 A 
ATOM     15  C   UNL     1     -10.919   5.224   0.591  1.00  0.00     0.157 A 
ATOM     16  C   UNL     1      -8.685   6.046   0.113  1.00  0.00     0.062 A 
ATOM     17  C   UNL     1      -9.702   5.764   1.037  1.00  0.00     0.158 A 
BRANCH  15  18
ATOM     18  O   UNL     1     -11.951   4.932   1.483  1.00  0.00    -0.504 OA
ATOM     19  H   UNL     1     -11.953   4.088   2.043  1.00  0.00     0.293 HD
ENDBRANCH  15  18
BRANCH  17  20
ATOM     20  O   UNL     1      -9.507   6.018   2.393  1.00  0.00    -0.504 OA
ATOM     21  H   UNL     1      -8.578   6.096   2.791  1.00  0.00     0.293 HD
ENDBRANCH  17  20
ENDBRANCH   1  12
BRANCH   6  22
ATOM     22  O   UNL     1      -4.505   7.175  -6.083  1.00  0.00    -0.507 OA
ATOM     23  H   UNL     1      -5.346   7.351  -6.611  1.00  0.00     0.293 HD
ENDBRANCH   6  22
BRANCH   8  24
ATOM     24  O   UNL     1      -1.784   5.840  -2.380  1.00  0.00    -0.508 OA
ATOM     25  H   UNL     1      -1.646   5.355  -1.501  1.00  0.00     0.293 HD
ENDBRANCH   8  24
TORSDOF 5
ENDMDL
MODEL 9
REMARK VINA RESULT:    -3.110      1.346      2.946
REMARK INTER + INTRA:          -3.927
REMARK INTER:                  -3.629
REMARK INTRA:                  -0.299
REMARK UNBOUND:                -0.272
REMARK SMILES O=c1cc(-c2ccc(O)c(O)c2)oc2cc(O)cc(O)c12
REMARK SMILES IDX 4 1 3 2 2 3 1 4 21 5 19 6 18 7 16 8 15 9 14 10 13 11 5 12
REMARK SMILES IDX 6 13 7 14 8 15 12 16 10 17 9 18 11 20 20 22 17 24
REMARK H PARENT 9 19 11 21 20 23 17 25
REMARK Flexibility Score: inf
ROOT
ATOM      1  C   UNL     1      -5.961  -1.762   2.560  1.00  0.00     0.138 A 
ATOM      2  C   UNL     1      -6.941  -1.695   1.560  1.00  0.00     0.100 A 
ATOM      3  C   UNL     1      -6.623  -2.077   0.256  1.00  0.00     0.197 A 
ATOM      4  O   UNL     1      -7.505  -1.947  -0.632  1.00  0.00    -0.289 OA
ATOM      5  C   UNL     1      -5.326  -2.559  -0.040  1.00  0.00     0.107 A 
ATOM      6  C   UNL     1      -4.902  -3.015  -1.324  1.00  0.00     0.134 A 
ATOM      7  C   UNL     1      -3.560  -3.360  -1.525  1.00  0.00     0.093 A 
ATOM      8  C   UNL     1      -2.642  -3.324  -0.476  1.00  0.00     0.123 A 
ATOM      9  C   UNL     1      -3.058  -2.931   0.797  1.00  0.00     0.094 A 
ATOM     10  C   UNL     1      -4.382  -2.548   1.022  1.00  0.00     0.146 A 
ATOM     11  O   UNL     1      -4.736  -2.166   2.244  1.00  0.00    -0.456 OA
ENDROOT
BRANCH   1  12
ATOM     12  C   UNL     1      -6.245  -1.369   3.964  1.00  0.00     0.021 A 
ATOM     13  C   UNL     1      -7.078  -0.277   4.271  1.00  0.00     0.016 A 
ATOM     14  C   UNL     1      -7.336   0.065   5.602  1.00  0.00     0.051 A 
ATOM     15  C   UNL     1      -6.776  -0.677   6.645  1.00  0.00     0.157 A 
ATOM     16  C   UNL     1      -5.695  -2.120   5.018  1.00  0.00     0.062 A 
ATOM     17  C   UNL     1      -5.952  -1.777   6.353  1.00  0.00     0.158 A 
BRANCH  15  18
ATOM     18  O   UNL     1      -7.052  -0.310   7.962  1.00  0.00    -0.504 OA
ATOM     19  H   UNL     1      -7.847  -0.681   8.468  1.00  0.00     0.293 HD
ENDBRANCH  15  18
BRANCH  17  20
ATOM     20  O   UNL     1      -5.394  -2.524   7.388  1.00  0.00    -0.504 OA
ATOM     21  H   UNL     1      -4.421  -2.422   7.654  1.00  0.00     0.293 HD
ENDBRANCH  17  20
ENDBRANCH   1  12
BRANCH   6  22
ATOM     22  O   UNL     1      -5.756  -3.170  -2.419  1.00  0.00    -0.507 OA
ATOM     23  H   UNL     1      -5.830  -4.004  -2.980  1.00  0.00     0.293 HD
ENDBRANCH   6  22
BRANCH   8  24
ATOM     24  O   UNL     1      -1.317  -3.689  -0.709  1.00  0.00    -0.508 OA
ATOM     25  H   UNL     1      -0.768  -4.167  -0.005  1.00  0.00     0.293 HD
ENDBRANCH   8  24
TORSDOF 5
ENDMDL
