MODEL 1
REMARK VINA RESULT:    -3.719      0.000      0.000
REMARK INTER + INTRA:          -7.049
REMARK INTER:                  -5.893
REMARK INTRA:                  -1.155
REMARK UNBOUND:                -1.155
REMARK SMILES CCCCCCCCCCCC(=O)[O-]
REMARK SMILES IDX 7 1 8 2 9 3 10 4 11 5 12 6 13 7 14 8 6 9 5 10 4 11 3 12 2 13
REMARK SMILES IDX 1 14
REMARK H PARENT
REMARK Flexibility Score: inf
ROOT
ATOM      1  C   UNL     1      77.184 -72.832  -3.417  1.00  0.00     0.000 C 
ENDROOT
BRANCH   1   2
ATOM      2  C   UNL     1      75.936 -72.271  -4.122  1.00  0.00     0.000 C 
BRANCH   2   3
ATOM      3  C   UNL     1      75.008 -71.500  -3.167  1.00  0.00     0.000 C 
BRANCH   3   4
ATOM      4  C   UNL     1      74.059 -72.428  -2.391  1.00  0.00     0.006 C 
BRANCH   4   5
ATOM      5  C   UNL     1      74.256 -72.337  -0.871  1.00  0.00     0.053 C 
BRANCH   5   6
ATOM      6  C   UNL     1      73.463 -71.199  -0.311  1.00  0.00     0.041 C 
ATOM      7  O   UNL     1      74.037 -70.123   0.006  1.00  0.00    -0.550 OA
ATOM      8  O   UNL     1      72.085 -71.307  -0.182  1.00  0.00    -0.550 OA
ENDBRANCH   5   6
ENDBRANCH   4   5
ENDBRANCH   3   4
ENDBRANCH   2   3
ENDBRANCH   1   2
BRANCH   1   9
ATOM      9  C   UNL     1      77.469 -74.324  -3.683  1.00  0.00     0.000 C 
BRANCH   9  10
ATOM     10  C   UNL     1      76.220 -75.215  -3.840  1.00  0.00    -0.000 C 
BRANCH  10  11
ATOM     11  C   UNL     1      75.932 -76.149  -2.651  1.00  0.00    -0.000 C 
BRANCH  11  12
ATOM     12  C   UNL     1      76.159 -75.471  -1.290  1.00  0.00    -0.000 C 
BRANCH  12  13
ATOM     13  C   UNL     1      77.134 -76.254  -0.397  1.00  0.00    -0.003 C 
ATOM     14  C   UNL     1      78.197 -77.007  -1.197  1.00  0.00     0.004 C 
ENDBRANCH  12  13
ENDBRANCH  11  12
ENDBRANCH  10  11
ENDBRANCH   9  10
ENDBRANCH   1   9
TORSDOF 10
ENDMDL
MODEL 2
REMARK VINA RESULT:    -3.699      3.340      5.017
REMARK INTER + INTRA:          -7.017
REMARK INTER:                  -5.596
REMARK INTRA:                  -1.421
REMARK UNBOUND:                -1.155
REMARK SMILES CCCCCCCCCCCC(=O)[O-]
REMARK SMILES IDX 7 1 8 2 9 3 10 4 11 5 12 6 13 7 14 8 6 9 5 10 4 11 3 12 2 13
REMARK SMILES IDX 1 14
REMARK H PARENT
REMARK Flexibility Score: inf
ROOT
ATOM      1  C   UNL     1      75.809 -72.735  -4.033  1.00  0.00     0.000 C 
ENDROOT
BRANCH   1   2
ATOM      2  C   UNL     1      77.211 -72.888  -3.415  1.00  0.00     0.000 C 
BRANCH   2   3
ATOM      3  C   UNL     1      77.723 -74.338  -3.451  1.00  0.00     0.000 C 
BRANCH   3   4
ATOM      4  C   UNL     1      78.100 -74.865  -2.057  1.00  0.00     0.006 C 
BRANCH   4   5
ATOM      5  C   UNL     1      78.557 -76.330  -2.082  1.00  0.00     0.053 C 
BRANCH   5   6
ATOM      6  C   UNL     1      77.958 -77.082  -0.936  1.00  0.00     0.041 C 
ATOM      7  O   UNL     1      77.190 -76.497  -0.126  1.00  0.00    -0.550 OA
ATOM      8  O   UNL     1      78.207 -78.440  -0.789  1.00  0.00    -0.550 OA
ENDBRANCH   5   6
ENDBRANCH   4   5
ENDBRANCH   3   4
ENDBRANCH   2   3
ENDBRANCH   1   2
BRANCH   1   9
ATOM      9  C   UNL     1      74.875 -71.752  -3.298  1.00  0.00     0.000 C 
BRANCH   9  10
ATOM     10  C   UNL     1      73.957 -72.387  -2.234  1.00  0.00    -0.000 C 
BRANCH  10  11
ATOM     11  C   UNL     1      74.679 -72.914  -0.981  1.00  0.00    -0.000 C 
BRANCH  11  12
ATOM     12  C   UNL     1      74.433 -74.412  -0.735  1.00  0.00    -0.000 C 
BRANCH  12  13
ATOM     13  C   UNL     1      73.734 -75.095  -1.921  1.00  0.00    -0.003 C 
ATOM     14  C   UNL     1      74.619 -76.131  -2.614  1.00  0.00     0.004 C 
ENDBRANCH  12  13
ENDBRANCH  11  12
ENDBRANCH  10  11
ENDBRANCH   9  10
ENDBRANCH   1   9
TORSDOF 10
ENDMDL
MODEL 3
REMARK VINA RESULT:    -3.650      1.161      1.829
REMARK INTER + INTRA:          -6.939
REMARK INTER:                  -5.561
REMARK INTRA:                  -1.377
REMARK UNBOUND:                -1.155
REMARK SMILES CCCCCCCCCCCC(=O)[O-]
REMARK SMILES IDX 7 1 8 2 9 3 10 4 11 5 12 6 13 7 14 8 6 9 5 10 4 11 3 12 2 13
REMARK SMILES IDX 1 14
REMARK H PARENT
REMARK Flexibility Score: inf
ROOT
ATOM      1  C   UNL     1      76.237 -72.095  -3.934  1.00  0.00     0.000 C 
ENDROOT
BRANCH   1   2
ATOM      2  C   UNL     1      74.776 -71.713  -3.635  1.00  0.00     0.000 C 
BRANCH   2   3
ATOM      3  C   UNL     1      73.929 -72.912  -3.175  1.00  0.00     0.000 C 
BRANCH   3   4
ATOM      4  C   UNL     1      73.287 -72.686  -1.796  1.00  0.00     0.006 C 
BRANCH   4   5
ATOM      5  C   UNL     1      74.156 -71.817  -0.875  1.00  0.00     0.053 C 
BRANCH   5   6
ATOM      6  C   UNL     1      73.297 -70.892  -0.072  1.00  0.00     0.041 C 
ATOM      7  O   UNL     1      73.786 -69.839   0.418  1.00  0.00    -0.550 OA
ATOM      8  O   UNL     1      71.947 -71.166   0.097  1.00  0.00    -0.550 OA
ENDBRANCH   5   6
ENDBRANCH   4   5
ENDBRANCH   3   4
ENDBRANCH   2   3
ENDBRANCH   1   2
BRANCH   1   9
ATOM      9  C   UNL     1      76.598 -73.568  -3.654  1.00  0.00     0.000 C 
BRANCH   9  10
ATOM     10  C   UNL     1      77.563 -73.795  -2.472  1.00  0.00    -0.000 C 
BRANCH  10  11
ATOM     11  C   UNL     1      77.340 -75.103  -1.691  1.00  0.00    -0.000 C 
BRANCH  11  12
ATOM     12  C   UNL     1      76.220 -74.990  -0.644  1.00  0.00    -0.000 C 
BRANCH  12  13
ATOM     13  C   UNL     1      75.021 -75.896  -0.964  1.00  0.00    -0.003 C 
ATOM     14  C   UNL     1      73.898 -75.781   0.067  1.00  0.00     0.004 C 
ENDBRANCH  12  13
ENDBRANCH  11  12
ENDBRANCH  10  11
ENDBRANCH   9  10
ENDBRANCH   1   9
TORSDOF 10
ENDMDL
MODEL 4
REMARK VINA RESULT:    -3.603      1.022      1.815
REMARK INTER + INTRA:          -6.864
REMARK INTER:                  -5.621
REMARK INTRA:                  -1.243
REMARK UNBOUND:                -1.155
REMARK SMILES CCCCCCCCCCCC(=O)[O-]
REMARK SMILES IDX 7 1 8 2 9 3 10 4 11 5 12 6 13 7 14 8 6 9 5 10 4 11 3 12 2 13
REMARK SMILES IDX 1 14
REMARK H PARENT
REMARK Flexibility Score: inf
ROOT
ATOM      1  C   UNL     1      77.426 -74.133  -3.726  1.00  0.00     0.000 C 
ENDROOT
BRANCH   1   2
ATOM      2  C   UNL     1      75.990 -73.621  -3.938  1.00  0.00     0.000 C 
BRANCH   2   3
ATOM      3  C   UNL     1      75.908 -72.086  -4.003  1.00  0.00     0.000 C 
BRANCH   3   4
ATOM      4  C   UNL     1      74.911 -71.505  -2.986  1.00  0.00     0.006 C 
BRANCH   4   5
ATOM      5  C   UNL     1      74.527 -72.513  -1.893  1.00  0.00     0.053 C 
BRANCH   5   6
ATOM      6  C   UNL     1      73.742 -71.835  -0.815  1.00  0.00     0.041 C 
ATOM      7  O   UNL     1      74.082 -70.694  -0.404  1.00  0.00    -0.550 OA
ATOM      8  O   UNL     1      72.606 -72.442  -0.296  1.00  0.00    -0.550 OA
ENDBRANCH   5   6
ENDBRANCH   4   5
ENDBRANCH   3   4
ENDBRANCH   2   3
ENDBRANCH   1   2
BRANCH   1   9
ATOM      9  C   UNL     1      77.911 -74.133  -2.262  1.00  0.00     0.000 C 
BRANCH   9  10
ATOM     10  C   UNL     1      78.473 -75.477  -1.755  1.00  0.00    -0.000 C 
BRANCH  10  11
ATOM     11  C   UNL     1      77.540 -76.259  -0.812  1.00  0.00    -0.000 C 
BRANCH  11  12
ATOM     12  C   UNL     1      76.271 -75.474  -0.441  1.00  0.00    -0.000 C 
BRANCH  12  13
ATOM     13  C   UNL     1      74.984 -76.220  -0.826  1.00  0.00    -0.003 C 
ATOM     14  C   UNL     1      75.006 -76.739  -2.264  1.00  0.00     0.004 C 
ENDBRANCH  12  13
ENDBRANCH  11  12
ENDBRANCH  10  11
ENDBRANCH   9  10
ENDBRANCH   1   9
TORSDOF 10
ENDMDL
MODEL 5
REMARK VINA RESULT:    -3.506      1.394      2.381
REMARK INTER + INTRA:          -6.711
REMARK INTER:                  -5.293
REMARK INTRA:                  -1.418
REMARK UNBOUND:                -1.155
REMARK SMILES CCCCCCCCCCCC(=O)[O-]
REMARK SMILES IDX 7 1 8 2 9 3 10 4 11 5 12 6 13 7 14 8 6 9 5 10 4 11 3 12 2 13
REMARK SMILES IDX 1 14
REMARK H PARENT
REMARK Flexibility Score: inf
ROOT
ATOM      1  C   UNL     1      77.785 -74.207  -2.237  1.00  0.00     0.000 C 
ENDROOT
BRANCH   1   2
ATOM      2  C   UNL     1      77.482 -74.120  -3.744  1.00  0.00     0.000 C 
BRANCH   2   3
ATOM      3  C   UNL     1      76.047 -73.649  -4.036  1.00  0.00     0.000 C 
BRANCH   3   4
ATOM      4  C   UNL     1      75.180 -73.575  -2.768  1.00  0.00     0.006 C 
BRANCH   4   5
ATOM      5  C   UNL     1      74.711 -72.147  -2.455  1.00  0.00     0.053 C 
BRANCH   5   6
ATOM      6  C   UNL     1      74.068 -72.096  -1.105  1.00  0.00     0.041 C 
ATOM      7  O   UNL     1      73.763 -70.987  -0.590  1.00  0.00    -0.550 OA
ATOM      8  O   UNL     1      73.762 -73.272  -0.435  1.00  0.00    -0.550 OA
ENDBRANCH   5   6
ENDBRANCH   4   5
ENDBRANCH   3   4
ENDBRANCH   2   3
ENDBRANCH   1   2
BRANCH   1   9
ATOM      9  C   UNL     1      78.634 -75.422  -1.810  1.00  0.00     0.000 C 
BRANCH   9  10
ATOM     10  C   UNL     1      77.877 -76.506  -1.016  1.00  0.00    -0.000 C 
BRANCH  10  11
ATOM     11  C   UNL     1      76.575 -76.033  -0.344  1.00  0.00    -0.000 C 
BRANCH  11  12
ATOM     12  C   UNL     1      75.328 -76.748  -0.888  1.00  0.00    -0.000 C 
BRANCH  12  13
ATOM     13  C   UNL     1      75.659 -77.721  -2.030  1.00  0.00    -0.003 C 
ATOM     14  C   UNL     1      75.092 -77.272  -3.376  1.00  0.00     0.004 C 
ENDBRANCH  12  13
ENDBRANCH  11  12
ENDBRANCH  10  11
ENDBRANCH   9  10
ENDBRANCH   1   9
TORSDOF 10
ENDMDL
MODEL 6
REMARK VINA RESULT:    -3.473      1.215      3.273
REMARK INTER + INTRA:          -6.658
REMARK INTER:                  -5.405
REMARK INTRA:                  -1.254
REMARK UNBOUND:                -1.155
REMARK SMILES CCCCCCCCCCCC(=O)[O-]
REMARK SMILES IDX 7 1 8 2 9 3 10 4 11 5 12 6 13 7 14 8 6 9 5 10 4 11 3 12 2 13
REMARK SMILES IDX 1 14
REMARK H PARENT
REMARK Flexibility Score: inf
ROOT
ATOM      1  C   UNL     1      75.211 -76.616  -0.874  1.00  0.00     0.000 C 
ENDROOT
BRANCH   1   2
ATOM      2  C   UNL     1      74.105 -75.633  -0.450  1.00  0.00     0.000 C 
BRANCH   2   3
ATOM      3  C   UNL     1      74.052 -74.377  -1.337  1.00  0.00     0.000 C 
BRANCH   3   4
ATOM      4  C   UNL     1      74.579 -73.124  -0.618  1.00  0.00     0.006 C 
BRANCH   4   5
ATOM      5  C   UNL     1      74.137 -71.822  -1.300  1.00  0.00     0.053 C 
BRANCH   5   6
ATOM      6  C   UNL     1      73.523 -70.894  -0.299  1.00  0.00     0.041 C 
ATOM      7  O   UNL     1      74.135 -69.853   0.059  1.00  0.00    -0.550 OA
ATOM      8  O   UNL     1      72.254 -71.153   0.201  1.00  0.00    -0.550 OA
ENDBRANCH   5   6
ENDBRANCH   4   5
ENDBRANCH   3   4
ENDBRANCH   2   3
ENDBRANCH   1   2
BRANCH   1   9
ATOM      9  C   UNL     1      76.628 -76.257  -0.383  1.00  0.00     0.000 C 
BRANCH   9  10
ATOM     10  C   UNL     1      77.766 -76.567  -1.377  1.00  0.00    -0.000 C 
BRANCH  10  11
ATOM     11  C   UNL     1      78.643 -75.361  -1.761  1.00  0.00    -0.000 C 
BRANCH  11  12
ATOM     12  C   UNL     1      77.819 -74.141  -2.206  1.00  0.00    -0.000 C 
BRANCH  12  13
ATOM     13  C   UNL     1      77.194 -74.330  -3.597  1.00  0.00    -0.003 C 
ATOM     14  C   UNL     1      76.271 -73.178  -3.994  1.00  0.00     0.004 C 
ENDBRANCH  12  13
ENDBRANCH  11  12
ENDBRANCH  10  11
ENDBRANCH   9  10
ENDBRANCH   1   9
TORSDOF 10
ENDMDL
MODEL 7
REMARK VINA RESULT:    -3.464      3.289      5.161
REMARK INTER + INTRA:          -6.645
REMARK INTER:                  -5.251
REMARK INTRA:                  -1.394
REMARK UNBOUND:                -1.155
REMARK SMILES CCCCCCCCCCCC(=O)[O-]
REMARK SMILES IDX 7 1 8 2 9 3 10 4 11 5 12 6 13 7 14 8 6 9 5 10 4 11 3 12 2 13
REMARK SMILES IDX 1 14
REMARK H PARENT
REMARK Flexibility Score: inf
ROOT
ATOM      1  C   UNL     1      77.077 -73.059  -3.157  1.00  0.00     0.000 C 
ENDROOT
BRANCH   1   2
ATOM      2  C   UNL     1      77.504 -74.403  -3.775  1.00  0.00     0.000 C 
BRANCH   2   3
ATOM      3  C   UNL     1      76.325 -75.370  -3.972  1.00  0.00     0.000 C 
BRANCH   3   4
ATOM      4  C   UNL     1      76.417 -76.605  -3.060  1.00  0.00     0.006 C 
BRANCH   4   5
ATOM      5  C   UNL     1      77.858 -76.922  -2.637  1.00  0.00     0.053 C 
BRANCH   5   6
ATOM      6  C   UNL     1      77.925 -77.169  -1.163  1.00  0.00     0.041 C 
ATOM      7  O   UNL     1      77.567 -76.273  -0.353  1.00  0.00    -0.550 OA
ATOM      8  O   UNL     1      78.337 -78.405  -0.683  1.00  0.00    -0.550 OA
ENDBRANCH   5   6
ENDBRANCH   4   5
ENDBRANCH   3   4
ENDBRANCH   2   3
ENDBRANCH   1   2
BRANCH   1   9
ATOM      9  C   UNL     1      76.294 -72.125  -4.101  1.00  0.00     0.000 C 
BRANCH   9  10
ATOM     10  C   UNL     1      75.032 -71.480  -3.491  1.00  0.00    -0.000 C 
BRANCH  10  11
ATOM     11  C   UNL     1      74.530 -72.134  -2.190  1.00  0.00    -0.000 C 
BRANCH  11  12
ATOM     12  C   UNL     1      73.415 -73.165  -2.432  1.00  0.00    -0.000 C 
BRANCH  12  13
ATOM     13  C   UNL     1      73.607 -74.444  -1.603  1.00  0.00    -0.003 C 
ATOM     14  C   UNL     1      74.718 -74.316  -0.561  1.00  0.00     0.004 C 
ENDBRANCH  12  13
ENDBRANCH  11  12
ENDBRANCH  10  11
ENDBRANCH   9  10
ENDBRANCH   1   9
TORSDOF 10
ENDMDL
MODEL 8
REMARK VINA RESULT:    -3.434      2.708      4.941
REMARK INTER + INTRA:          -6.597
REMARK INTER:                  -5.303
REMARK INTRA:                  -1.295
REMARK UNBOUND:                -1.155
REMARK SMILES CCCCCCCCCCCC(=O)[O-]
REMARK SMILES IDX 7 1 8 2 9 3 10 4 11 5 12 6 13 7 14 8 6 9 5 10 4 11 3 12 2 13
REMARK SMILES IDX 1 14
REMARK H PARENT
REMARK Flexibility Score: inf
ROOT
ATOM      1  C   UNL     1      77.856 -74.458  -2.199  1.00  0.00     0.000 C 
ENDROOT
BRANCH   1   2
ATOM      2  C   UNL     1      78.159 -75.832  -1.572  1.00  0.00     0.000 C 
BRANCH   2   3
ATOM      3  C   UNL     1      77.126 -76.241  -0.508  1.00  0.00     0.000 C 
BRANCH   3   4
ATOM      4  C   UNL     1      75.766 -75.554  -0.710  1.00  0.00     0.006 C 
BRANCH   4   5
ATOM      5  C   UNL     1      74.656 -76.541  -1.097  1.00  0.00     0.053 C 
BRANCH   5   6
ATOM      6  C   UNL     1      74.502 -76.594  -2.584  1.00  0.00     0.041 C 
ATOM      7  O   UNL     1      73.579 -75.949  -3.149  1.00  0.00    -0.550 OA
ATOM      8  O   UNL     1      75.405 -77.316  -3.352  1.00  0.00    -0.550 OA
ENDBRANCH   5   6
ENDBRANCH   4   5
ENDBRANCH   3   4
ENDBRANCH   2   3
ENDBRANCH   1   2
BRANCH   1   9
ATOM      9  C   UNL     1      77.543 -74.484  -3.709  1.00  0.00     0.000 C 
BRANCH   9  10
ATOM     10  C   UNL     1      76.250 -73.753  -4.124  1.00  0.00    -0.000 C 
BRANCH  10  11
ATOM     11  C   UNL     1      76.195 -72.260  -3.750  1.00  0.00    -0.000 C 
BRANCH  11  12
ATOM     12  C   UNL     1      74.772 -71.779  -3.422  1.00  0.00    -0.000 C 
BRANCH  12  13
ATOM     13  C   UNL     1      74.135 -72.568  -2.269  1.00  0.00    -0.003 C 
ATOM     14  C   UNL     1      74.094 -71.779  -0.960  1.00  0.00     0.004 C 
ENDBRANCH  12  13
ENDBRANCH  11  12
ENDBRANCH  10  11
ENDBRANCH   9  10
ENDBRANCH   1   9
TORSDOF 10
ENDMDL
MODEL 9
REMARK VINA RESULT:    -3.394      3.548      5.273
REMARK INTER + INTRA:          -6.533
REMARK INTER:                  -4.942
REMARK INTRA:                  -1.591
REMARK UNBOUND:                -1.155
REMARK SMILES CCCCCCCCCCCC(=O)[O-]
REMARK SMILES IDX 7 1 8 2 9 3 10 4 11 5 12 6 13 7 14 8 6 9 5 10 4 11 3 12 2 13
REMARK SMILES IDX 1 14
REMARK H PARENT
REMARK Flexibility Score: inf
ROOT
ATOM      1  C   UNL     1      74.867 -73.288  -0.846  1.00  0.00     0.000 C 
ENDROOT
BRANCH   1   2
ATOM      2  C   UNL     1      74.161 -74.630  -0.579  1.00  0.00     0.000 C 
BRANCH   2   3
ATOM      3  C   UNL     1      74.622 -75.746  -1.531  1.00  0.00     0.000 C 
BRANCH   3   4
ATOM      4  C   UNL     1      73.744 -75.848  -2.789  1.00  0.00     0.006 C 
BRANCH   4   5
ATOM      5  C   UNL     1      74.526 -76.328  -4.020  1.00  0.00     0.053 C 
BRANCH   5   6
ATOM      6  C   UNL     1      75.195 -77.635  -3.733  1.00  0.00     0.041 C 
ATOM      7  O   UNL     1      74.507 -78.680  -3.581  1.00  0.00    -0.550 OA
ATOM      8  O   UNL     1      76.580 -77.711  -3.681  1.00  0.00    -0.550 OA
ENDBRANCH   5   6
ENDBRANCH   4   5
ENDBRANCH   3   4
ENDBRANCH   2   3
ENDBRANCH   1   2
BRANCH   1   9
ATOM      9  C   UNL     1      74.088 -72.308  -1.746  1.00  0.00     0.000 C 
BRANCH   9  10
ATOM     10  C   UNL     1      74.894 -71.704  -2.914  1.00  0.00    -0.000 C 
BRANCH  10  11
ATOM     11  C   UNL     1      75.556 -72.733  -3.849  1.00  0.00    -0.000 C 
BRANCH  11  12
ATOM     12  C   UNL     1      77.077 -72.833  -3.645  1.00  0.00    -0.000 C 
BRANCH  12  13
ATOM     13  C   UNL     1      77.563 -74.288  -3.547  1.00  0.00    -0.003 C 
ATOM     14  C   UNL     1      78.042 -74.661  -2.145  1.00  0.00     0.004 C 
ENDBRANCH  12  13
ENDBRANCH  11  12
ENDBRANCH  10  11
ENDBRANCH   9  10
ENDBRANCH   1   9
TORSDOF 10
ENDMDL
