MODEL 1
REMARK VINA RESULT:    -4.684      0.000      0.000
REMARK INTER + INTRA:          -5.458
REMARK INTER:                  -5.368
REMARK INTRA:                  -0.089
REMARK UNBOUND:                -0.089
REMARK SMILES COc1cc(C(=O)[O-])ccc1O
REMARK SMILES IDX 5 1 9 2 4 3 10 4 3 5 11 6 6 7 7 8 8 9 2 10 1 11 12 12
REMARK H PARENT 12 13
REMARK Flexibility Score: inf
ROOT
ATOM      1  C   UNL     1      26.113  27.254  71.070  1.00  0.00     0.001 A 
ATOM      2  C   UNL     1      27.404  26.702  71.044  1.00  0.00     0.014 A 
ATOM      3  C   UNL     1      25.790  28.188  72.071  1.00  0.00     0.060 A 
ATOM      4  C   UNL     1      28.352  27.073  71.999  1.00  0.00     0.051 A 
ATOM      5  C   UNL     1      26.744  28.567  73.037  1.00  0.00     0.161 A 
ATOM      6  C   UNL     1      28.029  28.001  72.993  1.00  0.00     0.157 A 
ENDROOT
BRANCH   1   7
ATOM      7  C   UNL     1      25.106  26.862  70.060  1.00  0.00     0.072 C 
ATOM      8  O   UNL     1      25.450  26.627  68.870  1.00  0.00    -0.545 OA
ATOM      9  O   UNL     1      23.765  26.746  70.408  1.00  0.00    -0.545 OA
ENDBRANCH   1   7
BRANCH   5  10
ATOM     10  O   UNL     1      26.448  29.497  74.048  1.00  0.00    -0.493 OA
ATOM     11  C   UNL     1      25.933  30.804  73.819  1.00  0.00     0.278 C 
ENDBRANCH   5  10
BRANCH   6  12
ATOM     12  O   UNL     1      29.003  28.348  73.930  1.00  0.00    -0.504 OA
ATOM     13  H   UNL     1      28.766  28.709  74.846  1.00  0.00     0.293 HD
ENDBRANCH   6  12
TORSDOF 3
ENDMDL
MODEL 2
REMARK VINA RESULT:    -4.539     13.891     14.438
REMARK INTER + INTRA:          -5.292
REMARK INTER:                  -5.204
REMARK INTRA:                  -0.088
REMARK UNBOUND:                -0.089
REMARK SMILES COc1cc(C(=O)[O-])ccc1O
REMARK SMILES IDX 5 1 9 2 4 3 10 4 3 5 11 6 6 7 7 8 8 9 2 10 1 11 12 12
REMARK H PARENT 12 13
REMARK Flexibility Score: inf
ROOT
ATOM      1  C   UNL     1      23.996  24.478  58.077  1.00  0.00     0.001 A 
ATOM      2  C   UNL     1      24.459  23.158  57.948  1.00  0.00     0.014 A 
ATOM      3  C   UNL     1      24.926  25.510  58.294  1.00  0.00     0.060 A 
ATOM      4  C   UNL     1      25.823  22.875  58.035  1.00  0.00     0.051 A 
ATOM      5  C   UNL     1      26.305  25.230  58.382  1.00  0.00     0.161 A 
ATOM      6  C   UNL     1      26.747  23.902  58.251  1.00  0.00     0.157 A 
ENDROOT
BRANCH   1   7
ATOM      7  C   UNL     1      22.551  24.780  57.985  1.00  0.00     0.072 C 
ATOM      8  O   UNL     1      22.034  25.113  56.885  1.00  0.00    -0.545 OA
ATOM      9  O   UNL     1      21.741  24.701  59.112  1.00  0.00    -0.545 OA
ENDBRANCH   1   7
BRANCH   5  10
ATOM     10  O   UNL     1      27.256  26.240  58.599  1.00  0.00    -0.493 OA
ATOM     11  C   UNL     1      27.877  27.001  57.568  1.00  0.00     0.278 C 
ENDBRANCH   5  10
BRANCH   6  12
ATOM     12  O   UNL     1      28.101  23.581  58.333  1.00  0.00    -0.504 OA
ATOM     13  H   UNL     1      28.828  24.283  58.267  1.00  0.00     0.293 HD
ENDBRANCH   6  12
TORSDOF 3
ENDMDL
MODEL 3
REMARK VINA RESULT:    -4.361      1.288      4.204
REMARK INTER + INTRA:          -5.088
REMARK INTER:                  -4.987
REMARK INTRA:                  -0.101
REMARK UNBOUND:                -0.089
REMARK SMILES COc1cc(C(=O)[O-])ccc1O
REMARK SMILES IDX 5 1 9 2 4 3 10 4 3 5 11 6 6 7 7 8 8 9 2 10 1 11 12 12
REMARK H PARENT 12 13
REMARK Flexibility Score: inf
ROOT
ATOM      1  C   UNL     1      27.224  28.574  72.830  1.00  0.00     0.001 A 
ATOM      2  C   UNL     1      28.401  27.873  72.517  1.00  0.00     0.014 A 
ATOM      3  C   UNL     1      25.992  28.082  72.363  1.00  0.00     0.060 A 
ATOM      4  C   UNL     1      28.348  26.707  71.753  1.00  0.00     0.051 A 
ATOM      5  C   UNL     1      25.933  26.904  71.590  1.00  0.00     0.161 A 
ATOM      6  C   UNL     1      27.124  26.219  71.288  1.00  0.00     0.157 A 
ENDROOT
BRANCH   1   7
ATOM      7  C   UNL     1      27.277  29.811  73.640  1.00  0.00     0.072 C 
ATOM      8  O   UNL     1      28.382  30.357  73.904  1.00  0.00    -0.545 OA
ATOM      9  O   UNL     1      26.109  30.389  74.121  1.00  0.00    -0.545 OA
ENDBRANCH   1   7
BRANCH   5  10
ATOM     10  O   UNL     1      24.718  26.390  71.111  1.00  0.00    -0.493 OA
ATOM     11  C   UNL     1      24.084  26.802  69.904  1.00  0.00     0.278 C 
ENDBRANCH   5  10
BRANCH   6  12
ATOM     12  O   UNL     1      27.110  25.050  70.528  1.00  0.00    -0.504 OA
ATOM     13  H   UNL     1      26.402  24.871  69.826  1.00  0.00     0.293 HD
ENDBRANCH   6  12
TORSDOF 3
ENDMDL
MODEL 4
REMARK VINA RESULT:    -4.251     13.907     14.608
REMARK INTER + INTRA:          -4.962
REMARK INTER:                  -4.917
REMARK INTRA:                  -0.045
REMARK UNBOUND:                -0.089
REMARK SMILES COc1cc(C(=O)[O-])ccc1O
REMARK SMILES IDX 5 1 9 2 4 3 10 4 3 5 11 6 6 7 7 8 8 9 2 10 1 11 12 12
REMARK H PARENT 12 13
REMARK Flexibility Score: inf
ROOT
ATOM      1  C   UNL     1      26.311  25.449  58.266  1.00  0.00     0.001 A 
ATOM      2  C   UNL     1      26.525  24.172  58.812  1.00  0.00     0.014 A 
ATOM      3  C   UNL     1      24.995  25.866  58.000  1.00  0.00     0.060 A 
ATOM      4  C   UNL     1      25.446  23.329  59.084  1.00  0.00     0.051 A 
ATOM      5  C   UNL     1      23.902  25.018  58.273  1.00  0.00     0.161 A 
ATOM      6  C   UNL     1      24.138  23.744  58.819  1.00  0.00     0.157 A 
ENDROOT
BRANCH   1   7
ATOM      7  C   UNL     1      27.453  26.344  57.976  1.00  0.00     0.072 C 
ATOM      8  O   UNL     1      27.258  27.520  57.567  1.00  0.00    -0.545 OA
ATOM      9  O   UNL     1      28.759  25.900  58.151  1.00  0.00    -0.545 OA
ENDBRANCH   1   7
BRANCH   5  10
ATOM     10  O   UNL     1      22.577  25.409  58.017  1.00  0.00    -0.493 OA
ATOM     11  C   UNL     1      21.830  25.030  56.866  1.00  0.00     0.278 C 
ENDBRANCH   5  10
BRANCH   6  12
ATOM     12  O   UNL     1      23.086  22.875  59.104  1.00  0.00    -0.504 OA
ATOM     13  H   UNL     1      22.220  22.885  58.580  1.00  0.00     0.293 HD
ENDBRANCH   6  12
TORSDOF 3
ENDMDL
MODEL 5
REMARK VINA RESULT:    -3.836      1.485      4.975
REMARK INTER + INTRA:          -4.486
REMARK INTER:                  -4.400
REMARK INTRA:                  -0.086
REMARK UNBOUND:                -0.089
REMARK SMILES COc1cc(C(=O)[O-])ccc1O
REMARK SMILES IDX 5 1 9 2 4 3 10 4 3 5 11 6 6 7 7 8 8 9 2 10 1 11 12 12
REMARK H PARENT 12 13
REMARK Flexibility Score: inf
ROOT
ATOM      1  C   UNL     1      26.896  27.380  71.801  1.00  0.00     0.001 A 
ATOM      2  C   UNL     1      25.607  27.511  72.345  1.00  0.00     0.014 A 
ATOM      3  C   UNL     1      27.039  26.874  70.497  1.00  0.00     0.060 A 
ATOM      4  C   UNL     1      24.485  27.143  71.601  1.00  0.00     0.051 A 
ATOM      5  C   UNL     1      25.908  26.502  69.741  1.00  0.00     0.161 A 
ATOM      6  C   UNL     1      24.628  26.640  70.305  1.00  0.00     0.157 A 
ENDROOT
BRANCH   1   7
ATOM      7  C   UNL     1      28.087  27.769  72.587  1.00  0.00     0.072 C 
ATOM      8  O   UNL     1      29.104  27.025  72.621  1.00  0.00    -0.545 OA
ATOM      9  O   UNL     1      28.103  28.962  73.301  1.00  0.00    -0.545 OA
ENDBRANCH   1   7
BRANCH   5  10
ATOM     10  O   UNL     1      26.021  25.993  68.437  1.00  0.00    -0.493 OA
ATOM     11  C   UNL     1      26.772  26.604  67.392  1.00  0.00     0.278 C 
ENDBRANCH   5  10
BRANCH   6  12
ATOM     12  O   UNL     1      23.483  26.283  69.593  1.00  0.00    -0.504 OA
ATOM     13  H   UNL     1      23.499  26.120  68.593  1.00  0.00     0.293 HD
ENDBRANCH   6  12
TORSDOF 3
ENDMDL
MODEL 6
REMARK VINA RESULT:    -3.308     13.866     15.280
REMARK INTER + INTRA:          -3.881
REMARK INTER:                  -3.787
REMARK INTRA:                  -0.094
REMARK UNBOUND:                -0.089
REMARK SMILES COc1cc(C(=O)[O-])ccc1O
REMARK SMILES IDX 5 1 9 2 4 3 10 4 3 5 11 6 6 7 7 8 8 9 2 10 1 11 12 12
REMARK H PARENT 12 13
REMARK Flexibility Score: inf
ROOT
ATOM      1  C   UNL     1      25.002  24.363  58.378  1.00  0.00     0.001 A 
ATOM      2  C   UNL     1      24.508  23.254  59.086  1.00  0.00     0.014 A 
ATOM      3  C   UNL     1      24.128  25.086  57.547  1.00  0.00     0.060 A 
ATOM      4  C   UNL     1      23.171  22.875  58.963  1.00  0.00     0.051 A 
ATOM      5  C   UNL     1      22.776  24.708  57.420  1.00  0.00     0.161 A 
ATOM      6  C   UNL     1      22.304  23.594  58.136  1.00  0.00     0.157 A 
ENDROOT
BRANCH   1   7
ATOM      7  C   UNL     1      26.419  24.767  58.506  1.00  0.00     0.072 C 
ATOM      8  O   UNL     1      27.338  23.905  58.464  1.00  0.00    -0.545 OA
ATOM      9  O   UNL     1      26.759  26.104  58.674  1.00  0.00    -0.545 OA
ENDBRANCH   1   7
BRANCH   5  10
ATOM     10  O   UNL     1      21.882  25.411  56.597  1.00  0.00    -0.493 OA
ATOM     11  C   UNL     1      21.986  25.501  55.180  1.00  0.00     0.278 C 
ENDBRANCH   5  10
BRANCH   6  12
ATOM     12  O   UNL     1      20.974  23.185  58.039  1.00  0.00    -0.504 OA
ATOM     13  H   UNL     1      20.614  22.392  58.556  1.00  0.00     0.293 HD
ENDBRANCH   6  12
TORSDOF 3
ENDMDL
MODEL 7
REMARK VINA RESULT:    -2.901      1.747      2.410
REMARK INTER + INTRA:          -3.414
REMARK INTER:                  -3.331
REMARK INTRA:                  -0.083
REMARK UNBOUND:                -0.089
REMARK SMILES COc1cc(C(=O)[O-])ccc1O
REMARK SMILES IDX 5 1 9 2 4 3 10 4 3 5 11 6 6 7 7 8 8 9 2 10 1 11 12 12
REMARK H PARENT 12 13
REMARK Flexibility Score: inf
ROOT
ATOM      1  C   UNL     1      25.064  26.480  71.317  1.00  0.00     0.001 A 
ATOM      2  C   UNL     1      25.641  26.192  70.068  1.00  0.00     0.014 A 
ATOM      3  C   UNL     1      25.861  27.062  72.319  1.00  0.00     0.060 A 
ATOM      4  C   UNL     1      26.985  26.478  69.827  1.00  0.00     0.051 A 
ATOM      5  C   UNL     1      27.219  27.354  72.080  1.00  0.00     0.161 A 
ATOM      6  C   UNL     1      27.776  27.056  70.824  1.00  0.00     0.157 A 
ENDROOT
BRANCH   1   7
ATOM      7  C   UNL     1      23.639  26.178  71.575  1.00  0.00     0.072 C 
ATOM      8  O   UNL     1      22.875  25.836  70.633  1.00  0.00    -0.545 OA
ATOM      9  O   UNL     1      23.122  26.266  72.862  1.00  0.00    -0.545 OA
ENDBRANCH   1   7
BRANCH   5  10
ATOM     10  O   UNL     1      28.038  27.934  73.062  1.00  0.00    -0.493 OA
ATOM     11  C   UNL     1      27.583  28.837  74.065  1.00  0.00     0.278 C 
ENDBRANCH   5  10
BRANCH   6  12
ATOM     12  O   UNL     1      29.115  27.328  70.546  1.00  0.00    -0.504 OA
ATOM     13  H   UNL     1      29.824  27.346  71.269  1.00  0.00     0.293 HD
ENDBRANCH   6  12
TORSDOF 3
ENDMDL
MODEL 8
REMARK VINA RESULT:    -2.396      5.185      7.128
REMARK INTER + INTRA:          -2.835
REMARK INTER:                  -2.764
REMARK INTRA:                  -0.071
REMARK UNBOUND:                -0.089
REMARK SMILES COc1cc(C(=O)[O-])ccc1O
REMARK SMILES IDX 5 1 9 2 4 3 10 4 3 5 11 6 6 7 7 8 8 9 2 10 1 11 12 12
REMARK H PARENT 12 13
REMARK Flexibility Score: inf
ROOT
ATOM      1  C   UNL     1      27.913  33.110  72.835  1.00  0.00     0.001 A 
ATOM      2  C   UNL     1      28.165  33.217  71.457  1.00  0.00     0.014 A 
ATOM      3  C   UNL     1      28.068  34.247  73.648  1.00  0.00     0.060 A 
ATOM      4  C   UNL     1      28.567  34.433  70.904  1.00  0.00     0.051 A 
ATOM      5  C   UNL     1      28.473  35.479  73.093  1.00  0.00     0.161 A 
ATOM      6  C   UNL     1      28.722  35.563  71.712  1.00  0.00     0.157 A 
ENDROOT
BRANCH   1   7
ATOM      7  C   UNL     1      27.488  31.822  73.424  1.00  0.00     0.072 C 
ATOM      8  O   UNL     1      28.311  31.100  74.049  1.00  0.00    -0.545 OA
ATOM      9  O   UNL     1      26.173  31.388  73.299  1.00  0.00    -0.545 OA
ENDBRANCH   1   7
BRANCH   5  10
ATOM     10  O   UNL     1      28.637  36.630  73.881  1.00  0.00    -0.493 OA
ATOM     11  C   UNL     1      27.629  37.610  74.102  1.00  0.00     0.278 C 
ENDBRANCH   5  10
BRANCH   6  12
ATOM     12  O   UNL     1      29.124  36.761  71.123  1.00  0.00    -0.504 OA
ATOM     13  H   UNL     1      30.097  36.969  70.932  1.00  0.00     0.293 HD
ENDBRANCH   6  12
TORSDOF 3
ENDMDL
