MODEL 1
REMARK VINA RESULT:    -3.774      0.000      0.000
REMARK INTER + INTRA:          -5.103
REMARK INTER:                  -4.877
REMARK INTRA:                  -0.226
REMARK UNBOUND:                -0.226
REMARK SMILES CCCCCCC(=O)[O-]
REMARK SMILES IDX 5 1 6 2 7 3 8 4 9 5 4 6 3 7 2 8 1 9
REMARK H PARENT
REMARK Flexibility Score: inf
ROOT
ATOM      1  C   UNL     1      74.662  82.453  74.651  1.00  0.00     0.006 C 
ENDROOT
BRANCH   1   2
ATOM      2  C   UNL     1      75.577  83.184  75.642  1.00  0.00     0.053 C 
BRANCH   2   3
ATOM      3  C   UNL     1      76.632  83.952  74.912  1.00  0.00     0.041 C 
ATOM      4  O   UNL     1      77.596  83.348  74.372  1.00  0.00    -0.550 OA
ATOM      5  O   UNL     1      76.577  85.340  74.867  1.00  0.00    -0.550 OA
ENDBRANCH   2   3
ENDBRANCH   1   2
BRANCH   1   6
ATOM      6  C   UNL     1      73.270  83.112  74.542  1.00  0.00     0.000 C 
BRANCH   6   7
ATOM      7  C   UNL     1      72.102  82.112  74.631  1.00  0.00    -0.000 C 
BRANCH   7   8
ATOM      8  C   UNL     1      71.105  82.388  75.769  1.00  0.00    -0.003 C 
ATOM      9  C   UNL     1      71.789  82.607  77.118  1.00  0.00     0.004 C 
ENDBRANCH   7   8
ENDBRANCH   6   7
ENDBRANCH   1   6
TORSDOF 5
ENDMDL
MODEL 2
REMARK VINA RESULT:    -3.759      0.548      1.269
REMARK INTER + INTRA:          -5.084
REMARK INTER:                  -4.898
REMARK INTRA:                  -0.186
REMARK UNBOUND:                -0.226
REMARK SMILES CCCCCCC(=O)[O-]
REMARK SMILES IDX 5 1 6 2 7 3 8 4 9 5 4 6 3 7 2 8 1 9
REMARK H PARENT
REMARK Flexibility Score: inf
ROOT
ATOM      1  C   UNL     1      74.868  82.365  75.089  1.00  0.00     0.006 C 
ENDROOT
BRANCH   1   2
ATOM      2  C   UNL     1      75.817  83.265  75.892  1.00  0.00     0.053 C 
BRANCH   2   3
ATOM      3  C   UNL     1      76.744  83.998  74.975  1.00  0.00     0.041 C 
ATOM      4  O   UNL     1      76.653  85.247  74.849  1.00  0.00    -0.550 OA
ATOM      5  O   UNL     1      77.679  83.297  74.223  1.00  0.00    -0.550 OA
ENDBRANCH   2   3
ENDBRANCH   1   2
BRANCH   1   6
ATOM      6  C   UNL     1      73.651  83.139  74.541  1.00  0.00     0.000 C 
BRANCH   6   7
ATOM      7  C   UNL     1      72.296  82.511  74.920  1.00  0.00    -0.000 C 
BRANCH   7   8
ATOM      8  C   UNL     1      71.950  82.586  76.417  1.00  0.00    -0.003 C 
ATOM      9  C   UNL     1      70.536  82.094  76.724  1.00  0.00     0.004 C 
ENDBRANCH   7   8
ENDBRANCH   6   7
ENDBRANCH   1   6
TORSDOF 5
ENDMDL
MODEL 3
REMARK VINA RESULT:    -3.755      3.126      3.988
REMARK INTER + INTRA:          -5.078
REMARK INTER:                  -4.994
REMARK INTRA:                  -0.085
REMARK UNBOUND:                -0.226
REMARK SMILES CCCCCCC(=O)[O-]
REMARK SMILES IDX 5 1 6 2 7 3 8 4 9 5 4 6 3 7 2 8 1 9
REMARK H PARENT
REMARK Flexibility Score: inf
ROOT
ATOM      1  C   UNL     1      76.266  82.093  76.615  1.00  0.00     0.006 C 
ENDROOT
BRANCH   1   2
ATOM      2  C   UNL     1      75.682  83.390  76.040  1.00  0.00     0.053 C 
BRANCH   2   3
ATOM      3  C   UNL     1      76.610  83.976  75.024  1.00  0.00     0.041 C 
ATOM      4  O   UNL     1      77.388  83.231  74.372  1.00  0.00    -0.550 OA
ATOM      5  O   UNL     1      76.650  85.352  74.829  1.00  0.00    -0.550 OA
ENDBRANCH   2   3
ENDBRANCH   1   2
BRANCH   1   6
ATOM      6  C   UNL     1      76.431  82.153  78.148  1.00  0.00     0.000 C 
BRANCH   6   7
ATOM      7  C   UNL     1      75.454  81.239  78.912  1.00  0.00    -0.000 C 
BRANCH   7   8
ATOM      8  C   UNL     1      76.118  80.072  79.661  1.00  0.00    -0.003 C 
ATOM      9  C   UNL     1      75.426  79.745  80.984  1.00  0.00     0.004 C 
ENDBRANCH   7   8
ENDBRANCH   6   7
ENDBRANCH   1   6
TORSDOF 5
ENDMDL
MODEL 4
REMARK VINA RESULT:    -3.540      1.646      2.023
REMARK INTER + INTRA:          -4.801
REMARK INTER:                  -4.575
REMARK INTRA:                  -0.226
REMARK UNBOUND:                -0.226
REMARK SMILES CCCCCCC(=O)[O-]
REMARK SMILES IDX 5 1 6 2 7 3 8 4 9 5 4 6 3 7 2 8 1 9
REMARK H PARENT
REMARK Flexibility Score: inf
ROOT
ATOM      1  C   UNL     1      75.532  81.836  76.430  1.00  0.00     0.006 C 
ENDROOT
BRANCH   1   2
ATOM      2  C   UNL     1      76.269  83.182  76.473  1.00  0.00     0.053 C 
BRANCH   2   3
ATOM      3  C   UNL     1      75.883  84.027  75.302  1.00  0.00     0.041 C 
ATOM      4  O   UNL     1      74.827  83.780  74.662  1.00  0.00    -0.550 OA
ATOM      5  O   UNL     1      76.713  85.062  74.886  1.00  0.00    -0.550 OA
ENDBRANCH   2   3
ENDBRANCH   1   2
BRANCH   1   6
ATOM      6  C   UNL     1      74.431  81.736  77.507  1.00  0.00     0.000 C 
BRANCH   6   7
ATOM      7  C   UNL     1      73.026  81.473  76.933  1.00  0.00    -0.000 C 
BRANCH   7   8
ATOM      8  C   UNL     1      72.088  82.692  76.946  1.00  0.00    -0.003 C 
ATOM      9  C   UNL     1      70.620  82.313  76.750  1.00  0.00     0.004 C 
ENDBRANCH   7   8
ENDBRANCH   6   7
ENDBRANCH   1   6
TORSDOF 5
ENDMDL
MODEL 5
REMARK VINA RESULT:    -3.518      2.104      3.443
REMARK INTER + INTRA:          -4.773
REMARK INTER:                  -4.420
REMARK INTRA:                  -0.353
REMARK UNBOUND:                -0.226
REMARK SMILES CCCCCCC(=O)[O-]
REMARK SMILES IDX 5 1 6 2 7 3 8 4 9 5 4 6 3 7 2 8 1 9
REMARK H PARENT
REMARK Flexibility Score: inf
ROOT
ATOM      1  C   UNL     1      74.704  82.250  75.355  1.00  0.00     0.006 C 
ENDROOT
BRANCH   1   2
ATOM      2  C   UNL     1      75.136  83.675  75.725  1.00  0.00     0.053 C 
BRANCH   2   3
ATOM      3  C   UNL     1      76.464  83.994  75.114  1.00  0.00     0.041 C 
ATOM      4  O   UNL     1      76.771  85.187  74.854  1.00  0.00    -0.550 OA
ATOM      5  O   UNL     1      77.344  82.970  74.789  1.00  0.00    -0.550 OA
ENDBRANCH   2   3
ENDBRANCH   1   2
BRANCH   1   6
ATOM      6  C   UNL     1      74.412  81.385  76.600  1.00  0.00     0.000 C 
BRANCH   6   7
ATOM      7  C   UNL     1      74.927  81.998  77.916  1.00  0.00    -0.000 C 
BRANCH   7   8
ATOM      8  C   UNL     1      75.999  81.165  78.637  1.00  0.00    -0.003 C 
ATOM      9  C   UNL     1      77.419  81.661  78.363  1.00  0.00     0.004 C 
ENDBRANCH   7   8
ENDBRANCH   6   7
ENDBRANCH   1   6
TORSDOF 5
ENDMDL
MODEL 6
REMARK VINA RESULT:    -3.503      3.032      4.535
REMARK INTER + INTRA:          -4.753
REMARK INTER:                  -4.474
REMARK INTRA:                  -0.279
REMARK UNBOUND:                -0.226
REMARK SMILES CCCCCCC(=O)[O-]
REMARK SMILES IDX 5 1 6 2 7 3 8 4 9 5 4 6 3 7 2 8 1 9
REMARK H PARENT
REMARK Flexibility Score: inf
ROOT
ATOM      1  C   UNL     1      76.056  81.823  76.398  1.00  0.00     0.006 C 
ENDROOT
BRANCH   1   2
ATOM      2  C   UNL     1      76.933  82.737  75.532  1.00  0.00     0.053 C 
BRANCH   2   3
ATOM      3  C   UNL     1      76.152  83.925  75.068  1.00  0.00     0.041 C 
ATOM      4  O   UNL     1      74.921  83.820  74.829  1.00  0.00    -0.550 OA
ATOM      5  O   UNL     1      76.794  85.139  74.854  1.00  0.00    -0.550 OA
ENDBRANCH   2   3
ENDBRANCH   1   2
BRANCH   1   6
ATOM      6  C   UNL     1      76.088  82.220  77.889  1.00  0.00     0.000 C 
BRANCH   6   7
ATOM      7  C   UNL     1      76.474  81.062  78.830  1.00  0.00    -0.000 C 
BRANCH   7   8
ATOM      8  C   UNL     1      77.762  80.319  78.439  1.00  0.00    -0.003 C 
ATOM      9  C   UNL     1      79.010  81.194  78.556  1.00  0.00     0.004 C 
ENDBRANCH   7   8
ENDBRANCH   6   7
ENDBRANCH   1   6
TORSDOF 5
ENDMDL
MODEL 7
REMARK VINA RESULT:    -3.315     12.131     13.401
REMARK INTER + INTRA:          -4.510
REMARK INTER:                  -4.364
REMARK INTRA:                  -0.146
REMARK UNBOUND:                -0.226
REMARK SMILES CCCCCCC(=O)[O-]
REMARK SMILES IDX 5 1 6 2 7 3 8 4 9 5 4 6 3 7 2 8 1 9
REMARK H PARENT
REMARK Flexibility Score: inf
ROOT
ATOM      1  C   UNL     1      73.362  95.530  69.926  1.00  0.00     0.006 C 
ENDROOT
BRANCH   1   2
ATOM      2  C   UNL     1      73.270  95.436  71.455  1.00  0.00     0.053 C 
BRANCH   2   3
ATOM      3  C   UNL     1      71.843  95.488  71.898  1.00  0.00     0.041 C 
ATOM      4  O   UNL     1      71.129  96.487  71.620  1.00  0.00    -0.550 OA
ATOM      5  O   UNL     1      71.312  94.453  72.659  1.00  0.00    -0.550 OA
ENDBRANCH   2   3
ENDBRANCH   1   2
BRANCH   1   6
ATOM      6  C   UNL     1      74.361  94.514  69.335  1.00  0.00     0.000 C 
BRANCH   6   7
ATOM      7  C   UNL     1      75.827  94.790  69.720  1.00  0.00    -0.000 C 
BRANCH   7   8
ATOM      8  C   UNL     1      76.806  93.654  69.377  1.00  0.00    -0.003 C 
ATOM      9  C   UNL     1      76.132  92.488  68.656  1.00  0.00     0.004 C 
ENDBRANCH   7   8
ENDBRANCH   6   7
ENDBRANCH   1   6
TORSDOF 5
ENDMDL
MODEL 8
REMARK VINA RESULT:    -3.160      1.609      2.292
REMARK INTER + INTRA:          -4.310
REMARK INTER:                  -4.017
REMARK INTRA:                  -0.293
REMARK UNBOUND:                -0.226
REMARK SMILES CCCCCCC(=O)[O-]
REMARK SMILES IDX 5 1 6 2 7 3 8 4 9 5 4 6 3 7 2 8 1 9
REMARK H PARENT
REMARK Flexibility Score: inf
ROOT
ATOM      1  C   UNL     1      74.371  83.363  75.119  1.00  0.00     0.006 C 
ENDROOT
BRANCH   1   2
ATOM      2  C   UNL     1      75.789  83.055  75.616  1.00  0.00     0.053 C 
BRANCH   2   3
ATOM      3  C   UNL     1      76.790  83.906  74.901  1.00  0.00     0.041 C 
ATOM      4  O   UNL     1      77.811  83.383  74.382  1.00  0.00    -0.550 OA
ATOM      5  O   UNL     1      76.621  85.284  74.849  1.00  0.00    -0.550 OA
ENDBRANCH   2   3
ENDBRANCH   1   2
BRANCH   1   6
ATOM      6  C   UNL     1      73.638  82.100  74.619  1.00  0.00     0.000 C 
BRANCH   6   7
ATOM      7  C   UNL     1      74.556  81.096  73.897  1.00  0.00    -0.000 C 
BRANCH   7   8
ATOM      8  C   UNL     1      74.402  79.637  74.358  1.00  0.00    -0.003 C 
ATOM      9  C   UNL     1      74.167  79.512  75.863  1.00  0.00     0.004 C 
ENDBRANCH   7   8
ENDBRANCH   6   7
ENDBRANCH   1   6
TORSDOF 5
ENDMDL
MODEL 9
REMARK VINA RESULT:    -3.158      3.525      5.896
REMARK INTER + INTRA:          -4.308
REMARK INTER:                  -3.891
REMARK INTRA:                  -0.416
REMARK UNBOUND:                -0.226
REMARK SMILES CCCCCCC(=O)[O-]
REMARK SMILES IDX 5 1 6 2 7 3 8 4 9 5 4 6 3 7 2 8 1 9
REMARK H PARENT
REMARK Flexibility Score: inf
ROOT
ATOM      1  C   UNL     1      77.618  81.843  76.509  1.00  0.00     0.006 C 
ENDROOT
BRANCH   1   2
ATOM      2  C   UNL     1      76.914  82.127  75.175  1.00  0.00     0.053 C 
BRANCH   2   3
ATOM      3  C   UNL     1      76.819  83.600  74.937  1.00  0.00     0.041 C 
ATOM      4  O   UNL     1      77.848  84.261  74.636  1.00  0.00    -0.550 OA
ATOM      5  O   UNL     1      75.603  84.254  75.094  1.00  0.00    -0.550 OA
ENDBRANCH   2   3
ENDBRANCH   1   2
BRANCH   1   6
ATOM      6  C   UNL     1      79.052  81.309  76.313  1.00  0.00     0.000 C 
BRANCH   6   7
ATOM      7  C   UNL     1      80.144  82.376  76.520  1.00  0.00    -0.000 C 
BRANCH   7   8
ATOM      8  C   UNL     1      81.069  82.593  75.310  1.00  0.00    -0.003 C 
ATOM      9  C   UNL     1      80.522  81.968  74.027  1.00  0.00     0.004 C 
ENDBRANCH   7   8
ENDBRANCH   6   7
ENDBRANCH   1   6
TORSDOF 5
ENDMDL
