MODEL 1
REMARK VINA RESULT:    -4.360      0.000      0.000
REMARK INTER + INTRA:          -4.769
REMARK INTER:                  -4.742
REMARK INTRA:                  -0.027
REMARK UNBOUND:                -0.027
REMARK SMILES COc1ccccc1O
REMARK SMILES IDX 3 1 4 2 5 3 6 4 7 5 8 6 2 7 1 8 9 9
REMARK H PARENT 9 10
REMARK Flexibility Score: inf
ROOT
ATOM      1  C   UNL     1     -30.155 -21.418 -32.814  1.00  0.00     0.160 A 
ATOM      2  C   UNL     1     -30.745 -21.754 -31.579  1.00  0.00     0.050 A 
ATOM      3  C   UNL     1     -30.301 -21.153 -30.398  1.00  0.00     0.004 A 
ATOM      4  C   UNL     1     -29.268 -20.215 -30.434  1.00  0.00     0.004 A 
ATOM      5  C   UNL     1     -28.676 -19.875 -31.652  1.00  0.00     0.050 A 
ATOM      6  C   UNL     1     -29.113 -20.471 -32.842  1.00  0.00     0.157 A 
ENDROOT
BRANCH   1   7
ATOM      7  O   UNL     1     -30.574 -22.000 -34.021  1.00  0.00    -0.493 OA
ATOM      8  C   UNL     1     -31.874 -22.534 -34.250  1.00  0.00     0.278 C 
ENDBRANCH   1   7
BRANCH   6   9
ATOM      9  O   UNL     1     -28.500 -20.109 -34.041  1.00  0.00    -0.504 OA
ATOM     10  H   UNL     1     -28.659 -19.209 -34.478  1.00  0.00     0.293 HD
ENDBRANCH   6   9
TORSDOF 2
ENDMDL
MODEL 2
REMARK VINA RESULT:    -4.321      2.523      3.404
REMARK INTER + INTRA:          -4.726
REMARK INTER:                  -4.694
REMARK INTRA:                  -0.033
REMARK UNBOUND:                -0.027
REMARK SMILES COc1ccccc1O
REMARK SMILES IDX 3 1 4 2 5 3 6 4 7 5 8 6 2 7 1 8 9 9
REMARK H PARENT 9 10
REMARK Flexibility Score: inf
ROOT
ATOM      1  C   UNL     1     -30.282 -20.345 -30.726  1.00  0.00     0.160 A 
ATOM      2  C   UNL     1     -30.915 -20.494 -31.976  1.00  0.00     0.050 A 
ATOM      3  C   UNL     1     -30.188 -20.334 -33.159  1.00  0.00     0.004 A 
ATOM      4  C   UNL     1     -28.828 -20.025 -33.109  1.00  0.00     0.004 A 
ATOM      5  C   UNL     1     -28.190 -19.876 -31.876  1.00  0.00     0.050 A 
ATOM      6  C   UNL     1     -28.909 -20.034 -30.684  1.00  0.00     0.157 A 
ENDROOT
BRANCH   1   7
ATOM      7  O   UNL     1     -30.979 -20.498 -29.516  1.00  0.00    -0.493 OA
ATOM      8  C   UNL     1     -32.233 -19.891 -29.226  1.00  0.00     0.278 C 
ENDBRANCH   1   7
BRANCH   6   9
ATOM      9  O   UNL     1     -28.241 -19.878 -29.470  1.00  0.00    -0.504 OA
ATOM     10  H   UNL     1     -28.532 -19.198 -28.778  1.00  0.00     0.293 HD
ENDBRANCH   6   9
TORSDOF 2
ENDMDL
MODEL 3
REMARK VINA RESULT:    -3.902      5.111      6.297
REMARK INTER + INTRA:          -4.270
REMARK INTER:                  -4.224
REMARK INTRA:                  -0.046
REMARK UNBOUND:                -0.027
REMARK SMILES COc1ccccc1O
REMARK SMILES IDX 3 1 4 2 5 3 6 4 7 5 8 6 2 7 1 8 9 9
REMARK H PARENT 9 10
REMARK Flexibility Score: inf
ROOT
ATOM      1  C   UNL     1     -33.181 -22.322 -36.598  1.00  0.00     0.160 A 
ATOM      2  C   UNL     1     -32.919 -22.192 -37.977  1.00  0.00     0.050 A 
ATOM      3  C   UNL     1     -32.039 -23.070 -38.614  1.00  0.00     0.004 A 
ATOM      4  C   UNL     1     -31.412 -24.085 -37.888  1.00  0.00     0.004 A 
ATOM      5  C   UNL     1     -31.665 -24.223 -36.522  1.00  0.00     0.050 A 
ATOM      6  C   UNL     1     -32.545 -23.349 -35.873  1.00  0.00     0.157 A 
ENDROOT
BRANCH   1   7
ATOM      7  O   UNL     1     -34.059 -21.459 -35.923  1.00  0.00    -0.493 OA
ATOM      8  C   UNL     1     -33.710 -20.163 -35.448  1.00  0.00     0.278 C 
ENDBRANCH   1   7
BRANCH   6   9
ATOM      9  O   UNL     1     -32.774 -23.516 -34.507  1.00  0.00    -0.504 OA
ATOM     10  H   UNL     1     -33.182 -24.361 -34.128  1.00  0.00     0.293 HD
ENDBRANCH   6   9
TORSDOF 2
ENDMDL
MODEL 4
REMARK VINA RESULT:    -3.792     21.536     22.032
REMARK INTER + INTRA:          -4.151
REMARK INTER:                  -4.125
REMARK INTRA:                  -0.026
REMARK UNBOUND:                -0.027
REMARK SMILES COc1ccccc1O
REMARK SMILES IDX 3 1 4 2 5 3 6 4 7 5 8 6 2 7 1 8 9 9
REMARK H PARENT 9 10
REMARK Flexibility Score: inf
ROOT
ATOM      1  C   UNL     1     -18.821 -38.888 -38.376  1.00  0.00     0.160 A 
ATOM      2  C   UNL     1     -18.003 -40.036 -38.381  1.00  0.00     0.050 A 
ATOM      3  C   UNL     1     -16.611 -39.911 -38.391  1.00  0.00     0.004 A 
ATOM      4  C   UNL     1     -16.021 -38.646 -38.396  1.00  0.00     0.004 A 
ATOM      5  C   UNL     1     -16.821 -37.503 -38.391  1.00  0.00     0.050 A 
ATOM      6  C   UNL     1     -18.217 -37.616 -38.381  1.00  0.00     0.157 A 
ENDROOT
BRANCH   1   7
ATOM      7  O   UNL     1     -20.222 -38.974 -38.365  1.00  0.00    -0.493 OA
ATOM      8  C   UNL     1     -20.963 -40.125 -38.755  1.00  0.00     0.278 C 
ENDBRANCH   1   7
BRANCH   6   9
ATOM      9  O   UNL     1     -18.987 -36.452 -38.376  1.00  0.00    -0.504 OA
ATOM     10  H   UNL     1     -19.998 -36.475 -38.421  1.00  0.00     0.293 HD
ENDBRANCH   6   9
TORSDOF 2
ENDMDL
MODEL 5
REMARK VINA RESULT:    -3.678      1.471      2.391
REMARK INTER + INTRA:          -4.027
REMARK INTER:                  -4.002
REMARK INTRA:                  -0.026
REMARK UNBOUND:                -0.027
REMARK SMILES COc1ccccc1O
REMARK SMILES IDX 3 1 4 2 5 3 6 4 7 5 8 6 2 7 1 8 9 9
REMARK H PARENT 9 10
REMARK Flexibility Score: inf
ROOT
ATOM      1  C   UNL     1     -30.358 -21.687 -32.615  1.00  0.00     0.160 A 
ATOM      2  C   UNL     1     -29.671 -20.812 -33.481  1.00  0.00     0.050 A 
ATOM      3  C   UNL     1     -28.729 -19.913 -32.975  1.00  0.00     0.004 A 
ATOM      4  C   UNL     1     -28.461 -19.876 -31.605  1.00  0.00     0.004 A 
ATOM      5  C   UNL     1     -29.135 -20.738 -30.739  1.00  0.00     0.050 A 
ATOM      6  C   UNL     1     -30.081 -21.643 -31.235  1.00  0.00     0.157 A 
ENDROOT
BRANCH   1   7
ATOM      7  O   UNL     1     -31.311 -22.604 -33.087  1.00  0.00    -0.493 OA
ATOM      8  C   UNL     1     -31.867 -22.586 -34.397  1.00  0.00     0.278 C 
ENDBRANCH   1   7
BRANCH   6   9
ATOM      9  O   UNL     1     -30.736 -22.490 -30.341  1.00  0.00    -0.504 OA
ATOM     10  H   UNL     1     -31.640 -22.897 -30.547  1.00  0.00     0.293 HD
ENDBRANCH   6   9
TORSDOF 2
ENDMDL
MODEL 6
REMARK VINA RESULT:    -3.613      3.698      6.392
REMARK INTER + INTRA:          -3.957
REMARK INTER:                  -3.918
REMARK INTRA:                  -0.039
REMARK UNBOUND:                -0.027
REMARK SMILES COc1ccccc1O
REMARK SMILES IDX 3 1 4 2 5 3 6 4 7 5 8 6 2 7 1 8 9 9
REMARK H PARENT 9 10
REMARK Flexibility Score: inf
ROOT
ATOM      1  C   UNL     1     -32.365 -23.004 -36.516  1.00  0.00     0.160 A 
ATOM      2  C   UNL     1     -33.456 -22.145 -36.755  1.00  0.00     0.050 A 
ATOM      3  C   UNL     1     -33.751 -21.721 -38.054  1.00  0.00     0.004 A 
ATOM      4  C   UNL     1     -32.964 -22.148 -39.125  1.00  0.00     0.004 A 
ATOM      5  C   UNL     1     -31.880 -22.999 -38.900  1.00  0.00     0.050 A 
ATOM      6  C   UNL     1     -31.576 -23.430 -37.603  1.00  0.00     0.157 A 
ENDROOT
BRANCH   1   7
ATOM      7  O   UNL     1     -32.038 -23.452 -35.226  1.00  0.00    -0.493 OA
ATOM      8  C   UNL     1     -31.667 -22.600 -34.147  1.00  0.00     0.278 C 
ENDBRANCH   1   7
BRANCH   6   9
ATOM      9  O   UNL     1     -30.486 -24.280 -37.414  1.00  0.00    -0.504 OA
ATOM     10  H   UNL     1     -30.535 -25.271 -37.616  1.00  0.00     0.293 HD
ENDBRANCH   6   9
TORSDOF 2
ENDMDL
MODEL 7
REMARK VINA RESULT:    -3.611     21.693     22.265
REMARK INTER + INTRA:          -3.954
REMARK INTER:                  -3.912
REMARK INTRA:                  -0.042
REMARK UNBOUND:                -0.027
REMARK SMILES COc1ccccc1O
REMARK SMILES IDX 3 1 4 2 5 3 6 4 7 5 8 6 2 7 1 8 9 9
REMARK H PARENT 9 10
REMARK Flexibility Score: inf
ROOT
ATOM      1  C   UNL     1     -16.762 -37.730 -38.749  1.00  0.00     0.160 A 
ATOM      2  C   UNL     1     -16.183 -39.014 -38.706  1.00  0.00     0.050 A 
ATOM      3  C   UNL     1     -16.953 -40.125 -38.349  1.00  0.00     0.004 A 
ATOM      4  C   UNL     1     -18.303 -39.968 -38.031  1.00  0.00     0.004 A 
ATOM      5  C   UNL     1     -18.887 -38.700 -38.070  1.00  0.00     0.050 A 
ATOM      6  C   UNL     1     -18.125 -37.581 -38.427  1.00  0.00     0.157 A 
ENDROOT
BRANCH   1   7
ATOM      7  O   UNL     1     -16.021 -36.592 -39.104  1.00  0.00    -0.493 OA
ATOM      8  C   UNL     1     -14.949 -36.056 -38.336  1.00  0.00     0.278 C 
ENDBRANCH   1   7
BRANCH   6   9
ATOM      9  O   UNL     1     -18.740 -36.329 -38.456  1.00  0.00    -0.504 OA
ATOM     10  H   UNL     1     -18.272 -35.507 -38.816  1.00  0.00     0.293 HD
ENDBRANCH   6   9
TORSDOF 2
ENDMDL
MODEL 8
REMARK VINA RESULT:    -3.580      4.889      5.994
REMARK INTER + INTRA:          -3.920
REMARK INTER:                  -3.876
REMARK INTRA:                  -0.044
REMARK UNBOUND:                -0.027
REMARK SMILES COc1ccccc1O
REMARK SMILES IDX 3 1 4 2 5 3 6 4 7 5 8 6 2 7 1 8 9 9
REMARK H PARENT 9 10
REMARK Flexibility Score: inf
ROOT
ATOM      1  C   UNL     1     -32.055 -23.585 -37.247  1.00  0.00     0.160 A 
ATOM      2  C   UNL     1     -31.812 -23.638 -35.860  1.00  0.00     0.050 A 
ATOM      3  C   UNL     1     -32.393 -22.698 -35.005  1.00  0.00     0.004 A 
ATOM      4  C   UNL     1     -33.220 -21.699 -35.520  1.00  0.00     0.004 A 
ATOM      5  C   UNL     1     -33.468 -21.637 -36.892  1.00  0.00     0.050 A 
ATOM      6  C   UNL     1     -32.891 -22.574 -37.759  1.00  0.00     0.157 A 
ENDROOT
BRANCH   1   7
ATOM      7  O   UNL     1     -31.489 -24.512 -38.138  1.00  0.00    -0.493 OA
ATOM      8  C   UNL     1     -31.871 -25.880 -38.228  1.00  0.00     0.278 C 
ENDBRANCH   1   7
BRANCH   6   9
ATOM      9  O   UNL     1     -33.160 -22.483 -39.125  1.00  0.00    -0.504 OA
ATOM     10  H   UNL     1     -32.788 -23.146 -39.793  1.00  0.00     0.293 HD
ENDBRANCH   6   9
TORSDOF 2
ENDMDL
MODEL 9
REMARK VINA RESULT:    -3.500      3.726      6.503
REMARK INTER + INTRA:          -3.834
REMARK INTER:                  -3.795
REMARK INTRA:                  -0.039
REMARK UNBOUND:                -0.027
REMARK SMILES COc1ccccc1O
REMARK SMILES IDX 3 1 4 2 5 3 6 4 7 5 8 6 2 7 1 8 9 9
REMARK H PARENT 9 10
REMARK Flexibility Score: inf
ROOT
ATOM      1  C   UNL     1     -32.238 -23.251 -36.530  1.00  0.00     0.160 A 
ATOM      2  C   UNL     1     -31.494 -24.431 -36.735  1.00  0.00     0.050 A 
ATOM      3  C   UNL     1     -31.134 -24.822 -38.027  1.00  0.00     0.004 A 
ATOM      4  C   UNL     1     -31.509 -24.046 -39.125  1.00  0.00     0.004 A 
ATOM      5  C   UNL     1     -32.245 -22.875 -38.933  1.00  0.00     0.050 A 
ATOM      6  C   UNL     1     -32.612 -22.473 -37.643  1.00  0.00     0.157 A 
ENDROOT
BRANCH   1   7
ATOM      7  O   UNL     1     -32.618 -22.825 -35.247  1.00  0.00    -0.493 OA
ATOM      8  C   UNL     1     -31.707 -22.501 -34.202  1.00  0.00     0.278 C 
ENDBRANCH   1   7
BRANCH   6   9
ATOM      9  O   UNL     1     -33.347 -21.298 -37.487  1.00  0.00    -0.504 OA
ATOM     10  H   UNL     1     -33.955 -21.143 -36.693  1.00  0.00     0.293 HD
ENDBRANCH   6   9
TORSDOF 2
ENDMDL
