MODEL 1
REMARK VINA RESULT:    -4.897      0.000      0.000
REMARK INTER + INTRA:          -4.897
REMARK INTER:                  -4.897
REMARK INTRA:                   0.000
REMARK UNBOUND:                 0.000
REMARK SMILES CC(C)=C1CC[C@H](C)CC1=O
REMARK SMILES IDX 8 1 7 2 6 3 5 4 4 5 2 6 1 7 3 8 10 9 11 10 9 11
REMARK H PARENT
REMARK Flexibility Score: inf
ROOT
ATOM      1  C   UNL     1     -62.828 -75.930 220.236  1.00  0.00     0.008 C 
ATOM      2  C   UNL     1     -63.002 -77.007 221.314  1.00  0.00    -0.006 C 
ATOM      3  C   UNL     1     -61.748 -77.095 222.199  1.00  0.00     0.008 C 
ATOM      4  C   UNL     1     -61.864 -78.235 223.218  1.00  0.00     0.039 C 
ATOM      5  C   UNL     1     -63.149 -78.165 224.031  1.00  0.00    -0.006 C 
ATOM      6  C   UNL     1     -63.197 -78.603 225.323  1.00  0.00    -0.070 C 
ATOM      7  C   UNL     1     -64.452 -78.485 226.158  1.00  0.00     0.039 C 
ATOM      8  C   UNL     1     -61.979 -79.194 225.996  1.00  0.00     0.039 C 
ATOM      9  C   UNL     1     -64.364 -77.701 223.297  1.00  0.00     0.159 C 
ATOM     10  O   UNL     1     -65.511 -78.132 223.591  1.00  0.00    -0.295 OA
ATOM     11  C   UNL     1     -64.235 -76.707 222.179  1.00  0.00     0.084 C 
ENDROOT
TORSDOF 0
ENDMDL
MODEL 2
REMARK VINA RESULT:    -4.653      1.673      2.512
REMARK INTER + INTRA:          -4.653
REMARK INTER:                  -4.653
REMARK INTRA:                   0.000
REMARK UNBOUND:                 0.000
REMARK SMILES CC(C)=C1CC[C@H](C)CC1=O
REMARK SMILES IDX 8 1 7 2 6 3 5 4 4 5 2 6 1 7 3 8 10 9 11 10 9 11
REMARK H PARENT
REMARK Flexibility Score: inf
ROOT
ATOM      1  C   UNL     1     -62.326 -76.273 219.450  1.00  0.00     0.008 C 
ATOM      2  C   UNL     1     -62.435 -76.480 220.966  1.00  0.00    -0.006 C 
ATOM      3  C   UNL     1     -63.884 -76.803 221.365  1.00  0.00     0.008 C 
ATOM      4  C   UNL     1     -64.030 -76.913 222.887  1.00  0.00     0.039 C 
ATOM      5  C   UNL     1     -63.026 -77.877 223.504  1.00  0.00    -0.006 C 
ATOM      6  C   UNL     1     -63.331 -78.604 224.618  1.00  0.00    -0.070 C 
ATOM      7  C   UNL     1     -62.362 -79.605 225.205  1.00  0.00     0.039 C 
ATOM      8  C   UNL     1     -64.673 -78.470 225.299  1.00  0.00     0.039 C 
ATOM      9  C   UNL     1     -61.665 -77.886 222.888  1.00  0.00     0.159 C 
ATOM     10  O   UNL     1     -60.636 -78.118 223.579  1.00  0.00    -0.295 OA
ATOM     11  C   UNL     1     -61.499 -77.609 221.422  1.00  0.00     0.084 C 
ENDROOT
TORSDOF 0
ENDMDL
MODEL 3
REMARK VINA RESULT:    -4.565      1.997      3.400
REMARK INTER + INTRA:          -4.565
REMARK INTER:                  -4.565
REMARK INTRA:                   0.000
REMARK UNBOUND:                 0.000
REMARK SMILES CC(C)=C1CC[C@H](C)CC1=O
REMARK SMILES IDX 8 1 7 2 6 3 5 4 4 5 2 6 1 7 3 8 10 9 11 10 9 11
REMARK H PARENT
REMARK Flexibility Score: inf
ROOT
ATOM      1  C   UNL     1     -60.114 -77.230 218.641  1.00  0.00     0.008 C 
ATOM      2  C   UNL     1     -60.921 -76.856 219.891  1.00  0.00    -0.006 C 
ATOM      3  C   UNL     1     -62.413 -76.710 219.548  1.00  0.00     0.008 C 
ATOM      4  C   UNL     1     -63.220 -76.237 220.764  1.00  0.00     0.039 C 
ATOM      5  C   UNL     1     -62.985 -77.102 221.994  1.00  0.00    -0.006 C 
ATOM      6  C   UNL     1     -63.969 -77.305 222.918  1.00  0.00    -0.070 C 
ATOM      7  C   UNL     1     -63.766 -78.208 224.113  1.00  0.00     0.039 C 
ATOM      8  C   UNL     1     -65.330 -76.663 222.768  1.00  0.00     0.039 C 
ATOM      9  C   UNL     1     -61.593 -77.611 222.181  1.00  0.00     0.159 C 
ATOM     10  O   UNL     1     -61.110 -77.789 223.332  1.00  0.00    -0.295 OA
ATOM     11  C   UNL     1     -60.736 -77.915 220.987  1.00  0.00     0.084 C 
ENDROOT
TORSDOF 0
ENDMDL
MODEL 4
REMARK VINA RESULT:    -4.554      1.204      4.100
REMARK INTER + INTRA:          -4.554
REMARK INTER:                  -4.554
REMARK INTRA:                   0.000
REMARK UNBOUND:                 0.000
REMARK SMILES CC(C)=C1CC[C@H](C)CC1=O
REMARK SMILES IDX 8 1 7 2 6 3 5 4 4 5 2 6 1 7 3 8 10 9 11 10 9 11
REMARK H PARENT
REMARK Flexibility Score: inf
ROOT
ATOM      1  C   UNL     1     -64.100 -79.441 225.917  1.00  0.00     0.008 C 
ATOM      2  C   UNL     1     -63.484 -78.435 224.938  1.00  0.00    -0.006 C 
ATOM      3  C   UNL     1     -62.320 -79.077 224.164  1.00  0.00     0.008 C 
ATOM      4  C   UNL     1     -61.627 -78.056 223.253  1.00  0.00     0.039 C 
ATOM      5  C   UNL     1     -62.604 -77.327 222.341  1.00  0.00    -0.006 C 
ATOM      6  C   UNL     1     -62.233 -76.904 221.098  1.00  0.00    -0.070 C 
ATOM      7  C   UNL     1     -63.211 -76.230 220.162  1.00  0.00     0.039 C 
ATOM      8  C   UNL     1     -60.831 -77.125 220.579  1.00  0.00     0.039 C 
ATOM      9  C   UNL     1     -63.937 -77.007 222.932  1.00  0.00     0.159 C 
ATOM     10  O   UNL     1     -64.571 -75.971 222.594  1.00  0.00    -0.295 OA
ATOM     11  C   UNL     1     -64.546 -77.920 223.956  1.00  0.00     0.084 C 
ENDROOT
TORSDOF 0
ENDMDL
MODEL 5
REMARK VINA RESULT:    -4.392      1.349      3.812
REMARK INTER + INTRA:          -4.392
REMARK INTER:                  -4.392
REMARK INTRA:                   0.000
REMARK UNBOUND:                 0.000
REMARK SMILES CC(C)=C1CC[C@H](C)CC1=O
REMARK SMILES IDX 8 1 7 2 6 3 5 4 4 5 2 6 1 7 3 8 10 9 11 10 9 11
REMARK H PARENT
REMARK Flexibility Score: inf
ROOT
ATOM      1  C   UNL     1     -60.519 -80.616 224.749  1.00  0.00     0.008 C 
ATOM      2  C   UNL     1     -61.255 -79.309 224.431  1.00  0.00    -0.006 C 
ATOM      3  C   UNL     1     -61.017 -78.896 222.969  1.00  0.00     0.008 C 
ATOM      4  C   UNL     1     -61.661 -77.538 222.662  1.00  0.00     0.039 C 
ATOM      5  C   UNL     1     -63.132 -77.487 223.051  1.00  0.00    -0.006 C 
ATOM      6  C   UNL     1     -64.026 -76.728 222.353  1.00  0.00    -0.070 C 
ATOM      7  C   UNL     1     -65.498 -76.714 222.696  1.00  0.00     0.039 C 
ATOM      8  C   UNL     1     -63.589 -75.890 221.173  1.00  0.00     0.039 C 
ATOM      9  C   UNL     1     -63.505 -78.219 224.299  1.00  0.00     0.159 C 
ATOM     10  O   UNL     1     -64.438 -77.812 225.042  1.00  0.00    -0.295 OA
ATOM     11  C   UNL     1     -62.760 -79.461 224.695  1.00  0.00     0.084 C 
ENDROOT
TORSDOF 0
ENDMDL
MODEL 6
REMARK VINA RESULT:    -4.362     10.552     12.509
REMARK INTER + INTRA:          -4.362
REMARK INTER:                  -4.362
REMARK INTRA:                   0.000
REMARK UNBOUND:                 0.000
REMARK SMILES CC(C)=C1CC[C@H](C)CC1=O
REMARK SMILES IDX 8 1 7 2 6 3 5 4 4 5 2 6 1 7 3 8 10 9 11 10 9 11
REMARK H PARENT
REMARK Flexibility Score: inf
ROOT
ATOM      1  C   UNL     1     -74.751 -72.489 215.450  1.00  0.00     0.008 C 
ATOM      2  C   UNL     1     -73.494 -73.220 214.961  1.00  0.00    -0.006 C 
ATOM      3  C   UNL     1     -72.228 -72.549 215.518  1.00  0.00     0.008 C 
ATOM      4  C   UNL     1     -70.959 -73.204 214.958  1.00  0.00     0.039 C 
ATOM      5  C   UNL     1     -70.950 -74.715 215.144  1.00  0.00    -0.006 C 
ATOM      6  C   UNL     1     -69.785 -75.400 215.333  1.00  0.00    -0.070 C 
ATOM      7  C   UNL     1     -69.769 -76.893 215.575  1.00  0.00     0.039 C 
ATOM      8  C   UNL     1     -68.451 -74.690 215.348  1.00  0.00     0.039 C 
ATOM      9  C   UNL     1     -72.268 -75.402 214.991  1.00  0.00     0.159 C 
ATOM     10  O   UNL     1     -72.346 -76.573 214.530  1.00  0.00    -0.295 OA
ATOM     11  C   UNL     1     -73.534 -74.697 215.381  1.00  0.00     0.084 C 
ENDROOT
TORSDOF 0
ENDMDL
MODEL 7
REMARK VINA RESULT:    -4.347      9.296     11.455
REMARK INTER + INTRA:          -4.347
REMARK INTER:                  -4.347
REMARK INTRA:                   0.000
REMARK UNBOUND:                 0.000
REMARK SMILES CC(C)=C1CC[C@H](C)CC1=O
REMARK SMILES IDX 8 1 7 2 6 3 5 4 4 5 2 6 1 7 3 8 10 9 11 10 9 11
REMARK H PARENT
REMARK Flexibility Score: inf
ROOT
ATOM      1  C   UNL     1     -73.943 -74.494 215.040  1.00  0.00     0.008 C 
ATOM      2  C   UNL     1     -72.576 -75.124 215.335  1.00  0.00    -0.006 C 
ATOM      3  C   UNL     1     -71.862 -75.502 214.027  1.00  0.00     0.008 C 
ATOM      4  C   UNL     1     -70.538 -76.226 214.305  1.00  0.00     0.039 C 
ATOM      5  C   UNL     1     -69.638 -75.453 215.259  1.00  0.00    -0.006 C 
ATOM      6  C   UNL     1     -68.278 -75.520 215.163  1.00  0.00    -0.070 C 
ATOM      7  C   UNL     1     -67.376 -74.712 216.069  1.00  0.00     0.039 C 
ATOM      8  C   UNL     1     -67.607 -76.378 214.116  1.00  0.00     0.039 C 
ATOM      9  C   UNL     1     -70.329 -74.723 216.364  1.00  0.00     0.159 C 
ATOM     10  O   UNL     1     -69.784 -74.572 217.490  1.00  0.00    -0.295 OA
ATOM     11  C   UNL     1     -71.703 -74.158 216.149  1.00  0.00     0.084 C 
ENDROOT
TORSDOF 0
ENDMDL
MODEL 8
REMARK VINA RESULT:    -4.281      3.133      4.470
REMARK INTER + INTRA:          -4.281
REMARK INTER:                  -4.281
REMARK INTRA:                   0.000
REMARK UNBOUND:                 0.000
REMARK SMILES CC(C)=C1CC[C@H](C)CC1=O
REMARK SMILES IDX 8 1 7 2 6 3 5 4 4 5 2 6 1 7 3 8 10 9 11 10 9 11
REMARK H PARENT
REMARK Flexibility Score: inf
ROOT
ATOM      1  C   UNL     1     -58.452 -78.364 218.298  1.00  0.00     0.008 C 
ATOM      2  C   UNL     1     -59.823 -78.213 218.969  1.00  0.00    -0.006 C 
ATOM      3  C   UNL     1     -59.726 -78.517 220.473  1.00  0.00     0.008 C 
ATOM      4  C   UNL     1     -61.106 -78.470 221.141  1.00  0.00     0.039 C 
ATOM      5  C   UNL     1     -61.852 -77.174 220.853  1.00  0.00    -0.006 C 
ATOM      6  C   UNL     1     -62.713 -76.634 221.764  1.00  0.00    -0.070 C 
ATOM      7  C   UNL     1     -63.414 -75.318 221.512  1.00  0.00     0.039 C 
ATOM      8  C   UNL     1     -62.977 -77.308 223.090  1.00  0.00     0.039 C 
ATOM      9  C   UNL     1     -61.671 -76.605 219.484  1.00  0.00     0.159 C 
ATOM     10  O   UNL     1     -62.596 -75.965 218.915  1.00  0.00    -0.295 OA
ATOM     11  C   UNL     1     -60.374 -76.796 218.754  1.00  0.00     0.084 C 
ENDROOT
TORSDOF 0
ENDMDL
MODEL 9
REMARK VINA RESULT:    -4.243     10.942     12.975
REMARK INTER + INTRA:          -4.243
REMARK INTER:                  -4.243
REMARK INTRA:                   0.000
REMARK UNBOUND:                 0.000
REMARK SMILES CC(C)=C1CC[C@H](C)CC1=O
REMARK SMILES IDX 8 1 7 2 6 3 5 4 4 5 2 6 1 7 3 8 10 9 11 10 9 11
REMARK H PARENT
REMARK Flexibility Score: inf
ROOT
ATOM      1  C   UNL     1     -68.539 -75.607 215.607  1.00  0.00     0.008 C 
ATOM      2  C   UNL     1     -69.867 -75.128 215.005  1.00  0.00    -0.006 C 
ATOM      3  C   UNL     1     -70.990 -76.135 215.304  1.00  0.00     0.008 C 
ATOM      4  C   UNL     1     -72.301 -75.724 214.623  1.00  0.00     0.039 C 
ATOM      5  C   UNL     1     -72.702 -74.290 214.943  1.00  0.00    -0.006 C 
ATOM      6  C   UNL     1     -74.013 -73.919 215.018  1.00  0.00    -0.070 C 
ATOM      7  C   UNL     1     -74.422 -72.512 215.390  1.00  0.00     0.039 C 
ATOM      8  C   UNL     1     -75.125 -74.912 214.769  1.00  0.00     0.039 C 
ATOM      9  C   UNL     1     -71.583 -73.306 215.051  1.00  0.00     0.159 C 
ATOM     10  O   UNL     1     -71.737 -72.101 214.716  1.00  0.00    -0.295 OA
ATOM     11  C   UNL     1     -70.240 -73.745 215.558  1.00  0.00     0.084 C 
ENDROOT
TORSDOF 0
ENDMDL
