MODEL 1
REMARK VINA RESULT:    -3.010      0.000      0.000
REMARK INTER + INTRA:          -7.328
REMARK INTER:                  -5.474
REMARK INTRA:                  -1.853
REMARK UNBOUND:                -1.853
REMARK SMILES CCCCCCCCCCCCCCCC(=O)[O-]
REMARK SMILES IDX 9 1 10 2 11 3 12 4 13 5 14 6 15 7 16 8 17 9 18 10 8 11 7 12
REMARK SMILES IDX 6 13 5 14 4 15 3 16 2 17 1 18
REMARK H PARENT
REMARK Flexibility Score: inf
ROOT
ATOM      1  C   UNL     1      52.851   2.084  21.366  1.00  0.00     0.000 C 
ENDROOT
BRANCH   1   2
ATOM      2  C   UNL     1      53.930   2.650  22.306  1.00  0.00     0.000 C 
BRANCH   2   3
ATOM      3  C   UNL     1      54.216   1.729  23.503  1.00  0.00     0.000 C 
BRANCH   3   4
ATOM      4  C   UNL     1      55.721   1.509  23.730  1.00  0.00     0.000 C 
BRANCH   4   5
ATOM      5  C   UNL     1      56.493   1.309  22.416  1.00  0.00     0.000 C 
BRANCH   5   6
ATOM      6  C   UNL     1      56.843  -0.168  22.154  1.00  0.00     0.006 C 
BRANCH   6   7
ATOM      7  C   UNL     1      56.767  -1.017  23.430  1.00  0.00     0.053 C 
BRANCH   7   8
ATOM      8  C   UNL     1      58.053  -1.737  23.698  1.00  0.00     0.041 C 
ATOM      9  O   UNL     1      58.432  -1.937  24.882  1.00  0.00    -0.550 OA
ATOM     10  O   UNL     1      58.818  -2.215  22.642  1.00  0.00    -0.550 OA
ENDBRANCH   7   8
ENDBRANCH   6   7
ENDBRANCH   5   6
ENDBRANCH   4   5
ENDBRANCH   3   4
ENDBRANCH   2   3
ENDBRANCH   1   2
BRANCH   1  11
ATOM     11  C   UNL     1      53.073   0.598  21.034  1.00  0.00     0.000 C 
BRANCH  11  12
ATOM     12  C   UNL     1      51.962  -0.049  20.183  1.00  0.00    -0.000 C 
BRANCH  12  13
ATOM     13  C   UNL     1      51.052  -1.042  20.935  1.00  0.00    -0.000 C 
BRANCH  13  14
ATOM     14  C   UNL     1      51.535  -1.439  22.342  1.00  0.00    -0.000 C 
BRANCH  14  15
ATOM     15  C   UNL     1      50.384  -1.854  23.272  1.00  0.00    -0.000 C 
BRANCH  15  16
ATOM     16  C   UNL     1      50.044  -0.779  24.321  1.00  0.00    -0.000 C 
BRANCH  16  17
ATOM     17  C   UNL     1      51.008   0.420  24.360  1.00  0.00    -0.003 C 
ATOM     18  C   UNL     1      50.312   1.759  24.119  1.00  0.00     0.004 C 
ENDBRANCH  16  17
ENDBRANCH  15  16
ENDBRANCH  14  15
ENDBRANCH  13  14
ENDBRANCH  12  13
ENDBRANCH  11  12
ENDBRANCH   1  11
TORSDOF 14
ENDMDL
MODEL 2
REMARK VINA RESULT:    -3.001      3.195      6.639
REMARK INTER + INTRA:          -7.310
REMARK INTER:                  -5.904
REMARK INTRA:                  -1.406
REMARK UNBOUND:                -1.853
REMARK SMILES CCCCCCCCCCCCCCCC(=O)[O-]
REMARK SMILES IDX 9 1 10 2 11 3 12 4 13 5 14 6 15 7 16 8 17 9 18 10 8 11 7 12
REMARK SMILES IDX 6 13 5 14 4 15 3 16 2 17 1 18
REMARK H PARENT
REMARK Flexibility Score: inf
ROOT
ATOM      1  C   UNL     1      54.986   0.502  22.167  1.00  0.00     0.000 C 
ENDROOT
BRANCH   1   2
ATOM      2  C   UNL     1      53.525   0.895  22.448  1.00  0.00     0.000 C 
BRANCH   2   3
ATOM      3  C   UNL     1      52.725   1.161  21.162  1.00  0.00     0.000 C 
BRANCH   3   4
ATOM      4  C   UNL     1      52.591  -0.094  20.283  1.00  0.00     0.000 C 
BRANCH   4   5
ATOM      5  C   UNL     1      51.217  -0.191  19.599  1.00  0.00     0.000 C 
BRANCH   5   6
ATOM      6  C   UNL     1      50.075  -0.449  20.599  1.00  0.00     0.006 C 
BRANCH   6   7
ATOM      7  C   UNL     1      50.245  -1.782  21.341  1.00  0.00     0.053 C 
BRANCH   7   8
ATOM      8  C   UNL     1      50.308  -1.590  22.825  1.00  0.00     0.041 C 
ATOM      9  O   UNL     1      50.350  -0.430  23.313  1.00  0.00    -0.550 OA
ATOM     10  O   UNL     1      50.291  -2.691  23.672  1.00  0.00    -0.550 OA
ENDBRANCH   7   8
ENDBRANCH   6   7
ENDBRANCH   5   6
ENDBRANCH   4   5
ENDBRANCH   3   4
ENDBRANCH   2   3
ENDBRANCH   1   2
BRANCH   1  11
ATOM     11  C   UNL     1      55.979   1.628  22.502  1.00  0.00     0.000 C 
BRANCH  11  12
ATOM     12  C   UNL     1      55.832   2.221  23.917  1.00  0.00    -0.000 C 
BRANCH  12  13
ATOM     13  C   UNL     1      56.105   1.237  25.074  1.00  0.00    -0.000 C 
BRANCH  13  14
ATOM     14  C   UNL     1      57.456   0.501  25.004  1.00  0.00    -0.000 C 
BRANCH  14  15
ATOM     15  C   UNL     1      57.299  -1.015  24.798  1.00  0.00    -0.000 C 
BRANCH  15  16
ATOM     16  C   UNL     1      58.646  -1.735  24.601  1.00  0.00    -0.000 C 
BRANCH  16  17
ATOM     17  C   UNL     1      58.849  -2.368  23.212  1.00  0.00    -0.003 C 
ATOM     18  C   UNL     1      58.047  -1.674  22.112  1.00  0.00     0.004 C 
ENDBRANCH  16  17
ENDBRANCH  15  16
ENDBRANCH  14  15
ENDBRANCH  13  14
ENDBRANCH  12  13
ENDBRANCH  11  12
ENDBRANCH   1  11
TORSDOF 14
ENDMDL
MODEL 3
REMARK VINA RESULT:    -2.995      1.614      3.093
REMARK INTER + INTRA:          -7.300
REMARK INTER:                  -5.788
REMARK INTRA:                  -1.512
REMARK UNBOUND:                -1.853
REMARK SMILES CCCCCCCCCCCCCCCC(=O)[O-]
REMARK SMILES IDX 9 1 10 2 11 3 12 4 13 5 14 6 15 7 16 8 17 9 18 10 8 11 7 12
REMARK SMILES IDX 6 13 5 14 4 15 3 16 2 17 1 18
REMARK H PARENT
REMARK Flexibility Score: inf
ROOT
ATOM      1  C   UNL     1      55.140   3.088  22.497  1.00  0.00     0.000 C 
ENDROOT
BRANCH   1   2
ATOM      2  C   UNL     1      56.313   2.274  23.072  1.00  0.00     0.000 C 
BRANCH   2   3
ATOM      3  C   UNL     1      56.035   0.762  23.087  1.00  0.00     0.000 C 
BRANCH   3   4
ATOM      4  C   UNL     1      56.097   0.139  21.682  1.00  0.00     0.000 C 
BRANCH   4   5
ATOM      5  C   UNL     1      57.496  -0.394  21.334  1.00  0.00     0.000 C 
BRANCH   5   6
ATOM      6  C   UNL     1      57.840  -1.691  22.089  1.00  0.00     0.006 C 
BRANCH   6   7
ATOM      7  C   UNL     1      59.123  -1.553  22.921  1.00  0.00     0.053 C 
BRANCH   7   8
ATOM      8  C   UNL     1      58.871  -1.786  24.379  1.00  0.00     0.041 C 
ATOM      9  O   UNL     1      59.772  -2.279  25.107  1.00  0.00    -0.550 OA
ATOM     10  O   UNL     1      57.650  -1.433  24.941  1.00  0.00    -0.550 OA
ENDBRANCH   7   8
ENDBRANCH   6   7
ENDBRANCH   5   6
ENDBRANCH   4   5
ENDBRANCH   3   4
ENDBRANCH   2   3
ENDBRANCH   1   2
BRANCH   1  11
ATOM     11  C   UNL     1      53.919   3.113  23.434  1.00  0.00     0.000 C 
BRANCH  11  12
ATOM     12  C   UNL     1      52.559   2.945  22.729  1.00  0.00    -0.000 C 
BRANCH  12  13
ATOM     13  C   UNL     1      52.634   2.567  21.235  1.00  0.00    -0.000 C 
BRANCH  13  14
ATOM     14  C   UNL     1      51.305   2.111  20.605  1.00  0.00    -0.000 C 
BRANCH  14  15
ATOM     15  C   UNL     1      51.341   0.649  20.129  1.00  0.00    -0.000 C 
BRANCH  15  16
ATOM     16  C   UNL     1      52.627  -0.085  20.551  1.00  0.00    -0.000 C 
BRANCH  16  17
ATOM     17  C   UNL     1      52.508  -0.923  21.837  1.00  0.00    -0.003 C 
ATOM     18  C   UNL     1      51.071  -1.342  22.150  1.00  0.00     0.004 C 
ENDBRANCH  16  17
ENDBRANCH  15  16
ENDBRANCH  14  15
ENDBRANCH  13  14
ENDBRANCH  12  13
ENDBRANCH  11  12
ENDBRANCH   1  11
TORSDOF 14
ENDMDL
MODEL 4
REMARK VINA RESULT:    -2.986     19.768     21.484
REMARK INTER + INTRA:          -7.284
REMARK INTER:                  -5.681
REMARK INTRA:                  -1.603
REMARK UNBOUND:                -1.853
REMARK SMILES CCCCCCCCCCCCCCCC(=O)[O-]
REMARK SMILES IDX 9 1 10 2 11 3 12 4 13 5 14 6 15 7 16 8 17 9 18 10 8 11 7 12
REMARK SMILES IDX 6 13 5 14 4 15 3 16 2 17 1 18
REMARK H PARENT
REMARK Flexibility Score: inf
ROOT
ATOM      1  C   UNL     1      57.696 -14.862   8.999  1.00  0.00     0.000 C 
ENDROOT
BRANCH   1   2
ATOM      2  C   UNL     1      56.208 -14.652   9.336  1.00  0.00     0.000 C 
BRANCH   2   3
ATOM      3  C   UNL     1      55.416 -15.969   9.364  1.00  0.00     0.000 C 
BRANCH   3   4
ATOM      4  C   UNL     1      55.780 -16.849  10.573  1.00  0.00     0.000 C 
BRANCH   4   5
ATOM      5  C   UNL     1      55.066 -16.408  11.861  1.00  0.00     0.000 C 
BRANCH   5   6
ATOM      6  C   UNL     1      55.895 -16.697  13.126  1.00  0.00     0.006 C 
BRANCH   6   7
ATOM      7  C   UNL     1      57.360 -17.016  12.798  1.00  0.00     0.053 C 
BRANCH   7   8
ATOM      8  C   UNL     1      58.282 -16.594  13.901  1.00  0.00     0.041 C 
ATOM      9  O   UNL     1      57.872 -16.555  15.090  1.00  0.00    -0.550 OA
ATOM     10  O   UNL     1      59.604 -16.272  13.619  1.00  0.00    -0.550 OA
ENDBRANCH   7   8
ENDBRANCH   6   7
ENDBRANCH   5   6
ENDBRANCH   4   5
ENDBRANCH   3   4
ENDBRANCH   2   3
ENDBRANCH   1   2
BRANCH   1  11
ATOM     11  C   UNL     1      58.128 -14.111   7.727  1.00  0.00     0.000 C 
BRANCH  11  12
ATOM     12  C   UNL     1      58.393 -15.010   6.503  1.00  0.00    -0.000 C 
BRANCH  12  13
ATOM     13  C   UNL     1      57.883 -16.461   6.630  1.00  0.00    -0.000 C 
BRANCH  13  14
ATOM     14  C   UNL     1      56.564 -16.759   5.894  1.00  0.00    -0.000 C 
BRANCH  14  15
ATOM     15  C   UNL     1      55.956 -15.512   5.231  1.00  0.00    -0.000 C 
BRANCH  15  16
ATOM     16  C   UNL     1      54.435 -15.627   5.022  1.00  0.00    -0.000 C 
BRANCH  16  17
ATOM     17  C   UNL     1      53.680 -16.388   6.127  1.00  0.00    -0.003 C 
ATOM     18  C   UNL     1      52.348 -15.739   6.502  1.00  0.00     0.004 C 
ENDBRANCH  16  17
ENDBRANCH  15  16
ENDBRANCH  14  15
ENDBRANCH  13  14
ENDBRANCH  12  13
ENDBRANCH  11  12
ENDBRANCH   1  11
TORSDOF 14
ENDMDL
MODEL 5
REMARK VINA RESULT:    -2.886      1.171      3.043
REMARK INTER + INTRA:          -7.101
REMARK INTER:                  -4.780
REMARK INTRA:                  -2.320
REMARK UNBOUND:                -1.853
REMARK SMILES CCCCCCCCCCCCCCCC(=O)[O-]
REMARK SMILES IDX 9 1 10 2 11 3 12 4 13 5 14 6 15 7 16 8 17 9 18 10 8 11 7 12
REMARK SMILES IDX 6 13 5 14 4 15 3 16 2 17 1 18
REMARK H PARENT
REMARK Flexibility Score: inf
ROOT
ATOM      1  C   UNL     1      52.839   1.666  24.708  1.00  0.00     0.000 C 
ENDROOT
BRANCH   1   2
ATOM      2  C   UNL     1      53.624   2.814  24.048  1.00  0.00     0.000 C 
BRANCH   2   3
ATOM      3  C   UNL     1      55.137   2.720  24.301  1.00  0.00     0.000 C 
BRANCH   3   4
ATOM      4  C   UNL     1      55.732   1.385  23.820  1.00  0.00     0.000 C 
BRANCH   4   5
ATOM      5  C   UNL     1      56.456   1.513  22.470  1.00  0.00     0.000 C 
BRANCH   5   6
ATOM      6  C   UNL     1      56.667   0.152  21.780  1.00  0.00     0.006 C 
BRANCH   6   7
ATOM      7  C   UNL     1      56.550  -1.020  22.764  1.00  0.00     0.053 C 
BRANCH   7   8
ATOM      8  C   UNL     1      57.889  -1.449  23.282  1.00  0.00     0.041 C 
ATOM      9  O   UNL     1      58.803  -1.777  22.480  1.00  0.00    -0.550 OA
ATOM     10  O   UNL     1      58.137  -1.460  24.648  1.00  0.00    -0.550 OA
ENDBRANCH   7   8
ENDBRANCH   6   7
ENDBRANCH   5   6
ENDBRANCH   4   5
ENDBRANCH   3   4
ENDBRANCH   2   3
ENDBRANCH   1   2
BRANCH   1  11
ATOM     11  C   UNL     1      51.344   1.684  24.344  1.00  0.00     0.000 C 
BRANCH  11  12
ATOM     12  C   UNL     1      50.953   2.712  23.264  1.00  0.00    -0.000 C 
BRANCH  12  13
ATOM     13  C   UNL     1      50.288   2.121  22.003  1.00  0.00    -0.000 C 
BRANCH  13  14
ATOM     14  C   UNL     1      51.085   2.296  20.698  1.00  0.00    -0.000 C 
BRANCH  14  15
ATOM     15  C   UNL     1      52.574   1.946  20.857  1.00  0.00    -0.000 C 
BRANCH  15  16
ATOM     16  C   UNL     1      52.877   0.468  20.546  1.00  0.00    -0.000 C 
BRANCH  16  17
ATOM     17  C   UNL     1      52.981  -0.449  21.777  1.00  0.00    -0.003 C 
ATOM     18  C   UNL     1      51.717  -1.273  22.022  1.00  0.00     0.004 C 
ENDBRANCH  16  17
ENDBRANCH  15  16
ENDBRANCH  14  15
ENDBRANCH  13  14
ENDBRANCH  12  13
ENDBRANCH  11  12
ENDBRANCH   1  11
TORSDOF 14
ENDMDL
MODEL 6
REMARK VINA RESULT:    -2.806      1.449      2.893
REMARK INTER + INTRA:          -6.955
REMARK INTER:                  -5.012
REMARK INTRA:                  -1.944
REMARK UNBOUND:                -1.853
REMARK SMILES CCCCCCCCCCCCCCCC(=O)[O-]
REMARK SMILES IDX 9 1 10 2 11 3 12 4 13 5 14 6 15 7 16 8 17 9 18 10 8 11 7 12
REMARK SMILES IDX 6 13 5 14 4 15 3 16 2 17 1 18
REMARK H PARENT
REMARK Flexibility Score: inf
ROOT
ATOM      1  C   UNL     1      52.531   1.976  24.153  1.00  0.00     0.000 C 
ENDROOT
BRANCH   1   2
ATOM      2  C   UNL     1      52.641   2.943  22.960  1.00  0.00     0.000 C 
BRANCH   2   3
ATOM      3  C   UNL     1      53.900   2.699  22.113  1.00  0.00     0.000 C 
BRANCH   3   4
ATOM      4  C   UNL     1      55.197   2.976  22.894  1.00  0.00     0.000 C 
BRANCH   4   5
ATOM      5  C   UNL     1      56.098   1.735  23.000  1.00  0.00     0.000 C 
BRANCH   5   6
ATOM      6  C   UNL     1      55.463   0.485  22.363  1.00  0.00     0.006 C 
BRANCH   6   7
ATOM      7  C   UNL     1      56.249  -0.793  22.689  1.00  0.00     0.053 C 
BRANCH   7   8
ATOM      8  C   UNL     1      57.503  -0.899  21.876  1.00  0.00     0.041 C 
ATOM      9  O   UNL     1      58.415  -1.695  22.221  1.00  0.00    -0.550 OA
ATOM     10  O   UNL     1      57.652  -0.141  20.722  1.00  0.00    -0.550 OA
ENDBRANCH   7   8
ENDBRANCH   6   7
ENDBRANCH   5   6
ENDBRANCH   4   5
ENDBRANCH   3   4
ENDBRANCH   2   3
ENDBRANCH   1   2
BRANCH   1  11
ATOM     11  C   UNL     1      51.089   1.500  24.400  1.00  0.00     0.000 C 
BRANCH  11  12
ATOM     12  C   UNL     1      50.485   0.650  23.264  1.00  0.00    -0.000 C 
BRANCH  12  13
ATOM     13  C   UNL     1      50.867  -0.845  23.286  1.00  0.00    -0.000 C 
BRANCH  13  14
ATOM     14  C   UNL     1      51.445  -1.394  21.968  1.00  0.00    -0.000 C 
BRANCH  14  15
ATOM     15  C   UNL     1      52.084  -0.300  21.097  1.00  0.00    -0.000 C 
BRANCH  15  16
ATOM     16  C   UNL     1      51.448  -0.201  19.698  1.00  0.00    -0.000 C 
BRANCH  16  17
ATOM     17  C   UNL     1      50.284   0.800  19.581  1.00  0.00    -0.003 C 
ATOM     18  C   UNL     1      50.702   2.243  19.860  1.00  0.00     0.004 C 
ENDBRANCH  16  17
ENDBRANCH  15  16
ENDBRANCH  14  15
ENDBRANCH  13  14
ENDBRANCH  12  13
ENDBRANCH  11  12
ENDBRANCH   1  11
TORSDOF 14
ENDMDL
MODEL 7
REMARK VINA RESULT:    -2.757      1.187      2.467
REMARK INTER + INTRA:          -6.867
REMARK INTER:                  -5.021
REMARK INTRA:                  -1.845
REMARK UNBOUND:                -1.853
REMARK SMILES CCCCCCCCCCCCCCCC(=O)[O-]
REMARK SMILES IDX 9 1 10 2 11 3 12 4 13 5 14 6 15 7 16 8 17 9 18 10 8 11 7 12
REMARK SMILES IDX 6 13 5 14 4 15 3 16 2 17 1 18
REMARK H PARENT
REMARK Flexibility Score: inf
ROOT
ATOM      1  C   UNL     1      53.324   0.465  20.993  1.00  0.00     0.000 C 
ENDROOT
BRANCH   1   2
ATOM      2  C   UNL     1      54.318   0.089  22.106  1.00  0.00     0.000 C 
BRANCH   2   3
ATOM      3  C   UNL     1      55.398   1.161  22.324  1.00  0.00     0.000 C 
BRANCH   3   4
ATOM      4  C   UNL     1      55.358   1.757  23.742  1.00  0.00     0.000 C 
BRANCH   4   5
ATOM      5  C   UNL     1      55.940   0.805  24.799  1.00  0.00     0.000 C 
BRANCH   5   6
ATOM      6  C   UNL     1      57.328   0.265  24.410  1.00  0.00     0.006 C 
BRANCH   6   7
ATOM      7  C   UNL     1      57.360  -1.269  24.361  1.00  0.00     0.053 C 
BRANCH   7   8
ATOM      8  C   UNL     1      58.475  -1.776  23.499  1.00  0.00     0.041 C 
ATOM      9  O   UNL     1      59.548  -2.177  24.021  1.00  0.00    -0.550 OA
ATOM     10  O   UNL     1      58.318  -1.835  22.120  1.00  0.00    -0.550 OA
ENDBRANCH   7   8
ENDBRANCH   6   7
ENDBRANCH   5   6
ENDBRANCH   4   5
ENDBRANCH   3   4
ENDBRANCH   2   3
ENDBRANCH   1   2
BRANCH   1  11
ATOM     11  C   UNL     1      52.764   1.889  21.153  1.00  0.00     0.000 C 
BRANCH  11  12
ATOM     12  C   UNL     1      51.389   1.970  21.844  1.00  0.00    -0.000 C 
BRANCH  12  13
ATOM     13  C   UNL     1      51.407   1.761  23.373  1.00  0.00    -0.000 C 
BRANCH  13  14
ATOM     14  C   UNL     1      50.961   0.366  23.850  1.00  0.00    -0.000 C 
BRANCH  14  15
ATOM     15  C   UNL     1      50.010  -0.326  22.859  1.00  0.00    -0.000 C 
BRANCH  15  16
ATOM     16  C   UNL     1      50.570  -1.655  22.321  1.00  0.00    -0.000 C 
BRANCH  16  17
ATOM     17  C   UNL     1      50.038  -2.075  20.939  1.00  0.00    -0.003 C 
ATOM     18  C   UNL     1      50.124  -0.959  19.897  1.00  0.00     0.004 C 
ENDBRANCH  16  17
ENDBRANCH  15  16
ENDBRANCH  14  15
ENDBRANCH  13  14
ENDBRANCH  12  13
ENDBRANCH  11  12
ENDBRANCH   1  11
TORSDOF 14
ENDMDL
