MODEL 1
REMARK VINA RESULT:    -6.193      0.000      0.000
REMARK INTER + INTRA:         -15.085
REMARK INTER:                 -13.434
REMARK INTRA:                  -1.651
REMARK UNBOUND:                -1.651
REMARK SMILES CCCCCCCCCCCCCCCCCCCCCC(=O)[O-]
REMARK SMILES IDX 12 1 11 2 10 3 9 4 8 5 7 6 6 7 5 8 4 9 3 10 2 11 1 12 13 13
REMARK SMILES IDX 14 14 15 15 16 16 17 17 18 18 19 19 20 20 21 21 22 22 23 23
REMARK SMILES IDX 24 24
REMARK H PARENT
REMARK Flexibility Score: inf
ROOT
ATOM      1  C   UNL     1      87.880 319.141 200.185  1.00  0.00     0.000 C 
ENDROOT
BRANCH   1   2
ATOM      2  C   UNL     1      88.084 320.542 200.785  1.00  0.00     0.000 C 
BRANCH   2   3
ATOM      3  C   UNL     1      87.298 320.757 202.086  1.00  0.00     0.000 C 
BRANCH   3   4
ATOM      4  C   UNL     1      88.168 320.463 203.314  1.00  0.00    -0.000 C 
BRANCH   4   5
ATOM      5  C   UNL     1      87.721 321.305 204.518  1.00  0.00    -0.000 C 
BRANCH   5   6
ATOM      6  C   UNL     1      87.993 320.616 205.867  1.00  0.00    -0.000 C 
BRANCH   6   7
ATOM      7  C   UNL     1      86.960 320.913 206.968  1.00  0.00    -0.000 C 
BRANCH   7   8
ATOM      8  C   UNL     1      85.789 319.914 207.047  1.00  0.00    -0.000 C 
BRANCH   8   9
ATOM      9  C   UNL     1      86.033 318.609 206.258  1.00  0.00    -0.000 C 
BRANCH   9  10
ATOM     10  C   UNL     1      84.883 318.288 205.288  1.00  0.00    -0.000 C 
BRANCH  10  11
ATOM     11  C   UNL     1      85.357 317.509 204.051  1.00  0.00    -0.003 C 
ATOM     12  C   UNL     1      84.837 318.106 202.744  1.00  0.00     0.004 C 
ENDBRANCH  10  11
ENDBRANCH   9  10
ENDBRANCH   8   9
ENDBRANCH   7   8
ENDBRANCH   6   7
ENDBRANCH   5   6
ENDBRANCH   4   5
ENDBRANCH   3   4
ENDBRANCH   2   3
ENDBRANCH   1   2
BRANCH   1  13
ATOM     13  C   UNL     1      87.471 319.156 198.697  1.00  0.00     0.000 C 
BRANCH  13  14
ATOM     14  C   UNL     1      86.971 320.539 198.245  1.00  0.00     0.000 C 
BRANCH  14  15
ATOM     15  C   UNL     1      86.257 320.496 196.886  1.00  0.00     0.000 C 
BRANCH  15  16
ATOM     16  C   UNL     1      87.236 320.552 195.699  1.00  0.00     0.000 C 
BRANCH  16  17
ATOM     17  C   UNL     1      86.534 320.857 194.366  1.00  0.00     0.000 C 
BRANCH  17  18
ATOM     18  C   UNL     1      85.063 320.416 194.356  1.00  0.00     0.000 C 
BRANCH  18  19
ATOM     19  C   UNL     1      84.819 319.336 193.291  1.00  0.00     0.000 C 
BRANCH  19  20
ATOM     20  C   UNL     1      86.087 318.533 192.943  1.00  0.00     0.006 C 
BRANCH  20  21
ATOM     21  C   UNL     1      86.315 318.350 191.432  1.00  0.00     0.053 C 
BRANCH  21  22
ATOM     22  C   UNL     1      85.936 316.982 190.951  1.00  0.00     0.041 C 
ATOM     23  O   UNL     1      84.776 316.763 190.515  1.00  0.00    -0.550 OA
ATOM     24  O   UNL     1      86.852 315.937 191.018  1.00  0.00    -0.550 OA
ENDBRANCH  21  22
ENDBRANCH  20  21
ENDBRANCH  19  20
ENDBRANCH  18  19
ENDBRANCH  17  18
ENDBRANCH  16  17
ENDBRANCH  15  16
ENDBRANCH  14  15
ENDBRANCH  13  14
ENDBRANCH   1  13
TORSDOF 20
ENDMDL
MODEL 2
REMARK VINA RESULT:    -6.138      4.482     10.795
REMARK INTER + INTRA:         -14.966
REMARK INTER:                 -13.145
REMARK INTRA:                  -1.821
REMARK UNBOUND:                -1.651
REMARK SMILES CCCCCCCCCCCCCCCCCCCCCC(=O)[O-]
REMARK SMILES IDX 12 1 11 2 10 3 9 4 8 5 7 6 6 7 5 8 4 9 3 10 2 11 1 12 13 13
REMARK SMILES IDX 14 14 15 15 16 16 17 17 18 18 19 19 20 20 21 21 22 22 23 23
REMARK SMILES IDX 24 24
REMARK H PARENT
REMARK Flexibility Score: inf
ROOT
ATOM      1  C   UNL     1      87.526 319.126 198.833  1.00  0.00     0.000 C 
ENDROOT
BRANCH   1   2
ATOM      2  C   UNL     1      86.999 318.909 197.405  1.00  0.00     0.000 C 
BRANCH   2   3
ATOM      3  C   UNL     1      86.509 320.204 196.744  1.00  0.00     0.000 C 
BRANCH   3   4
ATOM      4  C   UNL     1      87.392 320.582 195.548  1.00  0.00    -0.000 C 
BRANCH   4   5
ATOM      5  C   UNL     1      86.540 321.102 194.380  1.00  0.00    -0.000 C 
BRANCH   5   6
ATOM      6  C   UNL     1      85.085 320.603 194.430  1.00  0.00    -0.000 C 
BRANCH   6   7
ATOM      7  C   UNL     1      84.766 319.435 193.478  1.00  0.00    -0.000 C 
BRANCH   7   8
ATOM      8  C   UNL     1      85.977 318.876 192.707  1.00  0.00    -0.000 C 
BRANCH   8   9
ATOM      9  C   UNL     1      86.255 317.383 192.988  1.00  0.00    -0.000 C 
BRANCH   9  10
ATOM     10  C   UNL     1      86.956 317.162 194.339  1.00  0.00    -0.000 C 
BRANCH  10  11
ATOM     11  C   UNL     1      87.163 315.673 194.659  1.00  0.00    -0.003 C 
ATOM     12  C   UNL     1      86.193 315.158 195.721  1.00  0.00     0.004 C 
ENDBRANCH  10  11
ENDBRANCH   9  10
ENDBRANCH   8   9
ENDBRANCH   7   8
ENDBRANCH   6   7
ENDBRANCH   5   6
ENDBRANCH   4   5
ENDBRANCH   3   4
ENDBRANCH   2   3
ENDBRANCH   1   2
BRANCH   1  13
ATOM     13  C   UNL     1      87.349 320.570 199.348  1.00  0.00     0.000 C 
BRANCH  13  14
ATOM     14  C   UNL     1      88.110 320.816 200.663  1.00  0.00     0.000 C 
BRANCH  14  15
ATOM     15  C   UNL     1      87.242 320.566 201.905  1.00  0.00     0.000 C 
BRANCH  15  16
ATOM     16  C   UNL     1      88.068 320.120 203.126  1.00  0.00     0.000 C 
BRANCH  16  17
ATOM     17  C   UNL     1      88.954 321.245 203.684  1.00  0.00     0.000 C 
BRANCH  17  18
ATOM     18  C   UNL     1      88.907 321.332 205.217  1.00  0.00     0.000 C 
BRANCH  18  19
ATOM     19  C   UNL     1      87.460 321.468 205.715  1.00  0.00     0.000 C 
BRANCH  19  20
ATOM     20  C   UNL     1      87.136 320.529 206.892  1.00  0.00     0.006 C 
BRANCH  20  21
ATOM     21  C   UNL     1      85.736 319.894 206.818  1.00  0.00     0.053 C 
BRANCH  21  22
ATOM     22  C   UNL     1      85.687 318.705 205.907  1.00  0.00     0.041 C 
ATOM     23  O   UNL     1      84.603 318.368 205.364  1.00  0.00    -0.550 OA
ATOM     24  O   UNL     1      86.831 317.945 205.685  1.00  0.00    -0.550 OA
ENDBRANCH  21  22
ENDBRANCH  20  21
ENDBRANCH  19  20
ENDBRANCH  18  19
ENDBRANCH  17  18
ENDBRANCH  16  17
ENDBRANCH  15  16
ENDBRANCH  14  15
ENDBRANCH  13  14
ENDBRANCH   1  13
TORSDOF 20
ENDMDL
MODEL 3
REMARK VINA RESULT:    -6.129      4.368     11.438
REMARK INTER + INTRA:         -14.947
REMARK INTER:                 -13.516
REMARK INTRA:                  -1.431
REMARK UNBOUND:                -1.651
REMARK SMILES CCCCCCCCCCCCCCCCCCCCCC(=O)[O-]
REMARK SMILES IDX 12 1 11 2 10 3 9 4 8 5 7 6 6 7 5 8 4 9 3 10 2 11 1 12 13 13
REMARK SMILES IDX 14 14 15 15 16 16 17 17 18 18 19 19 20 20 21 21 22 22 23 23
REMARK SMILES IDX 24 24
REMARK H PARENT
REMARK Flexibility Score: inf
ROOT
ATOM      1  C   UNL     1      87.523 319.168 198.698  1.00  0.00     0.000 C 
ENDROOT
BRANCH   1   2
ATOM      2  C   UNL     1      86.913 319.133 197.287  1.00  0.00     0.000 C 
BRANCH   2   3
ATOM      3  C   UNL     1      86.708 320.531 196.688  1.00  0.00     0.000 C 
BRANCH   3   4
ATOM      4  C   UNL     1      87.434 320.668 195.344  1.00  0.00    -0.000 C 
BRANCH   4   5
ATOM      5  C   UNL     1      86.472 321.154 194.249  1.00  0.00    -0.000 C 
BRANCH   5   6
ATOM      6  C   UNL     1      85.078 320.510 194.344  1.00  0.00    -0.000 C 
BRANCH   6   7
ATOM      7  C   UNL     1      84.907 319.210 193.537  1.00  0.00    -0.000 C 
BRANCH   7   8
ATOM      8  C   UNL     1      86.138 318.791 192.710  1.00  0.00    -0.000 C 
BRANCH   8   9
ATOM      9  C   UNL     1      86.398 317.268 192.714  1.00  0.00    -0.000 C 
BRANCH   9  10
ATOM     10  C   UNL     1      86.601 316.706 191.296  1.00  0.00    -0.000 C 
BRANCH  10  11
ATOM     11  C   UNL     1      86.588 317.803 190.221  1.00  0.00    -0.003 C 
ATOM     12  C   UNL     1      87.590 317.539 189.098  1.00  0.00     0.004 C 
ENDBRANCH  10  11
ENDBRANCH   9  10
ENDBRANCH   8   9
ENDBRANCH   7   8
ENDBRANCH   6   7
ENDBRANCH   5   6
ENDBRANCH   4   5
ENDBRANCH   3   4
ENDBRANCH   2   3
ENDBRANCH   1   2
BRANCH   1  13
ATOM     13  C   UNL     1      87.372 320.531 199.407  1.00  0.00     0.000 C 
BRANCH  13  14
ATOM     14  C   UNL     1      88.102 320.566 200.761  1.00  0.00     0.000 C 
BRANCH  14  15
ATOM     15  C   UNL     1      87.137 320.535 201.955  1.00  0.00     0.000 C 
BRANCH  15  16
ATOM     16  C   UNL     1      87.792 319.980 203.233  1.00  0.00     0.000 C 
BRANCH  16  17
ATOM     17  C   UNL     1      88.937 320.867 203.746  1.00  0.00     0.000 C 
BRANCH  17  18
ATOM     18  C   UNL     1      88.857 321.122 205.259  1.00  0.00     0.000 C 
BRANCH  18  19
ATOM     19  C   UNL     1      87.410 321.400 205.695  1.00  0.00     0.000 C 
BRANCH  19  20
ATOM     20  C   UNL     1      86.997 320.618 206.956  1.00  0.00     0.006 C 
BRANCH  20  21
ATOM     21  C   UNL     1      85.651 319.883 206.824  1.00  0.00     0.053 C 
BRANCH  21  22
ATOM     22  C   UNL     1      85.750 318.641 205.991  1.00  0.00     0.041 C 
ATOM     23  O   UNL     1      86.714 317.847 206.151  1.00  0.00    -0.550 OA
ATOM     24  O   UNL     1      84.798 318.375 205.013  1.00  0.00    -0.550 OA
ENDBRANCH  21  22
ENDBRANCH  20  21
ENDBRANCH  19  20
ENDBRANCH  18  19
ENDBRANCH  17  18
ENDBRANCH  16  17
ENDBRANCH  15  16
ENDBRANCH  14  15
ENDBRANCH  13  14
ENDBRANCH   1  13
TORSDOF 20
ENDMDL
MODEL 4
REMARK VINA RESULT:    -6.094      3.248      9.902
REMARK INTER + INTRA:         -14.869
REMARK INTER:                 -13.125
REMARK INTRA:                  -1.744
REMARK UNBOUND:                -1.651
REMARK SMILES CCCCCCCCCCCCCCCCCCCCCC(=O)[O-]
REMARK SMILES IDX 12 1 11 2 10 3 9 4 8 5 7 6 6 7 5 8 4 9 3 10 2 11 1 12 13 13
REMARK SMILES IDX 14 14 15 15 16 16 17 17 18 18 19 19 20 20 21 21 22 22 23 23
REMARK SMILES IDX 24 24
REMARK H PARENT
REMARK Flexibility Score: inf
ROOT
ATOM      1  C   UNL     1      87.311 320.862 202.488  1.00  0.00     0.000 C 
ENDROOT
BRANCH   1   2
ATOM      2  C   UNL     1      87.019 320.160 201.152  1.00  0.00     0.000 C 
BRANCH   2   3
ATOM      3  C   UNL     1      88.008 320.545 200.043  1.00  0.00     0.000 C 
BRANCH   3   4
ATOM      4  C   UNL     1      87.279 320.831 198.725  1.00  0.00    -0.000 C 
BRANCH   4   5
ATOM      5  C   UNL     1      86.937 319.525 197.993  1.00  0.00    -0.000 C 
BRANCH   5   6
ATOM      6  C   UNL     1      87.510 319.469 196.566  1.00  0.00    -0.000 C 
BRANCH   6   7
ATOM      7  C   UNL     1      86.942 320.522 195.596  1.00  0.00    -0.000 C 
BRANCH   7   8
ATOM      8  C   UNL     1      85.404 320.580 195.528  1.00  0.00    -0.000 C 
BRANCH   8   9
ATOM      9  C   UNL     1      84.804 319.775 194.355  1.00  0.00    -0.000 C 
BRANCH   9  10
ATOM     10  C   UNL     1      85.836 319.493 193.250  1.00  0.00    -0.000 C 
BRANCH  10  11
ATOM     11  C   UNL     1      85.405 318.349 192.319  1.00  0.00    -0.003 C 
ATOM     12  C   UNL     1      86.390 318.117 191.174  1.00  0.00     0.004 C 
ENDBRANCH  10  11
ENDBRANCH   9  10
ENDBRANCH   8   9
ENDBRANCH   7   8
ENDBRANCH   6   7
ENDBRANCH   5   6
ENDBRANCH   4   5
ENDBRANCH   3   4
ENDBRANCH   2   3
ENDBRANCH   1   2
BRANCH   1  13
ATOM     13  C   UNL     1      88.815 320.983 202.811  1.00  0.00     0.000 C 
BRANCH  13  14
ATOM     14  C   UNL     1      89.070 321.251 204.304  1.00  0.00     0.000 C 
BRANCH  14  15
ATOM     15  C   UNL     1      87.777 321.530 205.084  1.00  0.00     0.000 C 
BRANCH  15  16
ATOM     16  C   UNL     1      87.745 320.824 206.453  1.00  0.00     0.000 C 
BRANCH  16  17
ATOM     17  C   UNL     1      86.329 320.390 206.863  1.00  0.00     0.000 C 
BRANCH  17  18
ATOM     18  C   UNL     1      86.114 318.874 206.735  1.00  0.00     0.000 C 
BRANCH  18  19
ATOM     19  C   UNL     1      85.051 318.556 205.673  1.00  0.00     0.000 C 
BRANCH  19  20
ATOM     20  C   UNL     1      85.654 318.145 204.317  1.00  0.00     0.006 C 
BRANCH  20  21
ATOM     21  C   UNL     1      84.644 318.149 203.156  1.00  0.00     0.053 C 
BRANCH  21  22
ATOM     22  C   UNL     1      84.953 317.114 202.117  1.00  0.00     0.041 C 
ATOM     23  O   UNL     1      84.025 316.610 201.431  1.00  0.00    -0.550 OA
ATOM     24  O   UNL     1      86.259 316.676 201.930  1.00  0.00    -0.550 OA
ENDBRANCH  21  22
ENDBRANCH  20  21
ENDBRANCH  19  20
ENDBRANCH  18  19
ENDBRANCH  17  18
ENDBRANCH  16  17
ENDBRANCH  15  16
ENDBRANCH  14  15
ENDBRANCH  13  14
ENDBRANCH   1  13
TORSDOF 20
ENDMDL
MODEL 5
REMARK VINA RESULT:    -6.086      4.714     10.676
REMARK INTER + INTRA:         -14.853
REMARK INTER:                 -12.923
REMARK INTRA:                  -1.930
REMARK UNBOUND:                -1.651
REMARK SMILES CCCCCCCCCCCCCCCCCCCCCC(=O)[O-]
REMARK SMILES IDX 12 1 11 2 10 3 9 4 8 5 7 6 6 7 5 8 4 9 3 10 2 11 1 12 13 13
REMARK SMILES IDX 14 14 15 15 16 16 17 17 18 18 19 19 20 20 21 21 22 22 23 23
REMARK SMILES IDX 24 24
REMARK H PARENT
REMARK Flexibility Score: inf
ROOT
ATOM      1  C   UNL     1      85.989 317.918 201.848  1.00  0.00     0.000 C 
ENDROOT
BRANCH   1   2
ATOM      2  C   UNL     1      87.260 318.783 201.838  1.00  0.00     0.000 C 
BRANCH   2   3
ATOM      3  C   UNL     1      87.004 320.219 201.360  1.00  0.00     0.000 C 
BRANCH   3   4
ATOM      4  C   UNL     1      87.988 320.619 200.254  1.00  0.00    -0.000 C 
BRANCH   4   5
ATOM      5  C   UNL     1      87.287 320.670 198.888  1.00  0.00    -0.000 C 
BRANCH   5   6
ATOM      6  C   UNL     1      87.180 319.290 198.216  1.00  0.00    -0.000 C 
BRANCH   6   7
ATOM      7  C   UNL     1      86.985 319.324 196.690  1.00  0.00    -0.000 C 
BRANCH   7   8
ATOM      8  C   UNL     1      87.282 320.682 196.026  1.00  0.00    -0.000 C 
BRANCH   8   9
ATOM      9  C   UNL     1      86.702 320.816 194.601  1.00  0.00    -0.000 C 
BRANCH   9  10
ATOM     10  C   UNL     1      85.194 320.519 194.552  1.00  0.00    -0.000 C 
BRANCH  10  11
ATOM     11  C   UNL     1      84.850 319.377 193.583  1.00  0.00    -0.003 C 
ATOM     12  C   UNL     1      86.037 318.965 192.713  1.00  0.00     0.004 C 
ENDBRANCH  10  11
ENDBRANCH   9  10
ENDBRANCH   8   9
ENDBRANCH   7   8
ENDBRANCH   6   7
ENDBRANCH   5   6
ENDBRANCH   4   5
ENDBRANCH   3   4
ENDBRANCH   2   3
ENDBRANCH   1   2
BRANCH   1  13
ATOM     13  C   UNL     1      85.035 318.228 203.021  1.00  0.00     0.000 C 
BRANCH  13  14
ATOM     14  C   UNL     1      85.561 317.679 204.359  1.00  0.00     0.000 C 
BRANCH  14  15
ATOM     15  C   UNL     1      84.952 318.395 205.573  1.00  0.00     0.000 C 
BRANCH  15  16
ATOM     16  C   UNL     1      85.993 318.698 206.667  1.00  0.00     0.000 C 
BRANCH  16  17
ATOM     17  C   UNL     1      86.030 320.185 207.055  1.00  0.00     0.000 C 
BRANCH  17  18
ATOM     18  C   UNL     1      87.325 320.881 206.609  1.00  0.00     0.000 C 
BRANCH  18  19
ATOM     19  C   UNL     1      87.326 321.121 205.092  1.00  0.00     0.000 C 
BRANCH  19  20
ATOM     20  C   UNL     1      88.733 321.384 204.523  1.00  0.00     0.006 C 
BRANCH  20  21
ATOM     21  C   UNL     1      89.800 321.664 205.597  1.00  0.00     0.053 C 
BRANCH  21  22
ATOM     22  C   UNL     1      90.906 320.652 205.591  1.00  0.00     0.041 C 
ATOM     23  O   UNL     1      90.654 319.441 205.356  1.00  0.00    -0.550 OA
ATOM     24  O   UNL     1      92.210 321.037 205.880  1.00  0.00    -0.550 OA
ENDBRANCH  21  22
ENDBRANCH  20  21
ENDBRANCH  19  20
ENDBRANCH  18  19
ENDBRANCH  17  18
ENDBRANCH  16  17
ENDBRANCH  15  16
ENDBRANCH  14  15
ENDBRANCH  13  14
ENDBRANCH   1  13
TORSDOF 20
ENDMDL
MODEL 6
REMARK VINA RESULT:    -6.083      3.599     10.902
REMARK INTER + INTRA:         -14.847
REMARK INTER:                 -13.314
REMARK INTRA:                  -1.533
REMARK UNBOUND:                -1.651
REMARK SMILES CCCCCCCCCCCCCCCCCCCCCC(=O)[O-]
REMARK SMILES IDX 12 1 11 2 10 3 9 4 8 5 7 6 6 7 5 8 4 9 3 10 2 11 1 12 13 13
REMARK SMILES IDX 14 14 15 15 16 16 17 17 18 18 19 19 20 20 21 21 22 22 23 23
REMARK SMILES IDX 24 24
REMARK H PARENT
REMARK Flexibility Score: inf
ROOT
ATOM      1  C   UNL     1      87.999 320.193 200.700  1.00  0.00     0.000 C 
ENDROOT
BRANCH   1   2
ATOM      2  C   UNL     1      87.443 320.796 199.399  1.00  0.00     0.000 C 
BRANCH   2   3
ATOM      3  C   UNL     1      87.286 319.760 198.278  1.00  0.00     0.000 C 
BRANCH   3   4
ATOM      4  C   UNL     1      86.521 320.347 197.085  1.00  0.00    -0.000 C 
BRANCH   4   5
ATOM      5  C   UNL     1      87.428 320.453 195.850  1.00  0.00    -0.000 C 
BRANCH   5   6
ATOM      6  C   UNL     1      86.652 320.790 194.564  1.00  0.00    -0.000 C 
BRANCH   6   7
ATOM      7  C   UNL     1      85.175 320.356 194.563  1.00  0.00    -0.000 C 
BRANCH   7   8
ATOM      8  C   UNL     1      84.806 319.306 193.498  1.00  0.00    -0.000 C 
BRANCH   8   9
ATOM      9  C   UNL     1      85.958 318.983 192.521  1.00  0.00    -0.000 C 
BRANCH   9  10
ATOM     10  C   UNL     1      85.647 317.769 191.630  1.00  0.00    -0.000 C 
BRANCH  10  11
ATOM     11  C   UNL     1      86.783 317.456 190.643  1.00  0.00    -0.003 C 
ATOM     12  C   UNL     1      86.279 317.221 189.220  1.00  0.00     0.004 C 
ENDBRANCH  10  11
ENDBRANCH   9  10
ENDBRANCH   8   9
ENDBRANCH   7   8
ENDBRANCH   6   7
ENDBRANCH   5   6
ENDBRANCH   4   5
ENDBRANCH   3   4
ENDBRANCH   2   3
ENDBRANCH   1   2
BRANCH   1  13
ATOM     13  C   UNL     1      87.154 320.520 201.949  1.00  0.00     0.000 C 
BRANCH  13  14
ATOM     14  C   UNL     1      87.967 320.401 203.249  1.00  0.00     0.000 C 
BRANCH  14  15
ATOM     15  C   UNL     1      87.757 321.597 204.190  1.00  0.00     0.000 C 
BRANCH  15  16
ATOM     16  C   UNL     1      87.634 321.176 205.666  1.00  0.00     0.000 C 
BRANCH  16  17
ATOM     17  C   UNL     1      88.090 319.728 205.909  1.00  0.00     0.000 C 
BRANCH  17  18
ATOM     18  C   UNL     1      87.093 318.929 206.763  1.00  0.00     0.000 C 
BRANCH  18  19
ATOM     19  C   UNL     1      85.673 319.497 206.627  1.00  0.00     0.000 C 
BRANCH  19  20
ATOM     20  C   UNL     1      84.800 318.712 205.631  1.00  0.00     0.006 C 
BRANCH  20  21
ATOM     21  C   UNL     1      85.425 317.387 205.160  1.00  0.00     0.053 C 
BRANCH  21  22
ATOM     22  C   UNL     1      85.722 317.376 203.691  1.00  0.00     0.041 C 
ATOM     23  O   UNL     1      86.868 317.057 203.280  1.00  0.00    -0.550 OA
ATOM     24  O   UNL     1      84.745 317.754 202.776  1.00  0.00    -0.550 OA
ENDBRANCH  21  22
ENDBRANCH  20  21
ENDBRANCH  19  20
ENDBRANCH  18  19
ENDBRANCH  17  18
ENDBRANCH  16  17
ENDBRANCH  15  16
ENDBRANCH  14  15
ENDBRANCH  13  14
ENDBRANCH   1  13
TORSDOF 20
ENDMDL
MODEL 7
REMARK VINA RESULT:    -6.038      1.027      1.961
REMARK INTER + INTRA:         -14.748
REMARK INTER:                 -12.856
REMARK INTRA:                  -1.893
REMARK UNBOUND:                -1.651
REMARK SMILES CCCCCCCCCCCCCCCCCCCCCC(=O)[O-]
REMARK SMILES IDX 12 1 11 2 10 3 9 4 8 5 7 6 6 7 5 8 4 9 3 10 2 11 1 12 13 13
REMARK SMILES IDX 14 14 15 15 16 16 17 17 18 18 19 19 20 20 21 21 22 22 23 23
REMARK SMILES IDX 24 24
REMARK H PARENT
REMARK Flexibility Score: inf
ROOT
ATOM      1  C   UNL     1      88.584 320.567 201.552  1.00  0.00     0.000 C 
ENDROOT
BRANCH   1   2
ATOM      2  C   UNL     1      88.049 320.872 202.961  1.00  0.00     0.000 C 
BRANCH   2   3
ATOM      3  C   UNL     1      89.076 321.585 203.850  1.00  0.00     0.000 C 
BRANCH   3   4
ATOM      4  C   UNL     1      88.839 321.270 205.332  1.00  0.00    -0.000 C 
BRANCH   4   5
ATOM      5  C   UNL     1      87.336 321.195 205.643  1.00  0.00    -0.000 C 
BRANCH   5   6
ATOM      6  C   UNL     1      87.037 320.542 207.005  1.00  0.00    -0.000 C 
BRANCH   6   7
ATOM      7  C   UNL     1      85.848 319.564 207.008  1.00  0.00    -0.000 C 
BRANCH   7   8
ATOM      8  C   UNL     1      85.427 319.047 205.619  1.00  0.00    -0.000 C 
BRANCH   8   9
ATOM      9  C   UNL     1      86.129 317.735 205.207  1.00  0.00    -0.000 C 
BRANCH   9  10
ATOM     10  C   UNL     1      86.416 317.674 203.697  1.00  0.00    -0.000 C 
BRANCH  10  11
ATOM     11  C   UNL     1      85.270 318.258 202.856  1.00  0.00    -0.003 C 
ATOM     12  C   UNL     1      84.623 317.220 201.941  1.00  0.00     0.004 C 
ENDBRANCH  10  11
ENDBRANCH   9  10
ENDBRANCH   8   9
ENDBRANCH   7   8
ENDBRANCH   6   7
ENDBRANCH   5   6
ENDBRANCH   4   5
ENDBRANCH   3   4
ENDBRANCH   2   3
ENDBRANCH   1   2
BRANCH   1  13
ATOM     13  C   UNL     1      87.481 320.466 200.476  1.00  0.00     0.000 C 
BRANCH  13  14
ATOM     14  C   UNL     1      87.433 319.073 199.823  1.00  0.00     0.000 C 
BRANCH  14  15
ATOM     15  C   UNL     1      87.276 319.141 198.297  1.00  0.00     0.000 C 
BRANCH  15  16
ATOM     16  C   UNL     1      86.937 320.557 197.798  1.00  0.00     0.000 C 
BRANCH  16  17
ATOM     17  C   UNL     1      86.101 320.547 196.508  1.00  0.00     0.000 C 
BRANCH  17  18
ATOM     18  C   UNL     1      86.967 320.572 195.240  1.00  0.00     0.000 C 
BRANCH  18  19
ATOM     19  C   UNL     1      86.142 320.190 194.002  1.00  0.00     0.000 C 
BRANCH  19  20
ATOM     20  C   UNL     1      86.322 318.717 193.587  1.00  0.00     0.006 C 
BRANCH  20  21
ATOM     21  C   UNL     1      85.903 318.422 192.136  1.00  0.00     0.053 C 
BRANCH  21  22
ATOM     22  C   UNL     1      84.938 317.279 192.034  1.00  0.00     0.041 C 
ATOM     23  O   UNL     1      85.055 316.282 192.794  1.00  0.00    -0.550 OA
ATOM     24  O   UNL     1      83.930 317.295 191.075  1.00  0.00    -0.550 OA
ENDBRANCH  21  22
ENDBRANCH  20  21
ENDBRANCH  19  20
ENDBRANCH  18  19
ENDBRANCH  17  18
ENDBRANCH  16  17
ENDBRANCH  15  16
ENDBRANCH  14  15
ENDBRANCH  13  14
ENDBRANCH   1  13
TORSDOF 20
ENDMDL
MODEL 8
REMARK VINA RESULT:    -6.035      1.765      2.897
REMARK INTER + INTRA:         -14.743
REMARK INTER:                 -12.754
REMARK INTRA:                  -1.989
REMARK UNBOUND:                -1.651
REMARK SMILES CCCCCCCCCCCCCCCCCCCCCC(=O)[O-]
REMARK SMILES IDX 12 1 11 2 10 3 9 4 8 5 7 6 6 7 5 8 4 9 3 10 2 11 1 12 13 13
REMARK SMILES IDX 14 14 15 15 16 16 17 17 18 18 19 19 20 20 21 21 22 22 23 23
REMARK SMILES IDX 24 24
REMARK H PARENT
REMARK Flexibility Score: inf
ROOT
ATOM      1  C   UNL     1      87.282 319.577 198.029  1.00  0.00     0.000 C 
ENDROOT
BRANCH   1   2
ATOM      2  C   UNL     1      87.319 320.725 199.051  1.00  0.00     0.000 C 
BRANCH   2   3
ATOM      3  C   UNL     1      87.941 320.314 200.392  1.00  0.00     0.000 C 
BRANCH   3   4
ATOM      4  C   UNL     1      86.963 320.543 201.550  1.00  0.00    -0.000 C 
BRANCH   4   5
ATOM      5  C   UNL     1      87.346 319.692 202.770  1.00  0.00    -0.000 C 
BRANCH   5   6
ATOM      6  C   UNL     1      88.384 320.377 203.677  1.00  0.00    -0.000 C 
BRANCH   6   7
ATOM      7  C   UNL     1      87.809 321.425 204.646  1.00  0.00    -0.000 C 
BRANCH   7   8
ATOM      8  C   UNL     1      88.291 321.298 206.104  1.00  0.00    -0.000 C 
BRANCH   8   9
ATOM      9  C   UNL     1      87.563 320.194 206.903  1.00  0.00    -0.000 C 
BRANCH   9  10
ATOM     10  C   UNL     1      86.033 320.340 206.843  1.00  0.00    -0.000 C 
BRANCH  10  11
ATOM     11  C   UNL     1      85.348 319.108 206.231  1.00  0.00    -0.003 C 
ATOM     12  C   UNL     1      86.315 317.947 206.006  1.00  0.00     0.004 C 
ENDBRANCH  10  11
ENDBRANCH   9  10
ENDBRANCH   8   9
ENDBRANCH   7   8
ENDBRANCH   6   7
ENDBRANCH   5   6
ENDBRANCH   4   5
ENDBRANCH   3   4
ENDBRANCH   2   3
ENDBRANCH   1   2
BRANCH   1  13
ATOM     13  C   UNL     1      86.491 319.911 196.746  1.00  0.00     0.000 C 
BRANCH  13  14
ATOM     14  C   UNL     1      87.376 320.567 195.672  1.00  0.00     0.000 C 
BRANCH  14  15
ATOM     15  C   UNL     1      86.585 320.970 194.419  1.00  0.00     0.000 C 
BRANCH  15  16
ATOM     16  C   UNL     1      85.145 320.426 194.426  1.00  0.00     0.000 C 
BRANCH  16  17
ATOM     17  C   UNL     1      84.885 319.421 193.293  1.00  0.00     0.000 C 
BRANCH  17  18
ATOM     18  C   UNL     1      86.151 319.101 192.484  1.00  0.00     0.000 C 
BRANCH  18  19
ATOM     19  C   UNL     1      86.008 317.761 191.746  1.00  0.00     0.000 C 
BRANCH  19  20
ATOM     20  C   UNL     1      85.797 316.567 192.696  1.00  0.00     0.006 C 
BRANCH  20  21
ATOM     21  C   UNL     1      87.003 316.270 193.605  1.00  0.00     0.053 C 
BRANCH  21  22
ATOM     22  C   UNL     1      86.716 316.536 195.052  1.00  0.00     0.041 C 
ATOM     23  O   UNL     1      85.531 316.708 195.441  1.00  0.00    -0.550 OA
ATOM     24  O   UNL     1      87.758 316.631 195.968  1.00  0.00    -0.550 OA
ENDBRANCH  21  22
ENDBRANCH  20  21
ENDBRANCH  19  20
ENDBRANCH  18  19
ENDBRANCH  17  18
ENDBRANCH  16  17
ENDBRANCH  15  16
ENDBRANCH  14  15
ENDBRANCH  13  14
ENDBRANCH   1  13
TORSDOF 20
ENDMDL
MODEL 9
REMARK VINA RESULT:    -5.979     19.360     22.236
REMARK INTER + INTRA:         -14.621
REMARK INTER:                 -12.214
REMARK INTRA:                  -2.407
REMARK UNBOUND:                -1.651
REMARK SMILES CCCCCCCCCCCCCCCCCCCCCC(=O)[O-]
REMARK SMILES IDX 12 1 11 2 10 3 9 4 8 5 7 6 6 7 5 8 4 9 3 10 2 11 1 12 13 13
REMARK SMILES IDX 14 14 15 15 16 16 17 17 18 18 19 19 20 20 21 21 22 22 23 23
REMARK SMILES IDX 24 24
REMARK H PARENT
REMARK Flexibility Score: inf
ROOT
ATOM      1  C   UNL     1     101.476 306.239 194.573  1.00  0.00     0.000 C 
ENDROOT
BRANCH   1   2
ATOM      2  C   UNL     1     102.268 305.776 193.338  1.00  0.00     0.000 C 
BRANCH   2   3
ATOM      3  C   UNL     1     103.723 306.263 193.343  1.00  0.00     0.000 C 
BRANCH   3   4
ATOM      4  C   UNL     1     103.940 307.367 192.301  1.00  0.00    -0.000 C 
BRANCH   4   5
ATOM      5  C   UNL     1     102.600 307.852 191.728  1.00  0.00    -0.000 C 
BRANCH   5   6
ATOM      6  C   UNL     1     102.221 309.266 192.202  1.00  0.00    -0.000 C 
BRANCH   6   7
ATOM      7  C   UNL     1     103.265 309.950 193.105  1.00  0.00    -0.000 C 
BRANCH   7   8
ATOM      8  C   UNL     1     102.944 309.914 194.611  1.00  0.00    -0.000 C 
BRANCH   8   9
ATOM      9  C   UNL     1     101.431 309.905 194.923  1.00  0.00    -0.000 C 
BRANCH   9  10
ATOM     10  C   UNL     1     101.145 309.886 196.435  1.00  0.00    -0.000 C 
BRANCH  10  11
ATOM     11  C   UNL     1      99.864 309.112 196.781  1.00  0.00    -0.003 C 
ATOM     12  C   UNL     1      99.555 309.123 198.278  1.00  0.00     0.004 C 
ENDBRANCH  10  11
ENDBRANCH   9  10
ENDBRANCH   8   9
ENDBRANCH   7   8
ENDBRANCH   6   7
ENDBRANCH   5   6
ENDBRANCH   4   5
ENDBRANCH   3   4
ENDBRANCH   2   3
ENDBRANCH   1   2
BRANCH   1  13
ATOM     13  C   UNL     1     102.348 306.441 195.830  1.00  0.00     0.000 C 
BRANCH  13  14
ATOM     14  C   UNL     1     101.871 305.579 197.012  1.00  0.00     0.000 C 
BRANCH  14  15
ATOM     15  C   UNL     1     101.865 306.349 198.342  1.00  0.00     0.000 C 
BRANCH  15  16
ATOM     16  C   UNL     1     101.398 305.483 199.526  1.00  0.00     0.000 C 
BRANCH  16  17
ATOM     17  C   UNL     1     100.749 306.311 200.646  1.00  0.00     0.000 C 
BRANCH  17  18
ATOM     18  C   UNL     1      99.801 305.480 201.524  1.00  0.00     0.000 C 
BRANCH  18  19
ATOM     19  C   UNL     1     100.323 305.391 202.966  1.00  0.00     0.000 C 
BRANCH  19  20
ATOM     20  C   UNL     1     101.858 305.469 203.060  1.00  0.00     0.006 C 
BRANCH  20  21
ATOM     21  C   UNL     1     102.429 304.967 204.398  1.00  0.00     0.053 C 
BRANCH  21  22
ATOM     22  C   UNL     1     103.045 306.065 205.213  1.00  0.00     0.041 C 
ATOM     23  O   UNL     1     102.938 307.263 204.841  1.00  0.00    -0.550 OA
ATOM     24  O   UNL     1     103.767 305.765 206.362  1.00  0.00    -0.550 OA
ENDBRANCH  21  22
ENDBRANCH  20  21
ENDBRANCH  19  20
ENDBRANCH  18  19
ENDBRANCH  17  18
ENDBRANCH  16  17
ENDBRANCH  15  16
ENDBRANCH  14  15
ENDBRANCH  13  14
ENDBRANCH   1  13
TORSDOF 20
ENDMDL
