MODEL 1
REMARK VINA RESULT:    -6.583      0.000      0.000
REMARK INTER + INTRA:          -6.775
REMARK INTER:                  -6.775
REMARK INTRA:                   0.000
REMARK UNBOUND:                 0.000
REMARK SMILES C=C1[C@@H](O)C[C@@]23C[C@@H]1C(C)(C)[C@@H]2CC[C@H]3C
REMARK SMILES IDX 16 1 15 2 14 3 13 4 12 5 6 6 7 7 8 8 9 9 10 10 11 11 2 12
REMARK SMILES IDX 1 13 3 14 5 15 4 16
REMARK H PARENT 4 17
REMARK Flexibility Score: inf
ROOT
ATOM      1  C   UNL     1     136.176 121.545 139.766  1.00  0.00     0.008 C 
ATOM      2  C   UNL     1     134.971 122.320 140.319  1.00  0.00    -0.008 C 
ATOM      3  C   UNL     1     133.656 121.606 140.019  1.00  0.00     0.004 C 
ATOM      4  C   UNL     1     132.596 122.685 140.148  1.00  0.00     0.005 C 
ATOM      5  C   UNL     1     133.255 123.939 139.555  1.00  0.00     0.002 C 
ATOM      6  C   UNL     1     134.776 123.776 139.792  1.00  0.00    -0.020 C 
ATOM      7  C   UNL     1     135.120 124.843 140.837  1.00  0.00     0.016 C 
ATOM      8  C   UNL     1     134.256 126.006 140.379  1.00  0.00     0.023 C 
ATOM      9  C   UNL     1     132.867 125.347 140.126  1.00  0.00    -0.025 C 
ATOM     10  C   UNL     1     132.074 125.303 141.458  1.00  0.00     0.012 C 
ATOM     11  C   UNL     1     131.996 126.135 139.115  1.00  0.00     0.012 C 
ATOM     12  C   UNL     1     134.881 126.555 139.097  1.00  0.00    -0.045 C 
ATOM     13  C   UNL     1     134.865 127.879 138.869  1.00  0.00     0.011 C 
ATOM     14  C   UNL     1     135.351 125.592 138.001  1.00  0.00     0.140 C 
ATOM     15  C   UNL     1     135.572 124.132 138.498  1.00  0.00     0.044 C 
ENDROOT
BRANCH  14  16
ATOM     16  O   UNL     1     136.555 126.057 137.439  1.00  0.00    -0.389 OA
ATOM     17  H   UNL     1     137.051 126.539 138.152  1.00  0.00     0.211 HD
ENDBRANCH  14  16
TORSDOF 1
ENDMDL
MODEL 2
REMARK VINA RESULT:    -6.556      2.361      4.262
REMARK INTER + INTRA:          -6.748
REMARK INTER:                  -6.748
REMARK INTRA:                   0.000
REMARK UNBOUND:                 0.000
REMARK SMILES C=C1[C@@H](O)C[C@@]23C[C@@H]1C(C)(C)[C@@H]2CC[C@H]3C
REMARK SMILES IDX 16 1 15 2 14 3 13 4 12 5 6 6 7 7 8 8 9 9 10 10 11 11 2 12
REMARK SMILES IDX 1 13 3 14 5 15 4 16
REMARK H PARENT 4 17
REMARK Flexibility Score: inf
ROOT
ATOM      1  C   UNL     1     135.458 118.802 138.697  1.00  0.00     0.008 C 
ATOM      2  C   UNL     1     136.319 120.017 139.072  1.00  0.00    -0.008 C 
ATOM      3  C   UNL     1     137.322 119.679 140.172  1.00  0.00     0.004 C 
ATOM      4  C   UNL     1     137.705 121.021 140.768  1.00  0.00     0.005 C 
ATOM      5  C   UNL     1     136.397 121.825 140.767  1.00  0.00     0.002 C 
ATOM      6  C   UNL     1     135.559 121.280 139.585  1.00  0.00    -0.020 C 
ATOM      7  C   UNL     1     135.541 122.424 138.566  1.00  0.00     0.016 C 
ATOM      8  C   UNL     1     135.399 123.636 139.471  1.00  0.00     0.023 C 
ATOM      9  C   UNL     1     136.459 123.381 140.585  1.00  0.00    -0.025 C 
ATOM     10  C   UNL     1     137.834 123.918 140.110  1.00  0.00     0.012 C 
ATOM     11  C   UNL     1     136.131 124.110 141.913  1.00  0.00     0.012 C 
ATOM     12  C   UNL     1     133.970 123.627 140.016  1.00  0.00    -0.045 C 
ATOM     13  C   UNL     1     133.322 124.791 140.187  1.00  0.00     0.011 C 
ATOM     14  C   UNL     1     133.357 122.321 140.535  1.00  0.00     0.140 C 
ATOM     15  C   UNL     1     134.083 121.039 140.027  1.00  0.00     0.044 C 
ENDROOT
BRANCH  14  16
ATOM     16  O   UNL     1     132.004 122.245 140.157  1.00  0.00    -0.389 OA
ATOM     17  H   UNL     1     131.456 122.439 140.963  1.00  0.00     0.211 HD
ENDBRANCH  14  16
TORSDOF 1
ENDMDL
MODEL 3
REMARK VINA RESULT:    -6.432      8.519     10.603
REMARK INTER + INTRA:          -6.620
REMARK INTER:                  -6.620
REMARK INTRA:                   0.000
REMARK UNBOUND:                 0.000
REMARK SMILES C=C1[C@@H](O)C[C@@]23C[C@@H]1C(C)(C)[C@@H]2CC[C@H]3C
REMARK SMILES IDX 16 1 15 2 14 3 13 4 12 5 6 6 7 7 8 8 9 9 10 10 11 11 2 12
REMARK SMILES IDX 1 13 3 14 5 15 4 16
REMARK H PARENT 4 17
REMARK Flexibility Score: inf
ROOT
ATOM      1  C   UNL     1     131.959 132.417 136.133  1.00  0.00     0.008 C 
ATOM      2  C   UNL     1     131.238 133.588 136.816  1.00  0.00    -0.008 C 
ATOM      3  C   UNL     1     132.225 134.627 137.342  1.00  0.00     0.004 C 
ATOM      4  C   UNL     1     131.445 135.402 138.390  1.00  0.00     0.005 C 
ATOM      5  C   UNL     1     130.587 134.337 139.089  1.00  0.00     0.002 C 
ATOM      6  C   UNL     1     130.329 133.234 138.034  1.00  0.00    -0.020 C 
ATOM      7  C   UNL     1     128.834 133.344 137.719  1.00  0.00     0.016 C 
ATOM      8  C   UNL     1     128.253 133.626 139.094  1.00  0.00     0.023 C 
ATOM      9  C   UNL     1     129.183 134.742 139.657  1.00  0.00    -0.025 C 
ATOM     10  C   UNL     1     128.670 136.124 139.174  1.00  0.00     0.012 C 
ATOM     11  C   UNL     1     129.204 134.791 141.206  1.00  0.00     0.012 C 
ATOM     12  C   UNL     1     128.348 132.330 139.899  1.00  0.00    -0.045 C 
ATOM     13  C   UNL     1     127.362 132.010 140.754  1.00  0.00     0.011 C 
ATOM     14  C   UNL     1     129.639 131.503 139.868  1.00  0.00     0.140 C 
ATOM     15  C   UNL     1     130.561 131.820 138.654  1.00  0.00     0.044 C 
ENDROOT
BRANCH  14  16
ATOM     16  O   UNL     1     129.327 130.131 139.842  1.00  0.00    -0.389 OA
ATOM     17  H   UNL     1     130.071 129.664 139.378  1.00  0.00     0.211 HD
ENDBRANCH  14  16
TORSDOF 1
ENDMDL
MODEL 4
REMARK VINA RESULT:    -6.317      7.627     10.224
REMARK INTER + INTRA:          -6.501
REMARK INTER:                  -6.501
REMARK INTRA:                   0.000
REMARK UNBOUND:                 0.000
REMARK SMILES C=C1[C@@H](O)C[C@@]23C[C@@H]1C(C)(C)[C@@H]2CC[C@H]3C
REMARK SMILES IDX 16 1 15 2 14 3 13 4 12 5 6 6 7 7 8 8 9 9 10 10 11 11 2 12
REMARK SMILES IDX 1 13 3 14 5 15 4 16
REMARK H PARENT 4 17
REMARK Flexibility Score: inf
ROOT
ATOM      1  C   UNL     1     128.788 135.659 138.523  1.00  0.00     0.008 C 
ATOM      2  C   UNL     1     129.127 134.318 137.857  1.00  0.00    -0.008 C 
ATOM      3  C   UNL     1     128.594 133.137 138.663  1.00  0.00     0.004 C 
ATOM      4  C   UNL     1     129.414 131.949 138.192  1.00  0.00     0.005 C 
ATOM      5  C   UNL     1     130.827 132.518 137.993  1.00  0.00     0.002 C 
ATOM      6  C   UNL     1     130.641 134.012 137.634  1.00  0.00    -0.020 C 
ATOM      7  C   UNL     1     131.063 134.111 136.164  1.00  0.00     0.016 C 
ATOM      8  C   UNL     1     132.257 133.171 136.127  1.00  0.00     0.023 C 
ATOM      9  C   UNL     1     131.744 131.906 136.879  1.00  0.00    -0.025 C 
ATOM     10  C   UNL     1     131.007 130.982 135.875  1.00  0.00     0.012 C 
ATOM     11  C   UNL     1     132.888 131.065 137.501  1.00  0.00     0.012 C 
ATOM     12  C   UNL     1     133.400 133.865 136.868  1.00  0.00    -0.045 C 
ATOM     13  C   UNL     1     134.659 133.718 136.425  1.00  0.00     0.011 C 
ATOM     14  C   UNL     1     133.132 134.563 138.207  1.00  0.00     0.140 C 
ATOM     15  C   UNL     1     131.631 134.898 138.453  1.00  0.00     0.044 C 
ENDROOT
BRANCH  14  16
ATOM     16  O   UNL     1     133.872 135.758 138.280  1.00  0.00    -0.389 OA
ATOM     17  H   UNL     1     134.826 135.528 138.129  1.00  0.00     0.211 HD
ENDBRANCH  14  16
TORSDOF 1
ENDMDL
MODEL 5
REMARK VINA RESULT:    -6.251      1.972      4.359
REMARK INTER + INTRA:          -6.434
REMARK INTER:                  -6.434
REMARK INTRA:                   0.000
REMARK UNBOUND:                 0.000
REMARK SMILES C=C1[C@@H](O)C[C@@]23C[C@@H]1C(C)(C)[C@@H]2CC[C@H]3C
REMARK SMILES IDX 16 1 15 2 14 3 13 4 12 5 6 6 7 7 8 8 9 9 10 10 11 11 2 12
REMARK SMILES IDX 1 13 3 14 5 15 4 16
REMARK H PARENT 4 17
REMARK Flexibility Score: inf
ROOT
ATOM      1  C   UNL     1     129.820 125.068 141.103  1.00  0.00     0.008 C 
ATOM      2  C   UNL     1     131.054 125.782 140.533  1.00  0.00    -0.008 C 
ATOM      3  C   UNL     1     130.724 126.539 139.249  1.00  0.00     0.004 C 
ATOM      4  C   UNL     1     132.065 126.735 138.563  1.00  0.00     0.005 C 
ATOM      5  C   UNL     1     132.823 125.426 138.832  1.00  0.00     0.002 C 
ATOM      6  C   UNL     1     132.278 124.882 140.174  1.00  0.00    -0.020 C 
ATOM      7  C   UNL     1     133.444 125.037 141.155  1.00  0.00     0.016 C 
ATOM      8  C   UNL     1     134.628 124.658 140.282  1.00  0.00     0.023 C 
ATOM      9  C   UNL     1     134.384 125.465 138.972  1.00  0.00    -0.025 C 
ATOM     10  C   UNL     1     134.979 126.889 139.133  1.00  0.00     0.012 C 
ATOM     11  C   UNL     1     135.069 124.834 137.733  1.00  0.00     0.012 C 
ATOM     12  C   UNL     1     134.557 123.148 140.056  1.00  0.00    -0.045 C 
ATOM     13  C   UNL     1     135.693 122.433 140.008  1.00  0.00     0.011 C 
ATOM     14  C   UNL     1     133.219 122.489 139.701  1.00  0.00     0.140 C 
ATOM     15  C   UNL     1     131.975 123.355 140.062  1.00  0.00     0.044 C 
ENDROOT
BRANCH  14  16
ATOM     16  O   UNL     1     133.105 121.251 140.361  1.00  0.00    -0.389 OA
ATOM     17  H   UNL     1     133.982 121.056 140.783  1.00  0.00     0.211 HD
ENDBRANCH  14  16
TORSDOF 1
ENDMDL
MODEL 6
REMARK VINA RESULT:    -6.162      6.887      8.558
REMARK INTER + INTRA:          -6.342
REMARK INTER:                  -6.342
REMARK INTRA:                   0.000
REMARK UNBOUND:                 0.000
REMARK SMILES C=C1[C@@H](O)C[C@@]23C[C@@H]1C(C)(C)[C@@H]2CC[C@H]3C
REMARK SMILES IDX 16 1 15 2 14 3 13 4 12 5 6 6 7 7 8 8 9 9 10 10 11 11 2 12
REMARK SMILES IDX 1 13 3 14 5 15 4 16
REMARK H PARENT 4 17
REMARK Flexibility Score: inf
ROOT
ATOM      1  C   UNL     1     133.741 129.562 135.876  1.00  0.00     0.008 C 
ATOM      2  C   UNL     1     132.482 129.992 136.641  1.00  0.00    -0.008 C 
ATOM      3  C   UNL     1     131.208 129.582 135.907  1.00  0.00     0.004 C 
ATOM      4  C   UNL     1     130.128 130.484 136.478  1.00  0.00     0.005 C 
ATOM      5  C   UNL     1     130.827 131.838 136.670  1.00  0.00     0.002 C 
ATOM      6  C   UNL     1     132.321 131.519 136.920  1.00  0.00    -0.020 C 
ATOM      7  C   UNL     1     132.553 131.888 138.389  1.00  0.00     0.016 C 
ATOM      8  C   UNL     1     131.723 133.154 138.519  1.00  0.00     0.023 C 
ATOM      9  C   UNL     1     130.371 132.771 137.845  1.00  0.00    -0.025 C 
ATOM     10  C   UNL     1     129.458 132.083 138.893  1.00  0.00     0.012 C 
ATOM     11  C   UNL     1     129.590 133.998 137.310  1.00  0.00     0.012 C 
ATOM     12  C   UNL     1     132.460 134.257 137.758  1.00  0.00    -0.045 C 
ATOM     13  C   UNL     1     132.450 135.511 138.240  1.00  0.00     0.011 C 
ATOM     14  C   UNL     1     133.040 133.971 136.368  1.00  0.00     0.140 C 
ATOM     15  C   UNL     1     133.230 132.455 136.065  1.00  0.00     0.044 C 
ENDROOT
BRANCH  14  16
ATOM     16  O   UNL     1     134.286 134.611 136.230  1.00  0.00    -0.389 OA
ATOM     17  H   UNL     1     134.257 135.146 135.393  1.00  0.00     0.211 HD
ENDBRANCH  14  16
TORSDOF 1
ENDMDL
MODEL 7
REMARK VINA RESULT:    -6.066      0.951      1.069
REMARK INTER + INTRA:          -6.244
REMARK INTER:                  -6.244
REMARK INTRA:                   0.000
REMARK UNBOUND:                 0.000
REMARK SMILES C=C1[C@@H](O)C[C@@]23C[C@@H]1C(C)(C)[C@@H]2CC[C@H]3C
REMARK SMILES IDX 16 1 15 2 14 3 13 4 12 5 6 6 7 7 8 8 9 9 10 10 11 11 2 12
REMARK SMILES IDX 1 13 3 14 5 15 4 16
REMARK H PARENT 4 17
REMARK Flexibility Score: inf
ROOT
ATOM      1  C   UNL     1     135.515 122.186 139.642  1.00  0.00     0.008 C 
ATOM      2  C   UNL     1     134.404 123.163 140.054  1.00  0.00    -0.008 C 
ATOM      3  C   UNL     1     133.019 122.616 139.720  1.00  0.00     0.004 C 
ATOM      4  C   UNL     1     132.118 123.838 139.697  1.00  0.00     0.005 C 
ATOM      5  C   UNL     1     132.983 124.935 139.059  1.00  0.00     0.002 C 
ATOM      6  C   UNL     1     134.449 124.584 139.409  1.00  0.00    -0.020 C 
ATOM      7  C   UNL     1     134.883 125.676 140.392  1.00  0.00     0.016 C 
ATOM      8  C   UNL     1     134.221 126.905 139.793  1.00  0.00     0.023 C 
ATOM      9  C   UNL     1     132.768 126.425 139.497  1.00  0.00    -0.025 C 
ATOM     10  C   UNL     1     131.904 126.602 140.772  1.00  0.00     0.012 C 
ATOM     11  C   UNL     1     132.077 127.240 138.374  1.00  0.00     0.012 C 
ATOM     12  C   UNL     1     134.989 127.254 138.518  1.00  0.00    -0.045 C 
ATOM     13  C   UNL     1     135.175 128.545 138.192  1.00  0.00     0.011 C 
ATOM     14  C   UNL     1     135.377 126.148 137.530  1.00  0.00     0.140 C 
ATOM     15  C   UNL     1     135.359 124.718 138.149  1.00  0.00     0.044 C 
ENDROOT
BRANCH  14  16
ATOM     16  O   UNL     1     136.664 126.394 137.018  1.00  0.00    -0.389 OA
ATOM     17  H   UNL     1     136.909 127.326 137.258  1.00  0.00     0.211 HD
ENDBRANCH  14  16
TORSDOF 1
ENDMDL
MODEL 8
REMARK VINA RESULT:    -5.898      2.210      3.610
REMARK INTER + INTRA:          -6.070
REMARK INTER:                  -6.070
REMARK INTRA:                   0.000
REMARK UNBOUND:                 0.000
REMARK SMILES C=C1[C@@H](O)C[C@@]23C[C@@H]1C(C)(C)[C@@H]2CC[C@H]3C
REMARK SMILES IDX 16 1 15 2 14 3 13 4 12 5 6 6 7 7 8 8 9 9 10 10 11 11 2 12
REMARK SMILES IDX 1 13 3 14 5 15 4 16
REMARK H PARENT 4 17
REMARK Flexibility Score: inf
ROOT
ATOM      1  C   UNL     1     134.484 121.374 139.976  1.00  0.00     0.008 C 
ATOM      2  C   UNL     1     134.824 122.841 139.671  1.00  0.00    -0.008 C 
ATOM      3  C   UNL     1     135.927 123.366 140.587  1.00  0.00     0.004 C 
ATOM      4  C   UNL     1     135.787 124.876 140.529  1.00  0.00     0.005 C 
ATOM      5  C   UNL     1     134.271 125.116 140.486  1.00  0.00     0.002 C 
ATOM      6  C   UNL     1     133.658 123.870 139.803  1.00  0.00    -0.020 C 
ATOM      7  C   UNL     1     133.154 124.381 138.449  1.00  0.00     0.016 C 
ATOM      8  C   UNL     1     132.594 125.741 138.828  1.00  0.00     0.023 C 
ATOM      9  C   UNL     1     133.718 126.362 139.712  1.00  0.00    -0.025 C 
ATOM     10  C   UNL     1     134.756 127.062 138.796  1.00  0.00     0.012 C 
ATOM     11  C   UNL     1     133.192 127.439 140.694  1.00  0.00     0.012 C 
ATOM     12  C   UNL     1     131.305 125.496 139.614  1.00  0.00    -0.045 C 
ATOM     13  C   UNL     1     130.265 126.331 139.453  1.00  0.00     0.011 C 
ATOM     14  C   UNL     1     131.269 124.423 140.708  1.00  0.00     0.140 C 
ATOM     15  C   UNL     1     132.411 123.369 140.595  1.00  0.00     0.044 C 
ENDROOT
BRANCH  14  16
ATOM     16  O   UNL     1     130.035 123.747 140.674  1.00  0.00    -0.389 OA
ATOM     17  H   UNL     1     129.724 123.740 139.731  1.00  0.00     0.211 HD
ENDBRANCH  14  16
TORSDOF 1
ENDMDL
MODEL 9
REMARK VINA RESULT:    -5.886      6.520      9.129
REMARK INTER + INTRA:          -6.058
REMARK INTER:                  -6.058
REMARK INTRA:                   0.000
REMARK UNBOUND:                 0.000
REMARK SMILES C=C1[C@@H](O)C[C@@]23C[C@@H]1C(C)(C)[C@@H]2CC[C@H]3C
REMARK SMILES IDX 16 1 15 2 14 3 13 4 12 5 6 6 7 7 8 8 9 9 10 10 11 11 2 12
REMARK SMILES IDX 1 13 3 14 5 15 4 16
REMARK H PARENT 4 17
REMARK Flexibility Score: inf
ROOT
ATOM      1  C   UNL     1     135.003 133.485 136.248  1.00  0.00     0.008 C 
ATOM      2  C   UNL     1     133.539 133.826 136.562  1.00  0.00    -0.008 C 
ATOM      3  C   UNL     1     133.427 134.830 137.706  1.00  0.00     0.004 C 
ATOM      4  C   UNL     1     132.008 134.669 138.221  1.00  0.00     0.005 C 
ATOM      5  C   UNL     1     131.741 133.159 138.134  1.00  0.00     0.002 C 
ATOM      6  C   UNL     1     132.617 132.635 136.971  1.00  0.00    -0.020 C 
ATOM      7  C   UNL     1     131.615 132.248 135.878  1.00  0.00     0.016 C 
ATOM      8  C   UNL     1     130.494 131.632 136.697  1.00  0.00     0.023 C 
ATOM      9  C   UNL     1     130.282 132.658 137.851  1.00  0.00    -0.025 C 
ATOM     10  C   UNL     1     129.305 133.764 137.375  1.00  0.00     0.012 C 
ATOM     11  C   UNL     1     129.656 132.026 139.119  1.00  0.00     0.012 C 
ATOM     12  C   UNL     1     130.997 130.281 137.206  1.00  0.00    -0.045 C 
ATOM     13  C   UNL     1     130.145 129.246 137.284  1.00  0.00     0.011 C 
ATOM     14  C   UNL     1     132.407 130.163 137.796  1.00  0.00     0.140 C 
ATOM     15  C   UNL     1     133.359 131.328 137.392  1.00  0.00     0.044 C 
ENDROOT
BRANCH  14  16
ATOM     16  O   UNL     1     132.995 128.949 137.391  1.00  0.00    -0.389 OA
ATOM     17  H   UNL     1     133.070 128.969 136.401  1.00  0.00     0.211 HD
ENDBRANCH  14  16
TORSDOF 1
ENDMDL
