MODEL 1
REMARK VINA RESULT:    -4.196      0.000      0.000
REMARK INTER + INTRA:          -6.269
REMARK INTER:                  -5.914
REMARK INTRA:                  -0.356
REMARK UNBOUND:                -0.356
REMARK SMILES CCCCCCCCC(=O)[O-]
REMARK SMILES IDX 6 1 7 2 8 3 9 4 10 5 11 6 5 7 4 8 3 9 2 10 1 11
REMARK H PARENT
REMARK Flexibility Score: inf
ROOT
ATOM      1  C   UNL     1     256.015 260.940 250.723  1.00  0.00     0.000 C 
ENDROOT
BRANCH   1   2
ATOM      2  C   UNL     1     255.861 262.036 251.785  1.00  0.00     0.006 C 
BRANCH   2   3
ATOM      3  C   UNL     1     254.404 262.161 252.238  1.00  0.00     0.053 C 
BRANCH   3   4
ATOM      4  C   UNL     1     254.207 261.495 253.563  1.00  0.00     0.041 C 
ATOM      5  O   UNL     1     254.725 261.984 254.600  1.00  0.00    -0.550 OA
ATOM      6  O   UNL     1     253.493 260.306 253.644  1.00  0.00    -0.550 OA
ENDBRANCH   3   4
ENDBRANCH   2   3
ENDBRANCH   1   2
BRANCH   1   7
ATOM      7  C   UNL     1     257.031 261.350 249.651  1.00  0.00     0.000 C 
BRANCH   7   8
ATOM      8  C   UNL     1     256.598 260.855 248.263  1.00  0.00    -0.000 C 
BRANCH   8   9
ATOM      9  C   UNL     1     255.142 260.358 248.231  1.00  0.00    -0.000 C 
BRANCH   9  10
ATOM     10  C   UNL     1     254.339 260.790 246.991  1.00  0.00    -0.003 C 
ATOM     11  C   UNL     1     252.905 261.203 247.321  1.00  0.00     0.004 C 
ENDBRANCH   9  10
ENDBRANCH   8   9
ENDBRANCH   7   8
ENDBRANCH   1   7
TORSDOF 7
ENDMDL
MODEL 2
REMARK VINA RESULT:    -4.191      4.704      6.273
REMARK INTER + INTRA:          -6.261
REMARK INTER:                  -5.896
REMARK INTRA:                  -0.365
REMARK UNBOUND:                -0.356
REMARK SMILES CCCCCCCCC(=O)[O-]
REMARK SMILES IDX 6 1 7 2 8 3 9 4 10 5 11 6 5 7 4 8 3 9 2 10 1 11
REMARK H PARENT
REMARK Flexibility Score: inf
ROOT
ATOM      1  C   UNL     1     257.550 261.286 244.622  1.00  0.00     0.000 C 
ENDROOT
BRANCH   1   2
ATOM      2  C   UNL     1     258.985 261.043 245.106  1.00  0.00     0.006 C 
BRANCH   2   3
ATOM      3  C   UNL     1     259.062 261.079 246.635  1.00  0.00     0.053 C 
BRANCH   3   4
ATOM      4  C   UNL     1     260.020 262.135 247.087  1.00  0.00     0.041 C 
ATOM      5  O   UNL     1     260.793 262.686 246.260  1.00  0.00    -0.550 OA
ATOM      6  O   UNL     1     260.094 262.477 248.432  1.00  0.00    -0.550 OA
ENDBRANCH   3   4
ENDBRANCH   2   3
ENDBRANCH   1   2
BRANCH   1   7
ATOM      7  C   UNL     1     256.622 261.623 245.795  1.00  0.00     0.000 C 
BRANCH   7   8
ATOM      8  C   UNL     1     255.373 260.729 245.783  1.00  0.00    -0.000 C 
BRANCH   8   9
ATOM      9  C   UNL     1     255.062 260.115 247.160  1.00  0.00    -0.000 C 
BRANCH   9  10
ATOM     10  C   UNL     1     253.988 260.860 247.972  1.00  0.00    -0.003 C 
ATOM     11  C   UNL     1     252.761 261.232 247.140  1.00  0.00     0.004 C 
ENDBRANCH   9  10
ENDBRANCH   8   9
ENDBRANCH   7   8
ENDBRANCH   1   7
TORSDOF 7
ENDMDL
MODEL 3
REMARK VINA RESULT:    -4.182      4.966      7.036
REMARK INTER + INTRA:          -6.250
REMARK INTER:                  -5.762
REMARK INTRA:                  -0.488
REMARK UNBOUND:                -0.356
REMARK SMILES CCCCCCCCC(=O)[O-]
REMARK SMILES IDX 6 1 7 2 8 3 9 4 10 5 11 6 5 7 4 8 3 9 2 10 1 11
REMARK H PARENT
REMARK Flexibility Score: inf
ROOT
ATOM      1  C   UNL     1     250.674 257.510 246.883  1.00  0.00     0.000 C 
ENDROOT
BRANCH   1   2
ATOM      2  C   UNL     1     249.396 258.359 246.908  1.00  0.00     0.006 C 
BRANCH   2   3
ATOM      3  C   UNL     1     249.721 259.836 247.147  1.00  0.00     0.053 C 
BRANCH   3   4
ATOM      4  C   UNL     1     248.933 260.703 246.217  1.00  0.00     0.041 C 
ATOM      5  O   UNL     1     249.083 261.953 246.236  1.00  0.00    -0.550 OA
ATOM      6  O   UNL     1     247.996 260.135 245.363  1.00  0.00    -0.550 OA
ENDBRANCH   3   4
ENDBRANCH   2   3
ENDBRANCH   1   2
BRANCH   1   7
ATOM      7  C   UNL     1     251.870 258.301 247.425  1.00  0.00     0.000 C 
BRANCH   7   8
ATOM      8  C   UNL     1     253.108 258.104 246.537  1.00  0.00    -0.000 C 
BRANCH   8   9
ATOM      9  C   UNL     1     253.793 259.429 246.160  1.00  0.00    -0.000 C 
BRANCH   9  10
ATOM     10  C   UNL     1     253.334 260.650 246.977  1.00  0.00    -0.003 C 
ATOM     11  C   UNL     1     254.238 260.942 248.174  1.00  0.00     0.004 C 
ENDBRANCH   9  10
ENDBRANCH   8   9
ENDBRANCH   7   8
ENDBRANCH   1   7
TORSDOF 7
ENDMDL
MODEL 4
REMARK VINA RESULT:    -4.167      4.989      6.144
REMARK INTER + INTRA:          -6.228
REMARK INTER:                  -5.583
REMARK INTRA:                  -0.645
REMARK UNBOUND:                -0.356
REMARK SMILES CCCCCCCCC(=O)[O-]
REMARK SMILES IDX 6 1 7 2 8 3 9 4 10 5 11 6 5 7 4 8 3 9 2 10 1 11
REMARK H PARENT
REMARK Flexibility Score: inf
ROOT
ATOM      1  C   UNL     1     257.206 261.086 248.505  1.00  0.00     0.000 C 
ENDROOT
BRANCH   1   2
ATOM      2  C   UNL     1     258.018 261.002 247.205  1.00  0.00     0.006 C 
BRANCH   2   3
ATOM      3  C   UNL     1     258.211 262.389 246.587  1.00  0.00     0.053 C 
BRANCH   3   4
ATOM      4  C   UNL     1     257.991 262.340 245.108  1.00  0.00     0.041 C 
ATOM      5  O   UNL     1     257.721 261.247 244.544  1.00  0.00    -0.550 OA
ATOM      6  O   UNL     1     258.133 263.492 244.346  1.00  0.00    -0.550 OA
ENDBRANCH   3   4
ENDBRANCH   2   3
ENDBRANCH   1   2
BRANCH   1   7
ATOM      7  C   UNL     1     256.035 260.098 248.488  1.00  0.00     0.000 C 
BRANCH   7   8
ATOM      8  C   UNL     1     254.696 260.828 248.663  1.00  0.00    -0.000 C 
BRANCH   8   9
ATOM      9  C   UNL     1     253.784 260.715 247.428  1.00  0.00    -0.000 C 
BRANCH   9  10
ATOM     10  C   UNL     1     254.475 261.013 246.085  1.00  0.00    -0.003 C 
ATOM     11  C   UNL     1     254.500 259.808 245.146  1.00  0.00     0.004 C 
ENDBRANCH   9  10
ENDBRANCH   8   9
ENDBRANCH   7   8
ENDBRANCH   1   7
TORSDOF 7
ENDMDL
MODEL 5
REMARK VINA RESULT:    -4.150      5.540      6.391
REMARK INTER + INTRA:          -6.204
REMARK INTER:                  -5.852
REMARK INTRA:                  -0.352
REMARK UNBOUND:                -0.356
REMARK SMILES CCCCCCCCC(=O)[O-]
REMARK SMILES IDX 6 1 7 2 8 3 9 4 10 5 11 6 5 7 4 8 3 9 2 10 1 11
REMARK H PARENT
REMARK Flexibility Score: inf
ROOT
ATOM      1  C   UNL     1     252.792 260.171 247.261  1.00  0.00     0.000 C 
ENDROOT
BRANCH   1   2
ATOM      2  C   UNL     1     251.313 260.454 246.970  1.00  0.00     0.006 C 
BRANCH   2   3
ATOM      3  C   UNL     1     251.029 261.959 246.983  1.00  0.00     0.053 C 
BRANCH   3   4
ATOM      4  C   UNL     1     249.642 262.235 246.495  1.00  0.00     0.041 C 
ATOM      5  O   UNL     1     248.823 261.291 246.345  1.00  0.00    -0.550 OA
ATOM      6  O   UNL     1     249.270 263.531 246.157  1.00  0.00    -0.550 OA
ENDBRANCH   3   4
ENDBRANCH   2   3
ENDBRANCH   1   2
BRANCH   1   7
ATOM      7  C   UNL     1     253.328 259.058 246.352  1.00  0.00     0.000 C 
BRANCH   7   8
ATOM      8  C   UNL     1     254.384 259.603 245.379  1.00  0.00    -0.000 C 
BRANCH   8   9
ATOM      9  C   UNL     1     254.900 260.998 245.773  1.00  0.00    -0.000 C 
BRANCH   9  10
ATOM     10  C   UNL     1     256.413 261.075 246.045  1.00  0.00    -0.003 C 
ATOM     11  C   UNL     1     257.249 261.116 244.766  1.00  0.00     0.004 C 
ENDBRANCH   9  10
ENDBRANCH   8   9
ENDBRANCH   7   8
ENDBRANCH   1   7
TORSDOF 7
ENDMDL
MODEL 6
REMARK VINA RESULT:    -4.124      4.997      6.853
REMARK INTER + INTRA:          -6.168
REMARK INTER:                  -5.757
REMARK INTRA:                  -0.410
REMARK UNBOUND:                -0.356
REMARK SMILES CCCCCCCCC(=O)[O-]
REMARK SMILES IDX 6 1 7 2 8 3 9 4 10 5 11 6 5 7 4 8 3 9 2 10 1 11
REMARK H PARENT
REMARK Flexibility Score: inf
ROOT
ATOM      1  C   UNL     1     255.577 260.463 244.743  1.00  0.00     0.000 C 
ENDROOT
BRANCH   1   2
ATOM      2  C   UNL     1     256.629 261.298 245.486  1.00  0.00     0.006 C 
BRANCH   2   3
ATOM      3  C   UNL     1     257.838 261.581 244.590  1.00  0.00     0.053 C 
BRANCH   3   4
ATOM      4  C   UNL     1     258.419 262.924 244.901  1.00  0.00     0.041 C 
ATOM      5  O   UNL     1     259.626 263.029 245.240  1.00  0.00    -0.550 OA
ATOM      6  O   UNL     1     257.612 264.055 244.865  1.00  0.00    -0.550 OA
ENDBRANCH   3   4
ENDBRANCH   2   3
ENDBRANCH   1   2
BRANCH   1   7
ATOM      7  C   UNL     1     254.487 259.972 245.702  1.00  0.00     0.000 C 
BRANCH   7   8
ATOM      8  C   UNL     1     253.807 261.150 246.413  1.00  0.00    -0.000 C 
BRANCH   8   9
ATOM      9  C   UNL     1     253.632 260.920 247.925  1.00  0.00    -0.000 C 
BRANCH   9  10
ATOM     10  C   UNL     1     254.834 260.256 248.620  1.00  0.00    -0.003 C 
ATOM     11  C   UNL     1     255.218 260.939 249.933  1.00  0.00     0.004 C 
ENDBRANCH   9  10
ENDBRANCH   8   9
ENDBRANCH   7   8
ENDBRANCH   1   7
TORSDOF 7
ENDMDL
MODEL 7
REMARK VINA RESULT:    -4.113      4.231      6.087
REMARK INTER + INTRA:          -6.151
REMARK INTER:                  -5.648
REMARK INTRA:                  -0.504
REMARK UNBOUND:                -0.356
REMARK SMILES CCCCCCCCC(=O)[O-]
REMARK SMILES IDX 6 1 7 2 8 3 9 4 10 5 11 6 5 7 4 8 3 9 2 10 1 11
REMARK H PARENT
REMARK Flexibility Score: inf
ROOT
ATOM      1  C   UNL     1     253.446 258.411 246.274  1.00  0.00     0.000 C 
ENDROOT
BRANCH   1   2
ATOM      2  C   UNL     1     252.222 259.103 246.889  1.00  0.00     0.006 C 
BRANCH   2   3
ATOM      3  C   UNL     1     251.162 258.078 247.301  1.00  0.00     0.053 C 
BRANCH   3   4
ATOM      4  C   UNL     1     249.806 258.708 247.327  1.00  0.00     0.041 C 
ATOM      5  O   UNL     1     248.774 257.989 247.386  1.00  0.00    -0.550 OA
ATOM      6  O   UNL     1     249.679 260.088 247.234  1.00  0.00    -0.550 OA
ENDBRANCH   3   4
ENDBRANCH   2   3
ENDBRANCH   1   2
BRANCH   1   7
ATOM      7  C   UNL     1     254.287 259.401 245.459  1.00  0.00     0.000 C 
BRANCH   7   8
ATOM      8  C   UNL     1     254.479 260.720 246.223  1.00  0.00    -0.000 C 
BRANCH   8   9
ATOM      9  C   UNL     1     255.928 260.933 246.697  1.00  0.00    -0.000 C 
BRANCH   9  10
ATOM     10  C   UNL     1     256.131 260.834 248.219  1.00  0.00    -0.003 C 
ATOM     11  C   UNL     1     254.816 260.783 248.996  1.00  0.00     0.004 C 
ENDBRANCH   9  10
ENDBRANCH   8   9
ENDBRANCH   7   8
ENDBRANCH   1   7
TORSDOF 7
ENDMDL
MODEL 8
REMARK VINA RESULT:    -4.105      6.390      8.775
REMARK INTER + INTRA:          -6.141
REMARK INTER:                  -5.722
REMARK INTRA:                  -0.419
REMARK UNBOUND:                -0.356
REMARK SMILES CCCCCCCCC(=O)[O-]
REMARK SMILES IDX 6 1 7 2 8 3 9 4 10 5 11 6 5 7 4 8 3 9 2 10 1 11
REMARK H PARENT
REMARK Flexibility Score: inf
ROOT
ATOM      1  C   UNL     1     249.672 257.758 247.390  1.00  0.00     0.000 C 
ENDROOT
BRANCH   1   2
ATOM      2  C   UNL     1     248.364 257.071 246.978  1.00  0.00     0.006 C 
BRANCH   2   3
ATOM      3  C   UNL     1     248.198 257.073 245.456  1.00  0.00     0.053 C 
BRANCH   3   4
ATOM      4  C   UNL     1     246.960 257.815 245.064  1.00  0.00     0.041 C 
ATOM      5  O   UNL     1     245.865 257.206 244.952  1.00  0.00    -0.550 OA
ATOM      6  O   UNL     1     247.026 259.172 244.773  1.00  0.00    -0.550 OA
ENDBRANCH   3   4
ENDBRANCH   2   3
ENDBRANCH   1   2
BRANCH   1   7
ATOM      7  C   UNL     1     249.541 259.283 247.314  1.00  0.00     0.000 C 
BRANCH   7   8
ATOM      8  C   UNL     1     250.882 259.933 246.943  1.00  0.00    -0.000 C 
BRANCH   8   9
ATOM      9  C   UNL     1     252.060 258.942 246.982  1.00  0.00    -0.000 C 
BRANCH   9  10
ATOM     10  C   UNL     1     253.447 259.593 247.130  1.00  0.00    -0.003 C 
ATOM     11  C   UNL     1     253.377 261.061 247.549  1.00  0.00     0.004 C 
ENDBRANCH   9  10
ENDBRANCH   8   9
ENDBRANCH   7   8
ENDBRANCH   1   7
TORSDOF 7
ENDMDL
MODEL 9
REMARK VINA RESULT:    -4.071      3.481      5.418
REMARK INTER + INTRA:          -6.093
REMARK INTER:                  -5.621
REMARK INTRA:                  -0.472
REMARK UNBOUND:                -0.356
REMARK SMILES CCCCCCCCC(=O)[O-]
REMARK SMILES IDX 6 1 7 2 8 3 9 4 10 5 11 6 5 7 4 8 3 9 2 10 1 11
REMARK H PARENT
REMARK Flexibility Score: inf
ROOT
ATOM      1  C   UNL     1     255.659 260.266 248.432  1.00  0.00     0.000 C 
ENDROOT
BRANCH   1   2
ATOM      2  C   UNL     1     254.242 260.847 248.338  1.00  0.00     0.006 C 
BRANCH   2   3
ATOM      3  C   UNL     1     253.745 260.852 246.890  1.00  0.00     0.053 C 
BRANCH   3   4
ATOM      4  C   UNL     1     253.128 259.534 246.543  1.00  0.00     0.041 C 
ATOM      5  O   UNL     1     251.922 259.306 246.825  1.00  0.00    -0.550 OA
ATOM      6  O   UNL     1     253.898 258.539 245.954  1.00  0.00    -0.550 OA
ENDBRANCH   3   4
ENDBRANCH   2   3
ENDBRANCH   1   2
BRANCH   1   7
ATOM      7  C   UNL     1     256.195 260.349 249.866  1.00  0.00     0.000 C 
BRANCH   7   8
ATOM      8  C   UNL     1     256.997 261.641 250.079  1.00  0.00    -0.000 C 
BRANCH   8   9
ATOM      9  C   UNL     1     256.631 262.366 251.387  1.00  0.00    -0.000 C 
BRANCH   9  10
ATOM     10  C   UNL     1     255.514 261.695 252.207  1.00  0.00    -0.003 C 
ATOM     11  C   UNL     1     254.196 262.468 252.165  1.00  0.00     0.004 C 
ENDBRANCH   9  10
ENDBRANCH   8   9
ENDBRANCH   7   8
ENDBRANCH   1   7
TORSDOF 7
ENDMDL
