MODEL 1
REMARK VINA RESULT:    -3.592      0.000      0.000
REMARK INTER + INTRA:          -5.389
REMARK INTER:                  -5.062
REMARK INTRA:                  -0.326
REMARK UNBOUND:                -0.326
REMARK SMILES C=CCCCCCCC(=O)[O-]
REMARK SMILES IDX 6 1 7 2 8 3 9 4 10 5 11 6 5 7 4 8 3 9 2 10 1 11
REMARK H PARENT
REMARK Flexibility Score: inf
ROOT
ATOM      1  C   UNL     1      57.533  29.398  50.952  1.00  0.00     0.000 C 
ENDROOT
BRANCH   1   2
ATOM      2  C   UNL     1      58.537  29.476  49.790  1.00  0.00     0.006 C 
BRANCH   2   3
ATOM      3  C   UNL     1      59.308  28.166  49.588  1.00  0.00     0.053 C 
BRANCH   3   4
ATOM      4  C   UNL     1      60.733  28.329  50.014  1.00  0.00     0.041 C 
ATOM      5  O   UNL     1      61.512  27.340  50.007  1.00  0.00    -0.550 OA
ATOM      6  O   UNL     1      61.214  29.582  50.370  1.00  0.00    -0.550 OA
ENDBRANCH   3   4
ENDBRANCH   2   3
ENDBRANCH   1   2
BRANCH   1   7
ATOM      7  C   UNL     1      56.424  28.363  50.708  1.00  0.00     0.000 C 
BRANCH   7   8
ATOM      8  C   UNL     1      55.042  29.026  50.720  1.00  0.00     0.004 C 
BRANCH   8   9
ATOM      9  C   UNL     1      53.945  28.019  50.351  1.00  0.00     0.027 C 
BRANCH   9  10
ATOM     10  C   UNL     1      54.530  26.672  50.028  1.00  0.00    -0.035 C 
ATOM     11  C   UNL     1      53.759  25.593  49.857  1.00  0.00     0.004 C 
ENDBRANCH   9  10
ENDBRANCH   8   9
ENDBRANCH   7   8
ENDBRANCH   1   7
TORSDOF 7
ENDMDL
MODEL 2
REMARK VINA RESULT:    -3.544      0.799      1.240
REMARK INTER + INTRA:          -5.320
REMARK INTER:                  -5.016
REMARK INTRA:                  -0.305
REMARK UNBOUND:                -0.326
REMARK SMILES C=CCCCCCCC(=O)[O-]
REMARK SMILES IDX 6 1 7 2 8 3 9 4 10 5 11 6 5 7 4 8 3 9 2 10 1 11
REMARK H PARENT
REMARK Flexibility Score: inf
ROOT
ATOM      1  C   UNL     1      56.706  28.571  50.731  1.00  0.00     0.000 C 
ENDROOT
BRANCH   1   2
ATOM      2  C   UNL     1      57.840  29.599  50.590  1.00  0.00     0.006 C 
BRANCH   2   3
ATOM      3  C   UNL     1      58.833  29.234  49.479  1.00  0.00     0.053 C 
BRANCH   3   4
ATOM      4  C   UNL     1      59.837  28.246  49.982  1.00  0.00     0.041 C 
ATOM      5  O   UNL     1      59.702  27.020  49.728  1.00  0.00    -0.550 OA
ATOM      6  O   UNL     1      60.950  28.684  50.690  1.00  0.00    -0.550 OA
ENDBRANCH   3   4
ENDBRANCH   2   3
ENDBRANCH   1   2
BRANCH   1   7
ATOM      7  C   UNL     1      55.322  29.227  50.846  1.00  0.00     0.000 C 
BRANCH   7   8
ATOM      8  C   UNL     1      54.216  28.255  50.418  1.00  0.00     0.004 C 
BRANCH   8   9
ATOM      9  C   UNL     1      54.787  26.859  50.140  1.00  0.00     0.027 C 
BRANCH   9  10
ATOM     10  C   UNL     1      53.737  25.944  49.573  1.00  0.00    -0.035 C 
ATOM     11  C   UNL     1      53.183  24.972  50.303  1.00  0.00     0.004 C 
ENDBRANCH   9  10
ENDBRANCH   8   9
ENDBRANCH   7   8
ENDBRANCH   1   7
TORSDOF 7
ENDMDL
MODEL 3
REMARK VINA RESULT:    -3.485      3.613      5.467
REMARK INTER + INTRA:          -5.237
REMARK INTER:                  -4.761
REMARK INTRA:                  -0.476
REMARK UNBOUND:                -0.326
REMARK SMILES C=CCCCCCCC(=O)[O-]
REMARK SMILES IDX 6 1 7 2 8 3 9 4 10 5 11 6 5 7 4 8 3 9 2 10 1 11
REMARK H PARENT
REMARK Flexibility Score: inf
ROOT
ATOM      1  C   UNL     1      56.000  29.258  51.241  1.00  0.00     0.000 C 
ENDROOT
BRANCH   1   2
ATOM      2  C   UNL     1      54.926  28.362  50.603  1.00  0.00     0.006 C 
BRANCH   2   3
ATOM      3  C   UNL     1      55.409  26.921  50.394  1.00  0.00     0.053 C 
BRANCH   3   4
ATOM      4  C   UNL     1      54.244  25.982  50.352  1.00  0.00     0.041 C 
ATOM      5  O   UNL     1      53.739  25.650  49.247  1.00  0.00    -0.550 OA
ATOM      6  O   UNL     1      53.747  25.436  51.529  1.00  0.00    -0.550 OA
ENDBRANCH   3   4
ENDBRANCH   2   3
ENDBRANCH   1   2
BRANCH   1   7
ATOM      7  C   UNL     1      57.418  28.688  51.083  1.00  0.00     0.000 C 
BRANCH   7   8
ATOM      8  C   UNL     1      58.188  29.427  49.982  1.00  0.00     0.004 C 
BRANCH   8   9
ATOM      9  C   UNL     1      59.413  28.623  49.532  1.00  0.00     0.027 C 
BRANCH   9  10
ATOM     10  C   UNL     1      59.235  27.156  49.813  1.00  0.00    -0.035 C 
ATOM     11  C   UNL     1      60.250  26.389  50.221  1.00  0.00     0.004 C 
ENDBRANCH   9  10
ENDBRANCH   8   9
ENDBRANCH   7   8
ENDBRANCH   1   7
TORSDOF 7
ENDMDL
MODEL 4
REMARK VINA RESULT:    -3.432      2.208      3.047
REMARK INTER + INTRA:          -5.163
REMARK INTER:                  -4.693
REMARK INTRA:                  -0.470
REMARK UNBOUND:                -0.326
REMARK SMILES C=CCCCCCCC(=O)[O-]
REMARK SMILES IDX 6 1 7 2 8 3 9 4 10 5 11 6 5 7 4 8 3 9 2 10 1 11
REMARK H PARENT
REMARK Flexibility Score: inf
ROOT
ATOM      1  C   UNL     1      59.465  28.479  49.504  1.00  0.00     0.000 C 
ENDROOT
BRANCH   1   2
ATOM      2  C   UNL     1      59.222  27.003  49.859  1.00  0.00     0.006 C 
BRANCH   2   3
ATOM      3  C   UNL     1      60.496  26.294  50.337  1.00  0.00     0.053 C 
BRANCH   3   4
ATOM      4  C   UNL     1      60.200  24.868  50.684  1.00  0.00     0.041 C 
ATOM      5  O   UNL     1      59.295  24.594  51.515  1.00  0.00    -0.550 OA
ATOM      6  O   UNL     1      60.890  23.841  50.052  1.00  0.00    -0.550 OA
ENDBRANCH   3   4
ENDBRANCH   2   3
ENDBRANCH   1   2
BRANCH   1   7
ATOM      7  C   UNL     1      58.300  29.388  49.923  1.00  0.00     0.000 C 
BRANCH   7   8
ATOM      8  C   UNL     1      57.387  28.680  50.932  1.00  0.00     0.004 C 
BRANCH   8   9
ATOM      9  C   UNL     1      55.927  29.110  50.748  1.00  0.00     0.027 C 
BRANCH   9  10
ATOM     10  C   UNL     1      55.026  27.918  50.577  1.00  0.00    -0.035 C 
ATOM     11  C   UNL     1      55.514  26.689  50.381  1.00  0.00     0.004 C 
ENDBRANCH   9  10
ENDBRANCH   8   9
ENDBRANCH   7   8
ENDBRANCH   1   7
TORSDOF 7
ENDMDL
MODEL 5
REMARK VINA RESULT:    -3.415      3.598      5.557
REMARK INTER + INTRA:          -5.139
REMARK INTER:                  -4.471
REMARK INTRA:                  -0.668
REMARK UNBOUND:                -0.326
REMARK SMILES C=CCCCCCCC(=O)[O-]
REMARK SMILES IDX 6 1 7 2 8 3 9 4 10 5 11 6 5 7 4 8 3 9 2 10 1 11
REMARK H PARENT
REMARK Flexibility Score: inf
ROOT
ATOM      1  C   UNL     1      56.597  26.397  50.536  1.00  0.00     0.000 C 
ENDROOT
BRANCH   1   2
ATOM      2  C   UNL     1      55.228  27.085  50.414  1.00  0.00     0.006 C 
BRANCH   2   3
ATOM      3  C   UNL     1      55.294  28.588  50.716  1.00  0.00     0.053 C 
BRANCH   3   4
ATOM      4  C   UNL     1      53.955  29.222  50.503  1.00  0.00     0.041 C 
ATOM      5  O   UNL     1      52.978  28.524  50.124  1.00  0.00    -0.550 OA
ATOM      6  O   UNL     1      53.774  30.572  50.772  1.00  0.00    -0.550 OA
ENDBRANCH   3   4
ENDBRANCH   2   3
ENDBRANCH   1   2
BRANCH   1   7
ATOM      7  C   UNL     1      57.342  26.785  51.823  1.00  0.00     0.000 C 
BRANCH   7   8
ATOM      8  C   UNL     1      58.733  27.347  51.504  1.00  0.00     0.004 C 
BRANCH   8   9
ATOM      9  C   UNL     1      59.053  27.208  50.011  1.00  0.00     0.027 C 
BRANCH   9  10
ATOM     10  C   UNL     1      59.410  28.538  49.405  1.00  0.00    -0.035 C 
ATOM     11  C   UNL     1      58.721  29.647  49.686  1.00  0.00     0.004 C 
ENDBRANCH   9  10
ENDBRANCH   8   9
ENDBRANCH   7   8
ENDBRANCH   1   7
TORSDOF 7
ENDMDL
MODEL 6
REMARK VINA RESULT:    -3.394      0.980      1.578
REMARK INTER + INTRA:          -5.109
REMARK INTER:                  -4.720
REMARK INTRA:                  -0.389
REMARK UNBOUND:                -0.326
REMARK SMILES C=CCCCCCCC(=O)[O-]
REMARK SMILES IDX 6 1 7 2 8 3 9 4 10 5 11 6 5 7 4 8 3 9 2 10 1 11
REMARK H PARENT
REMARK Flexibility Score: inf
ROOT
ATOM      1  C   UNL     1      57.675  29.548  50.339  1.00  0.00     0.000 C 
ENDROOT
BRANCH   1   2
ATOM      2  C   UNL     1      59.023  29.520  49.600  1.00  0.00     0.006 C 
BRANCH   2   3
ATOM      3  C   UNL     1      59.661  28.125  49.588  1.00  0.00     0.053 C 
BRANCH   3   4
ATOM      4  C   UNL     1      61.001  28.159  50.253  1.00  0.00     0.041 C 
ATOM      5  O   UNL     1      61.346  29.162  50.930  1.00  0.00    -0.550 OA
ATOM      6  O   UNL     1      61.848  27.061  50.166  1.00  0.00    -0.550 OA
ENDBRANCH   3   4
ENDBRANCH   2   3
ENDBRANCH   1   2
BRANCH   1   7
ATOM      7  C   UNL     1      57.286  28.177  50.912  1.00  0.00     0.000 C 
BRANCH   7   8
ATOM      8  C   UNL     1      55.814  27.859  50.622  1.00  0.00     0.004 C 
BRANCH   8   9
ATOM      9  C   UNL     1      54.949  29.121  50.719  1.00  0.00     0.027 C 
BRANCH   9  10
ATOM     10  C   UNL     1      53.503  28.814  50.440  1.00  0.00    -0.035 C 
ATOM     11  C   UNL     1      53.089  27.575  50.156  1.00  0.00     0.004 C 
ENDBRANCH   9  10
ENDBRANCH   8   9
ENDBRANCH   7   8
ENDBRANCH   1   7
TORSDOF 7
ENDMDL
MODEL 7
REMARK VINA RESULT:    -3.359      1.564      2.571
REMARK INTER + INTRA:          -5.060
REMARK INTER:                  -4.610
REMARK INTRA:                  -0.449
REMARK UNBOUND:                -0.326
REMARK SMILES C=CCCCCCCC(=O)[O-]
REMARK SMILES IDX 6 1 7 2 8 3 9 4 10 5 11 6 5 7 4 8 3 9 2 10 1 11
REMARK H PARENT
REMARK Flexibility Score: inf
ROOT
ATOM      1  C   UNL     1      58.056  26.551  50.076  1.00  0.00     0.000 C 
ENDROOT
BRANCH   1   2
ATOM      2  C   UNL     1      59.275  27.487  50.043  1.00  0.00     0.006 C 
BRANCH   2   3
ATOM      3  C   UNL     1      58.934  28.880  49.500  1.00  0.00     0.053 C 
BRANCH   3   4
ATOM      4  C   UNL     1      59.335  29.935  50.483  1.00  0.00     0.041 C 
ATOM      5  O   UNL     1      58.537  30.290  51.390  1.00  0.00    -0.550 OA
ATOM      6  O   UNL     1      60.607  30.491  50.428  1.00  0.00    -0.550 OA
ENDBRANCH   3   4
ENDBRANCH   2   3
ENDBRANCH   1   2
BRANCH   1   7
ATOM      7  C   UNL     1      56.845  27.180  50.781  1.00  0.00     0.000 C 
BRANCH   7   8
ATOM      8  C   UNL     1      55.550  26.450  50.405  1.00  0.00     0.004 C 
BRANCH   8   9
ATOM      9  C   UNL     1      54.351  27.405  50.438  1.00  0.00     0.027 C 
BRANCH   9  10
ATOM     10  C   UNL     1      54.793  28.828  50.640  1.00  0.00    -0.035 C 
ATOM     11  C   UNL     1      53.929  29.847  50.602  1.00  0.00     0.004 C 
ENDBRANCH   9  10
ENDBRANCH   8   9
ENDBRANCH   7   8
ENDBRANCH   1   7
TORSDOF 7
ENDMDL
MODEL 8
REMARK VINA RESULT:    -3.169      1.606      2.849
REMARK INTER + INTRA:          -4.793
REMARK INTER:                  -4.495
REMARK INTRA:                  -0.298
REMARK UNBOUND:                -0.326
REMARK SMILES C=CCCCCCCC(=O)[O-]
REMARK SMILES IDX 6 1 7 2 8 3 9 4 10 5 11 6 5 7 4 8 3 9 2 10 1 11
REMARK H PARENT
REMARK Flexibility Score: inf
ROOT
ATOM      1  C   UNL     1      59.402  27.910  49.617  1.00  0.00     0.000 C 
ENDROOT
BRANCH   1   2
ATOM      2  C   UNL     1      60.694  27.773  50.439  1.00  0.00     0.006 C 
BRANCH   2   3
ATOM      3  C   UNL     1      61.781  28.762  49.999  1.00  0.00     0.053 C 
BRANCH   3   4
ATOM      4  C   UNL     1      63.004  28.026  49.549  1.00  0.00     0.041 C 
ATOM      5  O   UNL     1      63.715  28.489  48.619  1.00  0.00    -0.550 OA
ATOM      6  O   UNL     1      63.386  26.854  50.189  1.00  0.00    -0.550 OA
ENDBRANCH   3   4
ENDBRANCH   2   3
ENDBRANCH   1   2
BRANCH   1   7
ATOM      7  C   UNL     1      58.861  29.348  49.600  1.00  0.00     0.000 C 
BRANCH   7   8
ATOM      8  C   UNL     1      57.882  29.579  50.757  1.00  0.00     0.004 C 
BRANCH   8   9
ATOM      9  C   UNL     1      56.766  28.528  50.752  1.00  0.00     0.027 C 
BRANCH   9  10
ATOM     10  C   UNL     1      55.408  29.176  50.734  1.00  0.00    -0.035 C 
ATOM     11  C   UNL     1      54.305  28.489  50.422  1.00  0.00     0.004 C 
ENDBRANCH   9  10
ENDBRANCH   8   9
ENDBRANCH   7   8
ENDBRANCH   1   7
TORSDOF 7
ENDMDL
MODEL 9
REMARK VINA RESULT:    -3.053      3.540      5.245
REMARK INTER + INTRA:          -4.629
REMARK INTER:                  -3.870
REMARK INTRA:                  -0.759
REMARK UNBOUND:                -0.326
REMARK SMILES C=CCCCCCCC(=O)[O-]
REMARK SMILES IDX 6 1 7 2 8 3 9 4 10 5 11 6 5 7 4 8 3 9 2 10 1 11
REMARK H PARENT
REMARK Flexibility Score: inf
ROOT
ATOM      1  C   UNL     1      57.856  29.553  51.484  1.00  0.00     0.000 C 
ENDROOT
BRANCH   1   2
ATOM      2  C   UNL     1      56.511  28.918  51.874  1.00  0.00     0.006 C 
BRANCH   2   3
ATOM      3  C   UNL     1      55.736  28.388  50.661  1.00  0.00     0.053 C 
BRANCH   3   4
ATOM      4  C   UNL     1      54.298  28.795  50.743  1.00  0.00     0.041 C 
ATOM      5  O   UNL     1      53.952  29.962  50.422  1.00  0.00    -0.550 OA
ATOM      6  O   UNL     1      53.334  27.872  51.127  1.00  0.00    -0.550 OA
ENDBRANCH   3   4
ENDBRANCH   2   3
ENDBRANCH   1   2
BRANCH   1   7
ATOM      7  C   UNL     1      58.109  29.520  49.969  1.00  0.00     0.000 C 
BRANCH   7   8
ATOM      8  C   UNL     1      59.518  28.998  49.659  1.00  0.00     0.004 C 
BRANCH   8   9
ATOM      9  C   UNL     1      59.890  27.836  50.589  1.00  0.00     0.027 C 
BRANCH   9  10
ATOM     10  C   UNL     1      59.324  26.536  50.088  1.00  0.00    -0.035 C 
ATOM     11  C   UNL     1      58.475  25.809  50.822  1.00  0.00     0.004 C 
ENDBRANCH   9  10
ENDBRANCH   8   9
ENDBRANCH   7   8
ENDBRANCH   1   7
TORSDOF 7
ENDMDL
