MODEL 1
REMARK VINA RESULT:    27.221      0.000      0.000
REMARK INTER + INTRA:          31.699
REMARK INTER:                  31.995
REMARK INTRA:                  -0.296
REMARK UNBOUND:                -0.296
REMARK SMILES O=c1c(O)c(-c2ccc(O)cc2)oc2cc(O)cc(O)c12
REMARK SMILES IDX 5 1 3 2 2 3 1 4 21 5 19 6 18 7 16 8 15 9 14 10 13 11 6 12
REMARK SMILES IDX 7 13 8 14 9 15 12 16 11 17 10 18 4 20 20 22 17 24
REMARK H PARENT 10 19 4 21 20 23 17 25
REMARK Flexibility Score: inf
ROOT
ATOM      1  C   UNL     1      15.281   4.382  15.157  1.00  0.00     0.180 A 
ATOM      2  C   UNL     1      14.115   4.184  14.397  1.00  0.00     0.208 A 
ATOM      3  C   UNL     1      13.255   5.271  14.174  1.00  0.00     0.238 A 
ATOM      4  O   UNL     1      12.177   5.069  13.556  1.00  0.00    -0.285 OA
ATOM      5  C   UNL     1      13.597   6.553  14.665  1.00  0.00     0.111 A 
ATOM      6  C   UNL     1      12.821   7.736  14.460  1.00  0.00     0.134 A 
ATOM      7  C   UNL     1      13.204   8.929  15.085  1.00  0.00     0.093 A 
ATOM      8  C   UNL     1      14.368   8.999  15.853  1.00  0.00     0.123 A 
ATOM      9  C   UNL     1      15.161   7.866  16.014  1.00  0.00     0.094 A 
ATOM     10  C   UNL     1      14.785   6.650  15.435  1.00  0.00     0.146 A 
ATOM     11  O   UNL     1      15.559   5.590  15.633  1.00  0.00    -0.452 OA
ENDROOT
BRANCH   1  12
ATOM     12  C   UNL     1      16.229   3.283  15.448  1.00  0.00     0.021 A 
ATOM     13  C   UNL     1      17.314   3.060  14.582  1.00  0.00     0.016 A 
ATOM     14  C   UNL     1      18.236   2.043  14.849  1.00  0.00     0.047 A 
ATOM     15  C   UNL     1      18.094   1.247  15.989  1.00  0.00     0.115 A 
ATOM     16  C   UNL     1      16.104   2.491  16.604  1.00  0.00     0.016 A 
ATOM     17  C   UNL     1      17.027   1.475  16.868  1.00  0.00     0.047 A 
BRANCH  15  18
ATOM     18  O   UNL     1      19.019   0.236  16.241  1.00  0.00    -0.508 OA
ATOM     19  H   UNL     1      18.848  -0.721  15.954  1.00  0.00     0.293 HD
ENDBRANCH  15  18
ENDBRANCH   1  12
BRANCH   2  20
ATOM     20  O   UNL     1      13.835   2.926  13.855  1.00  0.00    -0.502 OA
ATOM     21  H   UNL     1      13.032   2.757  13.261  1.00  0.00     0.293 HD
ENDBRANCH   2  20
BRANCH   6  22
ATOM     22  O   UNL     1      11.691   7.798  13.640  1.00  0.00    -0.507 OA
ATOM     23  H   UNL     1      11.391   7.068  13.013  1.00  0.00     0.293 HD
ENDBRANCH   6  22
BRANCH   8  24
ATOM     24  O   UNL     1      14.750  10.195  16.457  1.00  0.00    -0.508 OA
ATOM     25  H   UNL     1      15.655  10.615  16.277  1.00  0.00     0.293 HD
ENDBRANCH   8  24
TORSDOF 5
ENDMDL
MODEL 2
REMARK VINA RESULT:    28.423      9.348     10.210
REMARK INTER + INTRA:          33.112
REMARK INTER:                  33.039
REMARK INTRA:                   0.073
REMARK UNBOUND:                -0.296
REMARK SMILES O=c1c(O)c(-c2ccc(O)cc2)oc2cc(O)cc(O)c12
REMARK SMILES IDX 5 1 3 2 2 3 1 4 21 5 19 6 18 7 16 8 15 9 14 10 13 11 6 12
REMARK SMILES IDX 7 13 8 14 9 15 12 16 11 17 10 18 4 20 20 22 17 24
REMARK H PARENT 10 19 4 21 20 23 17 25
REMARK Flexibility Score: inf
ROOT
ATOM      1  C   UNL     1       8.201   2.375  21.810  1.00  0.00     0.180 A 
ATOM      2  C   UNL     1       9.120   3.146  22.542  1.00  0.00     0.208 A 
ATOM      3  C   UNL     1       9.433   4.440  22.094  1.00  0.00     0.238 A 
ATOM      4  O   UNL     1      10.312   5.095  22.712  1.00  0.00    -0.285 OA
ATOM      5  C   UNL     1       8.782   4.967  20.953  1.00  0.00     0.111 A 
ATOM      6  C   UNL     1       8.990   6.282  20.435  1.00  0.00     0.134 A 
ATOM      7  C   UNL     1       8.370   6.658  19.237  1.00  0.00     0.093 A 
ATOM      8  C   UNL     1       7.501   5.790  18.572  1.00  0.00     0.123 A 
ATOM      9  C   UNL     1       7.250   4.525  19.098  1.00  0.00     0.094 A 
ATOM     10  C   UNL     1       7.883   4.107  20.271  1.00  0.00     0.146 A 
ATOM     11  O   UNL     1       7.631   2.885  20.725  1.00  0.00    -0.452 OA
ENDROOT
BRANCH   1  12
ATOM     12  C   UNL     1       7.830   0.998  22.211  1.00  0.00     0.021 A 
ATOM     13  C   UNL     1       7.883  -0.035  21.260  1.00  0.00     0.016 A 
ATOM     14  C   UNL     1       7.560  -1.347  21.621  1.00  0.00     0.047 A 
ATOM     15  C   UNL     1       7.196  -1.645  22.937  1.00  0.00     0.115 A 
ATOM     16  C   UNL     1       7.483   0.688  23.538  1.00  0.00     0.016 A 
ATOM     17  C   UNL     1       7.162  -0.624  23.896  1.00  0.00     0.047 A 
BRANCH  15  18
ATOM     18  O   UNL     1       6.876  -2.956  23.282  1.00  0.00    -0.508 OA
ATOM     19  H   UNL     1       6.282  -3.528  22.694  1.00  0.00     0.293 HD
ENDBRANCH  15  18
ENDBRANCH   1  12
BRANCH   2  20
ATOM     20  O   UNL     1       9.693   2.635  23.710  1.00  0.00    -0.502 OA
ATOM     21  H   UNL     1       9.371   1.779  24.144  1.00  0.00     0.293 HD
ENDBRANCH   2  20
BRANCH   6  22
ATOM     22  O   UNL     1       9.767   7.259  21.065  1.00  0.00    -0.507 OA
ATOM     23  H   UNL     1       9.524   8.235  21.131  1.00  0.00     0.293 HD
ENDBRANCH   6  22
BRANCH   8  24
ATOM     24  O   UNL     1       6.875   6.179  17.390  1.00  0.00    -0.508 OA
ATOM     25  H   UNL     1       7.229   5.894  16.483  1.00  0.00     0.293 HD
ENDBRANCH   8  24
TORSDOF 5
ENDMDL
MODEL 3
REMARK VINA RESULT:    28.616      1.692      6.846
REMARK INTER + INTRA:          33.338
REMARK INTER:                  33.634
REMARK INTRA:                  -0.296
REMARK UNBOUND:                -0.296
REMARK SMILES O=c1c(O)c(-c2ccc(O)cc2)oc2cc(O)cc(O)c12
REMARK SMILES IDX 5 1 3 2 2 3 1 4 21 5 19 6 18 7 16 8 15 9 14 10 13 11 6 12
REMARK SMILES IDX 7 13 8 14 9 15 12 16 11 17 10 18 4 20 20 22 17 24
REMARK H PARENT 10 19 4 21 20 23 17 25
REMARK Flexibility Score: inf
ROOT
ATOM      1  C   UNL     1      14.849   5.331  15.433  1.00  0.00     0.180 A 
ATOM      2  C   UNL     1      14.679   4.693  16.674  1.00  0.00     0.208 A 
ATOM      3  C   UNL     1      15.404   3.520  16.941  1.00  0.00     0.238 A 
ATOM      4  O   UNL     1      15.191   2.914  18.023  1.00  0.00    -0.285 OA
ATOM      5  C   UNL     1      16.330   3.032  15.989  1.00  0.00     0.111 A 
ATOM      6  C   UNL     1      17.151   1.877  16.172  1.00  0.00     0.134 A 
ATOM      7  C   UNL     1      17.954   1.426  15.117  1.00  0.00     0.093 A 
ATOM      8  C   UNL     1      18.015   2.123  13.909  1.00  0.00     0.123 A 
ATOM      9  C   UNL     1      17.260   3.281  13.739  1.00  0.00     0.094 A 
ATOM     10  C   UNL     1      16.420   3.735  14.760  1.00  0.00     0.146 A 
ATOM     11  O   UNL     1      15.701   4.831  14.546  1.00  0.00    -0.452 OA
ENDROOT
BRANCH   1  12
ATOM     12  C   UNL     1      14.110   6.563  15.073  1.00  0.00     0.021 A 
ATOM     13  C   UNL     1      14.680   7.817  15.352  1.00  0.00     0.016 A 
ATOM     14  C   UNL     1      14.011   8.993  15.000  1.00  0.00     0.047 A 
ATOM     15  C   UNL     1      12.774   8.931  14.352  1.00  0.00     0.115 A 
ATOM     16  C   UNL     1      12.875   6.508  14.402  1.00  0.00     0.016 A 
ATOM     17  C   UNL     1      12.209   7.686  14.050  1.00  0.00     0.047 A 
BRANCH  15  18
ATOM     18  O   UNL     1      12.119  10.111  14.007  1.00  0.00    -0.508 OA
ATOM     19  H   UNL     1      11.333  10.457  14.547  1.00  0.00     0.293 HD
ENDBRANCH  15  18
ENDBRANCH   1  12
BRANCH   2  20
ATOM     20  O   UNL     1      13.818   5.235  17.632  1.00  0.00    -0.502 OA
ATOM     21  H   UNL     1      14.029   6.091  18.131  1.00  0.00     0.293 HD
ENDBRANCH   2  20
BRANCH   6  22
ATOM     22  O   UNL     1      17.235   1.157  17.368  1.00  0.00    -0.507 OA
ATOM     23  H   UNL     1      18.095   0.891  17.822  1.00  0.00     0.293 HD
ENDBRANCH   6  22
BRANCH   8  24
ATOM     24  O   UNL     1      18.829   1.677  12.870  1.00  0.00    -0.508 OA
ATOM     25  H   UNL     1      18.726   0.748  12.477  1.00  0.00     0.293 HD
ENDBRANCH   8  24
TORSDOF 5
ENDMDL
MODEL 4
REMARK VINA RESULT:    30.209      7.982      8.623
REMARK INTER + INTRA:          35.211
REMARK INTER:                  34.718
REMARK INTRA:                   0.494
REMARK UNBOUND:                -0.296
REMARK SMILES O=c1c(O)c(-c2ccc(O)cc2)oc2cc(O)cc(O)c12
REMARK SMILES IDX 5 1 3 2 2 3 1 4 21 5 19 6 18 7 16 8 15 9 14 10 13 11 6 12
REMARK SMILES IDX 7 13 8 14 9 15 12 16 11 17 10 18 4 20 20 22 17 24
REMARK H PARENT 10 19 4 21 20 23 17 25
REMARK Flexibility Score: inf
ROOT
ATOM      1  C   UNL     1      14.930  -2.261  12.990  1.00  0.00     0.180 A 
ATOM      2  C   UNL     1      14.145  -1.670  11.984  1.00  0.00     0.208 A 
ATOM      3  C   UNL     1      12.748  -1.674  12.122  1.00  0.00     0.238 A 
ATOM      4  O   UNL     1      12.049  -1.210  11.184  1.00  0.00    -0.285 OA
ATOM      5  C   UNL     1      12.156  -2.218  13.287  1.00  0.00     0.111 A 
ATOM      6  C   UNL     1      10.751  -2.235  13.552  1.00  0.00     0.134 A 
ATOM      7  C   UNL     1      10.272  -2.896  14.690  1.00  0.00     0.093 A 
ATOM      8  C   UNL     1      11.149  -3.484  15.605  1.00  0.00     0.123 A 
ATOM      9  C   UNL     1      12.522  -3.425  15.383  1.00  0.00     0.094 A 
ATOM     10  C   UNL     1      13.029  -2.806  14.237  1.00  0.00     0.146 A 
ATOM     11  O   UNL     1      14.345  -2.793  14.056  1.00  0.00    -0.452 OA
ENDROOT
BRANCH   1  12
ATOM     12  C   UNL     1      16.408  -2.309  12.909  1.00  0.00     0.021 A 
ATOM     13  C   UNL     1      17.129  -3.032  13.875  1.00  0.00     0.016 A 
ATOM     14  C   UNL     1      18.524  -3.111  13.807  1.00  0.00     0.047 A 
ATOM     15  C   UNL     1      19.213  -2.482  12.766  1.00  0.00     0.115 A 
ATOM     16  C   UNL     1      17.106  -1.696  11.854  1.00  0.00     0.016 A 
ATOM     17  C   UNL     1      18.501  -1.777  11.787  1.00  0.00     0.047 A 
BRANCH  15  18
ATOM     18  O   UNL     1      20.602  -2.568  12.711  1.00  0.00    -0.508 OA
ATOM     19  H   UNL     1      21.145  -2.877  13.509  1.00  0.00     0.293 HD
ENDBRANCH  15  18
ENDBRANCH   1  12
BRANCH   2  20
ATOM     20  O   UNL     1      14.754  -1.069  10.879  1.00  0.00    -0.502 OA
ATOM     21  H   UNL     1      14.313  -1.035   9.967  1.00  0.00     0.293 HD
ENDBRANCH   2  20
BRANCH   6  22
ATOM     22  O   UNL     1       9.795  -1.603  12.752  1.00  0.00    -0.507 OA
ATOM     23  H   UNL     1       9.401  -1.990  11.908  1.00  0.00     0.293 HD
ENDBRANCH   6  22
BRANCH   8  24
ATOM     24  O   UNL     1      10.664  -4.125  16.743  1.00  0.00    -0.508 OA
ATOM     25  H   UNL     1      10.920  -5.080  16.964  1.00  0.00     0.293 HD
ENDBRANCH   8  24
TORSDOF 5
ENDMDL
