MODEL 1
REMARK VINA RESULT:     0.394      0.000      0.000
REMARK INTER + INTRA:          -1.175
REMARK INTER:                   1.040
REMARK INTRA:                  -2.215
REMARK UNBOUND:                -2.215
REMARK SMILES CCCCCCCCCCCCCCCCCCCCCCCCCCCCCC(=O)[O-]
REMARK SMILES IDX 16 1 17 2 18 3 19 4 20 5 21 6 22 7 23 8 24 9 25 10 26 11
REMARK SMILES IDX 27 12 28 13 29 14 30 15 31 16 32 17 15 18 14 19 13 20 12 21
REMARK SMILES IDX 11 22 10 23 9 24 8 25 7 26 6 27 5 28 4 29 3 30 2 31 1 32
REMARK H PARENT
REMARK Flexibility Score: inf
ROOT
ATOM      1  C   UNL     1      28.351   2.379  38.492  1.00  0.00     0.000 C 
ENDROOT
BRANCH   1   2
ATOM      2  C   UNL     1      27.063   2.807  39.220  1.00  0.00     0.000 C 
BRANCH   2   3
ATOM      3  C   UNL     1      26.277   3.887  38.457  1.00  0.00     0.000 C 
BRANCH   3   4
ATOM      4  C   UNL     1      24.787   3.913  38.835  1.00  0.00     0.000 C 
BRANCH   4   5
ATOM      5  C   UNL     1      24.471   3.084  40.089  1.00  0.00     0.000 C 
BRANCH   5   6
ATOM      6  C   UNL     1      22.971   3.139  40.423  1.00  0.00     0.000 C 
BRANCH   6   7
ATOM      7  C   UNL     1      22.437   1.808  40.979  1.00  0.00     0.000 C 
BRANCH   7   8
ATOM      8  C   UNL     1      21.519   1.031  40.016  1.00  0.00     0.000 C 
BRANCH   8   9
ATOM      9  C   UNL     1      21.041  -0.325  40.578  1.00  0.00     0.000 C 
BRANCH   9  10
ATOM     10  C   UNL     1      20.795  -0.274  42.095  1.00  0.00     0.000 C 
BRANCH  10  11
ATOM     11  C   UNL     1      19.310  -0.444  42.458  1.00  0.00     0.000 C 
BRANCH  11  12
ATOM     12  C   UNL     1      18.747   0.766  43.225  1.00  0.00     0.000 C 
BRANCH  12  13
ATOM     13  C   UNL     1      18.594   2.021  42.345  1.00  0.00     0.006 C 
BRANCH  13  14
ATOM     14  C   UNL     1      17.785   1.783  41.058  1.00  0.00     0.053 C 
BRANCH  14  15
ATOM     15  C   UNL     1      18.204   2.687  39.940  1.00  0.00     0.041 C 
ATOM     16  O   UNL     1      17.427   2.897  38.971  1.00  0.00    -0.550 OA
ATOM     17  O   UNL     1      19.447   3.306  39.971  1.00  0.00    -0.550 OA
ENDBRANCH  14  15
ENDBRANCH  13  14
ENDBRANCH  12  13
ENDBRANCH  11  12
ENDBRANCH  10  11
ENDBRANCH   9  10
ENDBRANCH   8   9
ENDBRANCH   7   8
ENDBRANCH   6   7
ENDBRANCH   5   6
ENDBRANCH   4   5
ENDBRANCH   3   4
ENDBRANCH   2   3
ENDBRANCH   1   2
BRANCH   1  18
ATOM     18  C   UNL     1      28.724   0.887  38.624  1.00  0.00     0.000 C 
BRANCH  18  19
ATOM     19  C   UNL     1      29.585   0.321  37.483  1.00  0.00     0.000 C 
BRANCH  19  20
ATOM     20  C   UNL     1      30.883   1.114  37.263  1.00  0.00     0.000 C 
BRANCH  20  21
ATOM     21  C   UNL     1      31.583   1.405  38.600  1.00  0.00     0.000 C 
BRANCH  21  22
ATOM     22  C   UNL     1      32.124   0.134  39.277  1.00  0.00     0.000 C 
BRANCH  22  23
ATOM     23  C   UNL     1      31.983   0.171  40.809  1.00  0.00     0.000 C 
BRANCH  23  24
ATOM     24  C   UNL     1      31.188  -1.031  41.364  1.00  0.00    -0.000 C 
BRANCH  24  25
ATOM     25  C   UNL     1      29.777  -1.176  40.765  1.00  0.00    -0.000 C 
BRANCH  25  26
ATOM     26  C   UNL     1      28.640  -0.601  41.631  1.00  0.00    -0.000 C 
BRANCH  26  27
ATOM     27  C   UNL     1      27.889  -1.634  42.497  1.00  0.00    -0.000 C 
BRANCH  27  28
ATOM     28  C   UNL     1      28.287  -1.651  43.985  1.00  0.00    -0.000 C 
BRANCH  28  29
ATOM     29  C   UNL     1      29.219  -0.493  44.370  1.00  0.00    -0.000 C 
BRANCH  29  30
ATOM     30  C   UNL     1      30.498  -1.021  45.036  1.00  0.00    -0.000 C 
BRANCH  30  31
ATOM     31  C   UNL     1      30.214  -2.110  46.082  1.00  0.00    -0.003 C 
ATOM     32  C   UNL     1      30.395  -1.615  47.517  1.00  0.00     0.004 C 
ENDBRANCH  30  31
ENDBRANCH  29  30
ENDBRANCH  28  29
ENDBRANCH  27  28
ENDBRANCH  26  27
ENDBRANCH  25  26
ENDBRANCH  24  25
ENDBRANCH  23  24
ENDBRANCH  22  23
ENDBRANCH  21  22
ENDBRANCH  20  21
ENDBRANCH  19  20
ENDBRANCH  18  19
ENDBRANCH   1  18
TORSDOF 28
ENDMDL
MODEL 2
REMARK VINA RESULT:     1.057      3.249      6.269
REMARK INTER + INTRA:           0.572
REMARK INTER:                   2.512
REMARK INTRA:                  -1.940
REMARK UNBOUND:                -2.215
REMARK SMILES CCCCCCCCCCCCCCCCCCCCCCCCCCCCCC(=O)[O-]
REMARK SMILES IDX 16 1 17 2 18 3 19 4 20 5 21 6 22 7 23 8 24 9 25 10 26 11
REMARK SMILES IDX 27 12 28 13 29 14 30 15 31 16 32 17 15 18 14 19 13 20 12 21
REMARK SMILES IDX 11 22 10 23 9 24 8 25 7 26 6 27 5 28 4 29 3 30 2 31 1 32
REMARK H PARENT
REMARK Flexibility Score: inf
ROOT
ATOM      1  C   UNL     1      23.267   1.771  40.655  1.00  0.00     0.000 C 
ENDROOT
BRANCH   1   2
ATOM      2  C   UNL     1      21.728   1.756  40.628  1.00  0.00     0.000 C 
BRANCH   2   3
ATOM      3  C   UNL     1      21.142   0.346  40.823  1.00  0.00     0.000 C 
BRANCH   3   4
ATOM      4  C   UNL     1      19.770   0.365  41.516  1.00  0.00     0.000 C 
BRANCH   4   5
ATOM      5  C   UNL     1      19.773  -0.362  42.870  1.00  0.00     0.000 C 
BRANCH   5   6
ATOM      6  C   UNL     1      19.155  -1.764  42.745  1.00  0.00     0.000 C 
BRANCH   6   7
ATOM      7  C   UNL     1      18.009  -2.000  43.743  1.00  0.00     0.000 C 
BRANCH   7   8
ATOM      8  C   UNL     1      16.718  -1.218  43.437  1.00  0.00     0.000 C 
BRANCH   8   9
ATOM      9  C   UNL     1      15.528  -2.119  43.043  1.00  0.00     0.000 C 
BRANCH   9  10
ATOM     10  C   UNL     1      15.142  -1.962  41.562  1.00  0.00     0.000 C 
BRANCH  10  11
ATOM     11  C   UNL     1      13.707  -1.442  41.379  1.00  0.00     0.000 C 
BRANCH  11  12
ATOM     12  C   UNL     1      13.530  -0.638  40.079  1.00  0.00     0.000 C 
BRANCH  12  13
ATOM     13  C   UNL     1      12.900  -1.463  38.940  1.00  0.00     0.006 C 
BRANCH  13  14
ATOM     14  C   UNL     1      13.930  -2.125  38.009  1.00  0.00     0.053 C 
BRANCH  14  15
ATOM     15  C   UNL     1      14.000  -1.463  36.666  1.00  0.00     0.041 C 
ATOM     16  O   UNL     1      13.197  -0.540  36.373  1.00  0.00    -0.550 OA
ATOM     17  O   UNL     1      14.960  -1.860  35.743  1.00  0.00    -0.550 OA
ENDBRANCH  14  15
ENDBRANCH  13  14
ENDBRANCH  12  13
ENDBRANCH  11  12
ENDBRANCH  10  11
ENDBRANCH   9  10
ENDBRANCH   8   9
ENDBRANCH   7   8
ENDBRANCH   6   7
ENDBRANCH   5   6
ENDBRANCH   4   5
ENDBRANCH   3   4
ENDBRANCH   2   3
ENDBRANCH   1   2
BRANCH   1  18
ATOM     18  C   UNL     1      23.916   1.074  41.869  1.00  0.00     0.000 C 
BRANCH  18  19
ATOM     19  C   UNL     1      25.438   0.871  41.774  1.00  0.00     0.000 C 
BRANCH  19  20
ATOM     20  C   UNL     1      26.014   0.096  42.969  1.00  0.00     0.000 C 
BRANCH  20  21
ATOM     21  C   UNL     1      27.415  -0.451  42.648  1.00  0.00     0.000 C 
BRANCH  21  22
ATOM     22  C   UNL     1      27.963  -1.368  43.753  1.00  0.00     0.000 C 
BRANCH  22  23
ATOM     23  C   UNL     1      29.341  -0.918  44.271  1.00  0.00     0.000 C 
BRANCH  23  24
ATOM     24  C   UNL     1      30.117  -0.070  43.241  1.00  0.00    -0.000 C 
BRANCH  24  25
ATOM     25  C   UNL     1      31.241  -0.838  42.521  1.00  0.00    -0.000 C 
BRANCH  25  26
ATOM     26  C   UNL     1      31.213  -0.743  40.984  1.00  0.00    -0.000 C 
BRANCH  26  27
ATOM     27  C   UNL     1      32.076   0.385  40.380  1.00  0.00    -0.000 C 
BRANCH  27  28
ATOM     28  C   UNL     1      31.285   1.537  39.734  1.00  0.00    -0.000 C 
BRANCH  28  29
ATOM     29  C   UNL     1      31.233   1.444  38.202  1.00  0.00    -0.000 C 
BRANCH  29  30
ATOM     30  C   UNL     1      29.818   1.083  37.725  1.00  0.00    -0.000 C 
BRANCH  30  31
ATOM     31  C   UNL     1      28.829   0.907  38.888  1.00  0.00    -0.003 C 
ATOM     32  C   UNL     1      28.382  -0.544  39.070  1.00  0.00     0.004 C 
ENDBRANCH  30  31
ENDBRANCH  29  30
ENDBRANCH  28  29
ENDBRANCH  27  28
ENDBRANCH  26  27
ENDBRANCH  25  26
ENDBRANCH  24  25
ENDBRANCH  23  24
ENDBRANCH  22  23
ENDBRANCH  21  22
ENDBRANCH  20  21
ENDBRANCH  19  20
ENDBRANCH  18  19
ENDBRANCH   1  18
TORSDOF 28
ENDMDL
MODEL 3
REMARK VINA RESULT:     1.252      3.909     11.987
REMARK INTER + INTRA:           1.087
REMARK INTER:                   2.440
REMARK INTRA:                  -1.354
REMARK UNBOUND:                -2.215
REMARK SMILES CCCCCCCCCCCCCCCCCCCCCCCCCCCCCC(=O)[O-]
REMARK SMILES IDX 16 1 17 2 18 3 19 4 20 5 21 6 22 7 23 8 24 9 25 10 26 11
REMARK SMILES IDX 27 12 28 13 29 14 30 15 31 16 32 17 15 18 14 19 13 20 12 21
REMARK SMILES IDX 11 22 10 23 9 24 8 25 7 26 6 27 5 28 4 29 3 30 2 31 1 32
REMARK H PARENT
REMARK Flexibility Score: inf
ROOT
ATOM      1  C   UNL     1      23.565   2.525  41.382  1.00  0.00     0.000 C 
ENDROOT
BRANCH   1   2
ATOM      2  C   UNL     1      24.627   1.422  41.539  1.00  0.00     0.000 C 
BRANCH   2   3
ATOM      3  C   UNL     1      24.850   1.013  43.005  1.00  0.00     0.000 C 
BRANCH   3   4
ATOM      4  C   UNL     1      26.174   0.260  43.216  1.00  0.00     0.000 C 
BRANCH   4   5
ATOM      5  C   UNL     1      26.809  -0.216  41.900  1.00  0.00     0.000 C 
BRANCH   5   6
ATOM      6  C   UNL     1      28.105  -1.000  42.165  1.00  0.00     0.000 C 
BRANCH   6   7
ATOM      7  C   UNL     1      28.501  -1.009  43.651  1.00  0.00     0.000 C 
BRANCH   7   8
ATOM      8  C   UNL     1      29.911  -0.464  43.944  1.00  0.00     0.000 C 
BRANCH   8   9
ATOM      9  C   UNL     1      30.608   0.145  42.709  1.00  0.00     0.000 C 
BRANCH   9  10
ATOM     10  C   UNL     1      31.056  -0.929  41.703  1.00  0.00     0.000 C 
BRANCH  10  11
ATOM     11  C   UNL     1      31.912  -0.350  40.564  1.00  0.00     0.000 C 
BRANCH  11  12
ATOM     12  C   UNL     1      31.675   1.156  40.353  1.00  0.00     0.000 C 
BRANCH  12  13
ATOM     13  C   UNL     1      31.885   1.601  38.893  1.00  0.00     0.006 C 
BRANCH  13  14
ATOM     14  C   UNL     1      31.237   0.665  37.859  1.00  0.00     0.053 C 
BRANCH  14  15
ATOM     15  C   UNL     1      29.740   0.727  37.884  1.00  0.00     0.041 C 
ATOM     16  O   UNL     1      29.060  -0.171  37.321  1.00  0.00    -0.550 OA
ATOM     17  O   UNL     1      29.096   1.770  38.539  1.00  0.00    -0.550 OA
ENDBRANCH  14  15
ENDBRANCH  13  14
ENDBRANCH  12  13
ENDBRANCH  11  12
ENDBRANCH  10  11
ENDBRANCH   9  10
ENDBRANCH   8   9
ENDBRANCH   7   8
ENDBRANCH   6   7
ENDBRANCH   5   6
ENDBRANCH   4   5
ENDBRANCH   3   4
ENDBRANCH   2   3
ENDBRANCH   1   2
BRANCH   1  18
ATOM     18  C   UNL     1      22.568   2.327  40.220  1.00  0.00     0.000 C 
BRANCH  18  19
ATOM     19  C   UNL     1      21.300   1.529  40.569  1.00  0.00     0.000 C 
BRANCH  19  20
ATOM     20  C   UNL     1      21.497   0.011  40.448  1.00  0.00     0.000 C 
BRANCH  20  21
ATOM     21  C   UNL     1      20.923  -0.718  41.674  1.00  0.00     0.000 C 
BRANCH  21  22
ATOM     22  C   UNL     1      19.966   0.163  42.495  1.00  0.00     0.000 C 
BRANCH  22  23
ATOM     23  C   UNL     1      19.303  -0.601  43.655  1.00  0.00     0.000 C 
BRANCH  23  24
ATOM     24  C   UNL     1      17.768  -0.686  43.514  1.00  0.00    -0.000 C 
BRANCH  24  25
ATOM     25  C   UNL     1      17.291  -1.752  42.511  1.00  0.00    -0.000 C 
BRANCH  25  26
ATOM     26  C   UNL     1      15.797  -2.116  42.608  1.00  0.00    -0.000 C 
BRANCH  26  27
ATOM     27  C   UNL     1      14.873  -1.355  41.634  1.00  0.00    -0.000 C 
BRANCH  27  28
ATOM     28  C   UNL     1      13.470  -1.965  41.455  1.00  0.00    -0.000 C 
BRANCH  28  29
ATOM     29  C   UNL     1      12.501  -1.033  40.713  1.00  0.00    -0.000 C 
BRANCH  29  30
ATOM     30  C   UNL     1      12.960  -0.808  39.265  1.00  0.00    -0.000 C 
BRANCH  30  31
ATOM     31  C   UNL     1      13.237  -2.125  38.522  1.00  0.00    -0.003 C 
ATOM     32  C   UNL     1      13.114  -1.984  37.004  1.00  0.00     0.004 C 
ENDBRANCH  30  31
ENDBRANCH  29  30
ENDBRANCH  28  29
ENDBRANCH  27  28
ENDBRANCH  26  27
ENDBRANCH  25  26
ENDBRANCH  24  25
ENDBRANCH  23  24
ENDBRANCH  22  23
ENDBRANCH  21  22
ENDBRANCH  20  21
ENDBRANCH  19  20
ENDBRANCH  18  19
ENDBRANCH   1  18
TORSDOF 28
ENDMDL
MODEL 4
REMARK VINA RESULT:     1.430      0.865      2.256
REMARK INTER + INTRA:           1.557
REMARK INTER:                   2.474
REMARK INTRA:                  -0.917
REMARK UNBOUND:                -2.215
REMARK SMILES CCCCCCCCCCCCCCCCCCCCCCCCCCCCCC(=O)[O-]
REMARK SMILES IDX 16 1 17 2 18 3 19 4 20 5 21 6 22 7 23 8 24 9 25 10 26 11
REMARK SMILES IDX 27 12 28 13 29 14 30 15 31 16 32 17 15 18 14 19 13 20 12 21
REMARK SMILES IDX 11 22 10 23 9 24 8 25 7 26 6 27 5 28 4 29 3 30 2 31 1 32
REMARK H PARENT
REMARK Flexibility Score: inf
ROOT
ATOM      1  C   UNL     1      25.636   3.671  38.923  1.00  0.00     0.000 C 
ENDROOT
BRANCH   1   2
ATOM      2  C   UNL     1      24.141   3.447  39.211  1.00  0.00     0.000 C 
BRANCH   2   3
ATOM      3  C   UNL     1      23.855   3.164  40.696  1.00  0.00     0.000 C 
BRANCH   3   4
ATOM      4  C   UNL     1      22.489   2.494  40.920  1.00  0.00     0.000 C 
BRANCH   4   5
ATOM      5  C   UNL     1      22.017   1.675  39.709  1.00  0.00     0.000 C 
BRANCH   5   6
ATOM      6  C   UNL     1      21.580   0.264  40.135  1.00  0.00     0.000 C 
BRANCH   6   7
ATOM      7  C   UNL     1      20.965   0.232  41.544  1.00  0.00     0.000 C 
BRANCH   7   8
ATOM      8  C   UNL     1      20.614  -1.176  42.061  1.00  0.00     0.000 C 
BRANCH   8   9
ATOM      9  C   UNL     1      19.113  -1.366  42.368  1.00  0.00     0.000 C 
BRANCH   9  10
ATOM     10  C   UNL     1      18.577  -0.300  43.340  1.00  0.00     0.000 C 
BRANCH  10  11
ATOM     11  C   UNL     1      17.720   0.764  42.635  1.00  0.00     0.000 C 
BRANCH  11  12
ATOM     12  C   UNL     1      18.411   2.138  42.580  1.00  0.00     0.000 C 
BRANCH  12  13
ATOM     13  C   UNL     1      19.002   2.461  41.194  1.00  0.00     0.006 C 
BRANCH  13  14
ATOM     14  C   UNL     1      17.993   2.326  40.041  1.00  0.00     0.053 C 
BRANCH  14  15
ATOM     15  C   UNL     1      18.068   3.468  39.074  1.00  0.00     0.041 C 
ATOM     16  O   UNL     1      17.194   3.597  38.178  1.00  0.00    -0.550 OA
ATOM     17  O   UNL     1      19.098   4.397  39.170  1.00  0.00    -0.550 OA
ENDBRANCH  14  15
ENDBRANCH  13  14
ENDBRANCH  12  13
ENDBRANCH  11  12
ENDBRANCH  10  11
ENDBRANCH   9  10
ENDBRANCH   8   9
ENDBRANCH   7   8
ENDBRANCH   6   7
ENDBRANCH   5   6
ENDBRANCH   4   5
ENDBRANCH   3   4
ENDBRANCH   2   3
ENDBRANCH   1   2
BRANCH   1  18
ATOM     18  C   UNL     1      26.504   2.395  38.889  1.00  0.00     0.000 C 
BRANCH  18  19
ATOM     19  C   UNL     1      27.971   2.608  38.479  1.00  0.00     0.000 C 
BRANCH  19  20
ATOM     20  C   UNL     1      28.891   1.465  38.935  1.00  0.00     0.000 C 
BRANCH  20  21
ATOM     21  C   UNL     1      29.587   0.806  37.733  1.00  0.00     0.000 C 
BRANCH  21  22
ATOM     22  C   UNL     1      31.109   0.688  37.919  1.00  0.00     0.000 C 
BRANCH  22  23
ATOM     23  C   UNL     1      31.640   1.581  39.055  1.00  0.00     0.000 C 
BRANCH  23  24
ATOM     24  C   UNL     1      31.282   1.041  40.456  1.00  0.00    -0.000 C 
BRANCH  24  25
ATOM     25  C   UNL     1      31.617  -0.449  40.655  1.00  0.00    -0.000 C 
BRANCH  25  26
ATOM     26  C   UNL     1      30.516  -1.278  41.342  1.00  0.00    -0.000 C 
BRANCH  26  27
ATOM     27  C   UNL     1      29.126  -0.608  41.394  1.00  0.00    -0.000 C 
BRANCH  27  28
ATOM     28  C   UNL     1      28.184  -1.144  42.488  1.00  0.00    -0.000 C 
BRANCH  28  29
ATOM     29  C   UNL     1      28.596  -0.708  43.902  1.00  0.00    -0.000 C 
BRANCH  29  30
ATOM     30  C   UNL     1      29.527  -1.747  44.543  1.00  0.00    -0.000 C 
BRANCH  30  31
ATOM     31  C   UNL     1      30.496  -1.125  45.561  1.00  0.00    -0.003 C 
ATOM     32  C   UNL     1      30.422  -1.794  46.934  1.00  0.00     0.004 C 
ENDBRANCH  30  31
ENDBRANCH  29  30
ENDBRANCH  28  29
ENDBRANCH  27  28
ENDBRANCH  26  27
ENDBRANCH  25  26
ENDBRANCH  24  25
ENDBRANCH  23  24
ENDBRANCH  22  23
ENDBRANCH  21  22
ENDBRANCH  20  21
ENDBRANCH  19  20
ENDBRANCH  18  19
ENDBRANCH   1  18
TORSDOF 28
ENDMDL
MODEL 5
REMARK VINA RESULT:     1.458      2.921      5.640
REMARK INTER + INTRA:           1.629
REMARK INTER:                   4.008
REMARK INTRA:                  -2.379
REMARK UNBOUND:                -2.215
REMARK SMILES CCCCCCCCCCCCCCCCCCCCCCCCCCCCCC(=O)[O-]
REMARK SMILES IDX 16 1 17 2 18 3 19 4 20 5 21 6 22 7 23 8 24 9 25 10 26 11
REMARK SMILES IDX 27 12 28 13 29 14 30 15 31 16 32 17 15 18 14 19 13 20 12 21
REMARK SMILES IDX 11 22 10 23 9 24 8 25 7 26 6 27 5 28 4 29 3 30 2 31 1 32
REMARK H PARENT
REMARK Flexibility Score: inf
ROOT
ATOM      1  C   UNL     1      24.134   2.375  40.837  1.00  0.00     0.000 C 
ENDROOT
BRANCH   1   2
ATOM      2  C   UNL     1      22.724   2.988  40.915  1.00  0.00     0.000 C 
BRANCH   2   3
ATOM      3  C   UNL     1      21.634   1.942  41.203  1.00  0.00     0.000 C 
BRANCH   3   4
ATOM      4  C   UNL     1      21.491   0.908  40.073  1.00  0.00     0.000 C 
BRANCH   4   5
ATOM      5  C   UNL     1      20.887  -0.422  40.550  1.00  0.00     0.000 C 
BRANCH   5   6
ATOM      6  C   UNL     1      20.920  -0.522  42.084  1.00  0.00     0.000 C 
BRANCH   6   7
ATOM      7  C   UNL     1      19.564  -0.933  42.682  1.00  0.00     0.000 C 
BRANCH   7   8
ATOM      8  C   UNL     1      18.679   0.244  43.136  1.00  0.00     0.000 C 
BRANCH   8   9
ATOM      9  C   UNL     1      17.959   0.959  41.972  1.00  0.00     0.000 C 
BRANCH   9  10
ATOM     10  C   UNL     1      16.542   0.409  41.736  1.00  0.00     0.000 C 
BRANCH  10  11
ATOM     11  C   UNL     1      16.355  -1.004  42.312  1.00  0.00     0.000 C 
BRANCH  11  12
ATOM     12  C   UNL     1      15.166  -1.748  41.678  1.00  0.00     0.000 C 
BRANCH  12  13
ATOM     13  C   UNL     1      13.908  -1.745  42.568  1.00  0.00     0.006 C 
BRANCH  13  14
ATOM     14  C   UNL     1      12.618  -2.125  41.821  1.00  0.00     0.053 C 
BRANCH  14  15
ATOM     15  C   UNL     1      12.355  -1.241  40.641  1.00  0.00     0.041 C 
ATOM     16  O   UNL     1      12.246   0.004  40.794  1.00  0.00    -0.550 OA
ATOM     17  O   UNL     1      12.241  -1.790  39.369  1.00  0.00    -0.550 OA
ENDBRANCH  14  15
ENDBRANCH  13  14
ENDBRANCH  12  13
ENDBRANCH  11  12
ENDBRANCH  10  11
ENDBRANCH   9  10
ENDBRANCH   8   9
ENDBRANCH   7   8
ENDBRANCH   6   7
ENDBRANCH   5   6
ENDBRANCH   4   5
ENDBRANCH   3   4
ENDBRANCH   2   3
ENDBRANCH   1   2
BRANCH   1  18
ATOM     18  C   UNL     1      24.659   1.750  42.147  1.00  0.00     0.000 C 
BRANCH  18  19
ATOM     19  C   UNL     1      25.371   0.396  41.990  1.00  0.00     0.000 C 
BRANCH  19  20
ATOM     20  C   UNL     1      26.659   0.297  42.822  1.00  0.00     0.000 C 
BRANCH  20  21
ATOM     21  C   UNL     1      27.669  -0.657  42.162  1.00  0.00     0.000 C 
BRANCH  21  22
ATOM     22  C   UNL     1      28.234  -1.695  43.146  1.00  0.00     0.000 C 
BRANCH  22  23
ATOM     23  C   UNL     1      29.630  -1.316  43.673  1.00  0.00     0.000 C 
BRANCH  23  24
ATOM     24  C   UNL     1      30.358  -0.305  42.762  1.00  0.00    -0.000 C 
BRANCH  24  25
ATOM     25  C   UNL     1      31.700  -0.818  42.208  1.00  0.00    -0.000 C 
BRANCH  25  26
ATOM     26  C   UNL     1      31.972  -0.469  40.733  1.00  0.00    -0.000 C 
BRANCH  26  27
ATOM     27  C   UNL     1      32.038   1.040  40.417  1.00  0.00    -0.000 C 
BRANCH  27  28
ATOM     28  C   UNL     1      31.009   1.536  39.384  1.00  0.00    -0.000 C 
BRANCH  28  29
ATOM     29  C   UNL     1      31.051   0.745  38.068  1.00  0.00    -0.000 C 
BRANCH  29  30
ATOM     30  C   UNL     1      29.631   0.446  37.565  1.00  0.00    -0.000 C 
BRANCH  30  31
ATOM     31  C   UNL     1      28.634   0.216  38.712  1.00  0.00    -0.003 C 
ATOM     32  C   UNL     1      28.497  -1.260  39.089  1.00  0.00     0.004 C 
ENDBRANCH  30  31
ENDBRANCH  29  30
ENDBRANCH  28  29
ENDBRANCH  27  28
ENDBRANCH  26  27
ENDBRANCH  25  26
ENDBRANCH  24  25
ENDBRANCH  23  24
ENDBRANCH  22  23
ENDBRANCH  21  22
ENDBRANCH  20  21
ENDBRANCH  19  20
ENDBRANCH  18  19
ENDBRANCH   1  18
TORSDOF 28
ENDMDL
MODEL 6
REMARK VINA RESULT:     1.620      2.765      5.209
REMARK INTER + INTRA:           2.055
REMARK INTER:                   3.954
REMARK INTRA:                  -1.898
REMARK UNBOUND:                -2.215
REMARK SMILES CCCCCCCCCCCCCCCCCCCCCCCCCCCCCC(=O)[O-]
REMARK SMILES IDX 16 1 17 2 18 3 19 4 20 5 21 6 22 7 23 8 24 9 25 10 26 11
REMARK SMILES IDX 27 12 28 13 29 14 30 15 31 16 32 17 15 18 14 19 13 20 12 21
REMARK SMILES IDX 11 22 10 23 9 24 8 25 7 26 6 27 5 28 4 29 3 30 2 31 1 32
REMARK H PARENT
REMARK Flexibility Score: inf
ROOT
ATOM      1  C   UNL     1      25.119   0.097  42.611  1.00  0.00     0.000 C 
ENDROOT
BRANCH   1   2
ATOM      2  C   UNL     1      24.495   1.457  42.246  1.00  0.00     0.000 C 
BRANCH   2   3
ATOM      3  C   UNL     1      23.532   1.368  41.049  1.00  0.00     0.000 C 
BRANCH   3   4
ATOM      4  C   UNL     1      22.381   2.384  41.138  1.00  0.00     0.000 C 
BRANCH   4   5
ATOM      5  C   UNL     1      21.056   1.838  40.585  1.00  0.00     0.000 C 
BRANCH   5   6
ATOM      6  C   UNL     1      20.927   0.330  40.852  1.00  0.00     0.000 C 
BRANCH   6   7
ATOM      7  C   UNL     1      19.974   0.011  42.016  1.00  0.00     0.000 C 
BRANCH   7   8
ATOM      8  C   UNL     1      19.254  -1.347  41.904  1.00  0.00     0.000 C 
BRANCH   8   9
ATOM      9  C   UNL     1      18.941  -1.995  43.270  1.00  0.00     0.000 C 
BRANCH   9  10
ATOM     10  C   UNL     1      17.479  -1.782  43.695  1.00  0.00     0.000 C 
BRANCH  10  11
ATOM     11  C   UNL     1      16.504  -1.847  42.508  1.00  0.00     0.000 C 
BRANCH  11  12
ATOM     12  C   UNL     1      15.049  -2.086  42.950  1.00  0.00     0.000 C 
BRANCH  12  13
ATOM     13  C   UNL     1      14.058  -2.121  41.771  1.00  0.00     0.006 C 
BRANCH  13  14
ATOM     14  C   UNL     1      14.253  -0.977  40.761  1.00  0.00     0.053 C 
BRANCH  14  15
ATOM     15  C   UNL     1      13.645  -1.280  39.425  1.00  0.00     0.041 C 
ATOM     16  O   UNL     1      12.395  -1.252  39.278  1.00  0.00    -0.550 OA
ATOM     17  O   UNL     1      14.460  -1.581  38.340  1.00  0.00    -0.550 OA
ENDBRANCH  14  15
ENDBRANCH  13  14
ENDBRANCH  12  13
ENDBRANCH  11  12
ENDBRANCH  10  11
ENDBRANCH   9  10
ENDBRANCH   8   9
ENDBRANCH   7   8
ENDBRANCH   6   7
ENDBRANCH   5   6
ENDBRANCH   4   5
ENDBRANCH   3   4
ENDBRANCH   2   3
ENDBRANCH   1   2
BRANCH   1  18
ATOM     18  C   UNL     1      26.274   0.151  43.634  1.00  0.00     0.000 C 
BRANCH  18  19
ATOM     19  C   UNL     1      27.677  -0.096  43.055  1.00  0.00     0.000 C 
BRANCH  19  20
ATOM     20  C   UNL     1      28.353  -1.347  43.637  1.00  0.00     0.000 C 
BRANCH  20  21
ATOM     21  C   UNL     1      29.856  -1.108  43.858  1.00  0.00     0.000 C 
BRANCH  21  22
ATOM     22  C   UNL     1      30.505  -0.309  42.716  1.00  0.00     0.000 C 
BRANCH  22  23
ATOM     23  C   UNL     1      30.910  -1.197  41.525  1.00  0.00     0.000 C 
BRANCH  23  24
ATOM     24  C   UNL     1      31.862  -0.481  40.543  1.00  0.00    -0.000 C 
BRANCH  24  25
ATOM     25  C   UNL     1      31.858   1.053  40.676  1.00  0.00    -0.000 C 
BRANCH  25  26
ATOM     26  C   UNL     1      31.635   1.820  39.359  1.00  0.00    -0.000 C 
BRANCH  26  27
ATOM     27  C   UNL     1      30.191   1.785  38.816  1.00  0.00    -0.000 C 
BRANCH  27  28
ATOM     28  C   UNL     1      30.017   1.055  37.472  1.00  0.00    -0.000 C 
BRANCH  28  29
ATOM     29  C   UNL     1      29.147  -0.206  37.582  1.00  0.00    -0.000 C 
BRANCH  29  30
ATOM     30  C   UNL     1      28.695  -0.432  39.033  1.00  0.00    -0.000 C 
BRANCH  30  31
ATOM     31  C   UNL     1      27.992  -1.785  39.229  1.00  0.00    -0.003 C 
ATOM     32  C   UNL     1      27.440  -1.965  40.643  1.00  0.00     0.004 C 
ENDBRANCH  30  31
ENDBRANCH  29  30
ENDBRANCH  28  29
ENDBRANCH  27  28
ENDBRANCH  26  27
ENDBRANCH  25  26
ENDBRANCH  24  25
ENDBRANCH  23  24
ENDBRANCH  22  23
ENDBRANCH  21  22
ENDBRANCH  20  21
ENDBRANCH  19  20
ENDBRANCH  18  19
ENDBRANCH   1  18
TORSDOF 28
ENDMDL
MODEL 7
REMARK VINA RESULT:     1.736      1.542      4.504
REMARK INTER + INTRA:           2.362
REMARK INTER:                   3.434
REMARK INTRA:                  -1.071
REMARK UNBOUND:                -2.215
REMARK SMILES CCCCCCCCCCCCCCCCCCCCCCCCCCCCCC(=O)[O-]
REMARK SMILES IDX 16 1 17 2 18 3 19 4 20 5 21 6 22 7 23 8 24 9 25 10 26 11
REMARK SMILES IDX 27 12 28 13 29 14 30 15 31 16 32 17 15 18 14 19 13 20 12 21
REMARK SMILES IDX 11 22 10 23 9 24 8 25 7 26 6 27 5 28 4 29 3 30 2 31 1 32
REMARK H PARENT
REMARK Flexibility Score: inf
ROOT
ATOM      1  C   UNL     1      25.631   0.137  42.525  1.00  0.00     0.000 C 
ENDROOT
BRANCH   1   2
ATOM      2  C   UNL     1      24.698   1.361  42.551  1.00  0.00     0.000 C 
BRANCH   2   3
ATOM      3  C   UNL     1      24.343   1.869  41.143  1.00  0.00     0.000 C 
BRANCH   3   4
ATOM      4  C   UNL     1      23.060   2.717  41.124  1.00  0.00     0.000 C 
BRANCH   4   5
ATOM      5  C   UNL     1      21.935   2.082  40.293  1.00  0.00     0.000 C 
BRANCH   5   6
ATOM      6  C   UNL     1      21.919   0.554  40.464  1.00  0.00     0.000 C 
BRANCH   6   7
ATOM      7  C   UNL     1      21.000   0.092  41.608  1.00  0.00     0.000 C 
BRANCH   7   8
ATOM      8  C   UNL     1      20.420  -1.324  41.434  1.00  0.00     0.000 C 
BRANCH   8   9
ATOM      9  C   UNL     1      19.411  -1.717  42.535  1.00  0.00     0.000 C 
BRANCH   9  10
ATOM     10  C   UNL     1      18.224  -0.741  42.614  1.00  0.00     0.000 C 
BRANCH  10  11
ATOM     11  C   UNL     1      18.615   0.613  43.228  1.00  0.00     0.000 C 
BRANCH  11  12
ATOM     12  C   UNL     1      17.972   1.803  42.493  1.00  0.00     0.000 C 
BRANCH  12  13
ATOM     13  C   UNL     1      18.905   2.442  41.447  1.00  0.00     0.006 C 
BRANCH  13  14
ATOM     14  C   UNL     1      18.492   2.162  39.992  1.00  0.00     0.053 C 
BRANCH  14  15
ATOM     15  C   UNL     1      18.215   3.416  39.221  1.00  0.00     0.041 C 
ATOM     16  O   UNL     1      17.237   3.468  38.429  1.00  0.00    -0.550 OA
ATOM     17  O   UNL     1      19.029   4.530  39.383  1.00  0.00    -0.550 OA
ENDBRANCH  14  15
ENDBRANCH  13  14
ENDBRANCH  12  13
ENDBRANCH  11  12
ENDBRANCH  10  11
ENDBRANCH   9  10
ENDBRANCH   8   9
ENDBRANCH   7   8
ENDBRANCH   6   7
ENDBRANCH   5   6
ENDBRANCH   4   5
ENDBRANCH   3   4
ENDBRANCH   2   3
ENDBRANCH   1   2
BRANCH   1  18
ATOM     18  C   UNL     1      26.735   0.122  43.604  1.00  0.00     0.000 C 
BRANCH  18  19
ATOM     19  C   UNL     1      28.131  -0.298  43.110  1.00  0.00     0.000 C 
BRANCH  19  20
ATOM     20  C   UNL     1      28.771  -1.388  43.982  1.00  0.00     0.000 C 
BRANCH  20  21
ATOM     21  C   UNL     1      30.302  -1.256  43.994  1.00  0.00     0.000 C 
BRANCH  21  22
ATOM     22  C   UNL     1      30.826  -0.320  42.891  1.00  0.00     0.000 C 
BRANCH  22  23
ATOM     23  C   UNL     1      31.089  -1.054  41.564  1.00  0.00     0.000 C 
BRANCH  23  24
ATOM     24  C   UNL     1      32.124  -0.330  40.677  1.00  0.00    -0.000 C 
BRANCH  24  25
ATOM     25  C   UNL     1      32.122   1.201  40.836  1.00  0.00    -0.000 C 
BRANCH  25  26
ATOM     26  C   UNL     1      32.002   1.993  39.520  1.00  0.00    -0.000 C 
BRANCH  26  27
ATOM     27  C   UNL     1      32.085   1.144  38.234  1.00  0.00    -0.000 C 
BRANCH  27  28
ATOM     28  C   UNL     1      30.898   0.192  38.003  1.00  0.00    -0.000 C 
BRANCH  28  29
ATOM     29  C   UNL     1      29.664   0.900  37.423  1.00  0.00    -0.000 C 
BRANCH  29  30
ATOM     30  C   UNL     1      28.552   1.010  38.477  1.00  0.00    -0.000 C 
BRANCH  30  31
ATOM     31  C   UNL     1      28.752   0.040  39.651  1.00  0.00    -0.003 C 
ATOM     32  C   UNL     1      28.376  -1.399  39.300  1.00  0.00     0.004 C 
ENDBRANCH  30  31
ENDBRANCH  29  30
ENDBRANCH  28  29
ENDBRANCH  27  28
ENDBRANCH  26  27
ENDBRANCH  25  26
ENDBRANCH  24  25
ENDBRANCH  23  24
ENDBRANCH  22  23
ENDBRANCH  21  22
ENDBRANCH  20  21
ENDBRANCH  19  20
ENDBRANCH  18  19
ENDBRANCH   1  18
TORSDOF 28
ENDMDL
MODEL 8
REMARK VINA RESULT:     1.897      1.544      4.404
REMARK INTER + INTRA:           2.787
REMARK INTER:                   4.319
REMARK INTRA:                  -1.532
REMARK UNBOUND:                -2.215
REMARK SMILES CCCCCCCCCCCCCCCCCCCCCCCCCCCCCC(=O)[O-]
REMARK SMILES IDX 16 1 17 2 18 3 19 4 20 5 21 6 22 7 23 8 24 9 25 10 26 11
REMARK SMILES IDX 27 12 28 13 29 14 30 15 31 16 32 17 15 18 14 19 13 20 12 21
REMARK SMILES IDX 11 22 10 23 9 24 8 25 7 26 6 27 5 28 4 29 3 30 2 31 1 32
REMARK H PARENT
REMARK Flexibility Score: inf
ROOT
ATOM      1  C   UNL     1      28.088  -0.700  43.061  1.00  0.00     0.000 C 
ENDROOT
BRANCH   1   2
ATOM      2  C   UNL     1      27.119   0.435  43.438  1.00  0.00     0.000 C 
BRANCH   2   3
ATOM      3  C   UNL     1      25.734   0.277  42.786  1.00  0.00     0.000 C 
BRANCH   3   4
ATOM      4  C   UNL     1      24.963   1.605  42.704  1.00  0.00     0.000 C 
BRANCH   4   5
ATOM      5  C   UNL     1      24.294   1.826  41.339  1.00  0.00     0.000 C 
BRANCH   5   6
ATOM      6  C   UNL     1      22.769   1.961  41.488  1.00  0.00     0.000 C 
BRANCH   6   7
ATOM      7  C   UNL     1      22.041   2.002  40.134  1.00  0.00     0.000 C 
BRANCH   7   8
ATOM      8  C   UNL     1      21.332   0.691  39.746  1.00  0.00     0.000 C 
BRANCH   8   9
ATOM      9  C   UNL     1      21.613  -0.475  40.718  1.00  0.00     0.000 C 
BRANCH   9  10
ATOM     10  C   UNL     1      20.341  -0.953  41.439  1.00  0.00     0.000 C 
BRANCH  10  11
ATOM     11  C   UNL     1      19.983  -0.073  42.648  1.00  0.00     0.000 C 
BRANCH  11  12
ATOM     12  C   UNL     1      18.463   0.053  42.859  1.00  0.00     0.000 C 
BRANCH  12  13
ATOM     13  C   UNL     1      17.926   1.463  42.551  1.00  0.00     0.006 C 
BRANCH  13  14
ATOM     14  C   UNL     1      18.882   2.321  41.705  1.00  0.00     0.053 C 
BRANCH  14  15
ATOM     15  C   UNL     1      18.346   2.597  40.334  1.00  0.00     0.041 C 
ATOM     16  O   UNL     1      17.353   1.956  39.901  1.00  0.00    -0.550 OA
ATOM     17  O   UNL     1      18.937   3.571  39.536  1.00  0.00    -0.550 OA
ENDBRANCH  14  15
ENDBRANCH  13  14
ENDBRANCH  12  13
ENDBRANCH  11  12
ENDBRANCH  10  11
ENDBRANCH   9  10
ENDBRANCH   8   9
ENDBRANCH   7   8
ENDBRANCH   6   7
ENDBRANCH   5   6
ENDBRANCH   4   5
ENDBRANCH   3   4
ENDBRANCH   2   3
ENDBRANCH   1   2
BRANCH   1  18
ATOM     18  C   UNL     1      28.323  -1.763  44.155  1.00  0.00     0.000 C 
BRANCH  18  19
ATOM     19  C   UNL     1      29.356  -1.383  45.230  1.00  0.00     0.000 C 
BRANCH  19  20
ATOM     20  C   UNL     1      30.542  -0.589  44.665  1.00  0.00     0.000 C 
BRANCH  20  21
ATOM     21  C   UNL     1      31.279  -1.395  43.583  1.00  0.00     0.000 C 
BRANCH  21  22
ATOM     22  C   UNL     1      31.816  -0.510  42.445  1.00  0.00     0.000 C 
BRANCH  22  23
ATOM     23  C   UNL     1      31.124  -0.790  41.098  1.00  0.00     0.000 C 
BRANCH  23  24
ATOM     24  C   UNL     1      32.125  -0.926  39.931  1.00  0.00    -0.000 C 
BRANCH  24  25
ATOM     25  C   UNL     1      32.082   0.244  38.931  1.00  0.00    -0.000 C 
BRANCH  25  26
ATOM     26  C   UNL     1      32.063   1.646  39.570  1.00  0.00    -0.000 C 
BRANCH  26  27
ATOM     27  C   UNL     1      30.679   2.327  39.615  1.00  0.00    -0.000 C 
BRANCH  27  28
ATOM     28  C   UNL     1      29.478   1.365  39.635  1.00  0.00    -0.000 C 
BRANCH  28  29
ATOM     29  C   UNL     1      29.033   0.931  38.230  1.00  0.00    -0.000 C 
BRANCH  29  30
ATOM     30  C   UNL     1      28.702  -0.568  38.201  1.00  0.00    -0.000 C 
BRANCH  30  31
ATOM     31  C   UNL     1      28.754  -1.213  39.595  1.00  0.00    -0.003 C 
ATOM     32  C   UNL     1      27.417  -1.822  40.015  1.00  0.00     0.004 C 
ENDBRANCH  30  31
ENDBRANCH  29  30
ENDBRANCH  28  29
ENDBRANCH  27  28
ENDBRANCH  26  27
ENDBRANCH  25  26
ENDBRANCH  24  25
ENDBRANCH  23  24
ENDBRANCH  22  23
ENDBRANCH  21  22
ENDBRANCH  20  21
ENDBRANCH  19  20
ENDBRANCH  18  19
ENDBRANCH   1  18
TORSDOF 28
ENDMDL
