MODEL 1
REMARK VINA RESULT:    -6.681      0.000      0.000
REMARK INTER + INTRA:         -10.736
REMARK INTER:                  -9.806
REMARK INTRA:                  -0.931
REMARK UNBOUND:                -0.931
REMARK SMILES Cc1cc2c(C(C)C)c(O)c(O)c(C=O)c2c(O)c1-c1c(C)cc2c(C(C)C)c(O)c(O)c(C=O)c2c1O
REMARK SMILES IDX 1 1 2 2 3 3 4 4 16 5 13 6 11 7 9 8 5 9 17 10 19 11 20 12
REMARK SMILES IDX 37 13 21 14 36 15 23 16 22 17 24 18 33 19 25 20 31 21 29 22
REMARK SMILES IDX 38 23 34 25 35 26 26 27 27 28 28 29 32 30 30 32 18 34 6 36
REMARK SMILES IDX 7 37 8 38 14 39 15 40 10 41 12 43
REMARK H PARENT 38 24 32 31 30 33 18 35 10 42 12 44
REMARK Flexibility Score: inf
ROOT
ATOM      1  C   UNL     1      60.821  12.494  41.118  1.00  0.00     0.045 C 
ATOM      2  C   UNL     1      61.335  13.229  39.905  1.00  0.00    -0.039 A 
ATOM      3  C   UNL     1      61.685  14.576  40.015  1.00  0.00     0.013 A 
ATOM      4  C   UNL     1      62.177  15.315  38.920  1.00  0.00    -0.006 A 
ATOM      5  C   UNL     1      62.409  14.631  37.689  1.00  0.00     0.039 A 
ATOM      6  C   UNL     1      63.078  15.312  36.633  1.00  0.00     0.072 A 
ATOM      7  C   UNL     1      63.432  16.666  36.775  1.00  0.00     0.169 A 
ATOM      8  C   UNL     1      63.146  17.356  37.970  1.00  0.00     0.162 A 
ATOM      9  C   UNL     1      62.461  16.714  39.029  1.00  0.00     0.008 A 
ATOM     10  C   UNL     1      61.934  13.292  37.545  1.00  0.00     0.132 A 
ATOM     11  C   UNL     1      61.431  12.591  38.659  1.00  0.00     0.031 A 
ENDROOT
BRANCH  11  12
ATOM     12  C   UNL     1      61.029  11.165  38.526  1.00  0.00     0.031 A 
ATOM     13  C   UNL     1      61.987  10.139  38.665  1.00  0.00     0.132 A 
ATOM     14  C   UNL     1      59.690  10.841  38.253  1.00  0.00    -0.039 A 
ATOM     15  C   UNL     1      61.612   8.774  38.483  1.00  0.00     0.039 A 
ATOM     16  C   UNL     1      59.300   9.501  38.214  1.00  0.00     0.013 A 
ATOM     17  C   UNL     1      58.651  11.920  38.058  1.00  0.00     0.045 C 
ATOM     18  C   UNL     1      60.227   8.452  38.393  1.00  0.00    -0.006 A 
ATOM     19  C   UNL     1      62.572   7.724  38.418  1.00  0.00     0.072 A 
ATOM     20  C   UNL     1      59.805   7.090  38.449  1.00  0.00     0.008 A 
ATOM     21  C   UNL     1      62.147   6.384  38.337  1.00  0.00     0.169 A 
ATOM     22  C   UNL     1      60.774   6.070  38.320  1.00  0.00     0.162 A 
BRANCH  13  23
ATOM     23  O   UNL     1      63.299  10.468  39.028  1.00  0.00    -0.507 OA
ATOM     24  H   UNL     1      63.968  10.889  38.397  1.00  0.00     0.293 HD
ENDBRANCH  13  23
BRANCH  19  25
ATOM     25  C   UNL     1      64.023   7.997  38.283  1.00  0.00     0.264 C 
ATOM     26  O   UNL     1      64.682   7.541  37.311  1.00  0.00    -0.298 OA
ENDBRANCH  19  25
BRANCH  20  27
ATOM     27  C   UNL     1      58.320   6.718  38.625  1.00  0.00     0.017 C 
ATOM     28  C   UNL     1      57.876   5.712  37.558  1.00  0.00     0.012 C 
ATOM     29  C   UNL     1      57.965   6.226  40.041  1.00  0.00     0.012 C 
ENDBRANCH  20  27
BRANCH  21  30
ATOM     30  O   UNL     1      63.124   5.381  38.267  1.00  0.00    -0.504 OA
ATOM     31  H   UNL     1      64.101   5.514  38.489  1.00  0.00     0.293 HD
ENDBRANCH  21  30
BRANCH  22  32
ATOM     32  O   UNL     1      60.344   4.753  38.130  1.00  0.00    -0.504 OA
ATOM     33  H   UNL     1      60.905   3.932  38.300  1.00  0.00     0.293 HD
ENDBRANCH  22  32
ENDBRANCH  11  12
BRANCH  10  34
ATOM     34  O   UNL     1      61.921  12.679  36.288  1.00  0.00    -0.507 OA
ATOM     35  H   UNL     1      61.089  12.575  35.720  1.00  0.00     0.293 HD
ENDBRANCH  10  34
BRANCH   9  36
ATOM     36  C   UNL     1      62.064  17.579  40.243  1.00  0.00     0.017 C 
ATOM     37  C   UNL     1      61.060  18.679  39.872  1.00  0.00     0.012 C 
ATOM     38  C   UNL     1      63.257  18.100  41.073  1.00  0.00     0.012 C 
ENDBRANCH   9  36
BRANCH   6  39
ATOM     39  C   UNL     1      63.542  14.607  35.413  1.00  0.00     0.264 C 
ATOM     40  O   UNL     1      64.771  14.456  35.178  1.00  0.00    -0.298 OA
ENDBRANCH   6  39
BRANCH   8  41
ATOM     41  O   UNL     1      63.563  18.682  38.147  1.00  0.00    -0.504 OA
ATOM     42  H   UNL     1      64.155  19.009  38.894  1.00  0.00     0.293 HD
ENDBRANCH   8  41
BRANCH   7  43
ATOM     43  O   UNL     1      64.079  17.297  35.705  1.00  0.00    -0.504 OA
ATOM     44  H   UNL     1      63.929  18.253  35.422  1.00  0.00     0.293 HD
ENDBRANCH   7  43
TORSDOF 11
ENDMDL
MODEL 2
REMARK VINA RESULT:    -6.544      0.302      8.998
REMARK INTER + INTRA:         -10.536
REMARK INTER:                  -9.576
REMARK INTRA:                  -0.959
REMARK UNBOUND:                -0.931
REMARK SMILES Cc1cc2c(C(C)C)c(O)c(O)c(C=O)c2c(O)c1-c1c(C)cc2c(C(C)C)c(O)c(O)c(C=O)c2c1O
REMARK SMILES IDX 1 1 2 2 3 3 4 4 16 5 13 6 11 7 9 8 5 9 17 10 19 11 20 12
REMARK SMILES IDX 37 13 21 14 36 15 23 16 22 17 24 18 33 19 25 20 31 21 29 22
REMARK SMILES IDX 38 23 34 25 35 26 26 27 27 28 28 29 32 30 30 32 18 34 6 36
REMARK SMILES IDX 7 37 8 38 14 39 15 40 10 41 12 43
REMARK H PARENT 38 24 32 31 30 33 18 35 10 42 12 44
REMARK Flexibility Score: inf
ROOT
ATOM      1  C   UNL     1      58.650  11.963  38.099  1.00  0.00     0.045 C 
ATOM      2  C   UNL     1      59.681  10.873  38.262  1.00  0.00    -0.039 A 
ATOM      3  C   UNL     1      59.288   9.537  38.180  1.00  0.00     0.013 A 
ATOM      4  C   UNL     1      60.204   8.474  38.317  1.00  0.00    -0.006 A 
ATOM      5  C   UNL     1      61.590   8.788  38.448  1.00  0.00     0.039 A 
ATOM      6  C   UNL     1      62.547   7.735  38.398  1.00  0.00     0.072 A 
ATOM      7  C   UNL     1      62.123   6.397  38.302  1.00  0.00     0.169 A 
ATOM      8  C   UNL     1      60.750   6.086  38.235  1.00  0.00     0.162 A 
ATOM      9  C   UNL     1      59.774   7.109  38.306  1.00  0.00     0.008 A 
ATOM     10  C   UNL     1      61.973  10.148  38.657  1.00  0.00     0.132 A 
ATOM     11  C   UNL     1      61.023  11.182  38.530  1.00  0.00     0.031 A 
ENDROOT
BRANCH  11  12
ATOM     12  C   UNL     1      61.445  12.603  38.651  1.00  0.00     0.031 A 
ATOM     13  C   UNL     1      61.935  13.299  37.526  1.00  0.00     0.132 A 
ATOM     14  C   UNL     1      61.363  13.252  39.894  1.00  0.00    -0.039 A 
ATOM     15  C   UNL     1      62.391  14.645  37.653  1.00  0.00     0.039 A 
ATOM     16  C   UNL     1      61.678  14.609  39.985  1.00  0.00     0.013 A 
ATOM     17  C   UNL     1      60.882  12.520  41.125  1.00  0.00     0.045 C 
ATOM     18  C   UNL     1      62.129  15.343  38.867  1.00  0.00    -0.006 A 
ATOM     19  C   UNL     1      63.072  15.320  36.600  1.00  0.00     0.072 A 
ATOM     20  C   UNL     1      62.355  16.750  38.946  1.00  0.00     0.008 A 
ATOM     21  C   UNL     1      63.415  16.679  36.739  1.00  0.00     0.169 A 
ATOM     22  C   UNL     1      63.088  17.381  37.916  1.00  0.00     0.162 A 
BRANCH  13  23
ATOM     23  O   UNL     1      61.927  12.673  36.273  1.00  0.00    -0.507 OA
ATOM     24  H   UNL     1      61.633  13.127  35.419  1.00  0.00     0.293 HD
ENDBRANCH  13  23
BRANCH  19  25
ATOM     25  C   UNL     1      63.573  14.602  35.404  1.00  0.00     0.264 C 
ATOM     26  O   UNL     1      64.808  14.481  35.188  1.00  0.00    -0.298 OA
ENDBRANCH  19  25
BRANCH  20  27
ATOM     27  C   UNL     1      61.837  17.580  40.136  1.00  0.00     0.017 C 
ATOM     28  C   UNL     1      62.994  18.042  41.028  1.00  0.00     0.012 C 
ATOM     29  C   UNL     1      60.938  18.762  39.727  1.00  0.00     0.012 C 
ENDBRANCH  20  27
BRANCH  21  30
ATOM     30  O   UNL     1      64.091  17.304  35.683  1.00  0.00    -0.504 OA
ATOM     31  H   UNL     1      64.867  17.942  35.794  1.00  0.00     0.293 HD
ENDBRANCH  21  30
BRANCH  22  32
ATOM     32  O   UNL     1      63.519  18.698  38.106  1.00  0.00    -0.504 OA
ATOM     33  H   UNL     1      64.446  19.038  37.900  1.00  0.00     0.293 HD
ENDBRANCH  22  32
ENDBRANCH  11  12
BRANCH  10  34
ATOM     34  O   UNL     1      63.283  10.464  39.032  1.00  0.00    -0.507 OA
ATOM     35  H   UNL     1      63.598  10.508  39.993  1.00  0.00     0.293 HD
ENDBRANCH  10  34
BRANCH   9  36
ATOM     36  C   UNL     1      58.295   6.674  38.367  1.00  0.00     0.017 C 
ATOM     37  C   UNL     1      57.878   6.220  39.772  1.00  0.00     0.012 C 
ATOM     38  C   UNL     1      57.875   5.684  37.259  1.00  0.00     0.012 C 
ENDBRANCH   9  36
BRANCH   6  39
ATOM     39  C   UNL     1      64.004   8.000  38.312  1.00  0.00     0.264 C 
ATOM     40  O   UNL     1      64.825   7.343  39.008  1.00  0.00    -0.298 OA
ENDBRANCH   6  39
BRANCH   8  41
ATOM     41  O   UNL     1      60.324   4.763  38.064  1.00  0.00    -0.504 OA
ATOM     42  H   UNL     1      60.885   4.017  37.683  1.00  0.00     0.293 HD
ENDBRANCH   8  41
BRANCH   7  43
ATOM     43  O   UNL     1      63.100   5.394  38.267  1.00  0.00    -0.504 OA
ATOM     44  H   UNL     1      62.983   4.488  37.838  1.00  0.00     0.293 HD
ENDBRANCH   7  43
TORSDOF 11
ENDMDL
MODEL 3
REMARK VINA RESULT:    -5.973      1.832      3.133
REMARK INTER + INTRA:          -9.697
REMARK INTER:                  -8.634
REMARK INTRA:                  -1.063
REMARK UNBOUND:                -0.931
REMARK SMILES Cc1cc2c(C(C)C)c(O)c(O)c(C=O)c2c(O)c1-c1c(C)cc2c(C(C)C)c(O)c(O)c(C=O)c2c1O
REMARK SMILES IDX 1 1 2 2 3 3 4 4 16 5 13 6 11 7 9 8 5 9 17 10 19 11 20 12
REMARK SMILES IDX 37 13 21 14 36 15 23 16 22 17 24 18 33 19 25 20 31 21 29 22
REMARK SMILES IDX 38 23 34 25 35 26 26 27 27 28 28 29 32 30 30 32 18 34 6 36
REMARK SMILES IDX 7 37 8 38 14 39 15 40 10 41 12 43
REMARK H PARENT 38 24 32 31 30 33 18 35 10 42 12 44
REMARK Flexibility Score: inf
ROOT
ATOM      1  C   UNL     1      59.443  13.864  40.157  1.00  0.00     0.045 C 
ATOM      2  C   UNL     1      60.519  14.336  39.210  1.00  0.00    -0.039 A 
ATOM      3  C   UNL     1      60.637  15.698  38.929  1.00  0.00     0.013 A 
ATOM      4  C   UNL     1      61.626  16.203  38.059  1.00  0.00    -0.006 A 
ATOM      5  C   UNL     1      62.589  15.293  37.529  1.00  0.00     0.039 A 
ATOM      6  C   UNL     1      63.701  15.807  36.803  1.00  0.00     0.072 A 
ATOM      7  C   UNL     1      63.803  17.186  36.546  1.00  0.00     0.169 A 
ATOM      8  C   UNL     1      62.817  18.075  37.019  1.00  0.00     0.162 A 
ATOM      9  C   UNL     1      61.687  17.592  37.722  1.00  0.00     0.008 A 
ATOM     10  C   UNL     1      62.391  13.892  37.716  1.00  0.00     0.132 A 
ATOM     11  C   UNL     1      61.379  13.424  38.580  1.00  0.00     0.031 A 
ENDROOT
BRANCH  11  12
ATOM     12  C   UNL     1      61.239  11.969  38.848  1.00  0.00     0.031 A 
ATOM     13  C   UNL     1      60.280  11.205  38.150  1.00  0.00     0.132 A 
ATOM     14  C   UNL     1      62.061  11.354  39.808  1.00  0.00    -0.039 A 
ATOM     15  C   UNL     1      60.107   9.820  38.447  1.00  0.00     0.039 A 
ATOM     16  C   UNL     1      61.985   9.973  39.995  1.00  0.00     0.013 A 
ATOM     17  C   UNL     1      63.067  12.154  40.600  1.00  0.00     0.045 C 
ATOM     18  C   UNL     1      61.066   9.175  39.280  1.00  0.00    -0.006 A 
ATOM     19  C   UNL     1      59.028   9.057  37.915  1.00  0.00     0.072 A 
ATOM     20  C   UNL     1      61.063   7.753  39.406  1.00  0.00     0.008 A 
ATOM     21  C   UNL     1      58.958   7.671  38.158  1.00  0.00     0.169 A 
ATOM     22  C   UNL     1      59.949   7.029  38.924  1.00  0.00     0.162 A 
BRANCH  13  23
ATOM     23  O   UNL     1      59.530  11.807  37.132  1.00  0.00    -0.507 OA
ATOM     24  H   UNL     1      58.661  12.300  37.290  1.00  0.00     0.293 HD
ENDBRANCH  13  23
BRANCH  19  25
ATOM     25  C   UNL     1      57.881   9.696  37.229  1.00  0.00     0.264 C 
ATOM     26  O   UNL     1      57.877   9.854  35.979  1.00  0.00    -0.298 OA
ENDBRANCH  19  25
BRANCH  20  27
ATOM     27  C   UNL     1      62.233   7.005  40.072  1.00  0.00     0.017 C 
ATOM     28  C   UNL     1      61.722   5.862  40.956  1.00  0.00     0.012 C 
ATOM     29  C   UNL     1      63.302   6.510  39.080  1.00  0.00     0.012 C 
ENDBRANCH  20  27
BRANCH  21  30
ATOM     30  O   UNL     1      57.876   6.959  37.623  1.00  0.00    -0.504 OA
ATOM     31  H   UNL     1      57.952   6.245  36.913  1.00  0.00     0.293 HD
ENDBRANCH  21  30
BRANCH  22  32
ATOM     32  O   UNL     1      59.830   5.677  39.260  1.00  0.00    -0.504 OA
ATOM     33  H   UNL     1      58.992   5.125  39.149  1.00  0.00     0.293 HD
ENDBRANCH  22  32
ENDBRANCH  11  12
BRANCH  10  34
ATOM     34  O   UNL     1      63.168  12.967  37.010  1.00  0.00    -0.507 OA
ATOM     35  H   UNL     1      63.349  13.026  36.016  1.00  0.00     0.293 HD
ENDBRANCH  10  34
BRANCH   9  36
ATOM     36  C   UNL     1      60.587  18.613  38.082  1.00  0.00     0.017 C 
ATOM     37  C   UNL     1      60.670  19.069  39.544  1.00  0.00     0.012 C 
ATOM     38  C   UNL     1      59.163  18.194  37.656  1.00  0.00     0.012 C 
ENDBRANCH   9  36
BRANCH   6  39
ATOM     39  C   UNL     1      64.846  14.950  36.410  1.00  0.00     0.264 C 
ATOM     40  O   UNL     1      64.964  14.526  35.229  1.00  0.00    -0.298 OA
ENDBRANCH   6  39
BRANCH   8  41
ATOM     41  O   UNL     1      62.950  19.457  36.831  1.00  0.00    -0.504 OA
ATOM     42  H   UNL     1      62.289  20.042  36.343  1.00  0.00     0.293 HD
ENDBRANCH   8  41
BRANCH   7  43
ATOM     43  O   UNL     1      64.909  17.645  35.819  1.00  0.00    -0.504 OA
ATOM     44  H   UNL     1      64.918  17.813  34.825  1.00  0.00     0.293 HD
ENDBRANCH   7  43
TORSDOF 11
ENDMDL
MODEL 4
REMARK VINA RESULT:    -5.956      1.878      8.881
REMARK INTER + INTRA:          -9.672
REMARK INTER:                  -8.929
REMARK INTRA:                  -0.744
REMARK UNBOUND:                -0.931
REMARK SMILES Cc1cc2c(C(C)C)c(O)c(O)c(C=O)c2c(O)c1-c1c(C)cc2c(C(C)C)c(O)c(O)c(C=O)c2c1O
REMARK SMILES IDX 1 1 2 2 3 3 4 4 16 5 13 6 11 7 9 8 5 9 17 10 19 11 20 12
REMARK SMILES IDX 37 13 21 14 36 15 23 16 22 17 24 18 33 19 25 20 31 21 29 22
REMARK SMILES IDX 38 23 34 25 35 26 26 27 27 28 28 29 32 30 30 32 18 34 6 36
REMARK SMILES IDX 7 37 8 38 14 39 15 40 10 41 12 43
REMARK H PARENT 38 24 32 31 30 33 18 35 10 42 12 44
REMARK Flexibility Score: inf
ROOT
ATOM      1  C   UNL     1      63.426  12.329  40.369  1.00  0.00     0.045 C 
ATOM      2  C   UNL     1      62.330  11.580  39.652  1.00  0.00    -0.039 A 
ATOM      3  C   UNL     1      62.212  10.200  39.829  1.00  0.00     0.013 A 
ATOM      4  C   UNL     1      61.205   9.446  39.192  1.00  0.00    -0.006 A 
ATOM      5  C   UNL     1      60.225  10.139  38.420  1.00  0.00     0.039 A 
ATOM      6  C   UNL     1      59.097   9.422  37.927  1.00  0.00     0.072 A 
ATOM      7  C   UNL     1      58.997   8.034  38.131  1.00  0.00     0.169 A 
ATOM      8  C   UNL     1      59.998   7.342  38.840  1.00  0.00     0.162 A 
ATOM      9  C   UNL     1      61.142   8.022  39.323  1.00  0.00     0.008 A 
ATOM     10  C   UNL     1      60.421  11.525  38.140  1.00  0.00     0.132 A 
ATOM     11  C   UNL     1      61.451  12.242  38.782  1.00  0.00     0.031 A 
ENDROOT
BRANCH  11  12
ATOM     12  C   UNL     1      61.591  13.706  38.563  1.00  0.00     0.031 A 
ATOM     13  C   UNL     1      62.561  14.204  37.668  1.00  0.00     0.132 A 
ATOM     14  C   UNL     1      60.757  14.598  39.258  1.00  0.00    -0.039 A 
ATOM     15  C   UNL     1      62.733  15.610  37.499  1.00  0.00     0.039 A 
ATOM     16  C   UNL     1      60.833  15.966  38.986  1.00  0.00     0.013 A 
ATOM     17  C   UNL     1      59.738  14.098  40.254  1.00  0.00     0.045 C 
ATOM     18  C   UNL     1      61.764  16.489  38.063  1.00  0.00    -0.006 A 
ATOM     19  C   UNL     1      63.821  16.160  36.762  1.00  0.00     0.072 A 
ATOM     20  C   UNL     1      61.769  17.874  37.718  1.00  0.00     0.008 A 
ATOM     21  C   UNL     1      63.892  17.549  36.541  1.00  0.00     0.169 A 
ATOM     22  C   UNL     1      62.891  18.404  37.042  1.00  0.00     0.162 A 
BRANCH  13  23
ATOM     23  O   UNL     1      63.324  13.304  36.912  1.00  0.00    -0.507 OA
ATOM     24  H   UNL     1      64.271  13.035  37.145  1.00  0.00     0.293 HD
ENDBRANCH  13  23
BRANCH  19  25
ATOM     25  C   UNL     1      64.977  15.334  36.339  1.00  0.00     0.264 C 
ATOM     26  O   UNL     1      64.987  14.757  35.219  1.00  0.00    -0.298 OA
ENDBRANCH  19  25
BRANCH  20  27
ATOM     27  C   UNL     1      60.591  18.796  38.088  1.00  0.00     0.017 C 
ATOM     28  C   UNL     1      59.267  18.232  37.563  1.00  0.00     0.012 C 
ATOM     29  C   UNL     1      60.505  19.123  39.590  1.00  0.00     0.012 C 
ENDBRANCH  20  27
BRANCH  21  30
ATOM     30  O   UNL     1      64.983  18.051  35.819  1.00  0.00    -0.504 OA
ATOM     31  H   UNL     1      65.784  17.505  35.535  1.00  0.00     0.293 HD
ENDBRANCH  21  30
BRANCH  22  32
ATOM     32  O   UNL     1      63.009  19.792  36.921  1.00  0.00    -0.504 OA
ATOM     33  H   UNL     1      63.338  20.274  36.097  1.00  0.00     0.293 HD
ENDBRANCH  22  32
ENDBRANCH  11  12
BRANCH  10  34
ATOM     34  O   UNL     1      59.622  12.175  37.193  1.00  0.00    -0.507 OA
ATOM     35  H   UNL     1      58.829  12.756  37.430  1.00  0.00     0.293 HD
ENDBRANCH  10  34
BRANCH   9  36
ATOM     36  C   UNL     1      62.255   7.168  39.965  1.00  0.00     0.017 C 
ATOM     37  C   UNL     1      63.288   6.689  38.938  1.00  0.00     0.012 C 
ATOM     38  C   UNL     1      61.742   6.038  40.885  1.00  0.00     0.012 C 
ENDBRANCH   9  36
BRANCH   6  39
ATOM     39  C   UNL     1      57.939  10.110  37.306  1.00  0.00     0.264 C 
ATOM     40  O   UNL     1      57.875  10.275  36.058  1.00  0.00    -0.298 OA
ENDBRANCH   6  39
BRANCH   8  41
ATOM     41  O   UNL     1      59.867   5.974  39.112  1.00  0.00    -0.504 OA
ATOM     42  H   UNL     1      60.601   5.290  39.013  1.00  0.00     0.293 HD
ENDBRANCH   8  41
BRANCH   7  43
ATOM     43  O   UNL     1      57.875   7.369  37.618  1.00  0.00    -0.504 OA
ATOM     44  H   UNL     1      56.918   7.600  37.834  1.00  0.00     0.293 HD
ENDBRANCH   7  43
TORSDOF 11
ENDMDL
MODEL 5
REMARK VINA RESULT:    -5.231      1.494      1.776
REMARK INTER + INTRA:          -8.608
REMARK INTER:                  -9.414
REMARK INTRA:                   0.806
REMARK UNBOUND:                -0.931
REMARK SMILES Cc1cc2c(C(C)C)c(O)c(O)c(C=O)c2c(O)c1-c1c(C)cc2c(C(C)C)c(O)c(O)c(C=O)c2c1O
REMARK SMILES IDX 1 1 2 2 3 3 4 4 16 5 13 6 11 7 9 8 5 9 17 10 19 11 20 12
REMARK SMILES IDX 37 13 21 14 36 15 23 16 22 17 24 18 33 19 25 20 31 21 29 22
REMARK SMILES IDX 38 23 34 25 35 26 26 27 27 28 28 29 32 30 30 32 18 34 6 36
REMARK SMILES IDX 7 37 8 38 14 39 15 40 10 41 12 43
REMARK H PARENT 38 24 32 31 30 33 18 35 10 42 12 44
REMARK Flexibility Score: inf
ROOT
ATOM      1  C   UNL     1      58.853  11.869  40.918  1.00  0.00     0.045 C 
ATOM      2  C   UNL     1      59.986  12.603  40.243  1.00  0.00    -0.039 A 
ATOM      3  C   UNL     1      60.131  13.977  40.445  1.00  0.00     0.013 A 
ATOM      4  C   UNL     1      61.172  14.717  39.848  1.00  0.00    -0.006 A 
ATOM      5  C   UNL     1      62.157  14.013  39.092  1.00  0.00     0.039 A 
ATOM      6  C   UNL     1      63.314  14.711  38.642  1.00  0.00     0.072 A 
ATOM      7  C   UNL     1      63.441  16.093  38.871  1.00  0.00     0.169 A 
ATOM      8  C   UNL     1      62.437  16.797  39.564  1.00  0.00     0.162 A 
ATOM      9  C   UNL     1      61.265  16.137  40.004  1.00  0.00     0.008 A 
ATOM     10  C   UNL     1      61.937  12.637  38.785  1.00  0.00     0.132 A 
ATOM     11  C   UNL     1      60.873  11.934  39.387  1.00  0.00     0.031 A 
ENDROOT
BRANCH  11  12
ATOM     12  C   UNL     1      60.706  10.477  39.141  1.00  0.00     0.031 A 
ATOM     13  C   UNL     1      61.657   9.557  39.631  1.00  0.00     0.132 A 
ATOM     14  C   UNL     1      59.599  10.016  38.409  1.00  0.00    -0.039 A 
ATOM     15  C   UNL     1      61.526   8.165  39.348  1.00  0.00     0.039 A 
ATOM     16  C   UNL     1      59.399   8.643  38.253  1.00  0.00     0.013 A 
ATOM     17  C   UNL     1      58.587  10.980  37.836  1.00  0.00     0.045 C 
ATOM     18  C   UNL     1      60.310   7.696  38.771  1.00  0.00    -0.006 A 
ATOM     19  C   UNL     1      62.555   7.227  39.650  1.00  0.00     0.072 A 
ATOM     20  C   UNL     1      60.049   6.296  38.693  1.00  0.00     0.008 A 
ATOM     21  C   UNL     1      62.338   5.851  39.442  1.00  0.00     0.169 A 
ATOM     22  C   UNL     1      61.106   5.391  38.937  1.00  0.00     0.162 A 
BRANCH  13  23
ATOM     23  O   UNL     1      62.706  10.017  40.436  1.00  0.00    -0.507 OA
ATOM     24  H   UNL     1      63.582  10.370  40.073  1.00  0.00     0.293 HD
ENDBRANCH  13  23
BRANCH  19  25
ATOM     25  C   UNL     1      63.917   7.659  40.041  1.00  0.00     0.264 C 
ATOM     26  O   UNL     1      64.936   7.213  39.449  1.00  0.00    -0.298 OA
ENDBRANCH  19  25
BRANCH  20  27
ATOM     27  C   UNL     1      58.651   5.760  38.328  1.00  0.00     0.017 C 
ATOM     28  C   UNL     1      58.716   4.845  37.101  1.00  0.00     0.012 C 
ATOM     29  C   UNL     1      57.922   5.076  39.500  1.00  0.00     0.012 C 
ENDBRANCH  20  27
BRANCH  21  30
ATOM     30  O   UNL     1      63.379   4.963  39.744  1.00  0.00    -0.504 OA
ATOM     31  H   UNL     1      63.788   4.313  39.087  1.00  0.00     0.293 HD
ENDBRANCH  21  30
BRANCH  22  32
ATOM     32  O   UNL     1      60.921   4.040  38.626  1.00  0.00    -0.504 OA
ATOM     33  H   UNL     1      61.659   3.396  38.385  1.00  0.00     0.293 HD
ENDBRANCH  22  32
ENDBRANCH  11  12
BRANCH  10  34
ATOM     34  O   UNL     1      62.746  11.983  37.850  1.00  0.00    -0.507 OA
ATOM     35  H   UNL     1      63.042  11.019  37.938  1.00  0.00     0.293 HD
ENDBRANCH  10  34
BRANCH   9  36
ATOM     36  C   UNL     1      60.154  17.007  40.630  1.00  0.00     0.017 C 
ATOM     37  C   UNL     1      58.964  16.171  41.116  1.00  0.00     0.012 C 
ATOM     38  C   UNL     1      59.735  18.220  39.773  1.00  0.00     0.012 C 
ENDBRANCH   9  36
BRANCH   6  39
ATOM     39  C   UNL     1      64.473  14.006  38.041  1.00  0.00     0.264 C 
ATOM     40  O   UNL     1      64.868  14.281  36.876  1.00  0.00    -0.298 OA
ENDBRANCH   6  39
BRANCH   8  41
ATOM     41  O   UNL     1      62.592  18.157  39.861  1.00  0.00    -0.504 OA
ATOM     42  H   UNL     1      63.311  18.755  39.484  1.00  0.00     0.293 HD
ENDBRANCH   8  41
BRANCH   7  43
ATOM     43  O   UNL     1      64.591  16.739  38.399  1.00  0.00    -0.504 OA
ATOM     44  H   UNL     1      65.452  16.837  38.916  1.00  0.00     0.293 HD
ENDBRANCH   7  43
TORSDOF 11
ENDMDL
MODEL 6
REMARK VINA RESULT:    -3.949      2.359      4.231
REMARK INTER + INTRA:          -6.726
REMARK INTER:                  -6.033
REMARK INTRA:                  -0.693
REMARK UNBOUND:                -0.931
REMARK SMILES Cc1cc2c(C(C)C)c(O)c(O)c(C=O)c2c(O)c1-c1c(C)cc2c(C(C)C)c(O)c(O)c(C=O)c2c1O
REMARK SMILES IDX 1 1 2 2 3 3 4 4 16 5 13 6 11 7 9 8 5 9 17 10 19 11 20 12
REMARK SMILES IDX 37 13 21 14 36 15 23 16 22 17 24 18 33 19 25 20 31 21 29 22
REMARK SMILES IDX 38 23 34 25 35 26 26 27 27 28 28 29 32 30 30 32 18 34 6 36
REMARK SMILES IDX 7 37 8 38 14 39 15 40 10 41 12 43
REMARK H PARENT 38 24 32 31 30 33 18 35 10 42 12 44
REMARK Flexibility Score: inf
ROOT
ATOM      1  C   UNL     1      63.502  13.322  37.410  1.00  0.00     0.045 C 
ATOM      2  C   UNL     1      62.584  14.174  38.252  1.00  0.00    -0.039 A 
ATOM      3  C   UNL     1      62.720  15.563  38.226  1.00  0.00     0.013 A 
ATOM      4  C   UNL     1      61.889  16.413  38.985  1.00  0.00    -0.006 A 
ATOM      5  C   UNL     1      60.818  15.829  39.725  1.00  0.00     0.039 A 
ATOM      6  C   UNL     1      59.857  16.680  40.342  1.00  0.00     0.072 A 
ATOM      7  C   UNL     1      60.012  18.077  40.290  1.00  0.00     0.169 A 
ATOM      8  C   UNL     1      61.106  18.649  39.611  1.00  0.00     0.162 A 
ATOM      9  C   UNL     1      62.090  17.830  39.007  1.00  0.00     0.008 A 
ATOM     10  C   UNL     1      60.759  14.408  39.849  1.00  0.00     0.132 A 
ATOM     11  C   UNL     1      61.620  13.590  39.088  1.00  0.00     0.031 A 
ENDROOT
BRANCH  11  12
ATOM     12  C   UNL     1      61.490  12.110  39.145  1.00  0.00     0.031 A 
ATOM     13  C   UNL     1      60.476  11.455  38.415  1.00  0.00     0.132 A 
ATOM     14  C   UNL     1      62.376  11.363  39.938  1.00  0.00    -0.039 A 
ATOM     15  C   UNL     1      60.316  10.041  38.513  1.00  0.00     0.039 A 
ATOM     16  C   UNL     1      62.305   9.968  39.923  1.00  0.00     0.013 A 
ATOM     17  C   UNL     1      63.444  12.040  40.764  1.00  0.00     0.045 C 
ATOM     18  C   UNL     1      61.330   9.282  39.167  1.00  0.00    -0.006 A 
ATOM     19  C   UNL     1      59.196   9.361  37.955  1.00  0.00     0.072 A 
ATOM     20  C   UNL     1      61.326   7.858  39.079  1.00  0.00     0.008 A 
ATOM     21  C   UNL     1      59.133   7.954  37.993  1.00  0.00     0.169 A 
ATOM     22  C   UNL     1      60.175   7.209  38.579  1.00  0.00     0.162 A 
BRANCH  13  23
ATOM     23  O   UNL     1      59.657  12.199  37.557  1.00  0.00    -0.507 OA
ATOM     24  H   UNL     1      59.290  13.115  37.782  1.00  0.00     0.293 HD
ENDBRANCH  13  23
BRANCH  19  25
ATOM     25  C   UNL     1      58.005  10.091  37.460  1.00  0.00     0.264 C 
ATOM     26  O   UNL     1      57.875  10.371  36.238  1.00  0.00    -0.298 OA
ENDBRANCH  19  25
BRANCH  20  27
ATOM     27  C   UNL     1      62.538   7.023  39.537  1.00  0.00     0.017 C 
ATOM     28  C   UNL     1      62.122   5.978  40.578  1.00  0.00     0.012 C 
ATOM     29  C   UNL     1      63.324   6.379  38.379  1.00  0.00     0.012 C 
ENDBRANCH  20  27
BRANCH  21  30
ATOM     30  O   UNL     1      58.010   7.325  37.440  1.00  0.00    -0.504 OA
ATOM     31  H   UNL     1      57.992   6.373  37.104  1.00  0.00     0.293 HD
ENDBRANCH  21  30
BRANCH  22  32
ATOM     32  O   UNL     1      60.071   5.821  38.717  1.00  0.00    -0.504 OA
ATOM     33  H   UNL     1      60.787   5.224  39.102  1.00  0.00     0.293 HD
ENDBRANCH  22  32
ENDBRANCH  11  12
BRANCH  10  34
ATOM     34  O   UNL     1      59.879  13.813  40.758  1.00  0.00    -0.507 OA
ATOM     35  H   UNL     1      59.840  12.817  40.936  1.00  0.00     0.293 HD
ENDBRANCH  10  34
BRANCH   9  36
ATOM     36  C   UNL     1      63.325  18.532  38.406  1.00  0.00     0.017 C 
ATOM     37  C   UNL     1      63.251  18.635  36.877  1.00  0.00     0.012 C 
ATOM     38  C   UNL     1      64.678  17.989  38.913  1.00  0.00     0.012 C 
ENDBRANCH   9  36
BRANCH   6  39
ATOM     39  C   UNL     1      58.608  16.150  40.942  1.00  0.00     0.264 C 
ATOM     40  O   UNL     1      57.875  15.344  40.308  1.00  0.00    -0.298 OA
ENDBRANCH   6  39
BRANCH   8  41
ATOM     41  O   UNL     1      61.225  20.040  39.490  1.00  0.00    -0.504 OA
ATOM     42  H   UNL     1      61.674  20.519  38.725  1.00  0.00     0.293 HD
ENDBRANCH   8  41
BRANCH   7  43
ATOM     43  O   UNL     1      59.048  18.874  40.921  1.00  0.00    -0.504 OA
ATOM     44  H   UNL     1      59.153  19.856  41.124  1.00  0.00     0.293 HD
ENDBRANCH   7  43
TORSDOF 11
ENDMDL
MODEL 7
REMARK VINA RESULT:    -3.707      7.215     10.131
REMARK INTER + INTRA:          -6.371
REMARK INTER:                  -5.521
REMARK INTRA:                  -0.850
REMARK UNBOUND:                -0.931
REMARK SMILES Cc1cc2c(C(C)C)c(O)c(O)c(C=O)c2c(O)c1-c1c(C)cc2c(C(C)C)c(O)c(O)c(C=O)c2c1O
REMARK SMILES IDX 1 1 2 2 3 3 4 4 16 5 13 6 11 7 9 8 5 9 17 10 19 11 20 12
REMARK SMILES IDX 37 13 21 14 36 15 23 16 22 17 24 18 33 19 25 20 31 21 29 22
REMARK SMILES IDX 38 23 34 25 35 26 26 27 27 28 28 29 32 30 30 32 18 34 6 36
REMARK SMILES IDX 7 37 8 38 14 39 15 40 10 41 12 43
REMARK H PARENT 38 24 32 31 30 33 18 35 10 42 12 44
REMARK Flexibility Score: inf
ROOT
ATOM      1  C   UNL     1      69.674   3.875  35.061  1.00  0.00     0.045 C 
ATOM      2  C   UNL     1      69.748   5.310  34.603  1.00  0.00    -0.039 A 
ATOM      3  C   UNL     1      70.900   5.770  33.963  1.00  0.00     0.013 A 
ATOM      4  C   UNL     1      71.027   7.097  33.505  1.00  0.00    -0.006 A 
ATOM      5  C   UNL     1      69.899   7.964  33.620  1.00  0.00     0.039 A 
ATOM      6  C   UNL     1      69.942   9.244  32.998  1.00  0.00     0.072 A 
ATOM      7  C   UNL     1      71.112   9.676  32.348  1.00  0.00     0.169 A 
ATOM      8  C   UNL     1      72.246   8.841  32.289  1.00  0.00     0.162 A 
ATOM      9  C   UNL     1      72.242   7.573  32.919  1.00  0.00     0.008 A 
ATOM     10  C   UNL     1      68.772   7.532  34.384  1.00  0.00     0.132 A 
ATOM     11  C   UNL     1      68.690   6.201  34.841  1.00  0.00     0.031 A 
ENDROOT
BRANCH  11  12
ATOM     12  C   UNL     1      67.471   5.729  35.551  1.00  0.00     0.031 A 
ATOM     13  C   UNL     1      67.435   5.699  36.961  1.00  0.00     0.132 A 
ATOM     14  C   UNL     1      66.355   5.302  34.813  1.00  0.00    -0.039 A 
ATOM     15  C   UNL     1      66.287   5.195  37.642  1.00  0.00     0.039 A 
ATOM     16  C   UNL     1      65.184   4.940  35.482  1.00  0.00     0.013 A 
ATOM     17  C   UNL     1      66.381   5.282  33.303  1.00  0.00     0.045 C 
ATOM     18  C   UNL     1      65.102   4.944  36.891  1.00  0.00    -0.006 A 
ATOM     19  C   UNL     1      66.277   4.963  39.047  1.00  0.00     0.072 A 
ATOM     20  C   UNL     1      63.874   4.668  37.563  1.00  0.00     0.008 A 
ATOM     21  C   UNL     1      65.089   4.558  39.687  1.00  0.00     0.169 A 
ATOM     22  C   UNL     1      63.904   4.380  38.946  1.00  0.00     0.162 A 
BRANCH  13  23
ATOM     23  O   UNL     1      68.516   6.213  37.687  1.00  0.00    -0.507 OA
ATOM     24  H   UNL     1      69.030   5.685  38.381  1.00  0.00     0.293 HD
ENDBRANCH  13  23
BRANCH  19  25
ATOM     25  C   UNL     1      67.520   4.988  39.854  1.00  0.00     0.264 C 
ATOM     26  O   UNL     1      67.787   5.964  40.606  1.00  0.00    -0.298 OA
ENDBRANCH  19  25
BRANCH  20  27
ATOM     27  C   UNL     1      62.532   4.658  36.808  1.00  0.00     0.017 C 
ATOM     28  C   UNL     1      61.946   6.070  36.710  1.00  0.00     0.012 C 
ATOM     29  C   UNL     1      62.601   3.983  35.425  1.00  0.00     0.012 C 
ENDBRANCH  20  27
BRANCH  21  30
ATOM     30  O   UNL     1      65.124   4.332  41.069  1.00  0.00    -0.504 OA
ATOM     31  H   UNL     1      65.949   4.061  41.587  1.00  0.00     0.293 HD
ENDBRANCH  21  30
BRANCH  22  32
ATOM     32  O   UNL     1      62.750   3.875  39.554  1.00  0.00    -0.504 OA
ATOM     33  H   UNL     1      62.738   3.164  40.269  1.00  0.00     0.293 HD
ENDBRANCH  22  32
ENDBRANCH  11  12
BRANCH  10  34
ATOM     34  O   UNL     1      67.760   8.436  34.724  1.00  0.00    -0.507 OA
ATOM     35  H   UNL     1      66.917   8.568  34.181  1.00  0.00     0.293 HD
ENDBRANCH  10  34
BRANCH   9  36
ATOM     36  C   UNL     1      73.568   6.783  32.928  1.00  0.00     0.017 C 
ATOM     37  C   UNL     1      73.783   5.992  31.631  1.00  0.00     0.012 C 
ATOM     38  C   UNL     1      73.800   5.940  34.200  1.00  0.00     0.012 C 
ENDBRANCH   9  36
BRANCH   6  39
ATOM     39  C   UNL     1      68.740  10.107  32.892  1.00  0.00     0.264 C 
ATOM     40  O   UNL     1      68.778  11.318  33.240  1.00  0.00    -0.298 OA
ENDBRANCH   6  39
BRANCH   8  41
ATOM     41  O   UNL     1      73.388   9.235  31.580  1.00  0.00    -0.504 OA
ATOM     42  H   UNL     1      73.895   8.654  30.929  1.00  0.00     0.293 HD
ENDBRANCH   8  41
BRANCH   7  43
ATOM     43  O   UNL     1      71.111  10.947  31.759  1.00  0.00    -0.504 OA
ATOM     44  H   UNL     1      71.058  11.125  30.768  1.00  0.00     0.293 HD
ENDBRANCH   7  43
TORSDOF 11
ENDMDL
