MODEL 1
REMARK VINA RESULT:    -2.730      0.000      0.000
REMARK INTER + INTRA:          -4.400
REMARK INTER:                  -3.687
REMARK INTRA:                  -0.713
REMARK UNBOUND:                -0.713
REMARK SMILES CCCCCCC=CC(=O)[O-]
REMARK SMILES IDX 5 1 6 2 7 3 8 4 9 5 10 6 11 7 4 8 3 9 2 10 1 11
REMARK H PARENT
REMARK Flexibility Score: inf
ROOT
ATOM      1  C   UNL     1     121.951 123.827 122.089  1.00  0.00     0.004 C 
ENDROOT
BRANCH   1   2
ATOM      2  C   UNL     1     120.886 124.855 122.494  1.00  0.00     0.027 C 
BRANCH   2   3
ATOM      3  C   UNL     1     120.936 125.138 123.968  1.00  0.00    -0.025 C 
ATOM      4  C   UNL     1     121.948 125.820 124.514  1.00  0.00     0.020 C 
BRANCH   4   5
ATOM      5  C   UNL     1     122.024 126.097 125.958  1.00  0.00     0.064 C 
ATOM      6  O   UNL     1     120.981 126.178 126.661  1.00  0.00    -0.545 OA
ATOM      7  O   UNL     1     123.265 126.272 126.555  1.00  0.00    -0.545 OA
ENDBRANCH   4   5
ENDBRANCH   2   3
ENDBRANCH   1   2
BRANCH   1   8
ATOM      8  C   UNL     1     121.483 122.400 122.394  1.00  0.00     0.000 C 
BRANCH   8   9
ATOM      9  C   UNL     1     122.341 121.764 123.497  1.00  0.00    -0.000 C 
BRANCH   9  10
ATOM     10  C   UNL     1     123.756 122.359 123.562  1.00  0.00    -0.003 C 
ATOM     11  C   UNL     1     124.157 122.780 124.975  1.00  0.00     0.004 C 
ENDBRANCH   9  10
ENDBRANCH   8   9
ENDBRANCH   1   8
TORSDOF 6
ENDMDL
MODEL 2
REMARK VINA RESULT:    -2.658      1.731      2.194
REMARK INTER + INTRA:          -4.303
REMARK INTER:                  -3.876
REMARK INTRA:                  -0.427
REMARK UNBOUND:                -0.713
REMARK SMILES CCCCCCC=CC(=O)[O-]
REMARK SMILES IDX 5 1 6 2 7 3 8 4 9 5 10 6 11 7 4 8 3 9 2 10 1 11
REMARK H PARENT
REMARK Flexibility Score: inf
ROOT
ATOM      1  C   UNL     1     121.249 122.965 123.561  1.00  0.00     0.004 C 
ENDROOT
BRANCH   1   2
ATOM      2  C   UNL     1     121.248 123.949 122.384  1.00  0.00     0.027 C 
BRANCH   2   3
ATOM      3  C   UNL     1     121.305 125.371 122.864  1.00  0.00    -0.025 C 
ATOM      4  C   UNL     1     121.519 125.666 124.151  1.00  0.00     0.020 C 
BRANCH   4   5
ATOM      5  C   UNL     1     121.564 127.052 124.645  1.00  0.00     0.064 C 
ATOM      6  O   UNL     1     121.549 127.304 125.880  1.00  0.00    -0.545 OA
ATOM      7  O   UNL     1     121.625 128.099 123.735  1.00  0.00    -0.545 OA
ENDBRANCH   4   5
ENDBRANCH   2   3
ENDBRANCH   1   2
BRANCH   1   8
ATOM      8  C   UNL     1     121.945 121.653 123.181  1.00  0.00     0.000 C 
BRANCH   8   9
ATOM      9  C   UNL     1     121.653 121.279 121.719  1.00  0.00    -0.000 C 
BRANCH   9  10
ATOM     10  C   UNL     1     122.929 120.963 120.924  1.00  0.00    -0.003 C 
ATOM     11  C   UNL     1     124.205 121.284 121.702  1.00  0.00     0.004 C 
ENDBRANCH   9  10
ENDBRANCH   8   9
ENDBRANCH   1   8
TORSDOF 6
ENDMDL
MODEL 3
REMARK VINA RESULT:    -2.597     22.007     23.406
REMARK INTER + INTRA:          -4.221
REMARK INTER:                  -3.580
REMARK INTRA:                  -0.641
REMARK UNBOUND:                -0.713
REMARK SMILES CCCCCCC=CC(=O)[O-]
REMARK SMILES IDX 5 1 6 2 7 3 8 4 9 5 10 6 11 7 4 8 3 9 2 10 1 11
REMARK H PARENT
REMARK Flexibility Score: inf
ROOT
ATOM      1  C   UNL     1     139.692 124.989 140.498  1.00  0.00     0.004 C 
ENDROOT
BRANCH   1   2
ATOM      2  C   UNL     1     141.121 125.259 140.010  1.00  0.00     0.027 C 
BRANCH   2   3
ATOM      3  C   UNL     1     141.125 126.172 138.817  1.00  0.00    -0.025 C 
ATOM      4  C   UNL     1     140.748 125.742 137.608  1.00  0.00     0.020 C 
BRANCH   4   5
ATOM      5  C   UNL     1     140.758 126.615 136.423  1.00  0.00     0.064 C 
ATOM      6  O   UNL     1     141.011 127.846 136.522  1.00  0.00    -0.545 OA
ATOM      7  O   UNL     1     140.484 126.073 135.174  1.00  0.00    -0.545 OA
ENDBRANCH   4   5
ENDBRANCH   2   3
ENDBRANCH   1   2
BRANCH   1   8
ATOM      8  C   UNL     1     139.415 123.484 140.582  1.00  0.00     0.000 C 
BRANCH   8   9
ATOM      9  C   UNL     1     140.631 122.674 140.108  1.00  0.00    -0.000 C 
BRANCH   9  10
ATOM     10  C   UNL     1     140.362 121.919 138.797  1.00  0.00    -0.003 C 
ATOM     11  C   UNL     1     139.051 122.334 138.133  1.00  0.00     0.004 C 
ENDBRANCH   9  10
ENDBRANCH   8   9
ENDBRANCH   1   8
TORSDOF 6
ENDMDL
MODEL 4
REMARK VINA RESULT:    -2.559      1.671      1.998
REMARK INTER + INTRA:          -4.169
REMARK INTER:                  -3.518
REMARK INTRA:                  -0.652
REMARK UNBOUND:                -0.713
REMARK SMILES CCCCCCC=CC(=O)[O-]
REMARK SMILES IDX 5 1 6 2 7 3 8 4 9 5 10 6 11 7 4 8 3 9 2 10 1 11
REMARK H PARENT
REMARK Flexibility Score: inf
ROOT
ATOM      1  C   UNL     1     121.222 123.929 122.402  1.00  0.00     0.004 C 
ENDROOT
BRANCH   1   2
ATOM      2  C   UNL     1     120.875 124.287 123.853  1.00  0.00     0.027 C 
BRANCH   2   3
ATOM      3  C   UNL     1     121.264 125.703 124.171  1.00  0.00    -0.025 C 
ATOM      4  C   UNL     1     122.332 126.278 123.607  1.00  0.00     0.020 C 
BRANCH   4   5
ATOM      5  C   UNL     1     122.739 127.658 123.916  1.00  0.00     0.064 C 
ATOM      6  O   UNL     1     123.832 128.124 123.497  1.00  0.00    -0.545 OA
ATOM      7  O   UNL     1     121.903 128.461 124.681  1.00  0.00    -0.545 OA
ENDBRANCH   4   5
ENDBRANCH   2   3
ENDBRANCH   1   2
BRANCH   1   8
ATOM      8  C   UNL     1     121.620 122.454 122.280  1.00  0.00     0.000 C 
BRANCH   8   9
ATOM      9  C   UNL     1     122.348 121.975 123.545  1.00  0.00    -0.000 C 
BRANCH   9  10
ATOM     10  C   UNL     1     123.854 122.282 123.511  1.00  0.00    -0.003 C 
ATOM     11  C   UNL     1     124.332 123.032 124.753  1.00  0.00     0.004 C 
ENDBRANCH   9  10
ENDBRANCH   8   9
ENDBRANCH   1   8
TORSDOF 6
ENDMDL
MODEL 5
REMARK VINA RESULT:    -2.526      1.670      2.204
REMARK INTER + INTRA:          -4.125
REMARK INTER:                  -3.645
REMARK INTRA:                  -0.480
REMARK UNBOUND:                -0.713
REMARK SMILES CCCCCCC=CC(=O)[O-]
REMARK SMILES IDX 5 1 6 2 7 3 8 4 9 5 10 6 11 7 4 8 3 9 2 10 1 11
REMARK H PARENT
REMARK Flexibility Score: inf
ROOT
ATOM      1  C   UNL     1     122.376 124.872 121.709  1.00  0.00     0.004 C 
ENDROOT
BRANCH   1   2
ATOM      2  C   UNL     1     121.013 124.984 122.404  1.00  0.00     0.027 C 
BRANCH   2   3
ATOM      3  C   UNL     1     120.875 126.295 123.125  1.00  0.00    -0.025 C 
ATOM      4  C   UNL     1     121.673 126.616 124.149  1.00  0.00     0.020 C 
BRANCH   4   5
ATOM      5  C   UNL     1     121.546 127.888 124.878  1.00  0.00     0.064 C 
ATOM      6  O   UNL     1     120.924 128.865 124.380  1.00  0.00    -0.545 OA
ATOM      7  O   UNL     1     122.121 128.014 126.136  1.00  0.00    -0.545 OA
ENDBRANCH   4   5
ENDBRANCH   2   3
ENDBRANCH   1   2
BRANCH   1   8
ATOM      8  C   UNL     1     123.085 123.570 122.097  1.00  0.00     0.000 C 
BRANCH   8   9
ATOM      9  C   UNL     1     122.575 123.046 123.447  1.00  0.00    -0.000 C 
BRANCH   9  10
ATOM     10  C   UNL     1     122.000 121.624 123.350  1.00  0.00    -0.003 C 
ATOM     11  C   UNL     1     121.623 121.235 121.922  1.00  0.00     0.004 C 
ENDBRANCH   9  10
ENDBRANCH   8   9
ENDBRANCH   1   8
TORSDOF 6
ENDMDL
MODEL 6
REMARK VINA RESULT:    -2.493      2.647      3.234
REMARK INTER + INTRA:          -4.081
REMARK INTER:                  -3.758
REMARK INTRA:                  -0.323
REMARK UNBOUND:                -0.713
REMARK SMILES CCCCCCC=CC(=O)[O-]
REMARK SMILES IDX 5 1 6 2 7 3 8 4 9 5 10 6 11 7 4 8 3 9 2 10 1 11
REMARK H PARENT
REMARK Flexibility Score: inf
ROOT
ATOM      1  C   UNL     1     121.048 125.424 122.739  1.00  0.00     0.004 C 
ENDROOT
BRANCH   1   2
ATOM      2  C   UNL     1     121.284 125.687 124.232  1.00  0.00     0.027 C 
BRANCH   2   3
ATOM      3  C   UNL     1     121.644 127.124 124.481  1.00  0.00    -0.025 C 
ATOM      4  C   UNL     1     121.295 128.090 123.625  1.00  0.00     0.020 C 
BRANCH   4   5
ATOM      5  C   UNL     1     121.650 129.502 123.843  1.00  0.00     0.064 C 
ATOM      6  O   UNL     1     122.272 129.866 124.876  1.00  0.00    -0.545 OA
ATOM      7  O   UNL     1     121.293 130.449 122.892  1.00  0.00    -0.545 OA
ENDBRANCH   4   5
ENDBRANCH   2   3
ENDBRANCH   1   2
BRANCH   1   8
ATOM      8  C   UNL     1     121.156 123.929 122.420  1.00  0.00     0.000 C 
BRANCH   8   9
ATOM      9  C   UNL     1     121.925 123.186 123.523  1.00  0.00    -0.000 C 
BRANCH   9  10
ATOM     10  C   UNL     1     121.922 121.663 123.321  1.00  0.00    -0.003 C 
ATOM     11  C   UNL     1     121.626 121.258 121.877  1.00  0.00     0.004 C 
ENDBRANCH   9  10
ENDBRANCH   8   9
ENDBRANCH   1   8
TORSDOF 6
ENDMDL
MODEL 7
REMARK VINA RESULT:    -2.489      3.471      4.755
REMARK INTER + INTRA:          -4.075
REMARK INTER:                  -3.468
REMARK INTRA:                  -0.608
REMARK UNBOUND:                -0.713
REMARK SMILES CCCCCCC=CC(=O)[O-]
REMARK SMILES IDX 5 1 6 2 7 3 8 4 9 5 10 6 11 7 4 8 3 9 2 10 1 11
REMARK H PARENT
REMARK Flexibility Score: inf
ROOT
ATOM      1  C   UNL     1     122.064 125.609 124.370  1.00  0.00     0.004 C 
ENDROOT
BRANCH   1   2
ATOM      2  C   UNL     1     120.875 124.696 124.045  1.00  0.00     0.027 C 
BRANCH   2   3
ATOM      3  C   UNL     1     121.228 123.702 122.976  1.00  0.00    -0.025 C 
ATOM      4  C   UNL     1     121.914 122.588 123.256  1.00  0.00     0.020 C 
BRANCH   4   5
ATOM      5  C   UNL     1     122.282 121.609 122.221  1.00  0.00     0.064 C 
ATOM      6  O   UNL     1     123.490 121.344 121.975  1.00  0.00    -0.545 OA
ATOM      7  O   UNL     1     121.283 120.964 121.504  1.00  0.00    -0.545 OA
ENDBRANCH   4   5
ENDBRANCH   2   3
ENDBRANCH   1   2
BRANCH   1   8
ATOM      8  C   UNL     1     122.635 126.243 123.097  1.00  0.00     0.000 C 
BRANCH   8   9
ATOM      9  C   UNL     1     124.168 126.310 123.155  1.00  0.00    -0.000 C 
BRANCH   9  10
ATOM     10  C   UNL     1     124.825 125.980 121.805  1.00  0.00    -0.003 C 
ATOM     11  C   UNL     1     123.984 125.030 120.955  1.00  0.00     0.004 C 
ENDBRANCH   9  10
ENDBRANCH   8   9
ENDBRANCH   1   8
TORSDOF 6
ENDMDL
MODEL 8
REMARK VINA RESULT:    -2.486      1.651      2.359
REMARK INTER + INTRA:          -4.071
REMARK INTER:                  -3.383
REMARK INTRA:                  -0.688
REMARK UNBOUND:                -0.713
REMARK SMILES CCCCCCC=CC(=O)[O-]
REMARK SMILES IDX 5 1 6 2 7 3 8 4 9 5 10 6 11 7 4 8 3 9 2 10 1 11
REMARK H PARENT
REMARK Flexibility Score: inf
ROOT
ATOM      1  C   UNL     1     122.260 122.074 123.506  1.00  0.00     0.004 C 
ENDROOT
BRANCH   1   2
ATOM      2  C   UNL     1     121.184 122.876 122.763  1.00  0.00     0.027 C 
BRANCH   2   3
ATOM      3  C   UNL     1     120.877 124.163 123.474  1.00  0.00    -0.025 C 
ATOM      4  C   UNL     1     121.818 124.827 124.154  1.00  0.00     0.020 C 
BRANCH   4   5
ATOM      5  C   UNL     1     121.536 126.082 124.870  1.00  0.00     0.064 C 
ATOM      6  O   UNL     1     121.268 127.143 124.244  1.00  0.00    -0.545 OA
ATOM      7  O   UNL     1     121.564 126.097 126.258  1.00  0.00    -0.545 OA
ENDBRANCH   4   5
ENDBRANCH   2   3
ENDBRANCH   1   2
BRANCH   1   8
ATOM      8  C   UNL     1     123.383 121.647 122.555  1.00  0.00     0.000 C 
BRANCH   8   9
ATOM      9  C   UNL     1     123.225 122.318 121.182  1.00  0.00    -0.000 C 
BRANCH   9  10
ATOM     10  C   UNL     1     124.359 123.310 120.876  1.00  0.00    -0.003 C 
ATOM     11  C   UNL     1     123.939 124.766 121.072  1.00  0.00     0.004 C 
ENDBRANCH   9  10
ENDBRANCH   8   9
ENDBRANCH   1   8
TORSDOF 6
ENDMDL
MODEL 9
REMARK VINA RESULT:    -2.475      7.400      8.954
REMARK INTER + INTRA:          -4.056
REMARK INTER:                  -3.330
REMARK INTRA:                  -0.726
REMARK UNBOUND:                -0.713
REMARK SMILES CCCCCCC=CC(=O)[O-]
REMARK SMILES IDX 5 1 6 2 7 3 8 4 9 5 10 6 11 7 4 8 3 9 2 10 1 11
REMARK H PARENT
REMARK Flexibility Score: inf
ROOT
ATOM      1  C   UNL     1     121.604 126.056 130.952  1.00  0.00     0.004 C 
ENDROOT
BRANCH   1   2
ATOM      2  C   UNL     1     120.875 126.099 132.301  1.00  0.00     0.027 C 
BRANCH   2   3
ATOM      3  C   UNL     1     121.827 125.872 133.441  1.00  0.00    -0.025 C 
ATOM      4  C   UNL     1     121.630 124.893 134.331  1.00  0.00     0.020 C 
BRANCH   4   5
ATOM      5  C   UNL     1     122.542 124.662 135.463  1.00  0.00     0.064 C 
ATOM      6  O   UNL     1     123.583 123.963 135.329  1.00  0.00    -0.545 OA
ATOM      7  O   UNL     1     122.252 125.223 136.699  1.00  0.00    -0.545 OA
ENDBRANCH   4   5
ENDBRANCH   2   3
ENDBRANCH   1   2
BRANCH   1   8
ATOM      8  C   UNL     1     121.586 124.641 130.363  1.00  0.00     0.000 C 
BRANCH   8   9
ATOM      9  C   UNL     1     123.009 124.170 130.024  1.00  0.00    -0.000 C 
BRANCH   9  10
ATOM     10  C   UNL     1     123.764 123.642 131.254  1.00  0.00    -0.003 C 
ATOM     11  C   UNL     1     123.066 122.454 131.912  1.00  0.00     0.004 C 
ENDBRANCH   9  10
ENDBRANCH   8   9
ENDBRANCH   1   8
TORSDOF 6
ENDMDL
