MODEL 1
REMARK VINA RESULT:    -4.963      0.000      0.000
REMARK INTER + INTRA:          -8.291
REMARK INTER:                  -6.849
REMARK INTRA:                  -1.442
REMARK UNBOUND:                -1.442
REMARK SMILES C[C@H]1OC(=O)[C@H](C)[C@@H]1C[C@H](O)[C@](C)(O)[C@H]1CC[C@]2(O)C3=CC(=O)[C@@H]4C[C@@H](O)[C@H](O)C[C@]4(C)[C@@H]3CC[C@]12C
REMARK SMILES IDX 12 1 13 2 10 3 9 4 8 5 7 6 6 7 4 8 2 9 3 10 5 11 1 12 11 13
REMARK SMILES IDX 15 15 16 16 36 17 17 18 18 19 35 20 37 21 20 22 34 23 33 24
REMARK SMILES IDX 21 25 31 26 22 27 24 28 30 29 32 30 23 31 25 32 28 33 26 34
REMARK SMILES IDX 19 35 29 37 27 39 14 41
REMARK H PARENT 11 14 19 36 29 38 27 40 14 42
REMARK Flexibility Score: inf
ROOT
ATOM      1  C   UNL     1      22.829   7.430  41.419  1.00  0.00     0.091 C 
ATOM      2  C   UNL     1      23.931   8.503  41.626  1.00  0.00     0.045 C 
ENDROOT
BRANCH   1   3
ATOM      3  C   UNL     1      23.447   6.204  40.632  1.00  0.00     0.146 C 
BRANCH   3   4
ATOM      4  C   UNL     1      23.433   6.405  39.093  1.00  0.00     0.043 C 
BRANCH   4   5
ATOM      5  C   UNL     1      22.607   5.319  38.357  1.00  0.00     0.046 C 
ATOM      6  C   UNL     1      21.692   7.153  36.729  1.00  0.00     0.020 C 
ATOM      7  C   UNL     1      21.450   5.808  37.436  1.00  0.00     0.103 C 
ATOM      8  C   UNL     1      21.440   4.733  36.415  1.00  0.00     0.309 C 
ATOM      9  C   UNL     1      23.476   4.417  37.440  1.00  0.00     0.177 C 
ATOM     10  O   UNL     1      22.588   3.970  36.430  1.00  0.00    -0.462 OA
ATOM     11  O   UNL     1      20.497   4.533  35.604  1.00  0.00    -0.252 OA
ATOM     12  C   UNL     1      24.082   3.221  38.173  1.00  0.00     0.053 C 
ENDBRANCH   4   5
ENDBRANCH   3   4
BRANCH   3  13
ATOM     13  O   UNL     1      22.773   5.010  40.937  1.00  0.00    -0.390 OA
ATOM     14  H   UNL     1      22.616   4.991  41.918  1.00  0.00     0.211 HD
ENDBRANCH   3  13
ENDBRANCH   1   3
BRANCH   1  15
ATOM     15  C   UNL     1      21.582   8.152  40.741  1.00  0.00     0.032 C 
ATOM     16  C   UNL     1      20.321   7.292  40.532  1.00  0.00     0.010 C 
ATOM     17  C   UNL     1      21.103   9.598  41.170  1.00  0.00     0.006 C 
ATOM     18  C   UNL     1      19.142   8.219  40.738  1.00  0.00     0.041 C 
ATOM     19  C   UNL     1      19.661   9.657  40.535  1.00  0.00     0.092 C 
ATOM     20  C   UNL     1      22.082  10.690  40.601  1.00  0.00     0.011 C 
ATOM     21  C   UNL     1      21.000   9.789  42.706  1.00  0.00     0.015 C 
ATOM     22  C   UNL     1      19.758  10.128  39.060  1.00  0.00    -0.031 C 
ATOM     23  C   UNL     1      21.390  11.884  39.936  1.00  0.00     0.009 C 
ATOM     24  C   UNL     1      20.415  11.484  38.784  1.00  0.00     0.025 C 
ATOM     25  C   UNL     1      19.175   9.464  38.046  1.00  0.00     0.050 C 
ATOM     26  C   UNL     1      21.024  11.610  37.327  1.00  0.00    -0.013 C 
ATOM     27  C   UNL     1      19.171   9.966  36.671  1.00  0.00     0.159 C 
ATOM     28  C   UNL     1      19.917  11.223  36.280  1.00  0.00     0.070 C 
ATOM     29  C   UNL     1      22.266  10.681  37.165  1.00  0.00     0.042 C 
ATOM     30  C   UNL     1      21.440  13.093  37.079  1.00  0.00     0.013 C 
ATOM     31  O   UNL     1      18.457   9.370  35.821  1.00  0.00    -0.295 OA
ATOM     32  C   UNL     1      20.478  11.088  34.839  1.00  0.00     0.047 C 
ATOM     33  C   UNL     1      22.786  10.584  35.721  1.00  0.00     0.143 C 
ATOM     34  C   UNL     1      21.671  10.122  34.770  1.00  0.00     0.143 C 
BRANCH  19  35
ATOM     35  O   UNL     1      18.766  10.492  41.243  1.00  0.00    -0.385 OA
ATOM     36  H   UNL     1      17.897  10.533  40.775  1.00  0.00     0.211 HD
ENDBRANCH  19  35
BRANCH  33  37
ATOM     37  O   UNL     1      23.848   9.665  35.689  1.00  0.00    -0.390 OA
ATOM     38  H   UNL     1      24.309   9.719  36.565  1.00  0.00     0.211 HD
ENDBRANCH  33  37
BRANCH  34  39
ATOM     39  O   UNL     1      22.166  10.084  33.457  1.00  0.00    -0.390 OA
ATOM     40  H   UNL     1      22.434   9.146  33.280  1.00  0.00     0.211 HD
ENDBRANCH  34  39
ENDBRANCH   1  15
BRANCH   1  41
ATOM     41  O   UNL     1      22.446   7.014  42.710  1.00  0.00    -0.387 OA
ATOM     42  H   UNL     1      22.694   6.062  42.817  1.00  0.00     0.211 HD
ENDBRANCH   1  41
TORSDOF 9
ENDMDL
MODEL 2
REMARK VINA RESULT:    -4.953      1.483      2.191
REMARK INTER + INTRA:          -8.276
REMARK INTER:                  -6.811
REMARK INTRA:                  -1.465
REMARK UNBOUND:                -1.442
REMARK SMILES C[C@H]1OC(=O)[C@H](C)[C@@H]1C[C@H](O)[C@](C)(O)[C@H]1CC[C@]2(O)C3=CC(=O)[C@@H]4C[C@@H](O)[C@H](O)C[C@]4(C)[C@@H]3CC[C@]12C
REMARK SMILES IDX 12 1 13 2 10 3 9 4 8 5 7 6 6 7 4 8 2 9 3 10 5 11 1 12 11 13
REMARK SMILES IDX 15 15 16 16 36 17 17 18 18 19 35 20 37 21 20 22 34 23 33 24
REMARK SMILES IDX 21 25 31 26 22 27 24 28 30 29 32 30 23 31 25 32 28 33 26 34
REMARK SMILES IDX 19 35 29 37 27 39 14 41
REMARK H PARENT 11 14 19 36 29 38 27 40 14 42
REMARK Flexibility Score: inf
ROOT
ATOM      1  C   UNL     1      20.710   8.037  40.637  1.00  0.00     0.091 C 
ATOM      2  C   UNL     1      21.268   9.046  41.676  1.00  0.00     0.045 C 
ENDROOT
BRANCH   1   3
ATOM      3  C   UNL     1      21.789   6.907  40.386  1.00  0.00     0.146 C 
BRANCH   3   4
ATOM      4  C   UNL     1      22.465   7.016  38.993  1.00  0.00     0.043 C 
BRANCH   4   5
ATOM      5  C   UNL     1      22.316   5.720  38.156  1.00  0.00     0.046 C 
ATOM      6  C   UNL     1      22.085   7.175  35.992  1.00  0.00     0.020 C 
ATOM      7  C   UNL     1      21.732   5.866  36.719  1.00  0.00     0.103 C 
ATOM      8  C   UNL     1      22.416   4.745  36.030  1.00  0.00     0.309 C 
ATOM      9  C   UNL     1      23.662   4.974  37.952  1.00  0.00     0.177 C 
ATOM     10  O   UNL     1      23.498   4.265  36.736  1.00  0.00    -0.462 OA
ATOM     11  O   UNL     1      22.066   4.278  34.914  1.00  0.00    -0.252 OA
ATOM     12  C   UNL     1      23.989   4.003  39.086  1.00  0.00     0.053 C 
ENDBRANCH   4   5
ENDBRANCH   3   4
BRANCH   3  13
ATOM     13  O   UNL     1      21.227   5.627  40.516  1.00  0.00    -0.390 OA
ATOM     14  H   UNL     1      21.308   5.167  39.640  1.00  0.00     0.211 HD
ENDBRANCH   3  13
ENDBRANCH   1   3
BRANCH   1  15
ATOM     15  C   UNL     1      20.249   8.873  39.362  1.00  0.00     0.032 C 
ATOM     16  C   UNL     1      19.135   8.249  38.498  1.00  0.00     0.010 C 
ATOM     17  C   UNL     1      19.986  10.432  39.418  1.00  0.00     0.006 C 
ATOM     18  C   UNL     1      18.302   9.407  37.989  1.00  0.00     0.041 C 
ATOM     19  C   UNL     1      19.183  10.669  38.083  1.00  0.00     0.092 C 
ATOM     20  C   UNL     1      21.350  11.215  39.475  1.00  0.00     0.011 C 
ATOM     21  C   UNL     1      19.121  10.873  40.628  1.00  0.00     0.015 C 
ATOM     22  C   UNL     1      20.172  10.880  36.907  1.00  0.00    -0.031 C 
ATOM     23  C   UNL     1      21.445  12.403  38.512  1.00  0.00     0.009 C 
ATOM     24  C   UNL     1      21.183  12.025  37.020  1.00  0.00     0.025 C 
ATOM     25  C   UNL     1      20.087  10.192  35.755  1.00  0.00     0.050 C 
ATOM     26  C   UNL     1      22.491  11.805  36.153  1.00  0.00    -0.013 C 
ATOM     27  C   UNL     1      20.950  10.468  34.604  1.00  0.00     0.159 C 
ATOM     28  C   UNL     1      22.070  11.483  34.674  1.00  0.00     0.070 C 
ATOM     29  C   UNL     1      23.351  10.642  36.735  1.00  0.00     0.042 C 
ATOM     30  C   UNL     1      23.324  13.125  36.152  1.00  0.00     0.013 C 
ATOM     31  O   UNL     1      20.687   9.896  33.512  1.00  0.00    -0.295 OA
ATOM     32  C   UNL     1      23.266  11.023  33.798  1.00  0.00     0.047 C 
ATOM     33  C   UNL     1      24.525  10.226  35.833  1.00  0.00     0.143 C 
ATOM     34  C   UNL     1      24.027   9.846  34.430  1.00  0.00     0.143 C 
BRANCH  19  35
ATOM     35  O   UNL     1      18.285  11.759  38.150  1.00  0.00    -0.385 OA
ATOM     36  H   UNL     1      17.510  11.598  37.559  1.00  0.00     0.211 HD
ENDBRANCH  19  35
BRANCH  33  37
ATOM     37  O   UNL     1      25.172   9.126  36.420  1.00  0.00    -0.390 OA
ATOM     38  H   UNL     1      25.300   8.447  35.709  1.00  0.00     0.211 HD
ENDBRANCH  33  37
BRANCH  34  39
ATOM     39  O   UNL     1      25.125   9.512  33.621  1.00  0.00    -0.390 OA
ATOM     40  H   UNL     1      25.603  10.359  33.425  1.00  0.00     0.211 HD
ENDBRANCH  34  39
ENDBRANCH   1  15
BRANCH   1  41
ATOM     41  O   UNL     1      19.563   7.469  41.226  1.00  0.00    -0.387 OA
ATOM     42  H   UNL     1      19.377   6.607  40.777  1.00  0.00     0.211 HD
ENDBRANCH   1  41
TORSDOF 9
ENDMDL
MODEL 3
REMARK VINA RESULT:    -4.927      1.642      5.525
REMARK INTER + INTRA:          -8.241
REMARK INTER:                  -6.395
REMARK INTRA:                  -1.846
REMARK UNBOUND:                -1.442
REMARK SMILES C[C@H]1OC(=O)[C@H](C)[C@@H]1C[C@H](O)[C@](C)(O)[C@H]1CC[C@]2(O)C3=CC(=O)[C@@H]4C[C@@H](O)[C@H](O)C[C@]4(C)[C@@H]3CC[C@]12C
REMARK SMILES IDX 12 1 13 2 10 3 9 4 8 5 7 6 6 7 4 8 2 9 3 10 5 11 1 12 11 13
REMARK SMILES IDX 15 15 16 16 36 17 17 18 18 19 35 20 37 21 20 22 34 23 33 24
REMARK SMILES IDX 21 25 31 26 22 27 24 28 30 29 32 30 23 31 25 32 28 33 26 34
REMARK SMILES IDX 19 35 29 37 27 39 14 41
REMARK H PARENT 11 14 19 36 29 38 27 40 14 42
REMARK Flexibility Score: inf
ROOT
ATOM      1  C   UNL     1      23.761   9.983  35.025  1.00  0.00     0.091 C 
ATOM      2  C   UNL     1      24.150  11.010  33.929  1.00  0.00     0.045 C 
ENDROOT
BRANCH   1   3
ATOM      3  C   UNL     1      23.442   8.593  34.338  1.00  0.00     0.146 C 
BRANCH   3   4
ATOM      4  C   UNL     1      24.197   7.407  34.995  1.00  0.00     0.043 C 
BRANCH   4   5
ATOM      5  C   UNL     1      23.467   6.855  36.246  1.00  0.00     0.046 C 
ATOM      6  C   UNL     1      22.847   4.697  34.899  1.00  0.00     0.020 C 
ATOM      7  C   UNL     1      22.472   5.677  36.025  1.00  0.00     0.103 C 
ATOM      8  C   UNL     1      22.591   4.971  37.323  1.00  0.00     0.309 C 
ATOM      9  C   UNL     1      24.443   6.337  37.336  1.00  0.00     0.177 C 
ATOM     10  O   UNL     1      23.706   5.351  38.038  1.00  0.00    -0.462 OA
ATOM     11  O   UNL     1      21.775   4.104  37.737  1.00  0.00    -0.252 OA
ATOM     12  C   UNL     1      24.905   7.431  38.298  1.00  0.00     0.053 C 
ENDBRANCH   4   5
ENDBRANCH   3   4
BRANCH   3  13
ATOM     13  O   UNL     1      23.747   8.621  32.968  1.00  0.00    -0.390 OA
ATOM     14  H   UNL     1      24.717   8.816  32.875  1.00  0.00     0.211 HD
ENDBRANCH   3  13
ENDBRANCH   1   3
BRANCH   1  15
ATOM     15  C   UNL     1      22.591  10.630  35.891  1.00  0.00     0.032 C 
ATOM     16  C   UNL     1      22.835  12.058  36.417  1.00  0.00     0.010 C 
ATOM     17  C   UNL     1      21.069  10.537  35.466  1.00  0.00     0.006 C 
ATOM     18  C   UNL     1      21.489  12.750  36.390  1.00  0.00     0.041 C 
ATOM     19  C   UNL     1      20.415  11.644  36.377  1.00  0.00     0.092 C 
ATOM     20  C   UNL     1      20.512   9.091  35.740  1.00  0.00     0.011 C 
ATOM     21  C   UNL     1      20.819  10.880  33.973  1.00  0.00     0.015 C 
ATOM     22  C   UNL     1      20.064  11.040  37.762  1.00  0.00    -0.031 C 
ATOM     23  C   UNL     1      19.152   9.053  36.444  1.00  0.00     0.009 C 
ATOM     24  C   UNL     1      19.124   9.831  37.798  1.00  0.00     0.025 C 
ATOM     25  C   UNL     1      20.438  11.613  38.920  1.00  0.00     0.050 C 
ATOM     26  C   UNL     1      19.303   8.925  39.086  1.00  0.00    -0.013 C 
ATOM     27  C   UNL     1      20.012  11.107  40.226  1.00  0.00     0.159 C 
ATOM     28  C   UNL     1      19.204   9.836  40.363  1.00  0.00     0.070 C 
ATOM     29  C   UNL     1      20.677   8.187  39.056  1.00  0.00     0.042 C 
ATOM     30  C   UNL     1      18.145   7.880  39.134  1.00  0.00     0.013 C 
ATOM     31  O   UNL     1      20.266  11.803  41.246  1.00  0.00    -0.295 OA
ATOM     32  C   UNL     1      19.596   9.086  41.664  1.00  0.00     0.047 C 
ATOM     33  C   UNL     1      21.018   7.457  40.365  1.00  0.00     0.143 C 
ATOM     34  C   UNL     1      20.981   8.427  41.556  1.00  0.00     0.143 C 
BRANCH  19  35
ATOM     35  O   UNL     1      19.262  12.234  35.809  1.00  0.00    -0.385 OA
ATOM     36  H   UNL     1      18.557  12.332  36.494  1.00  0.00     0.211 HD
ENDBRANCH  19  35
BRANCH  33  37
ATOM     37  O   UNL     1      22.302   6.902  40.246  1.00  0.00    -0.390 OA
ATOM     38  H   UNL     1      22.733   6.963  41.137  1.00  0.00     0.211 HD
ENDBRANCH  33  37
BRANCH  34  39
ATOM     39  O   UNL     1      21.256   7.723  42.739  1.00  0.00    -0.390 OA
ATOM     40  H   UNL     1      20.568   7.012  42.814  1.00  0.00     0.211 HD
ENDBRANCH  34  39
ENDBRANCH   1  15
BRANCH   1  41
ATOM     41  O   UNL     1      24.895   9.849  35.852  1.00  0.00    -0.387 OA
ATOM     42  H   UNL     1      25.689  10.143  35.340  1.00  0.00     0.211 HD
ENDBRANCH   1  41
TORSDOF 9
ENDMDL
MODEL 4
REMARK VINA RESULT:    -4.828      2.875      6.562
REMARK INTER + INTRA:          -8.104
REMARK INTER:                  -6.742
REMARK INTRA:                  -1.362
REMARK UNBOUND:                -1.442
REMARK SMILES C[C@H]1OC(=O)[C@H](C)[C@@H]1C[C@H](O)[C@](C)(O)[C@H]1CC[C@]2(O)C3=CC(=O)[C@@H]4C[C@@H](O)[C@H](O)C[C@]4(C)[C@@H]3CC[C@]12C
REMARK SMILES IDX 12 1 13 2 10 3 9 4 8 5 7 6 6 7 4 8 2 9 3 10 5 11 1 12 11 13
REMARK SMILES IDX 15 15 16 16 36 17 17 18 18 19 35 20 37 21 20 22 34 23 33 24
REMARK SMILES IDX 21 25 31 26 22 27 24 28 30 29 32 30 23 31 25 32 28 33 26 34
REMARK SMILES IDX 19 35 29 37 27 39 14 41
REMARK H PARENT 11 14 19 36 29 38 27 40 14 42
REMARK Flexibility Score: inf
ROOT
ATOM      1  C   UNL     1      20.294   9.635  36.093  1.00  0.00     0.091 C 
ATOM      2  C   UNL     1      19.562  10.995  35.950  1.00  0.00     0.045 C 
ENDROOT
BRANCH   1   3
ATOM      3  C   UNL     1      20.563   9.354  37.627  1.00  0.00     0.146 C 
BRANCH   3   4
ATOM      4  C   UNL     1      20.410   7.857  38.003  1.00  0.00     0.043 C 
BRANCH   4   5
ATOM      5  C   UNL     1      21.425   7.407  39.085  1.00  0.00     0.046 C 
ATOM      6  C   UNL     1      19.529   7.544  40.885  1.00  0.00     0.020 C 
ATOM      7  C   UNL     1      21.032   7.649  40.573  1.00  0.00     0.103 C 
ATOM      8  C   UNL     1      21.730   6.518  41.229  1.00  0.00     0.309 C 
ATOM      9  C   UNL     1      21.751   5.891  39.014  1.00  0.00     0.177 C 
ATOM     10  O   UNL     1      22.119   5.541  40.338  1.00  0.00    -0.462 OA
ATOM     11  O   UNL     1      21.942   6.437  42.468  1.00  0.00    -0.252 OA
ATOM     12  C   UNL     1      22.892   5.567  38.050  1.00  0.00     0.053 C 
ENDBRANCH   4   5
ENDBRANCH   3   4
BRANCH   3  13
ATOM     13  O   UNL     1      19.708  10.115  38.442  1.00  0.00    -0.390 OA
ATOM     14  H   UNL     1      20.224  10.893  38.782  1.00  0.00     0.211 HD
ENDBRANCH   3  13
ENDBRANCH   1   3
BRANCH   1  15
ATOM     15  C   UNL     1      21.574   9.681  35.146  1.00  0.00     0.032 C 
ATOM     16  C   UNL     1      21.395  10.372  33.781  1.00  0.00     0.010 C 
ATOM     17  C   UNL     1      23.014  10.061  35.683  1.00  0.00     0.006 C 
ATOM     18  C   UNL     1      22.711  11.057  33.482  1.00  0.00     0.041 C 
ATOM     19  C   UNL     1      23.786  10.362  34.342  1.00  0.00     0.092 C 
ATOM     20  C   UNL     1      23.626   8.866  36.503  1.00  0.00     0.011 C 
ATOM     21  C   UNL     1      23.027  11.326  36.583  1.00  0.00     0.015 C 
ATOM     22  C   UNL     1      24.353   9.042  33.758  1.00  0.00    -0.031 C 
ATOM     23  C   UNL     1      25.079   8.528  36.151  1.00  0.00     0.009 C 
ATOM     24  C   UNL     1      25.303   8.222  34.637  1.00  0.00     0.025 C 
ATOM     25  C   UNL     1      24.154   8.667  32.482  1.00  0.00     0.050 C 
ATOM     26  C   UNL     1      25.337   6.681  34.270  1.00  0.00    -0.013 C 
ATOM     27  C   UNL     1      24.782   7.479  31.900  1.00  0.00     0.159 C 
ATOM     28  C   UNL     1      25.619   6.532  32.731  1.00  0.00     0.070 C 
ATOM     29  C   UNL     1      23.986   5.996  34.639  1.00  0.00     0.042 C 
ATOM     30  C   UNL     1      26.503   6.000  35.053  1.00  0.00     0.013 C 
ATOM     31  O   UNL     1      24.678   7.300  30.657  1.00  0.00    -0.295 OA
ATOM     32  C   UNL     1      25.441   5.075  32.229  1.00  0.00     0.047 C 
ATOM     33  C   UNL     1      23.860   4.553  34.123  1.00  0.00     0.143 C 
ATOM     34  C   UNL     1      24.066   4.499  32.601  1.00  0.00     0.143 C 
BRANCH  19  35
ATOM     35  O   UNL     1      24.829  11.305  34.490  1.00  0.00    -0.385 OA
ATOM     36  H   UNL     1      24.728  12.030  33.827  1.00  0.00     0.211 HD
ENDBRANCH  19  35
BRANCH  33  37
ATOM     37  O   UNL     1      22.580   4.073  34.445  1.00  0.00    -0.390 OA
ATOM     38  H   UNL     1      22.048   4.068  33.607  1.00  0.00     0.211 HD
ENDBRANCH  33  37
BRANCH  34  39
ATOM     39  O   UNL     1      23.986   3.165  32.168  1.00  0.00    -0.390 OA
ATOM     40  H   UNL     1      23.279   2.730  32.712  1.00  0.00     0.211 HD
ENDBRANCH  34  39
ENDBRANCH   1  15
BRANCH   1  41
ATOM     41  O   UNL     1      19.409   8.663  35.585  1.00  0.00    -0.387 OA
ATOM     42  H   UNL     1      19.909   8.085  34.956  1.00  0.00     0.211 HD
ENDBRANCH   1  41
TORSDOF 9
ENDMDL
MODEL 5
REMARK VINA RESULT:    -4.774      2.576      7.171
REMARK INTER + INTRA:          -8.030
REMARK INTER:                  -7.131
REMARK INTRA:                  -0.900
REMARK UNBOUND:                -1.442
REMARK SMILES C[C@H]1OC(=O)[C@H](C)[C@@H]1C[C@H](O)[C@](C)(O)[C@H]1CC[C@]2(O)C3=CC(=O)[C@@H]4C[C@@H](O)[C@H](O)C[C@]4(C)[C@@H]3CC[C@]12C
REMARK SMILES IDX 12 1 13 2 10 3 9 4 8 5 7 6 6 7 4 8 2 9 3 10 5 11 1 12 11 13
REMARK SMILES IDX 15 15 16 16 36 17 17 18 18 19 35 20 37 21 20 22 34 23 33 24
REMARK SMILES IDX 21 25 31 26 22 27 24 28 30 29 32 30 23 31 25 32 28 33 26 34
REMARK SMILES IDX 19 35 29 37 27 39 14 41
REMARK H PARENT 11 14 19 36 29 38 27 40 14 42
REMARK Flexibility Score: inf
ROOT
ATOM      1  C   UNL     1      23.239  10.164  35.251  1.00  0.00     0.091 C 
ATOM      2  C   UNL     1      24.571   9.958  36.020  1.00  0.00     0.045 C 
ENDROOT
BRANCH   1   3
ATOM      3  C   UNL     1      23.509  11.088  33.994  1.00  0.00     0.146 C 
BRANCH   3   4
ATOM      4  C   UNL     1      23.252  10.363  32.646  1.00  0.00     0.043 C 
BRANCH   4   5
ATOM      5  C   UNL     1      22.501  11.255  31.624  1.00  0.00     0.046 C 
ATOM      6  C   UNL     1      24.754  11.652  30.352  1.00  0.00     0.020 C 
ATOM      7  C   UNL     1      23.364  12.194  30.730  1.00  0.00     0.103 C 
ATOM      8  C   UNL     1      22.531  12.250  29.505  1.00  0.00     0.309 C 
ATOM      9  C   UNL     1      21.652  10.435  30.615  1.00  0.00     0.177 C 
ATOM     10  O   UNL     1      21.582  11.251  29.459  1.00  0.00    -0.462 OA
ATOM     11  O   UNL     1      22.670  13.104  28.590  1.00  0.00    -0.252 OA
ATOM     12  C   UNL     1      20.245  10.126  31.125  1.00  0.00     0.053 C 
ENDBRANCH   4   5
ENDBRANCH   3   4
BRANCH   3  13
ATOM     13  O   UNL     1      24.823  11.582  33.998  1.00  0.00    -0.390 OA
ATOM     14  H   UNL     1      24.842  12.393  34.572  1.00  0.00     0.211 HD
ENDBRANCH   3  13
ENDBRANCH   1   3
BRANCH   1  15
ATOM     15  C   UNL     1      22.160  10.691  36.298  1.00  0.00     0.032 C 
ATOM     16  C   UNL     1      22.376  12.113  36.850  1.00  0.00     0.010 C 
ATOM     17  C   UNL     1      20.604  10.498  36.083  1.00  0.00     0.006 C 
ATOM     18  C   UNL     1      20.994  12.702  37.040  1.00  0.00     0.041 C 
ATOM     19  C   UNL     1      20.009  11.519  37.125  1.00  0.00     0.092 C 
ATOM     20  C   UNL     1      20.194   9.005  36.365  1.00  0.00     0.011 C 
ATOM     21  C   UNL     1      20.123  10.874  34.656  1.00  0.00     0.015 C 
ATOM     22  C   UNL     1      19.899  10.842  38.516  1.00  0.00    -0.031 C 
ATOM     23  C   UNL     1      18.952   8.840  37.248  1.00  0.00     0.009 C 
ATOM     24  C   UNL     1      19.061   9.565  38.626  1.00  0.00     0.025 C 
ATOM     25  C   UNL     1      20.392  11.401  39.636  1.00  0.00     0.050 C 
ATOM     26  C   UNL     1      19.482   8.630  39.834  1.00  0.00    -0.013 C 
ATOM     27  C   UNL     1      20.191  10.818  40.965  1.00  0.00     0.159 C 
ATOM     28  C   UNL     1      19.500   9.485  41.153  1.00  0.00     0.070 C 
ATOM     29  C   UNL     1      20.886   8.000  39.582  1.00  0.00     0.042 C 
ATOM     30  C   UNL     1      18.418   7.500  39.994  1.00  0.00     0.013 C 
ATOM     31  O   UNL     1      20.536  11.494  41.970  1.00  0.00    -0.295 OA
ATOM     32  C   UNL     1      20.123   8.722  42.352  1.00  0.00     0.047 C 
ATOM     33  C   UNL     1      21.458   7.252  40.797  1.00  0.00     0.143 C 
ATOM     34  C   UNL     1      21.521   8.174  42.025  1.00  0.00     0.143 C 
BRANCH  19  35
ATOM     35  O   UNL     1      18.750  12.041  36.749  1.00  0.00    -0.385 OA
ATOM     36  H   UNL     1      18.040  11.377  36.925  1.00  0.00     0.211 HD
ENDBRANCH  19  35
BRANCH  33  37
ATOM     37  O   UNL     1      22.748   6.800  40.476  1.00  0.00    -0.390 OA
ATOM     38  H   UNL     1      22.646   5.952  39.971  1.00  0.00     0.211 HD
ENDBRANCH  33  37
BRANCH  34  39
ATOM     39  O   UNL     1      22.008   7.450  43.125  1.00  0.00    -0.390 OA
ATOM     40  H   UNL     1      22.884   7.071  42.853  1.00  0.00     0.211 HD
ENDBRANCH  34  39
ENDBRANCH   1  15
BRANCH   1  41
ATOM     41  O   UNL     1      22.839   8.884  34.816  1.00  0.00    -0.387 OA
ATOM     42  H   UNL     1      22.574   8.947  33.865  1.00  0.00     0.211 HD
ENDBRANCH   1  41
TORSDOF 9
ENDMDL
MODEL 6
REMARK VINA RESULT:    -4.641      0.969      1.642
REMARK INTER + INTRA:          -7.847
REMARK INTER:                  -6.971
REMARK INTRA:                  -0.875
REMARK UNBOUND:                -1.442
REMARK SMILES C[C@H]1OC(=O)[C@H](C)[C@@H]1C[C@H](O)[C@](C)(O)[C@H]1CC[C@]2(O)C3=CC(=O)[C@@H]4C[C@@H](O)[C@H](O)C[C@]4(C)[C@@H]3CC[C@]12C
REMARK SMILES IDX 12 1 13 2 10 3 9 4 8 5 7 6 6 7 4 8 2 9 3 10 5 11 1 12 11 13
REMARK SMILES IDX 15 15 16 16 36 17 17 18 18 19 35 20 37 21 20 22 34 23 33 24
REMARK SMILES IDX 21 25 31 26 22 27 24 28 30 29 32 30 23 31 25 32 28 33 26 34
REMARK SMILES IDX 19 35 29 37 27 39 14 41
REMARK H PARENT 11 14 19 36 29 38 27 40 14 42
REMARK Flexibility Score: inf
ROOT
ATOM      1  C   UNL     1      23.125   6.854  41.236  1.00  0.00     0.091 C 
ATOM      2  C   UNL     1      24.152   7.832  41.867  1.00  0.00     0.045 C 
ENDROOT
BRANCH   1   3
ATOM      3  C   UNL     1      23.818   6.083  40.041  1.00  0.00     0.146 C 
BRANCH   3   4
ATOM      4  C   UNL     1      22.845   5.136  39.289  1.00  0.00     0.043 C 
BRANCH   4   5
ATOM      5  C   UNL     1      22.946   5.279  37.748  1.00  0.00     0.046 C 
ATOM      6  C   UNL     1      23.278   2.690  37.554  1.00  0.00     0.020 C 
ATOM      7  C   UNL     1      23.557   4.082  36.961  1.00  0.00     0.103 C 
ATOM      8  C   UNL     1      22.832   4.201  35.674  1.00  0.00     0.309 C 
ATOM      9  C   UNL     1      21.569   5.522  37.073  1.00  0.00     0.177 C 
ATOM     10  O   UNL     1      21.718   5.007  35.761  1.00  0.00    -0.462 OA
ATOM     11  O   UNL     1      23.177   3.624  34.609  1.00  0.00    -0.252 OA
ATOM     12  C   UNL     1      21.180   6.999  37.016  1.00  0.00     0.053 C 
ENDBRANCH   4   5
ENDBRANCH   3   4
BRANCH   3  13
ATOM     13  O   UNL     1      24.920   5.336  40.487  1.00  0.00    -0.390 OA
ATOM     14  H   UNL     1      24.587   4.653  41.127  1.00  0.00     0.211 HD
ENDBRANCH   3  13
ENDBRANCH   1   3
BRANCH   1  15
ATOM     15  C   UNL     1      21.823   7.698  40.875  1.00  0.00     0.032 C 
ATOM     16  C   UNL     1      20.500   6.913  40.784  1.00  0.00     0.010 C 
ATOM     17  C   UNL     1      21.500   9.092  41.551  1.00  0.00     0.006 C 
ATOM     18  C   UNL     1      19.424   7.845  41.300  1.00  0.00     0.041 C 
ATOM     19  C   UNL     1      19.979   9.279  41.186  1.00  0.00     0.092 C 
ATOM     20  C   UNL     1      22.429  10.216  40.958  1.00  0.00     0.011 C 
ATOM     21  C   UNL     1      21.666   9.087  43.094  1.00  0.00     0.015 C 
ATOM     22  C   UNL     1      19.854   9.931  39.784  1.00  0.00    -0.031 C 
ATOM     23  C   UNL     1      21.701  11.507  40.571  1.00  0.00     0.009 C 
ATOM     24  C   UNL     1      20.528  11.289  39.565  1.00  0.00     0.025 C 
ATOM     25  C   UNL     1      19.075   9.422  38.813  1.00  0.00     0.050 C 
ATOM     26  C   UNL     1      20.891  11.581  38.050  1.00  0.00    -0.013 C 
ATOM     27  C   UNL     1      18.868  10.097  37.530  1.00  0.00     0.159 C 
ATOM     28  C   UNL     1      19.606  11.368  37.171  1.00  0.00     0.070 C 
ATOM     29  C   UNL     1      22.037  10.640  37.566  1.00  0.00     0.042 C 
ATOM     30  C   UNL     1      21.340  13.069  37.915  1.00  0.00     0.013 C 
ATOM     31  O   UNL     1      17.991   9.637  36.750  1.00  0.00    -0.295 OA
ATOM     32  C   UNL     1      19.910  11.401  35.649  1.00  0.00     0.047 C 
ATOM     33  C   UNL     1      22.303  10.713  36.054  1.00  0.00     0.143 C 
ATOM     34  C   UNL     1      21.021  10.413  35.260  1.00  0.00     0.143 C 
BRANCH  19  35
ATOM     35  O   UNL     1      19.261  10.045  42.133  1.00  0.00    -0.385 OA
ATOM     36  H   UNL     1      19.675   9.957  43.026  1.00  0.00     0.211 HD
ENDBRANCH  19  35
BRANCH  33  37
ATOM     37  O   UNL     1      23.293   9.771  35.728  1.00  0.00    -0.390 OA
ATOM     38  H   UNL     1      22.827   8.943  35.440  1.00  0.00     0.211 HD
ENDBRANCH  33  37
BRANCH  34  39
ATOM     39  O   UNL     1      21.287  10.527  33.886  1.00  0.00    -0.390 OA
ATOM     40  H   UNL     1      20.739   9.838  33.431  1.00  0.00     0.211 HD
ENDBRANCH  34  39
ENDBRANCH   1  15
BRANCH   1  41
ATOM     41  O   UNL     1      22.786   5.939  42.253  1.00  0.00    -0.387 OA
ATOM     42  H   UNL     1      23.423   5.182  42.216  1.00  0.00     0.211 HD
ENDBRANCH   1  41
TORSDOF 9
ENDMDL
MODEL 7
REMARK VINA RESULT:    -4.641      2.599      5.554
REMARK INTER + INTRA:          -7.846
REMARK INTER:                  -6.103
REMARK INTRA:                  -1.744
REMARK UNBOUND:                -1.442
REMARK SMILES C[C@H]1OC(=O)[C@H](C)[C@@H]1C[C@H](O)[C@](C)(O)[C@H]1CC[C@]2(O)C3=CC(=O)[C@@H]4C[C@@H](O)[C@H](O)C[C@]4(C)[C@@H]3CC[C@]12C
REMARK SMILES IDX 12 1 13 2 10 3 9 4 8 5 7 6 6 7 4 8 2 9 3 10 5 11 1 12 11 13
REMARK SMILES IDX 15 15 16 16 36 17 17 18 18 19 35 20 37 21 20 22 34 23 33 24
REMARK SMILES IDX 21 25 31 26 22 27 24 28 30 29 32 30 23 31 25 32 28 33 26 34
REMARK SMILES IDX 19 35 29 37 27 39 14 41
REMARK H PARENT 11 14 19 36 29 38 27 40 14 42
REMARK Flexibility Score: inf
ROOT
ATOM      1  C   UNL     1      26.219   8.155  35.979  1.00  0.00     0.091 C 
ATOM      2  C   UNL     1      27.677   8.464  35.547  1.00  0.00     0.045 C 
ENDROOT
BRANCH   1   3
ATOM      3  C   UNL     1      25.723   6.856  35.222  1.00  0.00     0.146 C 
BRANCH   3   4
ATOM      4  C   UNL     1      25.130   5.789  36.180  1.00  0.00     0.043 C 
BRANCH   4   5
ATOM      5  C   UNL     1      23.608   5.977  36.412  1.00  0.00     0.046 C 
ATOM      6  C   UNL     1      23.134   4.078  34.673  1.00  0.00     0.020 C 
ATOM      7  C   UNL     1      22.647   5.374  35.345  1.00  0.00     0.103 C 
ATOM      8  C   UNL     1      21.469   5.054  36.187  1.00  0.00     0.309 C 
ATOM      9  C   UNL     1      23.123   5.370  37.756  1.00  0.00     0.177 C 
ATOM     10  O   UNL     1      21.760   5.051  37.534  1.00  0.00    -0.462 OA
ATOM     11  O   UNL     1      20.322   4.798  35.735  1.00  0.00    -0.252 OA
ATOM     12  C   UNL     1      23.251   6.336  38.933  1.00  0.00     0.053 C 
ENDBRANCH   4   5
ENDBRANCH   3   4
BRANCH   3  13
ATOM     13  O   UNL     1      26.762   6.271  34.480  1.00  0.00    -0.390 OA
ATOM     14  H   UNL     1      26.363   5.573  33.895  1.00  0.00     0.211 HD
ENDBRANCH   3  13
ENDBRANCH   1   3
BRANCH   1  15
ATOM     15  C   UNL     1      25.364   9.478  35.751  1.00  0.00     0.032 C 
ATOM     16  C   UNL     1      25.835  10.739  36.501  1.00  0.00     0.010 C 
ATOM     17  C   UNL     1      24.875   9.937  34.316  1.00  0.00     0.006 C 
ATOM     18  C   UNL     1      25.549  11.906  35.580  1.00  0.00     0.041 C 
ATOM     19  C   UNL     1      24.472  11.437  34.581  1.00  0.00     0.092 C 
ATOM     20  C   UNL     1      23.674   9.041  33.835  1.00  0.00     0.011 C 
ATOM     21  C   UNL     1      25.987   9.882  33.235  1.00  0.00     0.015 C 
ATOM     22  C   UNL     1      23.011  11.502  35.098  1.00  0.00    -0.031 C 
ATOM     23  C   UNL     1      22.492   9.820  33.250  1.00  0.00     0.009 C 
ATOM     24  C   UNL     1      21.913  10.902  34.215  1.00  0.00     0.025 C 
ATOM     25  C   UNL     1      22.663  12.176  36.209  1.00  0.00     0.050 C 
ATOM     26  C   UNL     1      20.626  10.450  35.021  1.00  0.00    -0.013 C 
ATOM     27  C   UNL     1      21.271  12.332  36.635  1.00  0.00     0.159 C 
ATOM     28  C   UNL     1      20.134  11.653  35.905  1.00  0.00     0.070 C 
ATOM     29  C   UNL     1      20.942   9.215  35.919  1.00  0.00     0.042 C 
ATOM     30  C   UNL     1      19.496  10.088  34.007  1.00  0.00     0.013 C 
ATOM     31  O   UNL     1      21.025  13.120  37.588  1.00  0.00    -0.295 OA
ATOM     32  C   UNL     1      19.021  11.243  36.906  1.00  0.00     0.047 C 
ATOM     33  C   UNL     1      19.808   8.847  36.889  1.00  0.00     0.143 C 
ATOM     34  C   UNL     1      19.438  10.046  37.776  1.00  0.00     0.143 C 
BRANCH  19  35
ATOM     35  O   UNL     1      24.613  12.268  33.446  1.00  0.00    -0.385 OA
ATOM     36  H   UNL     1      23.904  12.069  32.788  1.00  0.00     0.211 HD
ENDBRANCH  19  35
BRANCH  33  37
ATOM     37  O   UNL     1      20.237   7.778  37.693  1.00  0.00    -0.390 OA
ATOM     38  H   UNL     1      20.899   7.261  37.165  1.00  0.00     0.211 HD
ENDBRANCH  33  37
BRANCH  34  39
ATOM     39  O   UNL     1      18.374   9.690  38.620  1.00  0.00    -0.390 OA
ATOM     40  H   UNL     1      18.481   8.725  38.823  1.00  0.00     0.211 HD
ENDBRANCH  34  39
ENDBRANCH   1  15
BRANCH   1  41
ATOM     41  O   UNL     1      26.272   7.900  37.364  1.00  0.00    -0.387 OA
ATOM     42  H   UNL     1      25.707   8.570  37.825  1.00  0.00     0.211 HD
ENDBRANCH   1  41
TORSDOF 9
ENDMDL
MODEL 8
REMARK VINA RESULT:    -4.631      3.247      4.989
REMARK INTER + INTRA:          -7.833
REMARK INTER:                  -5.873
REMARK INTRA:                  -1.959
REMARK UNBOUND:                -1.442
REMARK SMILES C[C@H]1OC(=O)[C@H](C)[C@@H]1C[C@H](O)[C@](C)(O)[C@H]1CC[C@]2(O)C3=CC(=O)[C@@H]4C[C@@H](O)[C@H](O)C[C@]4(C)[C@@H]3CC[C@]12C
REMARK SMILES IDX 12 1 13 2 10 3 9 4 8 5 7 6 6 7 4 8 2 9 3 10 5 11 1 12 11 13
REMARK SMILES IDX 15 15 16 16 36 17 17 18 18 19 35 20 37 21 20 22 34 23 33 24
REMARK SMILES IDX 21 25 31 26 22 27 24 28 30 29 32 30 23 31 25 32 28 33 26 34
REMARK SMILES IDX 19 35 29 37 27 39 14 41
REMARK H PARENT 11 14 19 36 29 38 27 40 14 42
REMARK Flexibility Score: inf
ROOT
ATOM      1  C   UNL     1      22.323   6.626  37.106  1.00  0.00     0.091 C 
ATOM      2  C   UNL     1      21.729   6.553  38.538  1.00  0.00     0.045 C 
ENDROOT
BRANCH   1   3
ATOM      3  C   UNL     1      23.902   6.599  37.203  1.00  0.00     0.146 C 
BRANCH   3   4
ATOM      4  C   UNL     1      24.550   5.579  36.229  1.00  0.00     0.043 C 
BRANCH   4   5
ATOM      5  C   UNL     1      24.730   6.152  34.800  1.00  0.00     0.046 C 
ATOM      6  C   UNL     1      27.169   6.870  35.421  1.00  0.00     0.020 C 
ATOM      7  C   UNL     1      25.914   7.138  34.573  1.00  0.00     0.103 C 
ATOM      8  C   UNL     1      26.235   6.858  33.153  1.00  0.00     0.309 C 
ATOM      9  C   UNL     1      24.936   5.047  33.728  1.00  0.00     0.177 C 
ATOM     10  O   UNL     1      25.683   5.679  32.703  1.00  0.00    -0.462 OA
ATOM     11  O   UNL     1      26.947   7.602  32.427  1.00  0.00    -0.252 OA
ATOM     12  C   UNL     1      23.624   4.505  33.164  1.00  0.00     0.053 C 
ENDBRANCH   4   5
ENDBRANCH   3   4
BRANCH   3  13
ATOM     13  O   UNL     1      24.328   6.309  38.510  1.00  0.00    -0.390 OA
ATOM     14  H   UNL     1      24.354   5.321  38.610  1.00  0.00     0.211 HD
ENDBRANCH   3  13
ENDBRANCH   1   3
BRANCH   1  15
ATOM     15  C   UNL     1      21.679   7.892  36.386  1.00  0.00     0.032 C 
ATOM     16  C   UNL     1      20.140   7.971  36.382  1.00  0.00     0.010 C 
ATOM     17  C   UNL     1      22.227   9.361  36.602  1.00  0.00     0.006 C 
ATOM     18  C   UNL     1      19.796   9.441  36.498  1.00  0.00     0.041 C 
ATOM     19  C   UNL     1      21.039  10.231  36.040  1.00  0.00     0.092 C 
ATOM     20  C   UNL     1      23.576   9.563  35.816  1.00  0.00     0.011 C 
ATOM     21  C   UNL     1      22.473   9.720  38.091  1.00  0.00     0.015 C 
ATOM     22  C   UNL     1      21.193  10.400  34.507  1.00  0.00    -0.031 C 
ATOM     23  C   UNL     1      23.654  10.860  35.004  1.00  0.00     0.009 C 
ATOM     24  C   UNL     1      22.486  11.033  33.983  1.00  0.00     0.025 C 
ATOM     25  C   UNL     1      20.195  10.140  33.643  1.00  0.00     0.050 C 
ATOM     26  C   UNL     1      22.840  10.619  32.495  1.00  0.00    -0.013 C 
ATOM     27  C   UNL     1      20.303  10.405  32.207  1.00  0.00     0.159 C 
ATOM     28  C   UNL     1      21.590  10.895  31.582  1.00  0.00     0.070 C 
ATOM     29  C   UNL     1      23.239   9.114  32.421  1.00  0.00     0.042 C 
ATOM     30  C   UNL     1      24.023  11.503  31.992  1.00  0.00     0.013 C 
ATOM     31  O   UNL     1      19.264  10.294  31.502  1.00  0.00    -0.295 OA
ATOM     32  C   UNL     1      21.752  10.308  30.155  1.00  0.00     0.047 C 
ATOM     33  C   UNL     1      23.391   8.582  30.987  1.00  0.00     0.143 C 
ATOM     34  C   UNL     1      22.104   8.812  30.180  1.00  0.00     0.143 C 
BRANCH  19  35
ATOM     35  O   UNL     1      20.932  11.502  36.651  1.00  0.00    -0.385 OA
ATOM     36  H   UNL     1      20.515  12.145  36.027  1.00  0.00     0.211 HD
ENDBRANCH  19  35
BRANCH  33  37
ATOM     37  O   UNL     1      23.672   7.207  31.048  1.00  0.00    -0.390 OA
ATOM     38  H   UNL     1      22.803   6.730  31.065  1.00  0.00     0.211 HD
ENDBRANCH  33  37
BRANCH  34  39
ATOM     39  O   UNL     1      22.289   8.354  28.866  1.00  0.00    -0.390 OA
ATOM     40  H   UNL     1      21.386   8.258  28.467  1.00  0.00     0.211 HD
ENDBRANCH  34  39
ENDBRANCH   1  15
BRANCH   1  41
ATOM     41  O   UNL     1      21.873   5.468  36.441  1.00  0.00    -0.387 OA
ATOM     42  H   UNL     1      22.546   4.754  36.569  1.00  0.00     0.211 HD
ENDBRANCH   1  41
TORSDOF 9
ENDMDL
MODEL 9
REMARK VINA RESULT:    -4.593      2.077      5.894
REMARK INTER + INTRA:          -7.780
REMARK INTER:                  -5.836
REMARK INTRA:                  -1.944
REMARK UNBOUND:                -1.442
REMARK SMILES C[C@H]1OC(=O)[C@H](C)[C@@H]1C[C@H](O)[C@](C)(O)[C@H]1CC[C@]2(O)C3=CC(=O)[C@@H]4C[C@@H](O)[C@H](O)C[C@]4(C)[C@@H]3CC[C@]12C
REMARK SMILES IDX 12 1 13 2 10 3 9 4 8 5 7 6 6 7 4 8 2 9 3 10 5 11 1 12 11 13
REMARK SMILES IDX 15 15 16 16 36 17 17 18 18 19 35 20 37 21 20 22 34 23 33 24
REMARK SMILES IDX 21 25 31 26 22 27 24 28 30 29 32 30 23 31 25 32 28 33 26 34
REMARK SMILES IDX 19 35 29 37 27 39 14 41
REMARK H PARENT 11 14 19 36 29 38 27 40 14 42
REMARK Flexibility Score: inf
ROOT
ATOM      1  C   UNL     1      20.101  11.189  39.098  1.00  0.00     0.091 C 
ATOM      2  C   UNL     1      19.082  11.529  40.218  1.00  0.00     0.045 C 
ENDROOT
BRANCH   1   3
ATOM      3  C   UNL     1      19.334  11.097  37.716  1.00  0.00     0.146 C 
BRANCH   3   4
ATOM      4  C   UNL     1      20.031  11.899  36.585  1.00  0.00     0.043 C 
BRANCH   4   5
ATOM      5  C   UNL     1      21.298  11.188  36.044  1.00  0.00     0.046 C 
ATOM      6  C   UNL     1      19.966  10.502  33.897  1.00  0.00     0.020 C 
ATOM      7  C   UNL     1      21.100  10.169  34.882  1.00  0.00     0.103 C 
ATOM      8  C   UNL     1      22.395  10.306  34.174  1.00  0.00     0.309 C 
ATOM      9  C   UNL     1      22.365  12.180  35.509  1.00  0.00     0.177 C 
ATOM     10  O   UNL     1      23.084  11.443  34.535  1.00  0.00    -0.462 OA
ATOM     11  O   UNL     1      22.827   9.486  33.321  1.00  0.00    -0.252 OA
ATOM     12  C   UNL     1      23.316  12.682  36.595  1.00  0.00     0.053 C 
ENDBRANCH   4   5
ENDBRANCH   3   4
BRANCH   3  13
ATOM     13  O   UNL     1      18.009  11.545  37.838  1.00  0.00    -0.390 OA
ATOM     14  H   UNL     1      17.425  10.747  37.940  1.00  0.00     0.211 HD
ENDBRANCH   3  13
ENDBRANCH   1   3
BRANCH   1  15
ATOM     15  C   UNL     1      20.895   9.886  39.556  1.00  0.00     0.032 C 
ATOM     16  C   UNL     1      21.483   9.906  40.980  1.00  0.00     0.010 C 
ATOM     17  C   UNL     1      20.353   8.424  39.288  1.00  0.00     0.006 C 
ATOM     18  C   UNL     1      21.376   8.487  41.497  1.00  0.00     0.041 C 
ATOM     19  C   UNL     1      21.247   7.568  40.265  1.00  0.00     0.092 C 
ATOM     20  C   UNL     1      20.538   8.040  37.773  1.00  0.00     0.011 C 
ATOM     21  C   UNL     1      18.857   8.238  39.658  1.00  0.00     0.015 C 
ATOM     22  C   UNL     1      22.581   7.200  39.565  1.00  0.00    -0.031 C 
ATOM     23  C   UNL     1      21.135   6.650  37.535  1.00  0.00     0.009 C 
ATOM     24  C   UNL     1      22.506   6.425  38.246  1.00  0.00     0.025 C 
ATOM     25  C   UNL     1      23.781   7.414  40.133  1.00  0.00     0.050 C 
ATOM     26  C   UNL     1      23.775   6.627  37.318  1.00  0.00    -0.013 C 
ATOM     27  C   UNL     1      25.035   6.965  39.523  1.00  0.00     0.159 C 
ATOM     28  C   UNL     1      25.069   6.320  38.155  1.00  0.00     0.070 C 
ATOM     29  C   UNL     1      23.826   8.083  36.762  1.00  0.00     0.042 C 
ATOM     30  C   UNL     1      23.702   5.614  36.134  1.00  0.00     0.013 C 
ATOM     31  O   UNL     1      26.093   7.054  40.203  1.00  0.00    -0.295 OA
ATOM     32  C   UNL     1      26.372   6.713  37.409  1.00  0.00     0.047 C 
ATOM     33  C   UNL     1      25.134   8.421  36.027  1.00  0.00     0.143 C 
ATOM     34  C   UNL     1      26.349   8.175  36.935  1.00  0.00     0.143 C 
BRANCH  19  35
ATOM     35  O   UNL     1      20.612   6.393  40.727  1.00  0.00    -0.385 OA
ATOM     36  H   UNL     1      19.982   6.055  40.045  1.00  0.00     0.211 HD
ENDBRANCH  19  35
BRANCH  33  37
ATOM     37  O   UNL     1      25.095   9.773  35.645  1.00  0.00    -0.390 OA
ATOM     38  H   UNL     1      24.629   9.817  34.770  1.00  0.00     0.211 HD
ENDBRANCH  33  37
BRANCH  34  39
ATOM     39  O   UNL     1      27.526   8.453  36.223  1.00  0.00    -0.390 OA
ATOM     40  H   UNL     1      27.249   8.751  35.318  1.00  0.00     0.211 HD
ENDBRANCH  34  39
ENDBRANCH   1  15
BRANCH   1  41
ATOM     41  O   UNL     1      21.010  12.265  39.061  1.00  0.00    -0.387 OA
ATOM     42  H   UNL     1      21.787  11.998  38.509  1.00  0.00     0.211 HD
ENDBRANCH   1  41
TORSDOF 9
ENDMDL
