MODEL 1
REMARK VINA RESULT:    -4.144      0.000      0.000
REMARK INTER + INTRA:          -6.357
REMARK INTER:                  -6.325
REMARK INTRA:                  -0.032
REMARK UNBOUND:                -0.032
REMARK SMILES CC1=CCC[C@@H](C)C(=O)C[C@@H](C(C)C)C(=O)C1
REMARK SMILES IDX 8 1 9 2 6 3 7 4 5 5 4 6 3 7 2 8 1 9 10 11 11 12 15 13 16 14
REMARK SMILES IDX 17 15 12 17 13 18 14 19
REMARK H PARENT
REMARK Flexibility Score: 70.00
ROOT
ATOM      1  C   UNL     1     -10.343  -4.006 -15.667  1.00  0.00     0.136 C 
ATOM      2  O   UNL     1     -10.033  -3.577 -16.770  1.00  0.00    -0.299 OA
ENDROOT
BRANCH   1   3
ATOM      3  C   UNL     1     -11.536  -4.937 -15.521  1.00  0.00     0.053 C 
ATOM      4  C   UNL     1     -12.402  -4.582 -14.300  1.00  0.00     0.016 C 
BRANCH   3   5
ATOM      5  C   UNL     1     -11.116  -6.424 -15.490  1.00  0.00     0.015 C 
BRANCH   5   6
ATOM      6  C   UNL     1     -10.833  -6.978 -14.072  1.00  0.00     0.028 C 
BRANCH   6   7
ATOM      7  C   UNL     1      -9.687  -7.963 -14.098  1.00  0.00    -0.028 C 
ATOM      8  C   UNL     1      -8.377  -7.652 -13.938  1.00  0.00    -0.070 CG0
ATOM      9  C   UNL     1      -7.361  -8.748 -14.139  1.00  0.00     0.039 C 
ATOM     10  G   UNL     1      -7.884  -6.261 -13.568  1.00  0.00     0.000 G0
ENDBRANCH   6   7
ENDBRANCH   5   6
ENDBRANCH   3   5
ENDBRANCH   1   3
BRANCH   1  11
ATOM     11  C   UNL     1      -9.539  -3.560 -14.465  1.00  0.00     0.087 C 
BRANCH  11  12
ATOM     12  C   UNL     1      -8.015  -3.787 -14.648  1.00  0.00     0.066 C 
BRANCH  12  13
ATOM     13  C   UNL     1      -7.668  -5.272 -14.710  1.00  0.00     0.140 C 
ATOM     14  O   UNL     1      -7.171  -5.715 -15.734  1.00  0.00    -0.299 OA
BRANCH  13  15
ATOM     15  C   UNL     1      -7.875  -6.242 -13.561  1.00  0.00     0.106 CG0
ATOM     16  G   UNL     1      -8.372  -7.628 -13.946  1.00  0.00     0.000 G0
ENDBRANCH  13  15
ENDBRANCH  12  13
BRANCH  12  17
ATOM     17  C   UNL     1      -7.131  -3.047 -13.595  1.00  0.00    -0.006 C 
ATOM     18  C   UNL     1      -5.872  -2.442 -14.237  1.00  0.00     0.008 C 
ATOM     19  C   UNL     1      -7.872  -1.965 -12.788  1.00  0.00     0.008 C 
ENDBRANCH  12  17
ENDBRANCH  11  12
ENDBRANCH   1  11
TORSDOF 1
ENDMDL
MODEL 2
REMARK VINA RESULT:    -3.869      5.626      8.606
REMARK INTER + INTRA:          -5.937
REMARK INTER:                  -6.000
REMARK INTRA:                   0.064
REMARK UNBOUND:                -0.032
REMARK SMILES CC1=CCC[C@@H](C)C(=O)C[C@@H](C(C)C)C(=O)C1
REMARK SMILES IDX 8 1 9 2 6 3 7 4 5 5 4 6 3 7 2 8 1 9 10 11 11 12 15 13 16 14
REMARK SMILES IDX 17 15 12 17 13 18 14 19
REMARK H PARENT
REMARK Flexibility Score: 70.00
ROOT
ATOM      1  C   UNL     1      -7.130   0.850  -9.518  1.00  0.00     0.136 C 
ATOM      2  O   UNL     1      -7.543   0.347  -8.482  1.00  0.00    -0.299 OA
ENDROOT
BRANCH   1   3
ATOM      3  C   UNL     1      -6.684   2.304  -9.533  1.00  0.00     0.053 C 
ATOM      4  C   UNL     1      -7.009   2.996 -10.867  1.00  0.00     0.016 C 
BRANCH   3   5
ATOM      5  C   UNL     1      -5.187   2.458  -9.178  1.00  0.00     0.015 C 
BRANCH   5   6
ATOM      6  C   UNL     1      -4.217   2.112 -10.333  1.00  0.00     0.028 C 
BRANCH   6   7
ATOM      7  C   UNL     1      -3.100   1.217  -9.848  1.00  0.00    -0.028 C 
ATOM      8  C   UNL     1      -3.046  -0.129 -10.000  1.00  0.00    -0.070 CG0
ATOM      9  C   UNL     1      -1.922  -0.872  -9.323  1.00  0.00     0.039 C 
ATOM     10  G   UNL     1      -4.055  -0.922 -10.817  1.00  0.00     0.000 G0
ENDBRANCH   6   7
ENDBRANCH   5   6
ENDBRANCH   3   5
ENDBRANCH   1   3
BRANCH   1  11
ATOM     11  C   UNL     1      -7.113   0.007 -10.775  1.00  0.00     0.087 C 
BRANCH  11  12
ATOM     12  C   UNL     1      -6.664  -1.454 -10.508  1.00  0.00     0.066 C 
BRANCH  12  13
ATOM     13  C   UNL     1      -5.212  -1.524 -10.046  1.00  0.00     0.140 C 
ATOM     14  O   UNL     1      -4.955  -2.105  -9.002  1.00  0.00    -0.299 OA
BRANCH  13  15
ATOM     15  C   UNL     1      -4.044  -0.937 -10.819  1.00  0.00     0.106 CG0
ATOM     16  G   UNL     1      -3.049  -0.126 -10.002  1.00  0.00     0.000 G0
ENDBRANCH  13  15
ENDBRANCH  12  13
BRANCH  12  17
ATOM     17  C   UNL     1      -6.922  -2.426 -11.703  1.00  0.00    -0.006 C 
ATOM     18  C   UNL     1      -7.194  -3.859 -11.218  1.00  0.00     0.008 C 
ATOM     19  C   UNL     1      -8.043  -1.980 -12.658  1.00  0.00     0.008 C 
ENDBRANCH  12  17
ENDBRANCH  11  12
ENDBRANCH   1  11
TORSDOF 1
ENDMDL
MODEL 3
REMARK VINA RESULT:    -3.822      1.563      3.792
REMARK INTER + INTRA:          -5.865
REMARK INTER:                  -5.434
REMARK INTRA:                  -0.431
REMARK UNBOUND:                -0.032
REMARK SMILES CC1=CCC[C@@H](C)C(=O)C[C@@H](C(C)C)C(=O)C1
REMARK SMILES IDX 8 1 9 2 6 3 7 4 5 5 4 6 3 7 2 8 1 9 10 11 11 12 15 13 16 14
REMARK SMILES IDX 17 15 12 17 13 18 14 19
REMARK H PARENT
REMARK Flexibility Score: 70.00
ROOT
ATOM      1  C   UNL     1      -7.091  -3.310 -14.178  1.00  0.00     0.136 C 
ATOM      2  O   UNL     1      -5.983  -2.836 -14.385  1.00  0.00    -0.299 OA
ENDROOT
BRANCH   1   3
ATOM      3  C   UNL     1      -7.703  -3.234 -12.787  1.00  0.00     0.053 C 
ATOM      4  C   UNL     1      -8.025  -1.788 -12.374  1.00  0.00     0.016 C 
BRANCH   3   5
ATOM      5  C   UNL     1      -6.824  -3.933 -11.724  1.00  0.00     0.015 C 
BRANCH   5   6
ATOM      6  C   UNL     1      -7.317  -5.341 -11.313  1.00  0.00     0.028 C 
BRANCH   6   7
ATOM      7  C   UNL     1      -6.433  -6.415 -11.902  1.00  0.00    -0.028 C 
ATOM      8  C   UNL     1      -6.815  -7.332 -12.825  1.00  0.00    -0.070 CG0
ATOM      9  C   UNL     1      -5.834  -8.418 -13.189  1.00  0.00     0.039 C 
ATOM     10  G   UNL     1      -8.174  -7.319 -13.508  1.00  0.00     0.000 G0
ENDBRANCH   6   7
ENDBRANCH   5   6
ENDBRANCH   3   5
ENDBRANCH   1   3
BRANCH   1  11
ATOM     11  C   UNL     1      -7.811  -3.996 -15.318  1.00  0.00     0.087 C 
BRANCH  11  12
ATOM     12  C   UNL     1      -8.836  -5.053 -14.828  1.00  0.00     0.066 C 
BRANCH  12  13
ATOM     13  C   UNL     1      -8.231  -6.453 -14.791  1.00  0.00     0.140 C 
ATOM     14  O   UNL     1      -7.752  -6.912 -15.818  1.00  0.00    -0.299 OA
BRANCH  13  15
ATOM     15  C   UNL     1      -8.155  -7.315 -13.543  1.00  0.00     0.106 CG0
ATOM     16  G   UNL     1      -6.806  -7.347 -12.842  1.00  0.00     0.000 G0
ENDBRANCH  13  15
ENDBRANCH  12  13
BRANCH  12  17
ATOM     17  C   UNL     1     -10.184  -5.043 -15.615  1.00  0.00    -0.006 C 
ATOM     18  C   UNL     1     -11.391  -5.177 -14.672  1.00  0.00     0.008 C 
ATOM     19  C   UNL     1     -10.378  -3.824 -16.534  1.00  0.00     0.008 C 
ENDBRANCH  12  17
ENDBRANCH  11  12
ENDBRANCH   1  11
TORSDOF 1
ENDMDL
MODEL 4
REMARK VINA RESULT:    -3.692      4.067      6.378
REMARK INTER + INTRA:          -5.666
REMARK INTER:                  -5.572
REMARK INTRA:                  -0.095
REMARK UNBOUND:                -0.032
REMARK SMILES CC1=CCC[C@@H](C)C(=O)C[C@@H](C(C)C)C(=O)C1
REMARK SMILES IDX 8 1 9 2 6 3 7 4 5 5 4 6 3 7 2 8 1 9 10 11 11 12 15 13 16 14
REMARK SMILES IDX 17 15 12 17 13 18 14 19
REMARK H PARENT
REMARK Flexibility Score: 70.00
ROOT
ATOM      1  C   UNL     1      -7.151  -3.119 -12.028  1.00  0.00     0.136 C 
ATOM      2  O   UNL     1      -6.903  -4.255 -11.648  1.00  0.00    -0.299 OA
ENDROOT
BRANCH   1   3
ATOM      3  C   UNL     1      -7.189  -2.806 -13.515  1.00  0.00     0.053 C 
ATOM      4  C   UNL     1      -8.416  -3.423 -14.207  1.00  0.00     0.016 C 
BRANCH   3   5
ATOM      5  C   UNL     1      -5.882  -3.217 -14.232  1.00  0.00     0.015 C 
BRANCH   5   6
ATOM      6  C   UNL     1      -4.687  -2.266 -13.977  1.00  0.00     0.028 C 
BRANCH   6   7
ATOM      7  C   UNL     1      -3.632  -2.941 -13.132  1.00  0.00    -0.028 C 
ATOM      8  C   UNL     1      -3.122  -2.456 -11.973  1.00  0.00    -0.070 CG0
ATOM      9  C   UNL     1      -1.971  -3.200 -11.343  1.00  0.00     0.039 C 
ATOM     10  G   UNL     1      -3.650  -1.209 -11.280  1.00  0.00     0.000 G0
ENDBRANCH   6   7
ENDBRANCH   5   6
ENDBRANCH   3   5
ENDBRANCH   1   3
BRANCH   1  11
ATOM     11  C   UNL     1      -7.380  -2.042 -10.989  1.00  0.00     0.087 C 
BRANCH  11  12
ATOM     12  C   UNL     1      -6.316  -0.915 -11.055  1.00  0.00     0.066 C 
BRANCH  12  13
ATOM     13  C   UNL     1      -4.966  -1.379 -10.516  1.00  0.00     0.140 C 
ATOM     14  O   UNL     1      -4.930  -1.950  -9.437  1.00  0.00    -0.299 OA
BRANCH  13  15
ATOM     15  C   UNL     1      -3.650  -1.203 -11.253  1.00  0.00     0.106 CG0
ATOM     16  G   UNL     1      -3.114  -2.441 -11.956  1.00  0.00     0.000 G0
ENDBRANCH  13  15
ENDBRANCH  12  13
BRANCH  12  17
ATOM     17  C   UNL     1      -6.762   0.420 -10.379  1.00  0.00    -0.006 C 
ATOM     18  C   UNL     1      -7.007   0.238  -8.872  1.00  0.00     0.008 C 
ATOM     19  C   UNL     1      -5.805   1.603 -10.609  1.00  0.00     0.008 C 
ENDBRANCH  12  17
ENDBRANCH  11  12
ENDBRANCH   1  11
TORSDOF 1
ENDMDL
MODEL 5
REMARK VINA RESULT:    -3.674      6.791      8.650
REMARK INTER + INTRA:          -5.639
REMARK INTER:                  -5.197
REMARK INTRA:                  -0.442
REMARK UNBOUND:                -0.032
REMARK SMILES CC1=CCC[C@@H](C)C(=O)C[C@@H](C(C)C)C(=O)C1
REMARK SMILES IDX 8 1 9 2 6 3 7 4 5 5 4 6 3 7 2 8 1 9 10 11 11 12 15 13 16 14
REMARK SMILES IDX 17 15 12 17 13 18 14 19
REMARK H PARENT
REMARK Flexibility Score: 70.00
ROOT
ATOM      1  C   UNL     1      -4.989   1.506  -8.950  1.00  0.00     0.136 C 
ATOM      2  O   UNL     1      -5.402   2.077  -7.951  1.00  0.00    -0.299 OA
ENDROOT
BRANCH   1   3
ATOM      3  C   UNL     1      -5.906   1.313 -10.149  1.00  0.00     0.053 C 
ATOM      4  C   UNL     1      -6.624   2.615 -10.544  1.00  0.00     0.016 C 
BRANCH   3   5
ATOM      5  C   UNL     1      -6.917   0.164  -9.933  1.00  0.00     0.015 C 
BRANCH   5   6
ATOM      6  C   UNL     1      -6.282  -1.247  -9.894  1.00  0.00     0.028 C 
BRANCH   6   7
ATOM      7  C   UNL     1      -5.796  -1.656 -11.265  1.00  0.00    -0.028 C 
ATOM      8  C   UNL     1      -4.498  -1.757 -11.643  1.00  0.00    -0.070 CG0
ATOM      9  C   UNL     1      -4.205  -2.040 -13.096  1.00  0.00     0.039 C 
ATOM     10  G   UNL     1      -3.329  -1.603 -10.682  1.00  0.00     0.000 G0
ENDBRANCH   6   7
ENDBRANCH   5   6
ENDBRANCH   3   5
ENDBRANCH   1   3
BRANCH   1  11
ATOM     11  C   UNL     1      -3.574   0.970  -8.946  1.00  0.00     0.087 C 
BRANCH  11  12
ATOM     12  C   UNL     1      -2.905   1.040 -10.345  1.00  0.00     0.066 C 
BRANCH  12  13
ATOM     13  C   UNL     1      -2.476  -0.340 -10.836  1.00  0.00     0.140 C 
ATOM     14  O   UNL     1      -1.385  -0.458 -11.373  1.00  0.00    -0.299 OA
BRANCH  13  15
ATOM     15  C   UNL     1      -3.311  -1.597 -10.674  1.00  0.00     0.106 CG0
ATOM     16  G   UNL     1      -4.487  -1.738 -11.629  1.00  0.00     0.000 G0
ENDBRANCH  13  15
ENDBRANCH  12  13
BRANCH  12  17
ATOM     17  C   UNL     1      -1.727   2.061 -10.435  1.00  0.00    -0.006 C 
ATOM     18  C   UNL     1      -1.763   2.852 -11.753  1.00  0.00     0.008 C 
ATOM     19  C   UNL     1      -1.636   3.036  -9.247  1.00  0.00     0.008 C 
ENDBRANCH  12  17
ENDBRANCH  11  12
ENDBRANCH   1  11
TORSDOF 1
ENDMDL
MODEL 6
REMARK VINA RESULT:    -3.536      2.309      4.789
REMARK INTER + INTRA:          -5.429
REMARK INTER:                  -5.312
REMARK INTRA:                  -0.116
REMARK UNBOUND:                -0.032
REMARK SMILES CC1=CCC[C@@H](C)C(=O)C[C@@H](C(C)C)C(=O)C1
REMARK SMILES IDX 8 1 9 2 6 3 7 4 5 5 4 6 3 7 2 8 1 9 10 11 11 12 15 13 16 14
REMARK SMILES IDX 17 15 12 17 13 18 14 19
REMARK H PARENT
REMARK Flexibility Score: 70.00
ROOT
ATOM      1  C   UNL     1      -7.673  -2.653 -13.265  1.00  0.00     0.136 C 
ATOM      2  O   UNL     1      -8.499  -1.941 -12.712  1.00  0.00    -0.299 OA
ENDROOT
BRANCH   1   3
ATOM      3  C   UNL     1      -6.407  -3.063 -12.528  1.00  0.00     0.053 C 
ATOM      4  C   UNL     1      -6.633  -3.181 -11.011  1.00  0.00     0.016 C 
BRANCH   3   5
ATOM      5  C   UNL     1      -5.219  -2.125 -12.842  1.00  0.00     0.015 C 
BRANCH   5   6
ATOM      6  C   UNL     1      -4.215  -2.690 -13.876  1.00  0.00     0.028 C 
BRANCH   6   7
ATOM      7  C   UNL     1      -4.071  -4.186 -13.724  1.00  0.00    -0.028 C 
ATOM      8  C   UNL     1      -4.732  -5.120 -14.451  1.00  0.00    -0.070 CG0
ATOM      9  C   UNL     1      -4.568  -6.567 -14.060  1.00  0.00     0.039 C 
ATOM     10  G   UNL     1      -5.625  -4.783 -15.636  1.00  0.00     0.000 G0
ENDBRANCH   6   7
ENDBRANCH   5   6
ENDBRANCH   3   5
ENDBRANCH   1   3
BRANCH   1  11
ATOM     11  C   UNL     1      -7.924  -3.077 -14.696  1.00  0.00     0.087 C 
BRANCH  11  12
ATOM     12  C   UNL     1      -8.193  -4.600 -14.829  1.00  0.00     0.066 C 
BRANCH  12  13
ATOM     13  C   UNL     1      -7.054  -5.314 -15.549  1.00  0.00     0.140 C 
ATOM     14  O   UNL     1      -7.291  -6.366 -16.125  1.00  0.00    -0.299 OA
BRANCH  13  15
ATOM     15  C   UNL     1      -5.632  -4.787 -15.625  1.00  0.00     0.106 CG0
ATOM     16  G   UNL     1      -4.744  -5.104 -14.431  1.00  0.00     0.000 G0
ENDBRANCH  13  15
ENDBRANCH  12  13
BRANCH  12  17
ATOM     17  C   UNL     1      -9.572  -4.947 -15.473  1.00  0.00    -0.006 C 
ATOM     18  C   UNL     1     -10.624  -5.296 -14.407  1.00  0.00     0.008 C 
ATOM     19  C   UNL     1     -10.128  -3.863 -16.414  1.00  0.00     0.008 C 
ENDBRANCH  12  17
ENDBRANCH  11  12
ENDBRANCH   1  11
TORSDOF 1
ENDMDL
MODEL 7
REMARK VINA RESULT:    -3.462      7.014      9.838
REMARK INTER + INTRA:          -5.315
REMARK INTER:                  -4.805
REMARK INTRA:                  -0.510
REMARK UNBOUND:                -0.032
REMARK SMILES CC1=CCC[C@@H](C)C(=O)C[C@@H](C(C)C)C(=O)C1
REMARK SMILES IDX 8 1 9 2 6 3 7 4 5 5 4 6 3 7 2 8 1 9 10 11 11 12 15 13 16 14
REMARK SMILES IDX 17 15 12 17 13 18 14 19
REMARK H PARENT
REMARK Flexibility Score: 70.00
ROOT
ATOM      1  C   UNL     1      -5.483   1.112 -10.365  1.00  0.00     0.136 C 
ATOM      2  O   UNL     1      -6.105   2.044 -10.855  1.00  0.00    -0.299 OA
ENDROOT
BRANCH   1   3
ATOM      3  C   UNL     1      -5.807   0.638  -8.957  1.00  0.00     0.053 C 
ATOM      4  C   UNL     1      -7.313   0.399  -8.758  1.00  0.00     0.016 C 
BRANCH   3   5
ATOM      5  C   UNL     1      -5.249   1.593  -7.877  1.00  0.00     0.015 C 
BRANCH   5   6
ATOM      6  C   UNL     1      -4.044   1.028  -7.085  1.00  0.00     0.028 C 
BRANCH   6   7
ATOM      7  C   UNL     1      -2.757   1.691  -7.518  1.00  0.00    -0.028 C 
ATOM      8  C   UNL     1      -1.733   1.077  -8.161  1.00  0.00    -0.070 CG0
ATOM      9  C   UNL     1      -0.467   1.866  -8.385  1.00  0.00     0.039 C 
ATOM     10  G   UNL     1      -1.798  -0.356  -8.666  1.00  0.00     0.000 G0
ENDBRANCH   6   7
ENDBRANCH   5   6
ENDBRANCH   3   5
ENDBRANCH   1   3
BRANCH   1  11
ATOM     11  C   UNL     1      -4.372   0.478 -11.173  1.00  0.00     0.087 C 
BRANCH  11  12
ATOM     12  C   UNL     1      -3.753  -0.759 -10.471  1.00  0.00     0.066 C 
BRANCH  12  13
ATOM     13  C   UNL     1      -2.292  -0.526 -10.098  1.00  0.00     0.140 C 
ATOM     14  O   UNL     1      -1.463  -0.450 -10.992  1.00  0.00    -0.299 OA
BRANCH  13  15
ATOM     15  C   UNL     1      -1.796  -0.350  -8.674  1.00  0.00     0.106 CG0
ATOM     16  G   UNL     1      -1.726   1.083  -8.169  1.00  0.00     0.000 G0
ENDBRANCH  13  15
ENDBRANCH  12  13
BRANCH  12  17
ATOM     17  C   UNL     1      -3.925  -2.093 -11.265  1.00  0.00    -0.006 C 
ATOM     18  C   UNL     1      -3.822  -3.318 -10.342  1.00  0.00     0.008 C 
ATOM     19  C   UNL     1      -5.217  -2.178 -12.097  1.00  0.00     0.008 C 
ENDBRANCH  12  17
ENDBRANCH  11  12
ENDBRANCH   1  11
TORSDOF 1
ENDMDL
MODEL 8
REMARK VINA RESULT:    -3.460      7.392      9.794
REMARK INTER + INTRA:          -5.313
REMARK INTER:                  -4.800
REMARK INTRA:                  -0.513
REMARK UNBOUND:                -0.032
REMARK SMILES CC1=CCC[C@@H](C)C(=O)C[C@@H](C(C)C)C(=O)C1
REMARK SMILES IDX 8 1 9 2 6 3 7 4 5 5 4 6 3 7 2 8 1 9 10 11 11 12 15 13 16 14
REMARK SMILES IDX 17 15 12 17 13 18 14 19
REMARK H PARENT
REMARK Flexibility Score: 70.00
ROOT
ATOM      1  C   UNL     1      -4.833  -1.889 -10.129  1.00  0.00     0.136 C 
ATOM      2  O   UNL     1      -5.355  -2.987 -10.266  1.00  0.00    -0.299 OA
ENDROOT
BRANCH   1   3
ATOM      3  C   UNL     1      -3.851  -1.379 -11.172  1.00  0.00     0.053 C 
ATOM      4  C   UNL     1      -4.329  -1.663 -12.606  1.00  0.00     0.016 C 
BRANCH   3   5
ATOM      5  C   UNL     1      -2.422  -1.924 -10.944  1.00  0.00     0.015 C 
BRANCH   5   6
ATOM      6  C   UNL     1      -1.389  -0.852 -10.520  1.00  0.00     0.028 C 
BRANCH   6   7
ATOM      7  C   UNL     1      -1.054  -0.980  -9.052  1.00  0.00    -0.028 C 
ATOM      8  C   UNL     1      -1.402  -0.097  -8.084  1.00  0.00    -0.070 CG0
ATOM      9  C   UNL     1      -0.854  -0.317  -6.696  1.00  0.00     0.039 C 
ATOM     10  G   UNL     1      -2.315   1.096  -8.325  1.00  0.00     0.000 G0
ENDBRANCH   6   7
ENDBRANCH   5   6
ENDBRANCH   3   5
ENDBRANCH   1   3
BRANCH   1  11
ATOM     11  C   UNL     1      -5.159  -1.082  -8.892  1.00  0.00     0.087 C 
BRANCH  11  12
ATOM     12  C   UNL     1      -4.811   0.422  -9.051  1.00  0.00     0.066 C 
BRANCH  12  13
ATOM     13  C   UNL     1      -3.792   0.880  -8.013  1.00  0.00     0.140 C 
ATOM     14  O   UNL     1      -4.165   1.059  -6.863  1.00  0.00    -0.299 OA
BRANCH  13  15
ATOM     15  C   UNL     1      -2.319   1.103  -8.308  1.00  0.00     0.106 CG0
ATOM     16  G   UNL     1      -1.410  -0.097  -8.087  1.00  0.00     0.000 G0
ENDBRANCH  13  15
ENDBRANCH  12  13
BRANCH  12  17
ATOM     17  C   UNL     1      -6.057   1.364  -9.070  1.00  0.00    -0.006 C 
ATOM     18  C   UNL     1      -6.137   2.171 -10.376  1.00  0.00     0.008 C 
ATOM     19  C   UNL     1      -7.399   0.652  -8.817  1.00  0.00     0.008 C 
ENDBRANCH  12  17
ENDBRANCH  11  12
ENDBRANCH   1  11
TORSDOF 1
ENDMDL
MODEL 9
REMARK VINA RESULT:    -3.436      5.860      8.595
REMARK INTER + INTRA:          -5.276
REMARK INTER:                  -4.777
REMARK INTRA:                  -0.500
REMARK UNBOUND:                -0.032
REMARK SMILES CC1=CCC[C@@H](C)C(=O)C[C@@H](C(C)C)C(=O)C1
REMARK SMILES IDX 8 1 9 2 6 3 7 4 5 5 4 6 3 7 2 8 1 9 10 11 11 12 15 13 16 14
REMARK SMILES IDX 17 15 12 17 13 18 14 19
REMARK H PARENT
REMARK Flexibility Score: 70.00
ROOT
ATOM      1  C   UNL     1      -5.619   0.713 -10.485  1.00  0.00     0.136 C 
ATOM      2  O   UNL     1      -5.883   1.847 -10.861  1.00  0.00    -0.299 OA
ENDROOT
BRANCH   1   3
ATOM      3  C   UNL     1      -5.874   0.312  -9.040  1.00  0.00     0.053 C 
ATOM      4  C   UNL     1      -7.336   0.545  -8.624  1.00  0.00     0.016 C 
BRANCH   3   5
ATOM      5  C   UNL     1      -4.900   1.008  -8.061  1.00  0.00     0.015 C 
BRANCH   5   6
ATOM      6  C   UNL     1      -3.426   1.028  -8.533  1.00  0.00     0.028 C 
BRANCH   6   7
ATOM      7  C   UNL     1      -2.670  -0.160  -7.987  1.00  0.00    -0.028 C 
ATOM      8  C   UNL     1      -2.312  -1.260  -8.695  1.00  0.00    -0.070 CG0
ATOM      9  C   UNL     1      -1.688  -2.410  -7.945  1.00  0.00     0.039 C 
ATOM     10  G   UNL     1      -2.505  -1.389 -10.198  1.00  0.00     0.000 G0
ENDBRANCH   6   7
ENDBRANCH   5   6
ENDBRANCH   3   5
ENDBRANCH   1   3
BRANCH   1  11
ATOM     11  C   UNL     1      -5.006  -0.254 -11.474  1.00  0.00     0.087 C 
BRANCH  11  12
ATOM     12  C   UNL     1      -5.067  -1.726 -10.987  1.00  0.00     0.066 C 
BRANCH  12  13
ATOM     13  C   UNL     1      -3.681  -2.268 -10.651  1.00  0.00     0.140 C 
ATOM     14  O   UNL     1      -3.476  -3.467 -10.767  1.00  0.00    -0.299 OA
BRANCH  13  15
ATOM     15  C   UNL     1      -2.515  -1.404 -10.204  1.00  0.00     0.106 CG0
ATOM     16  G   UNL     1      -2.329  -1.268  -8.700  1.00  0.00     0.000 G0
ENDBRANCH  13  15
ENDBRANCH  12  13
BRANCH  12  17
ATOM     17  C   UNL     1      -5.826  -2.685 -11.956  1.00  0.00    -0.006 C 
ATOM     18  C   UNL     1      -7.351  -2.555 -11.804  1.00  0.00     0.008 C 
ATOM     19  C   UNL     1      -5.439  -2.533 -13.438  1.00  0.00     0.008 C 
ENDBRANCH  12  17
ENDBRANCH  11  12
ENDBRANCH   1  11
TORSDOF 1
ENDMDL
