MODEL 1
REMARK VINA RESULT:    -9.645      0.000      0.000
REMARK INTER + INTRA:          -9.927
REMARK INTER:                  -9.927
REMARK INTRA:                   0.000
REMARK UNBOUND:                 0.000
REMARK SMILES CC1(C)CC[C@]2(C)CC[C@]3(C)C(=CC[C@H]4[C@]5(C)CC[C@H](O)C(C)(C)[C@@H]5CC[C@]43C)[C@H]2C1
REMARK SMILES IDX 1 1 2 2 4 3 5 4 6 5 8 6 9 7 10 8 12 9 13 10 14 11 15 12
REMARK SMILES IDX 28 13 27 14 26 15 25 16 16 17 18 18 19 19 20 20 22 21 23 22
REMARK SMILES IDX 24 23 17 24 29 25 30 26 31 27 11 28 7 29 3 30 21 31
REMARK H PARENT 21 32
REMARK Flexibility Score: inf
ROOT
ATOM      1  C   UNL     1     128.457 127.867 140.374  1.00  0.00     0.011 C 
ATOM      2  C   UNL     1     129.923 127.762 140.844  1.00  0.00    -0.035 C 
ATOM      3  C   UNL     1     129.941 127.666 142.405  1.00  0.00     0.007 C 
ATOM      4  C   UNL     1     131.287 127.192 143.008  1.00  0.00     0.008 C 
ATOM      5  C   UNL     1     131.798 125.876 142.364  1.00  0.00    -0.026 C 
ATOM      6  C   UNL     1     133.208 125.466 142.935  1.00  0.00     0.008 C 
ATOM      7  C   UNL     1     134.399 125.742 141.984  1.00  0.00     0.012 C 
ATOM      8  C   UNL     1     134.267 125.133 140.503  1.00  0.00    -0.006 C 
ATOM      9  C   UNL     1     132.757 125.039 140.216  1.00  0.00    -0.064 C 
ATOM     10  C   UNL     1     132.154 123.896 139.878  1.00  0.00    -0.027 C 
ATOM     11  C   UNL     1     132.822 122.571 139.886  1.00  0.00     0.032 C 
ATOM     12  C   UNL     1     134.184 122.489 140.665  1.00  0.00     0.006 C 
ATOM     13  C   UNL     1     135.075 123.732 140.261  1.00  0.00    -0.020 C 
ATOM     14  C   UNL     1     135.448 123.505 138.761  1.00  0.00     0.008 C 
ATOM     15  C   UNL     1     136.108 122.143 138.460  1.00  0.00     0.005 C 
ATOM     16  C   UNL     1     135.358 120.867 138.957  1.00  0.00     0.003 C 
ATOM     17  C   UNL     1     134.821 121.022 140.445  1.00  0.00    -0.025 C 
ATOM     18  C   UNL     1     135.951 120.690 141.474  1.00  0.00     0.010 C 
ATOM     19  C   UNL     1     136.676 119.358 141.218  1.00  0.00     0.033 C 
ATOM     20  C   UNL     1     137.266 119.279 139.804  1.00  0.00     0.120 C 
ATOM     21  C   UNL     1     136.203 119.538 138.682  1.00  0.00    -0.006 C 
ATOM     22  C   UNL     1     136.936 119.606 137.309  1.00  0.00     0.014 C 
ATOM     23  C   UNL     1     135.270 118.297 138.557  1.00  0.00     0.014 C 
ATOM     24  C   UNL     1     133.676 119.989 140.739  1.00  0.00     0.012 C 
ATOM     25  C   UNL     1     136.417 123.825 141.057  1.00  0.00     0.012 C 
ATOM     26  C   UNL     1     131.912 126.142 140.836  1.00  0.00     0.022 C 
ATOM     27  C   UNL     1     130.563 126.499 140.179  1.00  0.00     0.015 C 
ATOM     28  C   UNL     1     134.821 126.220 139.525  1.00  0.00     0.017 C 
ATOM     29  C   UNL     1     130.811 124.723 142.714  1.00  0.00     0.012 C 
ATOM     30  C   UNL     1     130.653 129.052 140.391  1.00  0.00     0.011 C 
ENDROOT
BRANCH  20  31
ATOM     31  O   UNL     1     138.332 120.194 139.718  1.00  0.00    -0.393 OA
ATOM     32  H   UNL     1     138.014 121.062 140.083  1.00  0.00     0.210 HD
ENDBRANCH  20  31
TORSDOF 1
ENDMDL
MODEL 2
REMARK VINA RESULT:    -9.354      3.338      8.353
REMARK INTER + INTRA:          -9.627
REMARK INTER:                  -9.627
REMARK INTRA:                   0.000
REMARK UNBOUND:                 0.000
REMARK SMILES CC1(C)CC[C@]2(C)CC[C@]3(C)C(=CC[C@H]4[C@]5(C)CC[C@H](O)C(C)(C)[C@@H]5CC[C@]43C)[C@H]2C1
REMARK SMILES IDX 1 1 2 2 4 3 5 4 6 5 8 6 9 7 10 8 12 9 13 10 14 11 15 12
REMARK SMILES IDX 28 13 27 14 26 15 25 16 16 17 18 18 19 19 20 20 22 21 23 22
REMARK SMILES IDX 24 23 17 24 29 25 30 26 31 27 11 28 7 29 3 30 21 31
REMARK H PARENT 21 32
REMARK Flexibility Score: inf
ROOT
ATOM      1  C   UNL     1     136.452 120.333 138.688  1.00  0.00     0.011 C 
ATOM      2  C   UNL     1     135.662 121.214 139.678  1.00  0.00    -0.035 C 
ATOM      3  C   UNL     1     136.650 121.751 140.766  1.00  0.00     0.007 C 
ATOM      4  C   UNL     1     136.103 122.928 141.611  1.00  0.00     0.008 C 
ATOM      5  C   UNL     1     135.556 124.087 140.735  1.00  0.00    -0.026 C 
ATOM      6  C   UNL     1     134.929 125.230 141.620  1.00  0.00     0.008 C 
ATOM      7  C   UNL     1     133.381 125.258 141.644  1.00  0.00     0.012 C 
ATOM      8  C   UNL     1     132.660 125.289 140.207  1.00  0.00    -0.006 C 
ATOM      9  C   UNL     1     133.635 124.610 139.228  1.00  0.00    -0.064 C 
ATOM     10  C   UNL     1     134.089 125.210 138.125  1.00  0.00    -0.027 C 
ATOM     11  C   UNL     1     133.836 126.634 137.790  1.00  0.00     0.032 C 
ATOM     12  C   UNL     1     133.316 127.537 138.966  1.00  0.00     0.006 C 
ATOM     13  C   UNL     1     132.159 126.768 139.722  1.00  0.00    -0.020 C 
ATOM     14  C   UNL     1     130.975 126.698 138.705  1.00  0.00     0.008 C 
ATOM     15  C   UNL     1     130.540 128.060 138.126  1.00  0.00     0.005 C 
ATOM     16  C   UNL     1     131.656 128.947 137.488  1.00  0.00     0.003 C 
ATOM     17  C   UNL     1     132.970 129.001 138.381  1.00  0.00    -0.025 C 
ATOM     18  C   UNL     1     132.828 130.084 139.501  1.00  0.00     0.010 C 
ATOM     19  C   UNL     1     132.367 131.464 139.000  1.00  0.00     0.033 C 
ATOM     20  C   UNL     1     131.046 131.389 138.223  1.00  0.00     0.120 C 
ATOM     21  C   UNL     1     131.092 130.372 137.032  1.00  0.00    -0.006 C 
ATOM     22  C   UNL     1     129.662 130.249 136.427  1.00  0.00     0.014 C 
ATOM     23  C   UNL     1     131.948 130.968 135.875  1.00  0.00     0.014 C 
ATOM     24  C   UNL     1     134.210 129.447 137.529  1.00  0.00     0.012 C 
ATOM     25  C   UNL     1     131.631 127.520 140.987  1.00  0.00     0.012 C 
ATOM     26  C   UNL     1     134.459 123.475 139.820  1.00  0.00     0.022 C 
ATOM     27  C   UNL     1     134.995 122.379 138.876  1.00  0.00     0.015 C 
ATOM     28  C   UNL     1     131.424 124.337 140.309  1.00  0.00     0.017 C 
ATOM     29  C   UNL     1     136.735 124.722 139.939  1.00  0.00     0.012 C 
ATOM     30  C   UNL     1     134.587 120.319 140.345  1.00  0.00     0.011 C 
ENDROOT
BRANCH  20  31
ATOM     31  O   UNL     1     130.018 131.067 139.129  1.00  0.00    -0.393 OA
ATOM     32  H   UNL     1     129.465 130.353 138.716  1.00  0.00     0.210 HD
ENDBRANCH  20  31
TORSDOF 1
ENDMDL
MODEL 3
REMARK VINA RESULT:    -8.972      5.452     11.070
REMARK INTER + INTRA:          -9.234
REMARK INTER:                  -9.234
REMARK INTRA:                   0.000
REMARK UNBOUND:                 0.000
REMARK SMILES CC1(C)CC[C@]2(C)CC[C@]3(C)C(=CC[C@H]4[C@]5(C)CC[C@H](O)C(C)(C)[C@@H]5CC[C@]43C)[C@H]2C1
REMARK SMILES IDX 1 1 2 2 4 3 5 4 6 5 8 6 9 7 10 8 12 9 13 10 14 11 15 12
REMARK SMILES IDX 28 13 27 14 26 15 25 16 16 17 18 18 19 19 20 20 22 21 23 22
REMARK SMILES IDX 24 23 17 24 29 25 30 26 31 27 11 28 7 29 3 30 21 31
REMARK H PARENT 21 32
REMARK Flexibility Score: inf
ROOT
ATOM      1  C   UNL     1     136.118 125.264 138.429  1.00  0.00     0.011 C 
ATOM      2  C   UNL     1     135.534 126.343 137.492  1.00  0.00    -0.035 C 
ATOM      3  C   UNL     1     134.428 125.685 136.602  1.00  0.00     0.007 C 
ATOM      4  C   UNL     1     133.501 126.690 135.875  1.00  0.00     0.008 C 
ATOM      5  C   UNL     1     132.887 127.739 136.840  1.00  0.00    -0.026 C 
ATOM      6  C   UNL     1     132.019 128.799 136.061  1.00  0.00     0.008 C 
ATOM      7  C   UNL     1     132.692 130.181 135.876  1.00  0.00     0.012 C 
ATOM      8  C   UNL     1     133.240 130.876 137.217  1.00  0.00    -0.006 C 
ATOM      9  C   UNL     1     133.561 129.728 138.191  1.00  0.00    -0.064 C 
ATOM     10  C   UNL     1     133.021 129.639 139.409  1.00  0.00    -0.027 C 
ATOM     11  C   UNL     1     131.949 130.534 139.910  1.00  0.00     0.032 C 
ATOM     12  C   UNL     1     131.191 131.379 138.822  1.00  0.00     0.006 C 
ATOM     13  C   UNL     1     132.257 132.023 137.847  1.00  0.00    -0.020 C 
ATOM     14  C   UNL     1     133.031 133.068 138.712  1.00  0.00     0.008 C 
ATOM     15  C   UNL     1     132.138 134.103 139.426  1.00  0.00     0.005 C 
ATOM     16  C   UNL     1     130.966 133.547 140.297  1.00  0.00     0.003 C 
ATOM     17  C   UNL     1     130.169 132.383 139.565  1.00  0.00    -0.025 C 
ATOM     18  C   UNL     1     129.093 132.978 138.598  1.00  0.00     0.010 C 
ATOM     19  C   UNL     1     128.182 134.042 139.234  1.00  0.00     0.033 C 
ATOM     20  C   UNL     1     128.980 135.200 139.848  1.00  0.00     0.120 C 
ATOM     21  C   UNL     1     130.054 134.723 140.883  1.00  0.00    -0.006 C 
ATOM     22  C   UNL     1     130.914 135.950 141.309  1.00  0.00     0.014 C 
ATOM     23  C   UNL     1     129.345 134.278 142.197  1.00  0.00     0.014 C 
ATOM     24  C   UNL     1     129.364 131.519 140.599  1.00  0.00     0.012 C 
ATOM     25  C   UNL     1     131.621 132.801 136.650  1.00  0.00     0.012 C 
ATOM     26  C   UNL     1     134.078 128.454 137.539  1.00  0.00     0.022 C 
ATOM     27  C   UNL     1     134.956 127.499 138.373  1.00  0.00     0.015 C 
ATOM     28  C   UNL     1     134.615 131.525 136.853  1.00  0.00     0.017 C 
ATOM     29  C   UNL     1     131.935 127.015 137.839  1.00  0.00     0.012 C 
ATOM     30  C   UNL     1     136.688 126.858 136.596  1.00  0.00     0.011 C 
ENDROOT
BRANCH  20  31
ATOM     31  O   UNL     1     129.571 135.933 138.801  1.00  0.00    -0.393 OA
ATOM     32  H   UNL     1     129.168 136.841 138.804  1.00  0.00     0.210 HD
ENDBRANCH  20  31
TORSDOF 1
ENDMDL
MODEL 4
REMARK VINA RESULT:    -8.942      5.759      8.805
REMARK INTER + INTRA:          -9.203
REMARK INTER:                  -9.203
REMARK INTRA:                   0.000
REMARK UNBOUND:                 0.000
REMARK SMILES CC1(C)CC[C@]2(C)CC[C@]3(C)C(=CC[C@H]4[C@]5(C)CC[C@H](O)C(C)(C)[C@@H]5CC[C@]43C)[C@H]2C1
REMARK SMILES IDX 1 1 2 2 4 3 5 4 6 5 8 6 9 7 10 8 12 9 13 10 14 11 15 12
REMARK SMILES IDX 28 13 27 14 26 15 25 16 16 17 18 18 19 19 20 20 22 21 23 22
REMARK SMILES IDX 24 23 17 24 29 25 30 26 31 27 11 28 7 29 3 30 21 31
REMARK H PARENT 21 32
REMARK Flexibility Score: inf
ROOT
ATOM      1  C   UNL     1     133.865 134.227 136.402  1.00  0.00     0.011 C 
ATOM      2  C   UNL     1     132.793 134.210 137.513  1.00  0.00    -0.035 C 
ATOM      3  C   UNL     1     131.421 134.628 136.889  1.00  0.00     0.007 C 
ATOM      4  C   UNL     1     130.188 134.312 137.771  1.00  0.00     0.008 C 
ATOM      5  C   UNL     1     130.156 132.835 138.244  1.00  0.00    -0.026 C 
ATOM      6  C   UNL     1     128.939 132.566 139.209  1.00  0.00     0.008 C 
ATOM      7  C   UNL     1     129.310 132.458 140.708  1.00  0.00     0.012 C 
ATOM      8  C   UNL     1     130.471 131.406 141.067  1.00  0.00    -0.006 C 
ATOM      9  C   UNL     1     131.349 131.296 139.808  1.00  0.00    -0.064 C 
ATOM     10  C   UNL     1     131.589 130.137 139.190  1.00  0.00    -0.027 C 
ATOM     11  C   UNL     1     130.928 128.856 139.543  1.00  0.00     0.032 C 
ATOM     12  C   UNL     1     129.643 128.967 140.442  1.00  0.00     0.006 C 
ATOM     13  C   UNL     1     129.941 129.965 141.632  1.00  0.00    -0.020 C 
ATOM     14  C   UNL     1     131.002 129.242 142.523  1.00  0.00     0.008 C 
ATOM     15  C   UNL     1     130.599 127.827 142.985  1.00  0.00     0.005 C 
ATOM     16  C   UNL     1     130.151 126.821 141.878  1.00  0.00     0.003 C 
ATOM     17  C   UNL     1     129.152 127.479 140.831  1.00  0.00    -0.025 C 
ATOM     18  C   UNL     1     127.686 127.447 141.375  1.00  0.00     0.010 C 
ATOM     19  C   UNL     1     127.224 126.070 141.884  1.00  0.00     0.033 C 
ATOM     20  C   UNL     1     128.158 125.505 142.962  1.00  0.00     0.120 C 
ATOM     21  C   UNL     1     129.654 125.435 142.502  1.00  0.00    -0.006 C 
ATOM     22  C   UNL     1     130.529 125.015 143.720  1.00  0.00     0.014 C 
ATOM     23  C   UNL     1     129.828 124.268 141.485  1.00  0.00     0.014 C 
ATOM     24  C   UNL     1     129.116 126.656 139.495  1.00  0.00     0.012 C 
ATOM     25  C   UNL     1     128.699 130.246 142.538  1.00  0.00     0.012 C 
ATOM     26  C   UNL     1     131.489 132.581 139.004  1.00  0.00     0.022 C 
ATOM     27  C   UNL     1     132.739 132.769 138.120  1.00  0.00     0.015 C 
ATOM     28  C   UNL     1     131.365 132.085 142.155  1.00  0.00     0.017 C 
ATOM     29  C   UNL     1     129.970 131.908 137.006  1.00  0.00     0.012 C 
ATOM     30  C   UNL     1     133.217 135.244 138.586  1.00  0.00     0.011 C 
ENDROOT
BRANCH  20  31
ATOM     31  O   UNL     1     128.017 126.289 144.123  1.00  0.00    -0.393 OA
ATOM     32  H   UNL     1     128.817 126.133 144.691  1.00  0.00     0.210 HD
ENDBRANCH  20  31
TORSDOF 1
ENDMDL
MODEL 5
REMARK VINA RESULT:    -8.628      3.749      9.497
REMARK INTER + INTRA:          -8.881
REMARK INTER:                  -8.881
REMARK INTRA:                   0.000
REMARK UNBOUND:                 0.000
REMARK SMILES CC1(C)CC[C@]2(C)CC[C@]3(C)C(=CC[C@H]4[C@]5(C)CC[C@H](O)C(C)(C)[C@@H]5CC[C@]43C)[C@H]2C1
REMARK SMILES IDX 1 1 2 2 4 3 5 4 6 5 8 6 9 7 10 8 12 9 13 10 14 11 15 12
REMARK SMILES IDX 28 13 27 14 26 15 25 16 16 17 18 18 19 19 20 20 22 21 23 22
REMARK SMILES IDX 24 23 17 24 29 25 30 26 31 27 11 28 7 29 3 30 21 31
REMARK H PARENT 21 32
REMARK Flexibility Score: inf
ROOT
ATOM      1  C   UNL     1     136.000 123.188 141.270  1.00  0.00     0.011 C 
ATOM      2  C   UNL     1     135.004 123.773 140.247  1.00  0.00    -0.035 C 
ATOM      3  C   UNL     1     133.796 122.789 140.108  1.00  0.00     0.007 C 
ATOM      4  C   UNL     1     132.551 123.389 139.410  1.00  0.00     0.008 C 
ATOM      5  C   UNL     1     132.103 124.733 140.042  1.00  0.00    -0.026 C 
ATOM      6  C   UNL     1     130.889 125.362 139.258  1.00  0.00     0.008 C 
ATOM      7  C   UNL     1     131.256 126.554 138.339  1.00  0.00     0.012 C 
ATOM      8  C   UNL     1     132.069 127.750 139.039  1.00  0.00    -0.006 C 
ATOM      9  C   UNL     1     132.840 127.114 140.210  1.00  0.00    -0.064 C 
ATOM     10  C   UNL     1     132.713 127.528 141.473  1.00  0.00    -0.027 C 
ATOM     11  C   UNL     1     131.717 128.534 141.919  1.00  0.00     0.032 C 
ATOM     12  C   UNL     1     130.547 128.841 140.916  1.00  0.00     0.006 C 
ATOM     13  C   UNL     1     131.159 129.039 139.470  1.00  0.00    -0.020 C 
ATOM     14  C   UNL     1     131.988 130.361 139.549  1.00  0.00     0.008 C 
ATOM     15  C   UNL     1     131.204 131.585 140.065  1.00  0.00     0.005 C 
ATOM     16  C   UNL     1     130.448 131.421 141.423  1.00  0.00     0.003 C 
ATOM     17  C   UNL     1     129.656 130.047 141.512  1.00  0.00    -0.025 C 
ATOM     18  C   UNL     1     128.260 130.171 140.815  1.00  0.00     0.010 C 
ATOM     19  C   UNL     1     127.432 131.389 141.259  1.00  0.00     0.033 C 
ATOM     20  C   UNL     1     128.191 132.710 141.071  1.00  0.00     0.120 C 
ATOM     21  C   UNL     1     129.587 132.720 141.782  1.00  0.00    -0.006 C 
ATOM     22  C   UNL     1     130.337 134.026 141.385  1.00  0.00     0.014 C 
ATOM     23  C   UNL     1     129.383 132.848 143.321  1.00  0.00     0.014 C 
ATOM     24  C   UNL     1     129.341 129.676 143.004  1.00  0.00     0.012 C 
ATOM     25  C   UNL     1     130.081 129.242 138.357  1.00  0.00     0.012 C 
ATOM     26  C   UNL     1     133.325 125.691 139.965  1.00  0.00     0.022 C 
ATOM     27  C   UNL     1     134.549 125.181 140.754  1.00  0.00     0.015 C 
ATOM     28  C   UNL     1     133.155 128.211 138.012  1.00  0.00     0.017 C 
ATOM     29  C   UNL     1     131.618 124.473 141.500  1.00  0.00     0.012 C 
ATOM     30  C   UNL     1     135.742 123.889 138.890  1.00  0.00     0.011 C 
ENDROOT
BRANCH  20  31
ATOM     31  O   UNL     1     128.320 132.952 139.690  1.00  0.00    -0.393 OA
ATOM     32  H   UNL     1     128.407 132.073 139.236  1.00  0.00     0.210 HD
ENDBRANCH  20  31
TORSDOF 1
ENDMDL
MODEL 6
REMARK VINA RESULT:    -8.605      5.325     10.513
REMARK INTER + INTRA:          -8.857
REMARK INTER:                  -8.857
REMARK INTRA:                   0.000
REMARK UNBOUND:                 0.000
REMARK SMILES CC1(C)CC[C@]2(C)CC[C@]3(C)C(=CC[C@H]4[C@]5(C)CC[C@H](O)C(C)(C)[C@@H]5CC[C@]43C)[C@H]2C1
REMARK SMILES IDX 1 1 2 2 4 3 5 4 6 5 8 6 9 7 10 8 12 9 13 10 14 11 15 12
REMARK SMILES IDX 28 13 27 14 26 15 25 16 16 17 18 18 19 19 20 20 22 21 23 22
REMARK SMILES IDX 24 23 17 24 29 25 30 26 31 27 11 28 7 29 3 30 21 31
REMARK H PARENT 21 32
REMARK Flexibility Score: inf
ROOT
ATOM      1  C   UNL     1     129.044 123.906 141.895  1.00  0.00     0.011 C 
ATOM      2  C   UNL     1     130.113 124.969 142.224  1.00  0.00    -0.035 C 
ATOM      3  C   UNL     1     131.441 124.584 141.493  1.00  0.00     0.007 C 
ATOM      4  C   UNL     1     132.492 125.720 141.420  1.00  0.00     0.008 C 
ATOM      5  C   UNL     1     131.905 127.038 140.848  1.00  0.00    -0.026 C 
ATOM      6  C   UNL     1     132.971 128.198 140.866  1.00  0.00     0.008 C 
ATOM      7  C   UNL     1     132.772 129.246 141.988  1.00  0.00     0.012 C 
ATOM      8  C   UNL     1     131.312 129.912 142.071  1.00  0.00    -0.006 C 
ATOM      9  C   UNL     1     130.337 128.874 141.486  1.00  0.00    -0.064 C 
ATOM     10  C   UNL     1     129.526 129.140 140.459  1.00  0.00    -0.027 C 
ATOM     11  C   UNL     1     129.570 130.396 139.670  1.00  0.00     0.032 C 
ATOM     12  C   UNL     1     130.861 131.275 139.843  1.00  0.00     0.006 C 
ATOM     13  C   UNL     1     131.192 131.392 141.385  1.00  0.00    -0.020 C 
ATOM     14  C   UNL     1     130.032 132.244 141.994  1.00  0.00     0.008 C 
ATOM     15  C   UNL     1     129.800 133.604 141.303  1.00  0.00     0.005 C 
ATOM     16  C   UNL     1     129.608 133.587 139.753  1.00  0.00     0.003 C 
ATOM     17  C   UNL     1     130.665 132.652 139.023  1.00  0.00    -0.025 C 
ATOM     18  C   UNL     1     132.010 133.417 138.792  1.00  0.00     0.010 C 
ATOM     19  C   UNL     1     131.853 134.798 138.133  1.00  0.00     0.033 C 
ATOM     20  C   UNL     1     130.899 135.711 138.915  1.00  0.00     0.120 C 
ATOM     21  C   UNL     1     129.492 135.066 139.154  1.00  0.00    -0.006 C 
ATOM     22  C   UNL     1     128.672 135.996 140.097  1.00  0.00     0.014 C 
ATOM     23  C   UNL     1     128.688 135.068 137.820  1.00  0.00     0.014 C 
ATOM     24  C   UNL     1     130.165 132.252 137.590  1.00  0.00     0.012 C 
ATOM     25  C   UNL     1     132.523 132.154 141.683  1.00  0.00     0.012 C 
ATOM     26  C   UNL     1     130.702 127.421 141.757  1.00  0.00     0.022 C 
ATOM     27  C   UNL     1     129.580 126.364 141.758  1.00  0.00     0.015 C 
ATOM     28  C   UNL     1     130.959 130.022 143.590  1.00  0.00     0.017 C 
ATOM     29  C   UNL     1     131.502 126.812 139.360  1.00  0.00     0.012 C 
ATOM     30  C   UNL     1     130.336 124.949 143.758  1.00  0.00     0.011 C 
ENDROOT
BRANCH  20  31
ATOM     31  O   UNL     1     131.516 136.055 140.133  1.00  0.00    -0.393 OA
ATOM     32  H   UNL     1     132.104 135.299 140.397  1.00  0.00     0.210 HD
ENDBRANCH  20  31
TORSDOF 1
ENDMDL
MODEL 7
REMARK VINA RESULT:    -8.580      4.038      7.613
REMARK INTER + INTRA:          -8.831
REMARK INTER:                  -8.831
REMARK INTRA:                   0.000
REMARK UNBOUND:                 0.000
REMARK SMILES CC1(C)CC[C@]2(C)CC[C@]3(C)C(=CC[C@H]4[C@]5(C)CC[C@H](O)C(C)(C)[C@@H]5CC[C@]43C)[C@H]2C1
REMARK SMILES IDX 1 1 2 2 4 3 5 4 6 5 8 6 9 7 10 8 12 9 13 10 14 11 15 12
REMARK SMILES IDX 28 13 27 14 26 15 25 16 16 17 18 18 19 19 20 20 22 21 23 22
REMARK SMILES IDX 24 23 17 24 29 25 30 26 31 27 11 28 7 29 3 30 21 31
REMARK H PARENT 21 32
REMARK Flexibility Score: inf
ROOT
ATOM      1  C   UNL     1     128.625 136.124 139.650  1.00  0.00     0.011 C 
ATOM      2  C   UNL     1     129.446 135.116 138.818  1.00  0.00    -0.035 C 
ATOM      3  C   UNL     1     130.940 135.578 138.805  1.00  0.00     0.007 C 
ATOM      4  C   UNL     1     131.946 134.501 138.332  1.00  0.00     0.008 C 
ATOM      5  C   UNL     1     131.786 133.160 139.096  1.00  0.00    -0.026 C 
ATOM      6  C   UNL     1     132.763 132.057 138.535  1.00  0.00     0.008 C 
ATOM      7  C   UNL     1     132.090 130.988 137.639  1.00  0.00     0.012 C 
ATOM      8  C   UNL     1     130.815 130.245 138.276  1.00  0.00    -0.006 C 
ATOM      9  C   UNL     1     130.204 131.236 139.283  1.00  0.00    -0.064 C 
ATOM     10  C   UNL     1     130.020 130.939 140.572  1.00  0.00    -0.027 C 
ATOM     11  C   UNL     1     130.512 129.695 141.215  1.00  0.00     0.032 C 
ATOM     12  C   UNL     1     131.593 128.884 140.413  1.00  0.00     0.006 C 
ATOM     13  C   UNL     1     131.125 128.768 138.907  1.00  0.00    -0.020 C 
ATOM     14  C   UNL     1     129.861 127.850 138.935  1.00  0.00     0.008 C 
ATOM     15  C   UNL     1     130.070 126.487 139.627  1.00  0.00     0.005 C 
ATOM     16  C   UNL     1     130.667 126.509 141.070  1.00  0.00     0.003 C 
ATOM     17  C   UNL     1     131.897 127.507 141.199  1.00  0.00    -0.025 C 
ATOM     18  C   UNL     1     133.218 126.817 140.724  1.00  0.00     0.010 C 
ATOM     19  C   UNL     1     133.477 125.436 141.352  1.00  0.00     0.033 C 
ATOM     20  C   UNL     1     132.310 124.466 141.126  1.00  0.00     0.120 C 
ATOM     21  C   UNL     1     130.937 125.033 141.623  1.00  0.00    -0.006 C 
ATOM     22  C   UNL     1     129.808 124.051 141.191  1.00  0.00     0.014 C 
ATOM     23  C   UNL     1     130.897 125.003 143.179  1.00  0.00     0.014 C 
ATOM     24  C   UNL     1     132.150 127.895 142.699  1.00  0.00     0.012 C 
ATOM     25  C   UNL     1     132.173 128.075 137.978  1.00  0.00     0.012 C 
ATOM     26  C   UNL     1     130.313 132.704 138.893  1.00  0.00     0.022 C 
ATOM     27  C   UNL     1     129.284 133.700 139.463  1.00  0.00     0.015 C 
ATOM     28  C   UNL     1     129.764 130.101 137.127  1.00  0.00     0.017 C 
ATOM     29  C   UNL     1     132.159 133.380 140.593  1.00  0.00     0.012 C 
ATOM     30  C   UNL     1     128.882 135.132 137.375  1.00  0.00     0.011 C 
ENDROOT
BRANCH  20  31
ATOM     31  O   UNL     1     132.263 124.142 139.756  1.00  0.00    -0.393 OA
ATOM     32  H   UNL     1     132.791 124.826 139.267  1.00  0.00     0.210 HD
ENDBRANCH  20  31
TORSDOF 1
ENDMDL
MODEL 8
REMARK VINA RESULT:    -8.256      5.109     10.842
REMARK INTER + INTRA:          -8.497
REMARK INTER:                  -8.497
REMARK INTRA:                   0.000
REMARK UNBOUND:                 0.000
REMARK SMILES CC1(C)CC[C@]2(C)CC[C@]3(C)C(=CC[C@H]4[C@]5(C)CC[C@H](O)C(C)(C)[C@@H]5CC[C@]43C)[C@H]2C1
REMARK SMILES IDX 1 1 2 2 4 3 5 4 6 5 8 6 9 7 10 8 12 9 13 10 14 11 15 12
REMARK SMILES IDX 28 13 27 14 26 15 25 16 16 17 18 18 19 19 20 20 22 21 23 22
REMARK SMILES IDX 24 23 17 24 29 25 30 26 31 27 11 28 7 29 3 30 21 31
REMARK H PARENT 21 32
REMARK Flexibility Score: inf
ROOT
ATOM      1  C   UNL     1     131.655 123.996 139.590  1.00  0.00     0.011 C 
ATOM      2  C   UNL     1     131.097 124.907 140.703  1.00  0.00    -0.035 C 
ATOM      3  C   UNL     1     132.099 124.900 141.904  1.00  0.00     0.007 C 
ATOM      4  C   UNL     1     131.877 126.031 142.938  1.00  0.00     0.008 C 
ATOM      5  C   UNL     1     131.809 127.434 142.281  1.00  0.00    -0.026 C 
ATOM      6  C   UNL     1     131.496 128.554 143.345  1.00  0.00     0.008 C 
ATOM      7  C   UNL     1     130.041 129.083 143.323  1.00  0.00     0.012 C 
ATOM      8  C   UNL     1     129.503 129.590 141.896  1.00  0.00    -0.006 C 
ATOM      9  C   UNL     1     130.299 128.804 140.838  1.00  0.00    -0.064 C 
ATOM     10  C   UNL     1     131.019 129.399 139.884  1.00  0.00    -0.027 C 
ATOM     11  C   UNL     1     131.262 130.861 139.817  1.00  0.00     0.032 C 
ATOM     12  C   UNL     1     130.948 131.674 141.125  1.00  0.00     0.006 C 
ATOM     13  C   UNL     1     129.542 131.212 141.684  1.00  0.00    -0.020 C 
ATOM     14  C   UNL     1     128.496 131.705 140.634  1.00  0.00     0.008 C 
ATOM     15  C   UNL     1     128.570 133.212 140.309  1.00  0.00     0.005 C 
ATOM     16  C   UNL     1     129.963 133.777 139.887  1.00  0.00     0.003 C 
ATOM     17  C   UNL     1     131.138 133.247 140.816  1.00  0.00    -0.025 C 
ATOM     18  C   UNL     1     131.243 134.112 142.116  1.00  0.00     0.010 C 
ATOM     19  C   UNL     1     131.291 135.630 141.870  1.00  0.00     0.033 C 
ATOM     20  C   UNL     1     130.092 136.124 141.050  1.00  0.00     0.120 C 
ATOM     21  C   UNL     1     129.924 135.364 139.691  1.00  0.00    -0.006 C 
ATOM     22  C   UNL     1     128.590 135.821 139.028  1.00  0.00     0.014 C 
ATOM     23  C   UNL     1     131.026 135.833 138.696  1.00  0.00     0.014 C 
ATOM     24  C   UNL     1     132.528 133.399 140.104  1.00  0.00     0.012 C 
ATOM     25  C   UNL     1     129.165 131.870 143.050  1.00  0.00     0.012 C 
ATOM     26  C   UNL     1     130.663 127.379 141.231  1.00  0.00     0.022 C 
ATOM     27  C   UNL     1     130.910 126.344 140.114  1.00  0.00     0.015 C 
ATOM     28  C   UNL     1     128.025 129.093 141.776  1.00  0.00     0.017 C 
ATOM     29  C   UNL     1     133.196 127.772 141.657  1.00  0.00     0.012 C 
ATOM     30  C   UNL     1     129.737 124.316 141.153  1.00  0.00     0.011 C 
ENDROOT
BRANCH  20  31
ATOM     31  O   UNL     1     128.936 136.010 141.846  1.00  0.00    -0.393 OA
ATOM     32  H   UNL     1     129.036 136.631 142.614  1.00  0.00     0.210 HD
ENDBRANCH  20  31
TORSDOF 1
ENDMDL
MODEL 9
REMARK VINA RESULT:    -8.234      4.822     10.515
REMARK INTER + INTRA:          -8.475
REMARK INTER:                  -8.475
REMARK INTRA:                   0.000
REMARK UNBOUND:                 0.000
REMARK SMILES CC1(C)CC[C@]2(C)CC[C@]3(C)C(=CC[C@H]4[C@]5(C)CC[C@H](O)C(C)(C)[C@@H]5CC[C@]43C)[C@H]2C1
REMARK SMILES IDX 1 1 2 2 4 3 5 4 6 5 8 6 9 7 10 8 12 9 13 10 14 11 15 12
REMARK SMILES IDX 28 13 27 14 26 15 25 16 16 17 18 18 19 19 20 20 22 21 23 22
REMARK SMILES IDX 24 23 17 24 29 25 30 26 31 27 11 28 7 29 3 30 21 31
REMARK H PARENT 21 32
REMARK Flexibility Score: inf
ROOT
ATOM      1  C   UNL     1     133.970 123.983 140.531  1.00  0.00     0.011 C 
ATOM      2  C   UNL     1     133.038 124.829 139.638  1.00  0.00    -0.035 C 
ATOM      3  C   UNL     1     131.567 124.345 139.853  1.00  0.00     0.007 C 
ATOM      4  C   UNL     1     130.483 125.315 139.320  1.00  0.00     0.008 C 
ATOM      5  C   UNL     1     130.672 126.764 139.840  1.00  0.00    -0.026 C 
ATOM      6  C   UNL     1     129.609 127.744 139.214  1.00  0.00     0.008 C 
ATOM      7  C   UNL     1     130.154 128.665 138.094  1.00  0.00     0.012 C 
ATOM      8  C   UNL     1     131.460 129.524 138.470  1.00  0.00    -0.006 C 
ATOM      9  C   UNL     1     132.200 128.720 139.555  1.00  0.00    -0.064 C 
ATOM     10  C   UNL     1     132.500 129.225 140.753  1.00  0.00    -0.027 C 
ATOM     11  C   UNL     1     132.032 130.548 141.237  1.00  0.00     0.032 C 
ATOM     12  C   UNL     1     130.851 131.200 140.431  1.00  0.00     0.006 C 
ATOM     13  C   UNL     1     131.164 131.078 138.886  1.00  0.00    -0.020 C 
ATOM     14  C   UNL     1     132.393 132.010 138.637  1.00  0.00     0.008 C 
ATOM     15  C   UNL     1     132.208 133.464 139.121  1.00  0.00     0.005 C 
ATOM     16  C   UNL     1     131.757 133.665 140.603  1.00  0.00     0.003 C 
ATOM     17  C   UNL     1     130.580 132.680 141.015  1.00  0.00    -0.025 C 
ATOM     18  C   UNL     1     129.196 133.262 140.574  1.00  0.00     0.010 C 
ATOM     19  C   UNL     1     128.954 134.721 140.997  1.00  0.00     0.033 C 
ATOM     20  C   UNL     1     130.060 135.662 140.501  1.00  0.00     0.120 C 
ATOM     21  C   UNL     1     131.494 135.206 140.938  1.00  0.00    -0.006 C 
ATOM     22  C   UNL     1     132.541 136.125 140.242  1.00  0.00     0.014 C 
ATOM     23  C   UNL     1     131.686 135.489 142.457  1.00  0.00     0.014 C 
ATOM     24  C   UNL     1     130.490 132.536 142.575  1.00  0.00     0.012 C 
ATOM     25  C   UNL     1     130.007 131.594 137.971  1.00  0.00     0.012 C 
ATOM     26  C   UNL     1     132.102 127.207 139.416  1.00  0.00     0.022 C 
ATOM     27  C   UNL     1     133.216 126.334 140.029  1.00  0.00     0.015 C 
ATOM     28  C   UNL     1     132.386 129.498 137.211  1.00  0.00     0.017 C 
ATOM     29  C   UNL     1     130.457 126.783 141.383  1.00  0.00     0.012 C 
ATOM     30  C   UNL     1     133.458 124.590 138.166  1.00  0.00     0.011 C 
ENDROOT
BRANCH  20  31
ATOM     31  O   UNL     1     129.961 135.760 139.100  1.00  0.00    -0.393 OA
ATOM     32  H   UNL     1     129.309 135.075 138.795  1.00  0.00     0.210 HD
ENDBRANCH  20  31
TORSDOF 1
ENDMDL
