MODEL 1
REMARK VINA RESULT:    -4.339      0.000      0.000
REMARK INTER + INTRA:          -7.552
REMARK INTER:                  -6.623
REMARK INTRA:                  -0.929
REMARK UNBOUND:                -0.929
REMARK SMILES O=C([O-])CCCCCCCCC(=O)[O-]
REMARK SMILES IDX 7 1 6 2 5 3 4 4 2 5 1 6 3 7 8 8 9 9 10 10 11 11 12 12 13 13
REMARK SMILES IDX 14 14
REMARK H PARENT
REMARK Flexibility Score: inf
ROOT
ATOM      1  C   UNL     1       6.841  -5.437  32.741  1.00  0.00     0.000 C 
ENDROOT
BRANCH   1   2
ATOM      2  C   UNL     1       7.946  -6.003  31.825  1.00  0.00     0.000 C 
BRANCH   2   3
ATOM      3  C   UNL     1       7.765  -5.640  30.342  1.00  0.00     0.006 C 
BRANCH   3   4
ATOM      4  C   UNL     1       8.748  -6.374  29.423  1.00  0.00     0.053 C 
BRANCH   4   5
ATOM      5  C   UNL     1       8.059  -6.825  28.174  1.00  0.00     0.041 C 
ATOM      6  O   UNL     1       8.624  -7.641  27.399  1.00  0.00    -0.550 OA
ATOM      7  O   UNL     1       6.773  -6.383  27.891  1.00  0.00    -0.550 OA
ENDBRANCH   4   5
ENDBRANCH   3   4
ENDBRANCH   2   3
ENDBRANCH   1   2
BRANCH   1   8
ATOM      8  C   UNL     1       5.433  -5.713  32.191  1.00  0.00     0.000 C 
BRANCH   8   9
ATOM      9  C   UNL     1       5.097  -7.207  32.264  1.00  0.00     0.000 C 
BRANCH   9  10
ATOM     10  C   UNL     1       4.751  -7.763  30.877  1.00  0.00     0.006 C 
BRANCH  10  11
ATOM     11  C   UNL     1       5.837  -8.723  30.383  1.00  0.00     0.053 C 
BRANCH  11  12
ATOM     12  C   UNL     1       5.333  -9.536  29.232  1.00  0.00     0.041 C 
ATOM     13  O   UNL     1       4.144  -9.950  29.221  1.00  0.00    -0.550 OA
ATOM     14  O   UNL     1       6.192  -9.880  28.196  1.00  0.00    -0.550 OA
ENDBRANCH  11  12
ENDBRANCH  10  11
ENDBRANCH   9  10
ENDBRANCH   8   9
ENDBRANCH   1   8
TORSDOF 9
ENDMDL
MODEL 2
REMARK VINA RESULT:    -4.332      2.661      5.034
REMARK INTER + INTRA:          -7.541
REMARK INTER:                  -6.562
REMARK INTRA:                  -0.979
REMARK UNBOUND:                -0.929
REMARK SMILES O=C([O-])CCCCCCCCC(=O)[O-]
REMARK SMILES IDX 7 1 6 2 5 3 4 4 2 5 1 6 3 7 8 8 9 9 10 10 11 11 12 12 13 13
REMARK SMILES IDX 14 14
REMARK H PARENT
REMARK Flexibility Score: inf
ROOT
ATOM      1  C   UNL     1       6.280  -8.651  28.937  1.00  0.00     0.000 C 
ENDROOT
BRANCH   1   2
ATOM      2  C   UNL     1       5.338  -8.034  29.993  1.00  0.00     0.000 C 
BRANCH   2   3
ATOM      3  C   UNL     1       6.013  -7.788  31.353  1.00  0.00     0.006 C 
BRANCH   3   4
ATOM      4  C   UNL     1       5.984  -6.315  31.776  1.00  0.00     0.053 C 
BRANCH   4   5
ATOM      5  C   UNL     1       7.363  -5.838  32.103  1.00  0.00     0.041 C 
ATOM      6  O   UNL     1       8.368  -6.470  31.685  1.00  0.00    -0.550 OA
ATOM      7  O   UNL     1       7.539  -4.666  32.829  1.00  0.00    -0.550 OA
ENDBRANCH   4   5
ENDBRANCH   3   4
ENDBRANCH   2   3
ENDBRANCH   1   2
BRANCH   1   8
ATOM      8  C   UNL     1       6.847  -7.596  27.977  1.00  0.00     0.000 C 
BRANCH   8   9
ATOM      9  C   UNL     1       8.317  -7.297  28.294  1.00  0.00     0.000 C 
BRANCH   9  10
ATOM     10  C   UNL     1       8.601  -5.792  28.227  1.00  0.00     0.006 C 
BRANCH  10  11
ATOM     11  C   UNL     1       7.310  -4.982  28.385  1.00  0.00     0.053 C 
BRANCH  11  12
ATOM     12  C   UNL     1       7.111  -4.078  27.209  1.00  0.00     0.041 C 
ATOM     13  O   UNL     1       7.191  -2.829  27.349  1.00  0.00    -0.550 OA
ATOM     14  O   UNL     1       6.788  -4.612  25.969  1.00  0.00    -0.550 OA
ENDBRANCH  11  12
ENDBRANCH  10  11
ENDBRANCH   9  10
ENDBRANCH   8   9
ENDBRANCH   1   8
TORSDOF 9
ENDMDL
MODEL 3
REMARK VINA RESULT:    -4.292      0.324      3.659
REMARK INTER + INTRA:          -7.480
REMARK INTER:                  -6.744
REMARK INTRA:                  -0.736
REMARK UNBOUND:                -0.929
REMARK SMILES O=C([O-])CCCCCCCCC(=O)[O-]
REMARK SMILES IDX 7 1 6 2 5 3 4 4 2 5 1 6 3 7 8 8 9 9 10 10 11 11 12 12 13 13
REMARK SMILES IDX 14 14
REMARK H PARENT
REMARK Flexibility Score: inf
ROOT
ATOM      1  C   UNL     1       5.644  -5.706  32.026  1.00  0.00     0.000 C 
ENDROOT
BRANCH   1   2
ATOM      2  C   UNL     1       5.016  -7.085  32.315  1.00  0.00     0.000 C 
BRANCH   2   3
ATOM      3  C   UNL     1       4.641  -7.869  31.046  1.00  0.00     0.006 C 
BRANCH   3   4
ATOM      4  C   UNL     1       5.829  -8.622  30.436  1.00  0.00     0.053 C 
BRANCH   4   5
ATOM      5  C   UNL     1       5.364  -9.541  29.351  1.00  0.00     0.041 C 
ATOM      6  O   UNL     1       6.200 -10.125  28.614  1.00  0.00    -0.550 OA
ATOM      7  O   UNL     1       4.007  -9.793  29.187  1.00  0.00    -0.550 OA
ENDBRANCH   4   5
ENDBRANCH   3   4
ENDBRANCH   2   3
ENDBRANCH   1   2
BRANCH   1   8
ATOM      8  C   UNL     1       7.031  -5.553  32.668  1.00  0.00     0.000 C 
BRANCH   8   9
ATOM      9  C   UNL     1       8.127  -6.104  31.750  1.00  0.00     0.000 C 
BRANCH   9  10
ATOM     10  C   UNL     1       7.810  -5.814  30.278  1.00  0.00     0.006 C 
BRANCH  10  11
ATOM     11  C   UNL     1       8.890  -6.393  29.358  1.00  0.00     0.053 C 
BRANCH  11  12
ATOM     12  C   UNL     1       8.275  -6.947  28.111  1.00  0.00     0.041 C 
ATOM     13  O   UNL     1       7.342  -6.328  27.536  1.00  0.00    -0.550 OA
ATOM     14  O   UNL     1       8.698  -8.172  27.614  1.00  0.00    -0.550 OA
ENDBRANCH  11  12
ENDBRANCH  10  11
ENDBRANCH   9  10
ENDBRANCH   8   9
ENDBRANCH   1   8
TORSDOF 9
ENDMDL
MODEL 4
REMARK VINA RESULT:    -4.211      1.461      4.374
REMARK INTER + INTRA:          -7.356
REMARK INTER:                  -6.638
REMARK INTRA:                  -0.718
REMARK UNBOUND:                -0.929
REMARK SMILES O=C([O-])CCCCCCCCC(=O)[O-]
REMARK SMILES IDX 7 1 6 2 5 3 4 4 2 5 1 6 3 7 8 8 9 9 10 10 11 11 12 12 13 13
REMARK SMILES IDX 14 14
REMARK H PARENT
REMARK Flexibility Score: inf
ROOT
ATOM      1  C   UNL     1       5.389  -7.352  31.670  1.00  0.00     0.000 C 
ENDROOT
BRANCH   1   2
ATOM      2  C   UNL     1       5.971  -8.430  30.733  1.00  0.00     0.000 C 
BRANCH   2   3
ATOM      3  C   UNL     1       5.264  -8.508  29.369  1.00  0.00     0.006 C 
BRANCH   3   4
ATOM      4  C   UNL     1       4.054  -9.449  29.378  1.00  0.00     0.053 C 
BRANCH   4   5
ATOM      5  C   UNL     1       2.781  -8.664  29.392  1.00  0.00     0.041 C 
ATOM      6  O   UNL     1       2.065  -8.636  30.428  1.00  0.00    -0.550 OA
ATOM      7  O   UNL     1       2.409  -7.922  28.278  1.00  0.00    -0.550 OA
ENDBRANCH   4   5
ENDBRANCH   3   4
ENDBRANCH   2   3
ENDBRANCH   1   2
BRANCH   1   8
ATOM      8  C   UNL     1       6.011  -5.969  31.424  1.00  0.00     0.000 C 
BRANCH   8   9
ATOM      9  C   UNL     1       7.511  -6.086  31.127  1.00  0.00     0.000 C 
BRANCH   9  10
ATOM     10  C   UNL     1       7.833  -5.592  29.712  1.00  0.00     0.006 C 
BRANCH  10  11
ATOM     11  C   UNL     1       8.909  -6.464  29.057  1.00  0.00     0.053 C 
BRANCH  11  12
ATOM     12  C   UNL     1       8.383  -7.095  27.806  1.00  0.00     0.041 C 
ATOM     13  O   UNL     1       7.424  -6.566  27.185  1.00  0.00    -0.550 OA
ATOM     14  O   UNL     1       8.919  -8.293  27.354  1.00  0.00    -0.550 OA
ENDBRANCH  11  12
ENDBRANCH  10  11
ENDBRANCH   9  10
ENDBRANCH   8   9
ENDBRANCH   1   8
TORSDOF 9
ENDMDL
MODEL 5
REMARK VINA RESULT:    -4.203      1.295      3.732
REMARK INTER + INTRA:          -7.343
REMARK INTER:                  -6.337
REMARK INTRA:                  -1.006
REMARK UNBOUND:                -0.929
REMARK SMILES O=C([O-])CCCCCCCCC(=O)[O-]
REMARK SMILES IDX 7 1 6 2 5 3 4 4 2 5 1 6 3 7 8 8 9 9 10 10 11 11 12 12 13 13
REMARK SMILES IDX 14 14
REMARK H PARENT
REMARK Flexibility Score: inf
ROOT
ATOM      1  C   UNL     1       7.123  -5.633  31.731  1.00  0.00     0.000 C 
ENDROOT
BRANCH   1   2
ATOM      2  C   UNL     1       5.907  -6.539  32.020  1.00  0.00     0.000 C 
BRANCH   2   3
ATOM      3  C   UNL     1       5.998  -7.923  31.354  1.00  0.00     0.006 C 
BRANCH   3   4
ATOM      4  C   UNL     1       4.793  -8.234  30.459  1.00  0.00     0.053 C 
BRANCH   4   5
ATOM      5  C   UNL     1       5.239  -8.898  29.195  1.00  0.00     0.041 C 
ATOM      6  O   UNL     1       4.872  -8.446  28.079  1.00  0.00    -0.550 OA
ATOM      7  O   UNL     1       6.103  -9.985  29.247  1.00  0.00    -0.550 OA
ENDBRANCH   4   5
ENDBRANCH   3   4
ENDBRANCH   2   3
ENDBRANCH   1   2
BRANCH   1   8
ATOM      8  C   UNL     1       7.872  -6.054  30.459  1.00  0.00     0.000 C 
BRANCH   8   9
ATOM      9  C   UNL     1       7.297  -5.354  29.223  1.00  0.00     0.000 C 
BRANCH   9  10
ATOM     10  C   UNL     1       7.702  -6.083  27.937  1.00  0.00     0.006 C 
BRANCH  10  11
ATOM     11  C   UNL     1       8.645  -7.252  28.242  1.00  0.00     0.053 C 
BRANCH  11  12
ATOM     12  C   UNL     1       8.497  -8.327  27.211  1.00  0.00     0.041 C 
ATOM     13  O   UNL     1       9.257  -9.331  27.229  1.00  0.00    -0.550 OA
ATOM     14  O   UNL     1       7.553  -8.196  26.201  1.00  0.00    -0.550 OA
ENDBRANCH  11  12
ENDBRANCH  10  11
ENDBRANCH   9  10
ENDBRANCH   8   9
ENDBRANCH   1   8
TORSDOF 9
ENDMDL
MODEL 6
REMARK VINA RESULT:    -4.182     13.619     16.514
REMARK INTER + INTRA:          -7.312
REMARK INTER:                  -6.366
REMARK INTRA:                  -0.945
REMARK UNBOUND:                -0.929
REMARK SMILES O=C([O-])CCCCCCCCC(=O)[O-]
REMARK SMILES IDX 7 1 6 2 5 3 4 4 2 5 1 6 3 7 8 8 9 9 10 10 11 11 12 12 13 13
REMARK SMILES IDX 14 14
REMARK H PARENT
REMARK Flexibility Score: inf
ROOT
ATOM      1  C   UNL     1      14.665  -6.830  13.469  1.00  0.00     0.000 C 
ENDROOT
BRANCH   1   2
ATOM      2  C   UNL     1      13.373  -7.231  14.212  1.00  0.00     0.000 C 
BRANCH   2   3
ATOM      3  C   UNL     1      13.295  -6.688  15.649  1.00  0.00     0.006 C 
BRANCH   3   4
ATOM      4  C   UNL     1      12.026  -7.130  16.386  1.00  0.00     0.053 C 
BRANCH   4   5
ATOM      5  C   UNL     1      12.347  -7.516  17.795  1.00  0.00     0.041 C 
ATOM      6  O   UNL     1      13.039  -6.753  18.519  1.00  0.00    -0.550 OA
ATOM      7  O   UNL     1      11.841  -8.696  18.325  1.00  0.00    -0.550 OA
ENDBRANCH   4   5
ENDBRANCH   3   4
ENDBRANCH   2   3
ENDBRANCH   1   2
BRANCH   1   8
ATOM      8  C   UNL     1      15.585  -8.033  13.212  1.00  0.00     0.000 C 
BRANCH   8   9
ATOM      9  C   UNL     1      15.006  -9.310  13.831  1.00  0.00     0.000 C 
BRANCH   9  10
ATOM     10  C   UNL     1      15.831  -9.756  15.045  1.00  0.00     0.006 C 
BRANCH  10  11
ATOM     11  C   UNL     1      14.921 -10.124  16.222  1.00  0.00     0.053 C 
BRANCH  11  12
ATOM     12  C   UNL     1      15.364  -9.421  17.466  1.00  0.00     0.041 C 
ATOM     13  O   UNL     1      15.841  -8.257  17.401  1.00  0.00    -0.550 OA
ATOM     14  O   UNL     1      15.296 -10.069  18.692  1.00  0.00    -0.550 OA
ENDBRANCH  11  12
ENDBRANCH  10  11
ENDBRANCH   9  10
ENDBRANCH   8   9
ENDBRANCH   1   8
TORSDOF 9
ENDMDL
MODEL 7
REMARK VINA RESULT:    -4.170      1.805      2.409
REMARK INTER + INTRA:          -7.293
REMARK INTER:                  -6.443
REMARK INTRA:                  -0.850
REMARK UNBOUND:                -0.929
REMARK SMILES O=C([O-])CCCCCCCCC(=O)[O-]
REMARK SMILES IDX 7 1 6 2 5 3 4 4 2 5 1 6 3 7 8 8 9 9 10 10 11 11 12 12 13 13
REMARK SMILES IDX 14 14
REMARK H PARENT
REMARK Flexibility Score: inf
ROOT
ATOM      1  C   UNL     1       7.079  -6.035  31.869  1.00  0.00     0.000 C 
ENDROOT
BRANCH   1   2
ATOM      2  C   UNL     1       7.853  -6.016  30.535  1.00  0.00     0.000 C 
BRANCH   2   3
ATOM      3  C   UNL     1       7.121  -5.267  29.408  1.00  0.00     0.006 C 
BRANCH   3   4
ATOM      4  C   UNL     1       8.051  -4.863  28.258  1.00  0.00     0.053 C 
BRANCH   4   5
ATOM      5  C   UNL     1       7.274  -4.194  27.168  1.00  0.00     0.041 C 
ATOM      6  O   UNL     1       7.150  -2.942  27.155  1.00  0.00    -0.550 OA
ATOM      7  O   UNL     1       6.728  -4.951  26.139  1.00  0.00    -0.550 OA
ENDBRANCH   4   5
ENDBRANCH   3   4
ENDBRANCH   2   3
ENDBRANCH   1   2
BRANCH   1   8
ATOM      8  C   UNL     1       5.757  -6.809  31.764  1.00  0.00     0.000 C 
BRANCH   8   9
ATOM      9  C   UNL     1       5.997  -8.246  31.286  1.00  0.00     0.000 C 
BRANCH   9  10
ATOM     10  C   UNL     1       5.208  -8.538  30.004  1.00  0.00     0.006 C 
BRANCH  10  11
ATOM     11  C   UNL     1       6.008  -9.442  29.060  1.00  0.00     0.053 C 
BRANCH  11  12
ATOM     12  C   UNL     1       6.591  -8.642  27.938  1.00  0.00     0.041 C 
ATOM     13  O   UNL     1       7.835  -8.456  27.873  1.00  0.00    -0.550 OA
ATOM     14  O   UNL     1       5.757  -8.060  26.993  1.00  0.00    -0.550 OA
ENDBRANCH  11  12
ENDBRANCH  10  11
ENDBRANCH   9  10
ENDBRANCH   8   9
ENDBRANCH   1   8
TORSDOF 9
ENDMDL
MODEL 8
REMARK VINA RESULT:    -4.168      2.490      4.151
REMARK INTER + INTRA:          -7.290
REMARK INTER:                  -6.432
REMARK INTRA:                  -0.858
REMARK UNBOUND:                -0.929
REMARK SMILES O=C([O-])CCCCCCCCC(=O)[O-]
REMARK SMILES IDX 7 1 6 2 5 3 4 4 2 5 1 6 3 7 8 8 9 9 10 10 11 11 12 12 13 13
REMARK SMILES IDX 14 14
REMARK H PARENT
REMARK Flexibility Score: inf
ROOT
ATOM      1  C   UNL     1       6.741  -9.337  28.029  1.00  0.00     0.000 C 
ENDROOT
BRANCH   1   2
ATOM      2  C   UNL     1       7.113  -7.890  27.641  1.00  0.00     0.000 C 
BRANCH   2   3
ATOM      3  C   UNL     1       8.605  -7.567  27.826  1.00  0.00     0.006 C 
BRANCH   3   4
ATOM      4  C   UNL     1       8.843  -6.322  28.689  1.00  0.00     0.053 C 
BRANCH   4   5
ATOM      5  C   UNL     1       7.937  -5.210  28.263  1.00  0.00     0.041 C 
ATOM      6  O   UNL     1       6.975  -4.860  28.996  1.00  0.00    -0.550 OA
ATOM      7  O   UNL     1       8.185  -4.527  27.079  1.00  0.00    -0.550 OA
ENDBRANCH   4   5
ENDBRANCH   3   4
ENDBRANCH   2   3
ENDBRANCH   1   2
BRANCH   1   8
ATOM      8  C   UNL     1       6.021  -9.409  29.383  1.00  0.00     0.000 C 
BRANCH   8   9
ATOM      9  C   UNL     1       5.459  -8.040  29.782  1.00  0.00     0.000 C 
BRANCH   9  10
ATOM     10  C   UNL     1       5.599  -7.805  31.291  1.00  0.00     0.006 C 
BRANCH  10  11
ATOM     11  C   UNL     1       6.874  -7.018  31.609  1.00  0.00     0.053 C 
BRANCH  11  12
ATOM     12  C   UNL     1       6.543  -5.758  32.345  1.00  0.00     0.041 C 
ATOM     13  O   UNL     1       7.458  -4.961  32.680  1.00  0.00    -0.550 OA
ATOM     14  O   UNL     1       5.229  -5.489  32.703  1.00  0.00    -0.550 OA
ENDBRANCH  11  12
ENDBRANCH  10  11
ENDBRANCH   9  10
ENDBRANCH   8   9
ENDBRANCH   1   8
TORSDOF 9
ENDMDL
MODEL 9
REMARK VINA RESULT:    -4.133      1.818      4.589
REMARK INTER + INTRA:          -7.236
REMARK INTER:                  -6.423
REMARK INTRA:                  -0.813
REMARK UNBOUND:                -0.929
REMARK SMILES O=C([O-])CCCCCCCCC(=O)[O-]
REMARK SMILES IDX 7 1 6 2 5 3 4 4 2 5 1 6 3 7 8 8 9 9 10 10 11 11 12 12 13 13
REMARK SMILES IDX 14 14
REMARK H PARENT
REMARK Flexibility Score: inf
ROOT
ATOM      1  C   UNL     1       7.359  -5.965  31.590  1.00  0.00     0.000 C 
ENDROOT
BRANCH   1   2
ATOM      2  C   UNL     1       5.906  -5.865  32.100  1.00  0.00     0.000 C 
BRANCH   2   3
ATOM      3  C   UNL     1       5.119  -7.181  31.981  1.00  0.00     0.006 C 
BRANCH   3   4
ATOM      4  C   UNL     1       5.883  -8.266  31.214  1.00  0.00     0.053 C 
BRANCH   4   5
ATOM      5  C   UNL     1       5.168  -8.613  29.947  1.00  0.00     0.041 C 
ATOM      6  O   UNL     1       3.917  -8.496  29.873  1.00  0.00    -0.550 OA
ATOM      7  O   UNL     1       5.889  -9.018  28.830  1.00  0.00    -0.550 OA
ENDBRANCH   4   5
ENDBRANCH   3   4
ENDBRANCH   2   3
ENDBRANCH   1   2
BRANCH   1   8
ATOM      8  C   UNL     1       7.564  -5.215  30.266  1.00  0.00     0.000 C 
BRANCH   8   9
ATOM      9  C   UNL     1       8.387  -6.052  29.280  1.00  0.00     0.000 C 
BRANCH   9  10
ATOM     10  C   UNL     1       7.686  -6.145  27.919  1.00  0.00     0.006 C 
BRANCH  10  11
ATOM     11  C   UNL     1       6.535  -5.139  27.822  1.00  0.00     0.053 C 
BRANCH  11  12
ATOM     12  C   UNL     1       6.873  -4.047  26.857  1.00  0.00     0.041 C 
ATOM     13  O   UNL     1       7.174  -2.899  27.279  1.00  0.00    -0.550 OA
ATOM     14  O   UNL     1       6.806  -4.282  25.491  1.00  0.00    -0.550 OA
ENDBRANCH  11  12
ENDBRANCH  10  11
ENDBRANCH   9  10
ENDBRANCH   8   9
ENDBRANCH   1   8
TORSDOF 9
ENDMDL
