MODEL 1
REMARK VINA RESULT:    -5.925      0.000      0.000
REMARK INTER + INTRA:         -11.609
REMARK INTER:                 -10.774
REMARK INTRA:                  -0.835
REMARK UNBOUND:                -0.835
REMARK SMILES CCCCCCCCCCCCCCCC(=O)[O-]
REMARK SMILES IDX 9 1 10 2 11 3 12 4 13 5 14 6 15 7 16 8 17 9 18 10 8 11 7 12
REMARK SMILES IDX 6 13 5 14 4 15 3 16 2 17 1 18
REMARK H PARENT
REMARK Flexibility Score: inf
ROOT
ATOM      1  C   UNL     1     105.630 311.301 193.616  1.00  0.00     0.000 C 
ENDROOT
BRANCH   1   2
ATOM      2  C   UNL     1     105.763 311.519 195.132  1.00  0.00     0.000 C 
BRANCH   2   3
ATOM      3  C   UNL     1     104.518 312.180 195.744  1.00  0.00     0.000 C 
BRANCH   3   4
ATOM      4  C   UNL     1     103.985 311.420 196.971  1.00  0.00     0.000 C 
BRANCH   4   5
ATOM      5  C   UNL     1     103.747 312.339 198.180  1.00  0.00     0.000 C 
BRANCH   5   6
ATOM      6  C   UNL     1     103.326 311.564 199.437  1.00  0.00     0.006 C 
BRANCH   6   7
ATOM      7  C   UNL     1     104.319 311.793 200.580  1.00  0.00     0.053 C 
BRANCH   7   8
ATOM      8  C   UNL     1     103.668 311.529 201.900  1.00  0.00     0.041 C 
ATOM      9  O   UNL     1     104.204 311.937 202.964  1.00  0.00    -0.550 OA
ATOM     10  O   UNL     1     102.443 310.875 201.954  1.00  0.00    -0.550 OA
ENDBRANCH   7   8
ENDBRANCH   6   7
ENDBRANCH   5   6
ENDBRANCH   4   5
ENDBRANCH   3   4
ENDBRANCH   2   3
ENDBRANCH   1   2
BRANCH   1  11
ATOM     11  C   UNL     1     104.221 311.636 193.100  1.00  0.00     0.000 C 
BRANCH  11  12
ATOM     12  C   UNL     1     104.218 312.823 192.121  1.00  0.00    -0.000 C 
BRANCH  12  13
ATOM     13  C   UNL     1     105.635 313.388 191.889  1.00  0.00    -0.000 C 
BRANCH  13  14
ATOM     14  C   UNL     1     105.690 314.499 190.826  1.00  0.00    -0.000 C 
BRANCH  14  15
ATOM     15  C   UNL     1     104.341 315.212 190.637  1.00  0.00    -0.000 C 
BRANCH  15  16
ATOM     16  C   UNL     1     104.293 316.051 189.350  1.00  0.00    -0.000 C 
BRANCH  16  17
ATOM     17  C   UNL     1     103.832 315.240 188.131  1.00  0.00    -0.003 C 
ATOM     18  C   UNL     1     102.575 314.436 188.450  1.00  0.00     0.004 C 
ENDBRANCH  16  17
ENDBRANCH  15  16
ENDBRANCH  14  15
ENDBRANCH  13  14
ENDBRANCH  12  13
ENDBRANCH  11  12
ENDBRANCH   1  11
TORSDOF 14
ENDMDL
MODEL 2
REMARK VINA RESULT:    -5.875     19.915     20.888
REMARK INTER + INTRA:         -11.519
REMARK INTER:                 -10.649
REMARK INTRA:                  -0.871
REMARK UNBOUND:                -0.835
REMARK SMILES CCCCCCCCCCCCCCCC(=O)[O-]
REMARK SMILES IDX 9 1 10 2 11 3 12 4 13 5 14 6 15 7 16 8 17 9 18 10 8 11 7 12
REMARK SMILES IDX 6 13 5 14 4 15 3 16 2 17 1 18
REMARK H PARENT
REMARK Flexibility Score: inf
ROOT
ATOM      1  C   UNL     1      88.027 326.018 197.005  1.00  0.00     0.000 C 
ENDROOT
BRANCH   1   2
ATOM      2  C   UNL     1      88.864 325.354 198.112  1.00  0.00     0.000 C 
BRANCH   2   3
ATOM      3  C   UNL     1      89.277 326.345 199.212  1.00  0.00     0.000 C 
BRANCH   3   4
ATOM      4  C   UNL     1      88.856 325.880 200.617  1.00  0.00     0.000 C 
BRANCH   4   5
ATOM      5  C   UNL     1      89.661 326.566 201.733  1.00  0.00     0.000 C 
BRANCH   5   6
ATOM      6  C   UNL     1      89.204 326.141 203.136  1.00  0.00     0.006 C 
BRANCH   6   7
ATOM      7  C   UNL     1      89.171 327.340 204.088  1.00  0.00     0.053 C 
BRANCH   7   8
ATOM      8  C   UNL     1      89.888 327.018 205.360  1.00  0.00     0.041 C 
ATOM      9  O   UNL     1      91.139 326.869 205.364  1.00  0.00    -0.550 OA
ATOM     10  O   UNL     1      89.183 326.932 206.554  1.00  0.00    -0.550 OA
ENDBRANCH   7   8
ENDBRANCH   6   7
ENDBRANCH   5   6
ENDBRANCH   4   5
ENDBRANCH   3   4
ENDBRANCH   2   3
ENDBRANCH   1   2
BRANCH   1  11
ATOM     11  C   UNL     1      88.893 326.511 195.836  1.00  0.00     0.000 C 
BRANCH  11  12
ATOM     12  C   UNL     1      88.071 326.772 194.561  1.00  0.00    -0.000 C 
BRANCH  12  13
ATOM     13  C   UNL     1      86.619 326.266 194.694  1.00  0.00    -0.000 C 
BRANCH  13  14
ATOM     14  C   UNL     1      86.271 325.127 193.719  1.00  0.00    -0.000 C 
BRANCH  14  15
ATOM     15  C   UNL     1      87.026 323.825 194.028  1.00  0.00    -0.000 C 
BRANCH  15  16
ATOM     16  C   UNL     1      88.135 323.530 193.006  1.00  0.00    -0.000 C 
BRANCH  16  17
ATOM     17  C   UNL     1      88.007 324.379 191.733  1.00  0.00    -0.003 C 
ATOM     18  C   UNL     1      88.189 323.523 190.482  1.00  0.00     0.004 C 
ENDBRANCH  16  17
ENDBRANCH  15  16
ENDBRANCH  14  15
ENDBRANCH  13  14
ENDBRANCH  12  13
ENDBRANCH  11  12
ENDBRANCH   1  11
TORSDOF 14
ENDMDL
MODEL 3
REMARK VINA RESULT:    -5.868     18.853     21.206
REMARK INTER + INTRA:         -11.505
REMARK INTER:                  -9.818
REMARK INTRA:                  -1.687
REMARK UNBOUND:                -0.835
REMARK SMILES CCCCCCCCCCCCCCCC(=O)[O-]
REMARK SMILES IDX 9 1 10 2 11 3 12 4 13 5 14 6 15 7 16 8 17 9 18 10 8 11 7 12
REMARK SMILES IDX 6 13 5 14 4 15 3 16 2 17 1 18
REMARK H PARENT
REMARK Flexibility Score: inf
ROOT
ATOM      1  C   UNL     1      87.920 326.702 194.041  1.00  0.00     0.000 C 
ENDROOT
BRANCH   1   2
ATOM      2  C   UNL     1      88.117 325.397 193.251  1.00  0.00     0.000 C 
BRANCH   2   3
ATOM      3  C   UNL     1      86.803 324.624 193.053  1.00  0.00     0.000 C 
BRANCH   3   4
ATOM      4  C   UNL     1      86.817 323.745 191.789  1.00  0.00     0.000 C 
BRANCH   4   5
ATOM      5  C   UNL     1      88.125 323.877 190.992  1.00  0.00     0.000 C 
BRANCH   5   6
ATOM      6  C   UNL     1      88.331 322.722 190.002  1.00  0.00     0.006 C 
BRANCH   6   7
ATOM      7  C   UNL     1      89.366 323.092 188.935  1.00  0.00     0.053 C 
BRANCH   7   8
ATOM      8  C   UNL     1      90.297 321.948 188.689  1.00  0.00     0.041 C 
ATOM      9  O   UNL     1      91.232 321.707 189.496  1.00  0.00    -0.550 OA
ATOM     10  O   UNL     1      90.102 321.116 187.593  1.00  0.00    -0.550 OA
ENDBRANCH   7   8
ENDBRANCH   6   7
ENDBRANCH   5   6
ENDBRANCH   4   5
ENDBRANCH   3   4
ENDBRANCH   2   3
ENDBRANCH   1   2
BRANCH   1  11
ATOM     11  C   UNL     1      86.633 326.685 194.882  1.00  0.00     0.000 C 
BRANCH  11  12
ATOM     12  C   UNL     1      86.913 326.500 196.384  1.00  0.00    -0.000 C 
BRANCH  12  13
ATOM     13  C   UNL     1      88.424 326.501 196.697  1.00  0.00    -0.000 C 
BRANCH  13  14
ATOM     14  C   UNL     1      88.776 325.846 198.044  1.00  0.00    -0.000 C 
BRANCH  14  15
ATOM     15  C   UNL     1      88.877 324.315 197.955  1.00  0.00    -0.000 C 
BRANCH  15  16
ATOM     16  C   UNL     1      89.277 323.832 196.552  1.00  0.00    -0.000 C 
BRANCH  16  17
ATOM     17  C   UNL     1      88.276 322.827 195.964  1.00  0.00    -0.003 C 
ATOM     18  C   UNL     1      88.876 322.089 194.770  1.00  0.00     0.004 C 
ENDBRANCH  16  17
ENDBRANCH  15  16
ENDBRANCH  14  15
ENDBRANCH  13  14
ENDBRANCH  12  13
ENDBRANCH  11  12
ENDBRANCH   1  11
TORSDOF 14
ENDMDL
MODEL 4
REMARK VINA RESULT:    -5.851     19.050     20.292
REMARK INTER + INTRA:         -11.475
REMARK INTER:                 -10.252
REMARK INTRA:                  -1.223
REMARK UNBOUND:                -0.835
REMARK SMILES CCCCCCCCCCCCCCCC(=O)[O-]
REMARK SMILES IDX 9 1 10 2 11 3 12 4 13 5 14 6 15 7 16 8 17 9 18 10 8 11 7 12
REMARK SMILES IDX 6 13 5 14 4 15 3 16 2 17 1 18
REMARK H PARENT
REMARK Flexibility Score: inf
ROOT
ATOM      1  C   UNL     1      86.496 326.158 195.248  1.00  0.00     0.000 C 
ENDROOT
BRANCH   1   2
ATOM      2  C   UNL     1      87.826 326.879 194.972  1.00  0.00     0.000 C 
BRANCH   2   3
ATOM      3  C   UNL     1      88.927 326.488 195.971  1.00  0.00     0.000 C 
BRANCH   3   4
ATOM      4  C   UNL     1      88.363 326.074 197.342  1.00  0.00     0.000 C 
BRANCH   4   5
ATOM      5  C   UNL     1      88.940 324.739 197.839  1.00  0.00     0.000 C 
BRANCH   5   6
ATOM      6  C   UNL     1      89.611 324.862 199.215  1.00  0.00     0.006 C 
BRANCH   6   7
ATOM      7  C   UNL     1      89.237 326.185 199.890  1.00  0.00     0.053 C 
BRANCH   7   8
ATOM      8  C   UNL     1      88.837 325.952 201.312  1.00  0.00     0.041 C 
ATOM      9  O   UNL     1      88.142 324.948 201.619  1.00  0.00    -0.550 OA
ATOM     10  O   UNL     1      89.273 326.817 202.308  1.00  0.00    -0.550 OA
ENDBRANCH   7   8
ENDBRANCH   6   7
ENDBRANCH   5   6
ENDBRANCH   4   5
ENDBRANCH   3   4
ENDBRANCH   2   3
ENDBRANCH   1   2
BRANCH   1  11
ATOM     11  C   UNL     1      86.199 325.066 194.208  1.00  0.00     0.000 C 
BRANCH  11  12
ATOM     12  C   UNL     1      87.014 323.783 194.450  1.00  0.00    -0.000 C 
BRANCH  12  13
ATOM     13  C   UNL     1      88.149 323.614 193.418  1.00  0.00    -0.000 C 
BRANCH  13  14
ATOM     14  C   UNL     1      87.950 324.446 192.139  1.00  0.00    -0.000 C 
BRANCH  14  15
ATOM     15  C   UNL     1      87.507 323.596 190.937  1.00  0.00    -0.000 C 
BRANCH  15  16
ATOM     16  C   UNL     1      88.678 322.846 190.283  1.00  0.00    -0.000 C 
BRANCH  16  17
ATOM     17  C   UNL     1      89.299 323.622 189.112  1.00  0.00    -0.003 C 
ATOM     18  C   UNL     1      90.542 322.913 188.582  1.00  0.00     0.004 C 
ENDBRANCH  16  17
ENDBRANCH  15  16
ENDBRANCH  14  15
ENDBRANCH  13  14
ENDBRANCH  12  13
ENDBRANCH  11  12
ENDBRANCH   1  11
TORSDOF 14
ENDMDL
MODEL 5
REMARK VINA RESULT:    -5.837      1.524      3.312
REMARK INTER + INTRA:         -11.450
REMARK INTER:                 -10.700
REMARK INTRA:                  -0.750
REMARK UNBOUND:                -0.835
REMARK SMILES CCCCCCCCCCCCCCCC(=O)[O-]
REMARK SMILES IDX 9 1 10 2 11 3 12 4 13 5 14 6 15 7 16 8 17 9 18 10 8 11 7 12
REMARK SMILES IDX 6 13 5 14 4 15 3 16 2 17 1 18
REMARK H PARENT
REMARK Flexibility Score: inf
ROOT
ATOM      1  C   UNL     1     103.925 312.568 197.033  1.00  0.00     0.000 C 
ENDROOT
BRANCH   1   2
ATOM      2  C   UNL     1     103.649 311.525 198.129  1.00  0.00     0.000 C 
BRANCH   2   3
ATOM      3  C   UNL     1     103.696 312.129 199.542  1.00  0.00     0.000 C 
BRANCH   3   4
ATOM      4  C   UNL     1     102.389 311.911 200.324  1.00  0.00     0.000 C 
BRANCH   4   5
ATOM      5  C   UNL     1     102.603 311.120 201.625  1.00  0.00     0.000 C 
BRANCH   5   6
ATOM      6  C   UNL     1     104.002 311.334 202.221  1.00  0.00     0.006 C 
BRANCH   6   7
ATOM      7  C   UNL     1     104.190 310.499 203.491  1.00  0.00     0.053 C 
BRANCH   7   8
ATOM      8  C   UNL     1     103.389 311.071 204.617  1.00  0.00     0.041 C 
ATOM      9  O   UNL     1     102.697 310.317 205.351  1.00  0.00    -0.550 OA
ATOM     10  O   UNL     1     103.445 312.433 204.889  1.00  0.00    -0.550 OA
ENDBRANCH   7   8
ENDBRANCH   6   7
ENDBRANCH   5   6
ENDBRANCH   4   5
ENDBRANCH   3   4
ENDBRANCH   2   3
ENDBRANCH   1   2
BRANCH   1  11
ATOM     11  C   UNL     1     104.613 311.952 195.804  1.00  0.00     0.000 C 
BRANCH  11  12
ATOM     12  C   UNL     1     103.606 311.391 194.784  1.00  0.00    -0.000 C 
BRANCH  12  13
ATOM     13  C   UNL     1     104.201 311.317 193.362  1.00  0.00    -0.000 C 
BRANCH  13  14
ATOM     14  C   UNL     1     105.554 312.038 193.221  1.00  0.00    -0.000 C 
BRANCH  14  15
ATOM     15  C   UNL     1     105.502 313.217 192.236  1.00  0.00    -0.000 C 
BRANCH  15  16
ATOM     16  C   UNL     1     104.157 313.309 191.498  1.00  0.00    -0.000 C 
BRANCH  16  17
ATOM     17  C   UNL     1     104.177 314.338 190.358  1.00  0.00    -0.003 C 
ATOM     18  C   UNL     1     105.595 314.837 190.094  1.00  0.00     0.004 C 
ENDBRANCH  16  17
ENDBRANCH  15  16
ENDBRANCH  14  15
ENDBRANCH  13  14
ENDBRANCH  12  13
ENDBRANCH  11  12
ENDBRANCH   1  11
TORSDOF 14
ENDMDL
MODEL 6
REMARK VINA RESULT:    -5.829     19.646     20.727
REMARK INTER + INTRA:         -11.434
REMARK INTER:                 -10.788
REMARK INTRA:                  -0.647
REMARK UNBOUND:                -0.835
REMARK SMILES CCCCCCCCCCCCCCCC(=O)[O-]
REMARK SMILES IDX 9 1 10 2 11 3 12 4 13 5 14 6 15 7 16 8 17 9 18 10 8 11 7 12
REMARK SMILES IDX 6 13 5 14 4 15 3 16 2 17 1 18
REMARK H PARENT
REMARK Flexibility Score: inf
ROOT
ATOM      1  C   UNL     1      86.856 326.446 196.225  1.00  0.00     0.000 C 
ENDROOT
BRANCH   1   2
ATOM      2  C   UNL     1      88.246 325.940 196.648  1.00  0.00     0.000 C 
BRANCH   2   3
ATOM      3  C   UNL     1      88.786 326.671 197.887  1.00  0.00     0.000 C 
BRANCH   3   4
ATOM      4  C   UNL     1      89.027 325.724 199.076  1.00  0.00     0.000 C 
BRANCH   4   5
ATOM      5  C   UNL     1      89.574 326.454 200.313  1.00  0.00     0.000 C 
BRANCH   5   6
ATOM      6  C   UNL     1      88.662 326.302 201.539  1.00  0.00     0.006 C 
BRANCH   6   7
ATOM      7  C   UNL     1      89.402 325.614 202.690  1.00  0.00     0.053 C 
BRANCH   7   8
ATOM      8  C   UNL     1      89.492 326.524 203.873  1.00  0.00     0.041 C 
ATOM      9  O   UNL     1      88.958 326.199 204.966  1.00  0.00    -0.550 OA
ATOM     10  O   UNL     1      90.210 327.711 203.785  1.00  0.00    -0.550 OA
ENDBRANCH   7   8
ENDBRANCH   6   7
ENDBRANCH   5   6
ENDBRANCH   4   5
ENDBRANCH   3   4
ENDBRANCH   2   3
ENDBRANCH   1   2
BRANCH   1  11
ATOM     11  C   UNL     1      86.763 326.694 194.711  1.00  0.00     0.000 C 
BRANCH  11  12
ATOM     12  C   UNL     1      85.897 325.644 193.993  1.00  0.00    -0.000 C 
BRANCH  12  13
ATOM     13  C   UNL     1      86.684 324.350 193.694  1.00  0.00    -0.000 C 
BRANCH  13  14
ATOM     14  C   UNL     1      88.065 324.600 193.063  1.00  0.00    -0.000 C 
BRANCH  14  15
ATOM     15  C   UNL     1      88.065 324.417 191.536  1.00  0.00    -0.000 C 
BRANCH  15  16
ATOM     16  C   UNL     1      88.070 322.938 191.120  1.00  0.00    -0.000 C 
BRANCH  16  17
ATOM     17  C   UNL     1      88.305 322.747 189.614  1.00  0.00    -0.003 C 
ATOM     18  C   UNL     1      89.264 323.803 189.071  1.00  0.00     0.004 C 
ENDBRANCH  16  17
ENDBRANCH  15  16
ENDBRANCH  14  15
ENDBRANCH  13  14
ENDBRANCH  12  13
ENDBRANCH  11  12
ENDBRANCH   1  11
TORSDOF 14
ENDMDL
MODEL 7
REMARK VINA RESULT:    -5.815      1.090      1.853
REMARK INTER + INTRA:         -11.410
REMARK INTER:                 -10.627
REMARK INTRA:                  -0.783
REMARK UNBOUND:                -0.835
REMARK SMILES CCCCCCCCCCCCCCCC(=O)[O-]
REMARK SMILES IDX 9 1 10 2 11 3 12 4 13 5 14 6 15 7 16 8 17 9 18 10 8 11 7 12
REMARK SMILES IDX 6 13 5 14 4 15 3 16 2 17 1 18
REMARK H PARENT
REMARK Flexibility Score: inf
ROOT
ATOM      1  C   UNL     1     103.546 311.553 194.647  1.00  0.00     0.000 C 
ENDROOT
BRANCH   1   2
ATOM      2  C   UNL     1     104.349 312.010 195.877  1.00  0.00     0.000 C 
BRANCH   2   3
ATOM      3  C   UNL     1     103.897 311.312 197.169  1.00  0.00     0.000 C 
BRANCH   3   4
ATOM      4  C   UNL     1     103.822 312.274 198.368  1.00  0.00     0.000 C 
BRANCH   4   5
ATOM      5  C   UNL     1     103.306 311.589 199.644  1.00  0.00     0.000 C 
BRANCH   5   6
ATOM      6  C   UNL     1     104.330 311.626 200.788  1.00  0.00     0.006 C 
BRANCH   6   7
ATOM      7  C   UNL     1     103.916 312.639 201.861  1.00  0.00     0.053 C 
BRANCH   7   8
ATOM      8  C   UNL     1     103.980 312.018 203.220  1.00  0.00     0.041 C 
ATOM      9  O   UNL     1     103.618 310.823 203.389  1.00  0.00    -0.550 OA
ATOM     10  O   UNL     1     104.486 312.741 204.292  1.00  0.00    -0.550 OA
ENDBRANCH   7   8
ENDBRANCH   6   7
ENDBRANCH   5   6
ENDBRANCH   4   5
ENDBRANCH   3   4
ENDBRANCH   2   3
ENDBRANCH   1   2
BRANCH   1  11
ATOM     11  C   UNL     1     104.449 311.259 193.438  1.00  0.00     0.000 C 
BRANCH  11  12
ATOM     12  C   UNL     1     105.843 311.897 193.574  1.00  0.00    -0.000 C 
BRANCH  12  13
ATOM     13  C   UNL     1     106.077 313.008 192.529  1.00  0.00    -0.000 C 
BRANCH  13  14
ATOM     14  C   UNL     1     105.271 314.290 192.800  1.00  0.00    -0.000 C 
BRANCH  14  15
ATOM     15  C   UNL     1     103.941 314.333 192.029  1.00  0.00    -0.000 C 
BRANCH  15  16
ATOM     16  C   UNL     1     104.078 313.811 190.590  1.00  0.00    -0.000 C 
BRANCH  16  17
ATOM     17  C   UNL     1     103.866 314.910 189.538  1.00  0.00    -0.003 C 
ATOM     18  C   UNL     1     102.700 314.567 188.615  1.00  0.00     0.004 C 
ENDBRANCH  16  17
ENDBRANCH  15  16
ENDBRANCH  14  15
ENDBRANCH  13  14
ENDBRANCH  12  13
ENDBRANCH  11  12
ENDBRANCH   1  11
TORSDOF 14
ENDMDL
MODEL 8
REMARK VINA RESULT:    -5.796      4.811      9.768
REMARK INTER + INTRA:         -11.375
REMARK INTER:                 -10.664
REMARK INTRA:                  -0.712
REMARK UNBOUND:                -0.835
REMARK SMILES CCCCCCCCCCCCCCCC(=O)[O-]
REMARK SMILES IDX 9 1 10 2 11 3 12 4 13 5 14 6 15 7 16 8 17 9 18 10 8 11 7 12
REMARK SMILES IDX 6 13 5 14 4 15 3 16 2 17 1 18
REMARK H PARENT
REMARK Flexibility Score: inf
ROOT
ATOM      1  C   UNL     1     104.250 311.708 193.086  1.00  0.00     0.000 C 
ENDROOT
BRANCH   1   2
ATOM      2  C   UNL     1     104.134 313.005 192.268  1.00  0.00     0.000 C 
BRANCH   2   3
ATOM      3  C   UNL     1     105.505 313.579 191.876  1.00  0.00     0.000 C 
BRANCH   3   4
ATOM      4  C   UNL     1     105.432 314.501 190.646  1.00  0.00     0.000 C 
BRANCH   4   5
ATOM      5  C   UNL     1     104.005 314.997 190.363  1.00  0.00     0.000 C 
BRANCH   5   6
ATOM      6  C   UNL     1     103.471 314.515 189.005  1.00  0.00     0.006 C 
BRANCH   6   7
ATOM      7  C   UNL     1     102.878 315.679 188.205  1.00  0.00     0.053 C 
BRANCH   7   8
ATOM      8  C   UNL     1     101.422 315.835 188.510  1.00  0.00     0.041 C 
ATOM      9  O   UNL     1     100.576 315.071 187.975  1.00  0.00    -0.550 OA
ATOM     10  O   UNL     1     101.001 316.794 189.424  1.00  0.00    -0.550 OA
ENDBRANCH   7   8
ENDBRANCH   6   7
ENDBRANCH   5   6
ENDBRANCH   4   5
ENDBRANCH   3   4
ENDBRANCH   2   3
ENDBRANCH   1   2
BRANCH   1  11
ATOM     11  C   UNL     1     105.687 311.448 193.565  1.00  0.00     0.000 C 
BRANCH  11  12
ATOM     12  C   UNL     1     105.821 311.521 195.097  1.00  0.00    -0.000 C 
BRANCH  12  13
ATOM     13  C   UNL     1     104.604 312.207 195.753  1.00  0.00    -0.000 C 
BRANCH  13  14
ATOM     14  C   UNL     1     104.039 311.437 196.960  1.00  0.00    -0.000 C 
BRANCH  14  15
ATOM     15  C   UNL     1     103.800 312.337 198.183  1.00  0.00    -0.000 C 
BRANCH  15  16
ATOM     16  C   UNL     1     103.405 311.537 199.434  1.00  0.00    -0.000 C 
BRANCH  16  17
ATOM     17  C   UNL     1     104.333 311.808 200.628  1.00  0.00    -0.003 C 
ATOM     18  C   UNL     1     103.688 311.359 201.937  1.00  0.00     0.004 C 
ENDBRANCH  16  17
ENDBRANCH  15  16
ENDBRANCH  14  15
ENDBRANCH  13  14
ENDBRANCH  12  13
ENDBRANCH  11  12
ENDBRANCH   1  11
TORSDOF 14
ENDMDL
MODEL 9
REMARK VINA RESULT:    -5.754      1.876      2.942
REMARK INTER + INTRA:         -11.297
REMARK INTER:                  -9.852
REMARK INTRA:                  -1.445
REMARK UNBOUND:                -0.835
REMARK SMILES CCCCCCCCCCCCCCCC(=O)[O-]
REMARK SMILES IDX 9 1 10 2 11 3 12 4 13 5 14 6 15 7 16 8 17 9 18 10 8 11 7 12
REMARK SMILES IDX 6 13 5 14 4 15 3 16 2 17 1 18
REMARK H PARENT
REMARK Flexibility Score: inf
ROOT
ATOM      1  C   UNL     1     104.684 311.849 195.796  1.00  0.00     0.000 C 
ENDROOT
BRANCH   1   2
ATOM      2  C   UNL     1     104.123 311.787 197.227  1.00  0.00     0.000 C 
BRANCH   2   3
ATOM      3  C   UNL     1     103.707 313.169 197.757  1.00  0.00     0.000 C 
BRANCH   3   4
ATOM      4  C   UNL     1     103.363 313.149 199.256  1.00  0.00     0.000 C 
BRANCH   4   5
ATOM      5  C   UNL     1     103.693 311.803 199.921  1.00  0.00     0.000 C 
BRANCH   5   6
ATOM      6  C   UNL     1     102.515 311.242 200.733  1.00  0.00     0.006 C 
BRANCH   6   7
ATOM      7  C   UNL     1     102.500 311.824 202.149  1.00  0.00     0.053 C 
BRANCH   7   8
ATOM      8  C   UNL     1     103.023 310.826 203.132  1.00  0.00     0.041 C 
ATOM      9  O   UNL     1     102.263 310.347 204.015  1.00  0.00    -0.550 OA
ATOM     10  O   UNL     1     104.337 310.384 203.043  1.00  0.00    -0.550 OA
ENDBRANCH   7   8
ENDBRANCH   6   7
ENDBRANCH   5   6
ENDBRANCH   4   5
ENDBRANCH   3   4
ENDBRANCH   2   3
ENDBRANCH   1   2
BRANCH   1  11
ATOM     11  C   UNL     1     103.621 311.508 194.739  1.00  0.00     0.000 C 
BRANCH  11  12
ATOM     12  C   UNL     1     104.236 311.212 193.359  1.00  0.00    -0.000 C 
BRANCH  12  13
ATOM     13  C   UNL     1     105.679 311.745 193.241  1.00  0.00    -0.000 C 
BRANCH  13  14
ATOM     14  C   UNL     1     105.793 313.042 192.420  1.00  0.00    -0.000 C 
BRANCH  14  15
ATOM     15  C   UNL     1     104.486 313.408 191.698  1.00  0.00    -0.000 C 
BRANCH  15  16
ATOM     16  C   UNL     1     103.831 314.675 192.271  1.00  0.00    -0.000 C 
BRANCH  16  17
ATOM     17  C   UNL     1     104.485 315.137 193.582  1.00  0.00    -0.003 C 
ATOM     18  C   UNL     1     103.450 315.267 194.696  1.00  0.00     0.004 C 
ENDBRANCH  16  17
ENDBRANCH  15  16
ENDBRANCH  14  15
ENDBRANCH  13  14
ENDBRANCH  12  13
ENDBRANCH  11  12
ENDBRANCH   1  11
TORSDOF 14
ENDMDL
