MODEL 1
REMARK VINA RESULT:    -5.171      0.000      0.000
REMARK INTER + INTRA:          -5.896
REMARK INTER:                  -5.775
REMARK INTRA:                  -0.120
REMARK UNBOUND:                -0.120
REMARK SMILES COc1cc2ccc(=O)oc2cc1OC
REMARK SMILES IDX 3 1 13 2 12 3 11 4 5 5 4 6 6 7 7 8 8 9 9 10 10 11 2 12 1 13
REMARK SMILES IDX 14 14 15 15
REMARK H PARENT
REMARK Flexibility Score: inf
ROOT
ATOM      1  C   UNL     1     -99.256  84.073 206.140  1.00  0.00     0.161 A 
ATOM      2  C   UNL     1     -98.388  83.005 206.431  1.00  0.00     0.164 A 
ATOM      3  C   UNL     1     -97.317  83.199 207.325  1.00  0.00     0.098 A 
ATOM      4  C   UNL     1     -97.111  84.443 207.925  1.00  0.00     0.142 A 
ATOM      5  C   UNL     1     -97.980  85.514 207.634  1.00  0.00     0.022 A 
ATOM      6  C   UNL     1     -99.047  85.328 206.746  1.00  0.00     0.062 A 
ATOM      7  C   UNL     1     -97.748  86.748 208.251  1.00  0.00     0.019 A 
ATOM      8  C   UNL     1     -96.673  86.884 209.128  1.00  0.00     0.094 A 
ATOM      9  C   UNL     1     -95.852  85.777 209.369  1.00  0.00     0.336 A 
ATOM     10  O   UNL     1     -94.875  85.878 210.157  1.00  0.00    -0.246 OA
ATOM     11  O   UNL     1     -96.096  84.614 208.768  1.00  0.00    -0.423 OA
ENDROOT
BRANCH   1  12
ATOM     12  O   UNL     1    -100.312  83.845 205.244  1.00  0.00    -0.493 OA
ATOM     13  C   UNL     1    -101.614  84.410 205.371  1.00  0.00     0.278 C 
ENDBRANCH   1  12
BRANCH   2  14
ATOM     14  O   UNL     1     -98.625  81.769 205.809  1.00  0.00    -0.493 OA
ATOM     15  C   UNL     1     -98.953  80.569 206.500  1.00  0.00     0.278 C 
ENDBRANCH   2  14
TORSDOF 2
ENDMDL
MODEL 2
REMARK VINA RESULT:    -4.963      1.834      4.660
REMARK INTER + INTRA:          -5.664
REMARK INTER:                  -5.511
REMARK INTRA:                  -0.153
REMARK UNBOUND:                -0.120
REMARK SMILES COc1cc2ccc(=O)oc2cc1OC
REMARK SMILES IDX 3 1 13 2 12 3 11 4 5 5 4 6 6 7 7 8 8 9 9 10 10 11 2 12 1 13
REMARK SMILES IDX 14 14 15 15
REMARK H PARENT
REMARK Flexibility Score: inf
ROOT
ATOM      1  C   UNL     1     -95.994  83.468 208.535  1.00  0.00     0.161 A 
ATOM      2  C   UNL     1     -96.520  82.264 208.036  1.00  0.00     0.164 A 
ATOM      3  C   UNL     1     -97.636  82.292 207.176  1.00  0.00     0.098 A 
ATOM      4  C   UNL     1     -98.222  83.507 206.816  1.00  0.00     0.142 A 
ATOM      5  C   UNL     1     -97.695  84.716 207.315  1.00  0.00     0.022 A 
ATOM      6  C   UNL     1     -96.586  84.695 208.170  1.00  0.00     0.062 A 
ATOM      7  C   UNL     1     -98.304  85.916 206.936  1.00  0.00     0.019 A 
ATOM      8  C   UNL     1     -99.406  85.886 206.083  1.00  0.00     0.094 A 
ATOM      9  C   UNL     1     -99.875  84.650 205.626  1.00  0.00     0.336 A 
ATOM     10  O   UNL     1    -100.868  84.599 204.855  1.00  0.00    -0.246 OA
ATOM     11  O   UNL     1     -99.276  83.522 206.003  1.00  0.00    -0.423 OA
ENDROOT
BRANCH   1  12
ATOM     12  O   UNL     1     -94.882  83.404 209.389  1.00  0.00    -0.493 OA
ATOM     13  C   UNL     1     -94.926  83.654 210.791  1.00  0.00     0.278 C 
ENDBRANCH   1  12
BRANCH   2  14
ATOM     14  O   UNL     1     -95.906  81.061 208.419  1.00  0.00    -0.493 OA
ATOM     15  C   UNL     1     -96.329  80.252 209.511  1.00  0.00     0.278 C 
ENDBRANCH   2  14
TORSDOF 2
ENDMDL
MODEL 3
REMARK VINA RESULT:    -4.961      2.442      3.657
REMARK INTER + INTRA:          -5.661
REMARK INTER:                  -5.549
REMARK INTRA:                  -0.112
REMARK UNBOUND:                -0.120
REMARK SMILES COc1cc2ccc(=O)oc2cc1OC
REMARK SMILES IDX 3 1 13 2 12 3 11 4 5 5 4 6 6 7 7 8 8 9 9 10 10 11 2 12 1 13
REMARK SMILES IDX 14 14 15 15
REMARK H PARENT
REMARK Flexibility Score: inf
ROOT
ATOM      1  C   UNL     1     -97.509  80.522 207.285  1.00  0.00     0.161 A 
ATOM      2  C   UNL     1     -96.704  80.251 208.405  1.00  0.00     0.164 A 
ATOM      3  C   UNL     1     -96.144  81.316 209.138  1.00  0.00     0.098 A 
ATOM      4  C   UNL     1     -96.382  82.639 208.759  1.00  0.00     0.142 A 
ATOM      5  C   UNL     1     -97.189  82.912 207.635  1.00  0.00     0.022 A 
ATOM      6  C   UNL     1     -97.749  81.858 206.903  1.00  0.00     0.062 A 
ATOM      7  C   UNL     1     -97.409  84.247 207.281  1.00  0.00     0.019 A 
ATOM      8  C   UNL     1     -96.831  85.262 208.042  1.00  0.00     0.094 A 
ATOM      9  C   UNL     1     -96.042  84.916 209.143  1.00  0.00     0.336 A 
ATOM     10  O   UNL     1     -95.509  85.817 209.844  1.00  0.00    -0.246 OA
ATOM     11  O   UNL     1     -95.849  83.637 209.458  1.00  0.00    -0.423 OA
ENDROOT
BRANCH   1  12
ATOM     12  O   UNL     1     -98.050  79.437 206.577  1.00  0.00    -0.493 OA
ATOM     13  C   UNL     1     -97.490  78.888 205.388  1.00  0.00     0.278 C 
ENDBRANCH   1  12
BRANCH   2  14
ATOM     14  O   UNL     1     -96.485  78.910 208.756  1.00  0.00    -0.493 OA
ATOM     15  C   UNL     1     -95.717  78.484 209.878  1.00  0.00     0.278 C 
ENDBRANCH   2  14
TORSDOF 2
ENDMDL
MODEL 4
REMARK VINA RESULT:    -4.945      2.416      4.438
REMARK INTER + INTRA:          -5.643
REMARK INTER:                  -5.519
REMARK INTRA:                  -0.124
REMARK UNBOUND:                -0.120
REMARK SMILES COc1cc2ccc(=O)oc2cc1OC
REMARK SMILES IDX 3 1 13 2 12 3 11 4 5 5 4 6 6 7 7 8 8 9 9 10 10 11 2 12 1 13
REMARK SMILES IDX 14 14 15 15
REMARK H PARENT
REMARK Flexibility Score: inf
ROOT
ATOM      1  C   UNL     1     -96.789  81.255 207.646  1.00  0.00     0.161 A 
ATOM      2  C   UNL     1     -97.754  80.706 206.784  1.00  0.00     0.164 A 
ATOM      3  C   UNL     1     -98.686  81.551 206.150  1.00  0.00     0.098 A 
ATOM      4  C   UNL     1     -98.658  82.930 206.373  1.00  0.00     0.142 A 
ATOM      5  C   UNL     1     -97.690  83.481 207.237  1.00  0.00     0.022 A 
ATOM      6  C   UNL     1     -96.761  82.646 207.870  1.00  0.00     0.062 A 
ATOM      7  C   UNL     1     -97.688  84.864 207.439  1.00  0.00     0.019 A 
ATOM      8  C   UNL     1     -98.633  85.654 206.787  1.00  0.00     0.094 A 
ATOM      9  C   UNL     1     -99.563  85.038 205.943  1.00  0.00     0.336 A 
ATOM     10  O   UNL     1    -100.426  85.732 205.344  1.00  0.00    -0.246 OA
ATOM     11  O   UNL     1     -99.543  83.719 205.769  1.00  0.00    -0.423 OA
ENDROOT
BRANCH   1  12
ATOM     12  O   UNL     1     -95.876  80.383 208.261  1.00  0.00    -0.493 OA
ATOM     13  C   UNL     1     -96.045  79.822 209.560  1.00  0.00     0.278 C 
ENDBRANCH   1  12
BRANCH   2  14
ATOM     14  O   UNL     1     -97.753  79.317 206.584  1.00  0.00    -0.493 OA
ATOM     15  C   UNL     1     -97.266  78.670 205.413  1.00  0.00     0.278 C 
ENDBRANCH   2  14
TORSDOF 2
ENDMDL
MODEL 5
REMARK VINA RESULT:    -4.937      2.296      3.781
REMARK INTER + INTRA:          -5.635
REMARK INTER:                  -5.528
REMARK INTRA:                  -0.107
REMARK UNBOUND:                -0.120
REMARK SMILES COc1cc2ccc(=O)oc2cc1OC
REMARK SMILES IDX 3 1 13 2 12 3 11 4 5 5 4 6 6 7 7 8 8 9 9 10 10 11 2 12 1 13
REMARK SMILES IDX 14 14 15 15
REMARK H PARENT
REMARK Flexibility Score: inf
ROOT
ATOM      1  C   UNL     1     -96.340  81.643 209.064  1.00  0.00     0.161 A 
ATOM      2  C   UNL     1     -97.037  82.090 207.928  1.00  0.00     0.164 A 
ATOM      3  C   UNL     1     -97.004  83.455 207.580  1.00  0.00     0.098 A 
ATOM      4  C   UNL     1     -96.285  84.366 208.357  1.00  0.00     0.142 A 
ATOM      5  C   UNL     1     -95.586  83.919 209.496  1.00  0.00     0.022 A 
ATOM      6  C   UNL     1     -95.615  82.564 209.847  1.00  0.00     0.062 A 
ATOM      7  C   UNL     1     -94.875  84.855 210.253  1.00  0.00     0.019 A 
ATOM      8  C   UNL     1     -94.876  86.194 209.864  1.00  0.00     0.094 A 
ATOM      9  C   UNL     1     -95.592  86.566 208.721  1.00  0.00     0.336 A 
ATOM     10  O   UNL     1     -95.607  87.769 208.352  1.00  0.00    -0.246 OA
ATOM     11  O   UNL     1     -96.260  85.653 208.019  1.00  0.00    -0.423 OA
ENDROOT
BRANCH   1  12
ATOM     12  O   UNL     1     -96.395  80.276 209.381  1.00  0.00    -0.493 OA
ATOM     13  C   UNL     1     -97.303  79.700 210.315  1.00  0.00     0.278 C 
ENDBRANCH   1  12
BRANCH   2  14
ATOM     14  O   UNL     1     -97.749  81.147 207.171  1.00  0.00    -0.493 OA
ATOM     15  C   UNL     1     -98.654  81.472 206.121  1.00  0.00     0.278 C 
ENDBRANCH   2  14
TORSDOF 2
ENDMDL
MODEL 6
REMARK VINA RESULT:    -4.921      2.538      4.644
REMARK INTER + INTRA:          -5.616
REMARK INTER:                  -5.452
REMARK INTRA:                  -0.164
REMARK UNBOUND:                -0.120
REMARK SMILES COc1cc2ccc(=O)oc2cc1OC
REMARK SMILES IDX 3 1 13 2 12 3 11 4 5 5 4 6 6 7 7 8 8 9 9 10 10 11 2 12 1 13
REMARK SMILES IDX 14 14 15 15
REMARK H PARENT
REMARK Flexibility Score: inf
ROOT
ATOM      1  C   UNL     1     -98.325  87.370 207.355  1.00  0.00     0.161 A 
ATOM      2  C   UNL     1     -97.567  87.795 208.460  1.00  0.00     0.164 A 
ATOM      3  C   UNL     1     -96.777  86.866 209.165  1.00  0.00     0.098 A 
ATOM      4  C   UNL     1     -96.741  85.526 208.775  1.00  0.00     0.142 A 
ATOM      5  C   UNL     1     -97.500  85.098 207.666  1.00  0.00     0.022 A 
ATOM      6  C   UNL     1     -98.288  86.016 206.962  1.00  0.00     0.062 A 
ATOM      7  C   UNL     1     -97.444  83.750 207.300  1.00  0.00     0.019 A 
ATOM      8  C   UNL     1     -96.645  82.874 208.033  1.00  0.00     0.094 A 
ATOM      9  C   UNL     1     -95.918  83.369 209.121  1.00  0.00     0.336 A 
ATOM     10  O   UNL     1     -95.191  82.595 209.797  1.00  0.00    -0.246 OA
ATOM     11  O   UNL     1     -95.991  84.657 209.448  1.00  0.00    -0.423 OA
ENDROOT
BRANCH   1  12
ATOM     12  O   UNL     1     -99.102  88.322 206.676  1.00  0.00    -0.493 OA
ATOM     13  C   UNL     1     -98.737  88.926 205.438  1.00  0.00     0.278 C 
ENDBRANCH   1  12
BRANCH   2  14
ATOM     14  O   UNL     1     -97.628  89.149 208.825  1.00  0.00    -0.493 OA
ATOM     15  C   UNL     1     -96.653  90.125 208.471  1.00  0.00     0.278 C 
ENDBRANCH   2  14
TORSDOF 2
ENDMDL
MODEL 7
REMARK VINA RESULT:    -4.896      2.476      5.628
REMARK INTER + INTRA:          -5.589
REMARK INTER:                  -5.484
REMARK INTRA:                  -0.105
REMARK UNBOUND:                -0.120
REMARK SMILES COc1cc2ccc(=O)oc2cc1OC
REMARK SMILES IDX 3 1 13 2 12 3 11 4 5 5 4 6 6 7 7 8 8 9 9 10 10 11 2 12 1 13
REMARK SMILES IDX 14 14 15 15
REMARK H PARENT
REMARK Flexibility Score: inf
ROOT
ATOM      1  C   UNL     1     -97.088  83.292 207.314  1.00  0.00     0.161 A 
ATOM      2  C   UNL     1     -95.770  82.987 207.697  1.00  0.00     0.164 A 
ATOM      3  C   UNL     1     -95.249  81.702 207.447  1.00  0.00     0.098 A 
ATOM      4  C   UNL     1     -96.032  80.729 206.823  1.00  0.00     0.142 A 
ATOM      5  C   UNL     1     -97.354  81.033 206.439  1.00  0.00     0.022 A 
ATOM      6  C   UNL     1     -97.878  82.308 206.683  1.00  0.00     0.062 A 
ATOM      7  C   UNL     1     -98.113  80.038 205.816  1.00  0.00     0.019 A 
ATOM      8  C   UNL     1     -97.547  78.783 205.594  1.00  0.00     0.094 A 
ATOM      9  C   UNL     1     -96.229  78.553 206.002  1.00  0.00     0.336 A 
ATOM     10  O   UNL     1     -95.699  77.427 205.811  1.00  0.00    -0.246 OA
ATOM     11  O   UNL     1     -95.529  79.519 206.593  1.00  0.00    -0.423 OA
ENDROOT
BRANCH   1  12
ATOM     12  O   UNL     1     -97.575  84.582 207.578  1.00  0.00    -0.493 OA
ATOM     13  C   UNL     1     -98.650  85.198 206.874  1.00  0.00     0.278 C 
ENDBRANCH   1  12
BRANCH   2  14
ATOM     14  O   UNL     1     -95.012  83.990 208.322  1.00  0.00    -0.493 OA
ATOM     15  C   UNL     1     -94.876  84.137 209.732  1.00  0.00     0.278 C 
ENDBRANCH   2  14
TORSDOF 2
ENDMDL
MODEL 8
REMARK VINA RESULT:    -4.829      1.943      4.771
REMARK INTER + INTRA:          -5.514
REMARK INTER:                  -5.348
REMARK INTRA:                  -0.165
REMARK UNBOUND:                -0.120
REMARK SMILES COc1cc2ccc(=O)oc2cc1OC
REMARK SMILES IDX 3 1 13 2 12 3 11 4 5 5 4 6 6 7 7 8 8 9 9 10 10 11 2 12 1 13
REMARK SMILES IDX 14 14 15 15
REMARK H PARENT
REMARK Flexibility Score: inf
ROOT
ATOM      1  C   UNL     1     -97.879  85.469 207.460  1.00  0.00     0.161 A 
ATOM      2  C   UNL     1     -96.614  85.213 208.017  1.00  0.00     0.164 A 
ATOM      3  C   UNL     1     -96.054  83.924 207.916  1.00  0.00     0.098 A 
ATOM      4  C   UNL     1     -96.747  82.900 207.267  1.00  0.00     0.142 A 
ATOM      5  C   UNL     1     -98.015  83.156 206.708  1.00  0.00     0.022 A 
ATOM      6  C   UNL     1     -98.577  84.434 206.805  1.00  0.00     0.062 A 
ATOM      7  C   UNL     1     -98.684  82.109 206.065  1.00  0.00     0.019 A 
ATOM      8  C   UNL     1     -98.083  80.853 205.994  1.00  0.00     0.094 A 
ATOM      9  C   UNL     1     -96.822  80.673 206.571  1.00  0.00     0.336 A 
ATOM     10  O   UNL     1     -96.261  79.547 206.519  1.00  0.00    -0.246 OA
ATOM     11  O   UNL     1     -96.208  81.686 207.177  1.00  0.00    -0.423 OA
ENDROOT
BRANCH   1  12
ATOM     12  O   UNL     1     -98.408  86.764 207.580  1.00  0.00    -0.493 OA
ATOM     13  C   UNL     1     -98.475  87.710 206.516  1.00  0.00     0.278 C 
ENDBRANCH   1  12
BRANCH   2  14
ATOM     14  O   UNL     1     -95.947  86.266 208.662  1.00  0.00    -0.493 OA
ATOM     15  C   UNL     1     -94.875  87.011 208.093  1.00  0.00     0.278 C 
ENDBRANCH   2  14
TORSDOF 2
ENDMDL
MODEL 9
REMARK VINA RESULT:    -4.751      2.041      5.575
REMARK INTER + INTRA:          -5.427
REMARK INTER:                  -5.308
REMARK INTRA:                  -0.119
REMARK UNBOUND:                -0.120
REMARK SMILES COc1cc2ccc(=O)oc2cc1OC
REMARK SMILES IDX 3 1 13 2 12 3 11 4 5 5 4 6 6 7 7 8 8 9 9 10 10 11 2 12 1 13
REMARK SMILES IDX 14 14 15 15
REMARK H PARENT
REMARK Flexibility Score: inf
ROOT
ATOM      1  C   UNL     1     -96.002  84.307 208.010  1.00  0.00     0.161 A 
ATOM      2  C   UNL     1     -97.338  84.288 207.570  1.00  0.00     0.164 A 
ATOM      3  C   UNL     1     -97.859  83.125 206.970  1.00  0.00     0.098 A 
ATOM      4  C   UNL     1     -97.060  81.991 206.810  1.00  0.00     0.142 A 
ATOM      5  C   UNL     1     -95.721  82.009 207.251  1.00  0.00     0.022 A 
ATOM      6  C   UNL     1     -95.197  83.162 207.848  1.00  0.00     0.062 A 
ATOM      7  C   UNL     1     -94.946  80.858 207.077  1.00  0.00     0.019 A 
ATOM      8  C   UNL     1     -95.513  79.734 206.477  1.00  0.00     0.094 A 
ATOM      9  C   UNL     1     -96.849  79.789 206.064  1.00  0.00     0.336 A 
ATOM     10  O   UNL     1     -97.381  78.786 205.520  1.00  0.00    -0.246 OA
ATOM     11  O   UNL     1     -97.563  80.898 206.242  1.00  0.00    -0.423 OA
ENDROOT
BRANCH   1  12
ATOM     12  O   UNL     1     -95.515  85.482 208.603  1.00  0.00    -0.493 OA
ATOM     13  C   UNL     1     -94.906  85.545 209.889  1.00  0.00     0.278 C 
ENDBRANCH   1  12
BRANCH   2  14
ATOM     14  O   UNL     1     -98.112  85.446 207.747  1.00  0.00    -0.493 OA
ATOM     15  C   UNL     1     -99.013  85.969 206.777  1.00  0.00     0.278 C 
ENDBRANCH   2  14
TORSDOF 2
ENDMDL
