MODEL 1
REMARK VINA RESULT:    -5.540      0.000      0.000
REMARK INTER + INTRA:          -8.054
REMARK INTER:                  -6.836
REMARK INTRA:                  -1.218
REMARK UNBOUND:                -1.218
REMARK SMILES CC(C)=CCC[C@H](C)c1ccc(C)cc1
REMARK SMILES IDX 6 1 7 2 8 3 9 4 13 5 12 6 11 7 14 8 10 9 15 10 5 11 4 12
REMARK SMILES IDX 2 13 1 14 3 15
REMARK H PARENT
REMARK Flexibility Score: inf
ROOT
ATOM      1  C   UNL     1      13.405 -10.848 -34.169  1.00  0.00     0.012 C 
ENDROOT
BRANCH   1   2
ATOM      2  C   UNL     1      13.736 -10.002 -32.916  1.00  0.00     0.016 C 
ATOM      3  C   UNL     1      13.335  -8.527 -33.077  1.00  0.00     0.013 C 
BRANCH   2   4
ATOM      4  C   UNL     1      15.214 -10.115 -32.583  1.00  0.00    -0.045 A 
ATOM      5  C   UNL     1      19.410 -10.423 -31.607  1.00  0.00     0.044 C 
ATOM      6  C   UNL     1      17.949 -10.346 -31.937  1.00  0.00    -0.051 A 
ATOM      7  C   UNL     1      17.500 -10.648 -33.231  1.00  0.00     0.004 A 
ATOM      8  C   UNL     1      17.029  -9.906 -30.975  1.00  0.00     0.004 A 
ATOM      9  C   UNL     1      16.144 -10.541 -33.550  1.00  0.00     0.004 A 
ATOM     10  C   UNL     1      15.672  -9.799 -31.292  1.00  0.00     0.004 A 
ENDBRANCH   2   4
ENDBRANCH   1   2
BRANCH   1  11
ATOM     11  C   UNL     1      12.663 -12.163 -33.855  1.00  0.00     0.028 C 
BRANCH  11  12
ATOM     12  C   UNL     1      12.905 -12.636 -32.441  1.00  0.00    -0.028 C 
ATOM     13  C   UNL     1      13.906 -13.466 -32.074  1.00  0.00    -0.080 C 
ATOM     14  C   UNL     1      14.012 -13.865 -30.624  1.00  0.00     0.039 C 
ATOM     15  C   UNL     1      14.930 -13.976 -33.061  1.00  0.00     0.039 C 
ENDBRANCH  11  12
ENDBRANCH   1  11
TORSDOF 4
ENDMDL
MODEL 2
REMARK VINA RESULT:    -5.358     13.213     15.497
REMARK INTER + INTRA:          -7.830
REMARK INTER:                  -7.071
REMARK INTRA:                  -0.758
REMARK UNBOUND:                -1.218
REMARK SMILES CC(C)=CCC[C@H](C)c1ccc(C)cc1
REMARK SMILES IDX 6 1 7 2 8 3 9 4 13 5 12 6 11 7 14 8 10 9 15 10 5 11 4 12
REMARK SMILES IDX 2 13 1 14 3 15
REMARK H PARENT
REMARK Flexibility Score: inf
ROOT
ATOM      1  C   UNL     1      24.230  -5.859 -21.536  1.00  0.00     0.012 C 
ENDROOT
BRANCH   1   2
ATOM      2  C   UNL     1      23.723  -4.549 -22.185  1.00  0.00     0.016 C 
ATOM      3  C   UNL     1      24.527  -3.318 -21.736  1.00  0.00     0.013 C 
BRANCH   2   4
ATOM      4  C   UNL     1      22.247  -4.353 -21.887  1.00  0.00    -0.045 A 
ATOM      5  C   UNL     1      18.041  -3.820 -21.058  1.00  0.00     0.044 C 
ATOM      6  C   UNL     1      19.504  -4.022 -21.320  1.00  0.00    -0.051 A 
ATOM      7  C   UNL     1      20.441  -3.090 -20.850  1.00  0.00     0.004 A 
ATOM      8  C   UNL     1      19.942  -5.107 -22.093  1.00  0.00     0.004 A 
ATOM      9  C   UNL     1      21.801  -3.258 -21.123  1.00  0.00     0.004 A 
ATOM     10  C   UNL     1      21.302  -5.275 -22.368  1.00  0.00     0.004 A 
ENDBRANCH   2   4
ENDBRANCH   1   2
BRANCH   1  11
ATOM     11  C   UNL     1      25.736  -6.115 -21.741  1.00  0.00     0.028 C 
BRANCH  11  12
ATOM     12  C   UNL     1      26.080  -6.387 -23.187  1.00  0.00    -0.028 C 
ATOM     13  C   UNL     1      27.010  -5.705 -23.892  1.00  0.00    -0.080 C 
ATOM     14  C   UNL     1      27.233  -6.080 -25.335  1.00  0.00     0.039 C 
ATOM     15  C   UNL     1      27.846  -4.610 -23.271  1.00  0.00     0.039 C 
ENDBRANCH  11  12
ENDBRANCH   1  11
TORSDOF 4
ENDMDL
MODEL 3
REMARK VINA RESULT:    -5.336      0.729      1.237
REMARK INTER + INTRA:          -7.802
REMARK INTER:                  -6.299
REMARK INTRA:                  -1.503
REMARK UNBOUND:                -1.218
REMARK SMILES CC(C)=CCC[C@H](C)c1ccc(C)cc1
REMARK SMILES IDX 6 1 7 2 8 3 9 4 13 5 12 6 11 7 14 8 10 9 15 10 5 11 4 12
REMARK SMILES IDX 2 13 1 14 3 15
REMARK H PARENT
REMARK Flexibility Score: inf
ROOT
ATOM      1  C   UNL     1      12.945 -10.996 -33.144  1.00  0.00     0.012 C 
ENDROOT
BRANCH   1   2
ATOM      2  C   UNL     1      13.640  -9.810 -32.433  1.00  0.00     0.016 C 
ATOM      3  C   UNL     1      13.361  -8.464 -33.119  1.00  0.00     0.013 C 
BRANCH   2   4
ATOM      4  C   UNL     1      15.136 -10.057 -32.343  1.00  0.00    -0.045 A 
ATOM      5  C   UNL     1      19.390 -10.748 -32.057  1.00  0.00     0.044 C 
ATOM      6  C   UNL     1      17.908 -10.538 -32.148  1.00  0.00    -0.051 A 
ATOM      7  C   UNL     1      17.244 -10.712 -33.371  1.00  0.00     0.004 A 
ATOM      8  C   UNL     1      17.185 -10.100 -31.029  1.00  0.00     0.004 A 
ATOM      9  C   UNL     1      15.869 -10.482 -33.466  1.00  0.00     0.004 A 
ATOM     10  C   UNL     1      15.809  -9.869 -31.123  1.00  0.00     0.004 A 
ENDBRANCH   2   4
ENDBRANCH   1   2
BRANCH   1  11
ATOM     11  C   UNL     1      12.968 -12.309 -32.335  1.00  0.00     0.028 C 
BRANCH  11  12
ATOM     12  C   UNL     1      13.794 -13.381 -33.006  1.00  0.00    -0.028 C 
ATOM     13  C   UNL     1      14.913 -13.927 -32.479  1.00  0.00    -0.080 C 
ATOM     14  C   UNL     1      15.642 -14.979 -33.275  1.00  0.00     0.039 C 
ATOM     15  C   UNL     1      15.430 -13.537 -31.113  1.00  0.00     0.039 C 
ENDBRANCH  11  12
ENDBRANCH   1  11
TORSDOF 4
ENDMDL
MODEL 4
REMARK VINA RESULT:    -5.290      1.311      5.263
REMARK INTER + INTRA:          -7.746
REMARK INTER:                  -7.134
REMARK INTRA:                  -0.611
REMARK UNBOUND:                -1.218
REMARK SMILES CC(C)=CCC[C@H](C)c1ccc(C)cc1
REMARK SMILES IDX 6 1 7 2 8 3 9 4 13 5 12 6 11 7 14 8 10 9 15 10 5 11 4 12
REMARK SMILES IDX 2 13 1 14 3 15
REMARK H PARENT
REMARK Flexibility Score: inf
ROOT
ATOM      1  C   UNL     1      15.912 -10.419 -33.128  1.00  0.00     0.012 C 
ENDROOT
BRANCH   1   2
ATOM      2  C   UNL     1      14.442 -10.516 -33.601  1.00  0.00     0.016 C 
ATOM      3  C   UNL     1      13.590  -9.326 -33.130  1.00  0.00     0.013 C 
BRANCH   2   4
ATOM      4  C   UNL     1      13.826 -11.824 -33.134  1.00  0.00    -0.045 A 
ATOM      5  C   UNL     1      12.105 -15.557 -31.806  1.00  0.00     0.044 C 
ATOM      6  C   UNL     1      12.704 -14.251 -32.237  1.00  0.00    -0.051 A 
ATOM      7  C   UNL     1      11.875 -13.175 -32.588  1.00  0.00     0.004 A 
ATOM      8  C   UNL     1      14.095 -14.116 -32.359  1.00  0.00     0.004 A 
ATOM      9  C   UNL     1      12.430 -11.970 -33.025  1.00  0.00     0.004 A 
ATOM     10  C   UNL     1      14.652 -12.910 -32.796  1.00  0.00     0.004 A 
ENDBRANCH   2   4
ENDBRANCH   1   2
BRANCH   1  11
ATOM     11  C   UNL     1      16.096  -9.619 -31.823  1.00  0.00     0.028 C 
BRANCH  11  12
ATOM     12  C   UNL     1      17.348 -10.017 -31.077  1.00  0.00    -0.028 C 
ATOM     13  C   UNL     1      18.579  -9.520 -31.332  1.00  0.00    -0.080 C 
ATOM     14  C   UNL     1      19.740 -10.026 -30.514  1.00  0.00     0.039 C 
ATOM     15  C   UNL     1      18.816  -8.459 -32.381  1.00  0.00     0.039 C 
ENDBRANCH  11  12
ENDBRANCH   1  11
TORSDOF 4
ENDMDL
MODEL 5
REMARK VINA RESULT:    -5.242      1.617      5.252
REMARK INTER + INTRA:          -7.686
REMARK INTER:                  -6.934
REMARK INTRA:                  -0.751
REMARK UNBOUND:                -1.218
REMARK SMILES CC(C)=CCC[C@H](C)c1ccc(C)cc1
REMARK SMILES IDX 6 1 7 2 8 3 9 4 13 5 12 6 11 7 14 8 10 9 15 10 5 11 4 12
REMARK SMILES IDX 2 13 1 14 3 15
REMARK H PARENT
REMARK Flexibility Score: inf
ROOT
ATOM      1  C   UNL     1      18.126  -9.371 -31.861  1.00  0.00     0.012 C 
ENDROOT
BRANCH   1   2
ATOM      2  C   UNL     1      16.832  -9.645 -31.059  1.00  0.00     0.016 C 
ATOM      3  C   UNL     1      17.058 -10.611 -29.885  1.00  0.00     0.013 C 
BRANCH   2   4
ATOM      4  C   UNL     1      15.747 -10.177 -31.979  1.00  0.00    -0.045 A 
ATOM      5  C   UNL     1      12.646 -11.663 -34.593  1.00  0.00     0.044 C 
ATOM      6  C   UNL     1      13.739 -11.137 -33.710  1.00  0.00    -0.051 A 
ATOM      7  C   UNL     1      14.793 -11.974 -33.316  1.00  0.00     0.004 A 
ATOM      8  C   UNL     1      13.681  -9.826 -33.217  1.00  0.00     0.004 A 
ATOM      9  C   UNL     1      15.792 -11.497 -32.465  1.00  0.00     0.004 A 
ATOM     10  C   UNL     1      14.680  -9.347 -32.365  1.00  0.00     0.004 A 
ENDBRANCH   2   4
ENDBRANCH   1   2
BRANCH   1  11
ATOM     11  C   UNL     1      19.350 -10.164 -31.361  1.00  0.00     0.028 C 
BRANCH  11  12
ATOM     12  C   UNL     1      19.629 -11.384 -32.207  1.00  0.00    -0.028 C 
ATOM     13  C   UNL     1      20.297 -12.477 -31.776  1.00  0.00    -0.080 C 
ATOM     14  C   UNL     1      20.514 -13.613 -32.743  1.00  0.00     0.039 C 
ATOM     15  C   UNL     1      20.799 -12.604 -30.356  1.00  0.00     0.039 C 
ENDBRANCH  11  12
ENDBRANCH   1  11
TORSDOF 4
ENDMDL
MODEL 6
REMARK VINA RESULT:    -5.080      1.011      1.581
REMARK INTER + INTRA:          -7.486
REMARK INTER:                  -5.943
REMARK INTRA:                  -1.543
REMARK UNBOUND:                -1.218
REMARK SMILES CC(C)=CCC[C@H](C)c1ccc(C)cc1
REMARK SMILES IDX 6 1 7 2 8 3 9 4 13 5 12 6 11 7 14 8 10 9 15 10 5 11 4 12
REMARK SMILES IDX 2 13 1 14 3 15
REMARK H PARENT
REMARK Flexibility Score: inf
ROOT
ATOM      1  C   UNL     1      12.395 -11.515 -32.011  1.00  0.00     0.012 C 
ENDROOT
BRANCH   1   2
ATOM      2  C   UNL     1      13.046 -10.768 -33.199  1.00  0.00     0.016 C 
ATOM      3  C   UNL     1      12.890 -11.524 -34.529  1.00  0.00     0.013 C 
BRANCH   2   4
ATOM      4  C   UNL     1      14.514 -10.505 -32.911  1.00  0.00    -0.045 A 
ATOM      5  C   UNL     1      18.681  -9.741 -32.065  1.00  0.00     0.044 C 
ATOM      6  C   UNL     1      17.237 -10.035 -32.346  1.00  0.00    -0.051 A 
ATOM      7  C   UNL     1      16.857 -10.602 -33.571  1.00  0.00     0.004 A 
ATOM      8  C   UNL     1      16.249  -9.682 -31.415  1.00  0.00     0.004 A 
ATOM      9  C   UNL     1      15.509 -10.843 -33.848  1.00  0.00     0.004 A 
ATOM     10  C   UNL     1      14.900  -9.922 -31.692  1.00  0.00     0.004 A 
ENDBRANCH   2   4
ENDBRANCH   1   2
BRANCH   1  11
ATOM     11  C   UNL     1      12.655 -13.035 -32.011  1.00  0.00     0.028 C 
BRANCH  11  12
ATOM     12  C   UNL     1      13.831 -13.416 -31.143  1.00  0.00    -0.028 C 
ATOM     13  C   UNL     1      14.972 -13.974 -31.604  1.00  0.00    -0.080 C 
ATOM     14  C   UNL     1      16.056 -14.316 -30.614  1.00  0.00     0.039 C 
ATOM     15  C   UNL     1      15.202 -14.234 -33.075  1.00  0.00     0.039 C 
ENDBRANCH  11  12
ENDBRANCH   1  11
TORSDOF 4
ENDMDL
MODEL 7
REMARK VINA RESULT:    -5.051      2.075      4.221
REMARK INTER + INTRA:          -7.450
REMARK INTER:                  -6.794
REMARK INTRA:                  -0.656
REMARK UNBOUND:                -1.218
REMARK SMILES CC(C)=CCC[C@H](C)c1ccc(C)cc1
REMARK SMILES IDX 6 1 7 2 8 3 9 4 13 5 12 6 11 7 14 8 10 9 15 10 5 11 4 12
REMARK SMILES IDX 2 13 1 14 3 15
REMARK H PARENT
REMARK Flexibility Score: inf
ROOT
ATOM      1  C   UNL     1      16.742  -9.659 -31.035  1.00  0.00     0.012 C 
ENDROOT
BRANCH   1   2
ATOM      2  C   UNL     1      18.269  -9.571 -31.269  1.00  0.00     0.016 C 
ATOM      3  C   UNL     1      18.642  -8.556 -32.361  1.00  0.00     0.013 C 
BRANCH   2   4
ATOM      4  C   UNL     1      18.827 -10.942 -31.609  1.00  0.00    -0.045 A 
ATOM      5  C   UNL     1      20.400 -14.854 -32.551  1.00  0.00     0.044 C 
ATOM      6  C   UNL     1      19.829 -13.501 -32.242  1.00  0.00    -0.051 A 
ATOM      7  C   UNL     1      20.203 -12.386 -33.006  1.00  0.00     0.004 A 
ATOM      8  C   UNL     1      18.971 -13.328 -31.147  1.00  0.00     0.004 A 
ATOM      9  C   UNL     1      19.701 -11.120 -32.699  1.00  0.00     0.004 A 
ATOM     10  C   UNL     1      18.468 -12.061 -30.837  1.00  0.00     0.004 A 
ENDBRANCH   2   4
ENDBRANCH   1   2
BRANCH   1  11
ATOM     11  C   UNL     1      15.924  -9.860 -32.327  1.00  0.00     0.028 C 
BRANCH  11  12
ATOM     12  C   UNL     1      14.546 -10.414 -32.053  1.00  0.00    -0.028 C 
ATOM     13  C   UNL     1      13.392  -9.780 -32.359  1.00  0.00    -0.080 C 
ATOM     14  C   UNL     1      12.089 -10.451 -32.009  1.00  0.00     0.039 C 
ATOM     15  C   UNL     1      13.373  -8.443 -33.064  1.00  0.00     0.039 C 
ENDBRANCH  11  12
ENDBRANCH   1  11
TORSDOF 4
ENDMDL
MODEL 8
REMARK VINA RESULT:    -5.007      1.275      1.937
REMARK INTER + INTRA:          -7.396
REMARK INTER:                  -5.925
REMARK INTRA:                  -1.472
REMARK UNBOUND:                -1.218
REMARK SMILES CC(C)=CCC[C@H](C)c1ccc(C)cc1
REMARK SMILES IDX 6 1 7 2 8 3 9 4 13 5 12 6 11 7 14 8 10 9 15 10 5 11 4 12
REMARK SMILES IDX 2 13 1 14 3 15
REMARK H PARENT
REMARK Flexibility Score: inf
ROOT
ATOM      1  C   UNL     1      13.902 -12.387 -33.570  1.00  0.00     0.012 C 
ENDROOT
BRANCH   1   2
ATOM      2  C   UNL     1      13.924 -11.020 -32.845  1.00  0.00     0.016 C 
ATOM      3  C   UNL     1      13.268  -9.902 -33.670  1.00  0.00     0.013 C 
BRANCH   2   4
ATOM      4  C   UNL     1      15.350 -10.642 -32.483  1.00  0.00    -0.045 A 
ATOM      5  C   UNL     1      19.395  -9.553 -31.427  1.00  0.00     0.044 C 
ATOM      6  C   UNL     1      17.995  -9.960 -31.782  1.00  0.00    -0.051 A 
ATOM      7  C   UNL     1      17.713 -10.485 -33.051  1.00  0.00     0.004 A 
ATOM      8  C   UNL     1      16.947  -9.755 -30.873  1.00  0.00     0.004 A 
ATOM      9  C   UNL     1      16.404 -10.831 -33.396  1.00  0.00     0.004 A 
ATOM     10  C   UNL     1      15.636 -10.100 -31.217  1.00  0.00     0.004 A 
ENDBRANCH   2   4
ENDBRANCH   1   2
BRANCH   1  11
ATOM     11  C   UNL     1      14.083 -13.595 -32.630  1.00  0.00     0.028 C 
BRANCH  11  12
ATOM     12  C   UNL     1      15.336 -14.381 -32.939  1.00  0.00    -0.028 C 
ATOM     13  C   UNL     1      16.428 -14.423 -32.144  1.00  0.00    -0.080 C 
ATOM     14  C   UNL     1      17.612 -15.239 -32.594  1.00  0.00     0.039 C 
ATOM     15  C   UNL     1      16.481 -13.705 -30.815  1.00  0.00     0.039 C 
ENDBRANCH  11  12
ENDBRANCH   1  11
TORSDOF 4
ENDMDL
MODEL 9
REMARK VINA RESULT:    -4.885     12.855     14.430
REMARK INTER + INTRA:          -7.246
REMARK INTER:                  -6.604
REMARK INTRA:                  -0.643
REMARK UNBOUND:                -1.218
REMARK SMILES CC(C)=CCC[C@H](C)c1ccc(C)cc1
REMARK SMILES IDX 6 1 7 2 8 3 9 4 13 5 12 6 11 7 14 8 10 9 15 10 5 11 4 12
REMARK SMILES IDX 2 13 1 14 3 15
REMARK H PARENT
REMARK Flexibility Score: inf
ROOT
ATOM      1  C   UNL     1      23.748  -7.373 -23.021  1.00  0.00     0.012 C 
ENDROOT
BRANCH   1   2
ATOM      2  C   UNL     1      23.975  -5.918 -22.547  1.00  0.00     0.016 C 
ATOM      3  C   UNL     1      24.966  -5.826 -21.375  1.00  0.00     0.013 C 
BRANCH   2   4
ATOM      4  C   UNL     1      22.650  -5.277 -22.170  1.00  0.00    -0.045 A 
ATOM      5  C   UNL     1      18.869  -3.474 -21.118  1.00  0.00     0.044 C 
ATOM      6  C   UNL     1      20.180  -4.119 -21.458  1.00  0.00    -0.051 A 
ATOM      7  C   UNL     1      21.380  -3.572 -20.983  1.00  0.00     0.004 A 
ATOM      8  C   UNL     1      20.221  -5.232 -22.310  1.00  0.00     0.004 A 
ATOM      9  C   UNL     1      22.604  -4.150 -21.328  1.00  0.00     0.004 A 
ATOM     10  C   UNL     1      21.445  -5.812 -22.656  1.00  0.00     0.004 A 
ENDBRANCH   2   4
ENDBRANCH   1   2
BRANCH   1  11
ATOM     11  C   UNL     1      24.875  -8.344 -22.615  1.00  0.00     0.028 C 
BRANCH  11  12
ATOM     12  C   UNL     1      25.208  -9.328 -23.713  1.00  0.00    -0.028 C 
ATOM     13  C   UNL     1      26.139  -9.117 -24.671  1.00  0.00    -0.080 C 
ATOM     14  C   UNL     1      26.350 -10.186 -25.712  1.00  0.00     0.039 C 
ATOM     15  C   UNL     1      26.986  -7.866 -24.706  1.00  0.00     0.039 C 
ENDBRANCH  11  12
ENDBRANCH   1  11
TORSDOF 4
ENDMDL
