MODEL 1
REMARK VINA RESULT:    -4.173      0.000      0.000
REMARK INTER + INTRA:          -4.969
REMARK INTER:                  -4.783
REMARK INTRA:                  -0.186
REMARK UNBOUND:                -0.186
REMARK SMILES COc1ccc(C(C)=O)c(O)c1
REMARK SMILES IDX 6 1 10 2 12 3 3 4 4 5 5 6 7 7 8 8 9 9 11 10 2 12 1 13
REMARK H PARENT 11 11
REMARK Flexibility Score: inf
ROOT
ATOM      1  C   UNL     1       8.671 -32.487  17.466  1.00  0.00     0.059 A 
ATOM      2  C   UNL     1       7.760 -33.336  18.137  1.00  0.00     0.130 A 
ATOM      3  C   UNL     1       6.962 -34.227  17.403  1.00  0.00     0.093 A 
ATOM      4  C   UNL     1       7.042 -34.274  16.001  1.00  0.00     0.122 A 
ATOM      5  C   UNL     1       7.929 -33.421  15.341  1.00  0.00     0.047 A 
ATOM      6  C   UNL     1       8.732 -32.535  16.062  1.00  0.00     0.019 A 
ENDROOT
BRANCH   1   7
ATOM      7  C   UNL     1       9.557 -31.535  18.189  1.00  0.00     0.163 C 
ATOM      8  C   UNL     1      10.504 -30.618  17.477  1.00  0.00     0.093 C 
ATOM      9  O   UNL     1       9.517 -31.488  19.448  1.00  0.00    -0.294 OA
ENDBRANCH   1   7
BRANCH   2  10
ATOM     10  O   UNL     1       7.626 -33.287  19.524  1.00  0.00    -0.507 OA
ATOM     11  H   UNL     1       6.823 -32.859  19.969  1.00  0.00     0.293 HD
ENDBRANCH   2  10
BRANCH   4  12
ATOM     12  O   UNL     1       6.261 -35.148  15.230  1.00  0.00    -0.497 OA
ATOM     13  C   UNL     1       5.919 -36.475  15.616  1.00  0.00     0.278 C 
ENDBRANCH   4  12
TORSDOF 3
ENDMDL
MODEL 2
REMARK VINA RESULT:    -3.904      2.017      5.025
REMARK INTER + INTRA:          -4.660
REMARK INTER:                  -4.332
REMARK INTRA:                  -0.328
REMARK UNBOUND:                -0.186
REMARK SMILES COc1ccc(C(C)=O)c(O)c1
REMARK SMILES IDX 6 1 10 2 12 3 3 4 4 5 5 6 7 7 8 8 9 9 11 10 2 12 1 13
REMARK H PARENT 11 11
REMARK Flexibility Score: inf
ROOT
ATOM      1  C   UNL     1       7.589 -33.520  14.850  1.00  0.00     0.059 A 
ATOM      2  C   UNL     1       8.777 -32.779  15.043  1.00  0.00     0.130 A 
ATOM      3  C   UNL     1       9.117 -32.321  16.324  1.00  0.00     0.093 A 
ATOM      4  C   UNL     1       8.279 -32.575  17.424  1.00  0.00     0.122 A 
ATOM      5  C   UNL     1       7.097 -33.292  17.226  1.00  0.00     0.047 A 
ATOM      6  C   UNL     1       6.752 -33.757  15.956  1.00  0.00     0.019 A 
ENDROOT
BRANCH   1   7
ATOM      7  C   UNL     1       7.183 -34.049  13.519  1.00  0.00     0.163 C 
ATOM      8  C   UNL     1       5.878 -33.691  12.875  1.00  0.00     0.093 C 
ATOM      9  O   UNL     1       7.958 -34.827  12.901  1.00  0.00    -0.294 OA
ENDBRANCH   1   7
BRANCH   2  10
ATOM     10  O   UNL     1       9.612 -32.474  13.968  1.00  0.00    -0.507 OA
ATOM     11  H   UNL     1      10.518 -32.912  13.853  1.00  0.00     0.293 HD
ENDBRANCH   2  10
BRANCH   4  12
ATOM     12  O   UNL     1       8.581 -32.134  18.720  1.00  0.00    -0.497 OA
ATOM     13  C   UNL     1       9.620 -31.212  19.036  1.00  0.00     0.278 C 
ENDBRANCH   4  12
TORSDOF 3
ENDMDL
MODEL 3
REMARK VINA RESULT:    -3.855     14.692     16.184
REMARK INTER + INTRA:          -4.604
REMARK INTER:                  -4.465
REMARK INTRA:                  -0.139
REMARK UNBOUND:                -0.186
REMARK SMILES COc1ccc(C(C)=O)c(O)c1
REMARK SMILES IDX 6 1 10 2 12 3 3 4 4 5 5 6 7 7 8 8 9 9 11 10 2 12 1 13
REMARK H PARENT 11 11
REMARK Flexibility Score: inf
ROOT
ATOM      1  C   UNL     1      16.006 -37.062  30.999  1.00  0.00     0.059 A 
ATOM      2  C   UNL     1      16.477 -35.757  30.722  1.00  0.00     0.130 A 
ATOM      3  C   UNL     1      17.063 -35.473  29.479  1.00  0.00     0.093 A 
ATOM      4  C   UNL     1      17.205 -36.478  28.507  1.00  0.00     0.122 A 
ATOM      5  C   UNL     1      16.756 -37.769  28.791  1.00  0.00     0.047 A 
ATOM      6  C   UNL     1      16.166 -38.061  30.023  1.00  0.00     0.019 A 
ENDROOT
BRANCH   1   7
ATOM      7  C   UNL     1      15.359 -37.420  32.291  1.00  0.00     0.163 C 
ATOM      8  C   UNL     1      13.971 -36.980  32.646  1.00  0.00     0.093 C 
ATOM      9  O   UNL     1      15.993 -38.122  33.125  1.00  0.00    -0.294 OA
ENDBRANCH   1   7
BRANCH   2  10
ATOM     10  O   UNL     1      16.387 -34.746  31.679  1.00  0.00    -0.507 OA
ATOM     11  H   UNL     1      15.519 -34.538  32.157  1.00  0.00     0.293 HD
ENDBRANCH   2  10
BRANCH   4  12
ATOM     12  O   UNL     1      17.787 -36.237  27.253  1.00  0.00    -0.497 OA
ATOM     13  C   UNL     1      17.524 -37.003  26.082  1.00  0.00     0.278 C 
ENDBRANCH   4  12
TORSDOF 3
ENDMDL
MODEL 4
REMARK VINA RESULT:    -3.832      1.509      2.247
REMARK INTER + INTRA:          -4.578
REMARK INTER:                  -4.384
REMARK INTRA:                  -0.194
REMARK UNBOUND:                -0.186
REMARK SMILES COc1ccc(C(C)=O)c(O)c1
REMARK SMILES IDX 6 1 10 2 12 3 3 4 4 5 5 6 7 7 8 8 9 9 11 10 2 12 1 13
REMARK H PARENT 11 11
REMARK Flexibility Score: inf
ROOT
ATOM      1  C   UNL     1       8.724 -32.482  17.252  1.00  0.00     0.059 A 
ATOM      2  C   UNL     1       8.819 -32.717  15.860  1.00  0.00     0.130 A 
ATOM      3  C   UNL     1       7.939 -33.617  15.240  1.00  0.00     0.093 A 
ATOM      4  C   UNL     1       6.970 -34.305  15.991  1.00  0.00     0.122 A 
ATOM      5  C   UNL     1       6.891 -34.083  17.367  1.00  0.00     0.047 A 
ATOM      6  C   UNL     1       7.758 -33.186  17.993  1.00  0.00     0.019 A 
ENDROOT
BRANCH   1   7
ATOM      7  C   UNL     1       9.616 -31.526  17.964  1.00  0.00     0.163 C 
ATOM      8  C   UNL     1       9.616 -31.384  19.455  1.00  0.00     0.093 C 
ATOM      9  O   UNL     1      10.407 -30.806  17.297  1.00  0.00    -0.294 OA
ENDBRANCH   1   7
BRANCH   2  10
ATOM     10  O   UNL     1       9.795 -32.082  15.093  1.00  0.00    -0.507 OA
ATOM     11  H   UNL     1       9.965 -32.337  14.128  1.00  0.00     0.293 HD
ENDBRANCH   2  10
BRANCH   4  12
ATOM     12  O   UNL     1       6.072 -35.213  15.410  1.00  0.00    -0.497 OA
ATOM     13  C   UNL     1       6.007 -36.599  15.732  1.00  0.00     0.278 C 
ENDBRANCH   4  12
TORSDOF 3
ENDMDL
MODEL 5
REMARK VINA RESULT:    -3.806      2.066      2.494
REMARK INTER + INTRA:          -4.548
REMARK INTER:                  -4.217
REMARK INTRA:                  -0.331
REMARK UNBOUND:                -0.186
REMARK SMILES COc1ccc(C(C)=O)c(O)c1
REMARK SMILES IDX 6 1 10 2 12 3 3 4 4 5 5 6 7 7 8 8 9 9 11 10 2 12 1 13
REMARK H PARENT 11 11
REMARK Flexibility Score: inf
ROOT
ATOM      1  C   UNL     1       8.512 -33.232  16.833  1.00  0.00     0.059 A 
ATOM      2  C   UNL     1       8.307 -34.627  16.712  1.00  0.00     0.130 A 
ATOM      3  C   UNL     1       8.495 -35.257  15.473  1.00  0.00     0.093 A 
ATOM      4  C   UNL     1       8.869 -34.515  14.339  1.00  0.00     0.122 A 
ATOM      5  C   UNL     1       9.052 -33.136  14.458  1.00  0.00     0.047 A 
ATOM      6  C   UNL     1       8.873 -32.500  15.688  1.00  0.00     0.019 A 
ENDROOT
BRANCH   1   7
ATOM      7  C   UNL     1       8.346 -32.509  18.122  1.00  0.00     0.163 C 
ATOM      8  C   UNL     1       9.293 -31.438  18.572  1.00  0.00     0.093 C 
ATOM      9  O   UNL     1       7.375 -32.798  18.873  1.00  0.00    -0.294 OA
ENDBRANCH   1   7
BRANCH   2  10
ATOM     10  O   UNL     1       7.897 -35.387  17.807  1.00  0.00    -0.507 OA
ATOM     11  H   UNL     1       7.749 -34.973  18.719  1.00  0.00     0.293 HD
ENDBRANCH   2  10
BRANCH   4  12
ATOM     12  O   UNL     1       9.066 -35.107  13.082  1.00  0.00    -0.497 OA
ATOM     13  C   UNL     1       9.692 -36.369  12.875  1.00  0.00     0.278 C 
ENDBRANCH   4  12
TORSDOF 3
ENDMDL
MODEL 6
REMARK VINA RESULT:    -3.772      2.516      4.503
REMARK INTER + INTRA:          -4.510
REMARK INTER:                  -4.182
REMARK INTRA:                  -0.327
REMARK UNBOUND:                -0.186
REMARK SMILES COc1ccc(C(C)=O)c(O)c1
REMARK SMILES IDX 6 1 10 2 12 3 3 4 4 5 5 6 7 7 8 8 9 9 11 10 2 12 1 13
REMARK H PARENT 11 11
REMARK Flexibility Score: inf
ROOT
ATOM      1  C   UNL     1       8.029 -34.552  15.978  1.00  0.00     0.059 A 
ATOM      2  C   UNL     1       8.156 -33.158  16.183  1.00  0.00     0.130 A 
ATOM      3  C   UNL     1       9.016 -32.406  15.369  1.00  0.00     0.093 A 
ATOM      4  C   UNL     1       9.772 -33.025  14.359  1.00  0.00     0.122 A 
ATOM      5  C   UNL     1       9.658 -34.404  14.172  1.00  0.00     0.047 A 
ATOM      6  C   UNL     1       8.801 -35.161  14.972  1.00  0.00     0.019 A 
ENDROOT
BRANCH   1   7
ATOM      7  C   UNL     1       7.120 -35.401  16.795  1.00  0.00     0.163 C 
ATOM      8  C   UNL     1       6.025 -36.223  16.188  1.00  0.00     0.093 C 
ATOM      9  O   UNL     1       7.269 -35.438  18.047  1.00  0.00    -0.294 OA
ENDBRANCH   1   7
BRANCH   2  10
ATOM     10  O   UNL     1       7.451 -32.518  17.202  1.00  0.00    -0.507 OA
ATOM     11  H   UNL     1       7.657 -32.684  18.180  1.00  0.00     0.293 HD
ENDBRANCH   2  10
BRANCH   4  12
ATOM     12  O   UNL     1      10.645 -32.309  13.525  1.00  0.00    -0.497 OA
ATOM     13  C   UNL     1      11.850 -31.690  13.963  1.00  0.00     0.278 C 
ENDBRANCH   4  12
TORSDOF 3
ENDMDL
MODEL 7
REMARK VINA RESULT:    -3.764      1.408      5.284
REMARK INTER + INTRA:          -4.500
REMARK INTER:                  -4.286
REMARK INTRA:                  -0.214
REMARK UNBOUND:                -0.186
REMARK SMILES COc1ccc(C(C)=O)c(O)c1
REMARK SMILES IDX 6 1 10 2 12 3 3 4 4 5 5 6 7 7 8 8 9 9 11 10 2 12 1 13
REMARK H PARENT 11 11
REMARK Flexibility Score: inf
ROOT
ATOM      1  C   UNL     1       6.610 -35.090  15.588  1.00  0.00     0.059 A 
ATOM      2  C   UNL     1       6.646 -33.711  15.276  1.00  0.00     0.130 A 
ATOM      3  C   UNL     1       7.094 -32.788  16.233  1.00  0.00     0.093 A 
ATOM      4  C   UNL     1       7.494 -33.215  17.511  1.00  0.00     0.122 A 
ATOM      5  C   UNL     1       7.439 -34.576  17.821  1.00  0.00     0.047 A 
ATOM      6  C   UNL     1       7.000 -35.503  16.875  1.00  0.00     0.019 A 
ENDROOT
BRANCH   1   7
ATOM      7  C   UNL     1       6.162 -36.120  14.611  1.00  0.00     0.163 C 
ATOM      8  C   UNL     1       5.875 -37.536  15.009  1.00  0.00     0.093 C 
ATOM      9  O   UNL     1       6.014 -35.799  13.401  1.00  0.00    -0.294 OA
ENDBRANCH   1   7
BRANCH   2  10
ATOM     10  O   UNL     1       6.218 -33.249  14.032  1.00  0.00    -0.507 OA
ATOM     11  H   UNL     1       5.271 -33.393  13.705  1.00  0.00     0.293 HD
ENDBRANCH   2  10
BRANCH   4  12
ATOM     12  O   UNL     1       7.946 -32.325  18.496  1.00  0.00    -0.497 OA
ATOM     13  C   UNL     1       9.246 -31.742  18.519  1.00  0.00     0.278 C 
ENDBRANCH   4  12
TORSDOF 3
ENDMDL
MODEL 8
REMARK VINA RESULT:    -3.694      1.538      4.727
REMARK INTER + INTRA:          -4.419
REMARK INTER:                  -4.080
REMARK INTRA:                  -0.340
REMARK UNBOUND:                -0.186
REMARK SMILES COc1ccc(C(C)=O)c(O)c1
REMARK SMILES IDX 6 1 10 2 12 3 3 4 4 5 5 6 7 7 8 8 9 9 11 10 2 12 1 13
REMARK H PARENT 11 11
REMARK Flexibility Score: inf
ROOT
ATOM      1  C   UNL     1       7.634 -34.426  15.014  1.00  0.00     0.059 A 
ATOM      2  C   UNL     1       7.066 -34.856  16.235  1.00  0.00     0.130 A 
ATOM      3  C   UNL     1       7.283 -34.118  17.408  1.00  0.00     0.093 A 
ATOM      4  C   UNL     1       8.076 -32.958  17.389  1.00  0.00     0.122 A 
ATOM      5  C   UNL     1       8.651 -32.546  16.185  1.00  0.00     0.047 A 
ATOM      6  C   UNL     1       8.436 -33.270  15.011  1.00  0.00     0.019 A 
ENDROOT
BRANCH   1   7
ATOM      7  C   UNL     1       7.425 -35.155  13.733  1.00  0.00     0.163 C 
ATOM      8  C   UNL     1       8.563 -35.616  12.875  1.00  0.00     0.093 C 
ATOM      9  O   UNL     1       6.250 -35.401  13.347  1.00  0.00    -0.294 OA
ENDBRANCH   1   7
BRANCH   2  10
ATOM     10  O   UNL     1       6.306 -36.025  16.298  1.00  0.00    -0.507 OA
ATOM     11  H   UNL     1       6.164 -36.523  17.167  1.00  0.00     0.293 HD
ENDBRANCH   2  10
BRANCH   4  12
ATOM     12  O   UNL     1       8.320 -32.192  18.539  1.00  0.00    -0.497 OA
ATOM     13  C   UNL     1       9.517 -31.460  18.781  1.00  0.00     0.278 C 
ENDBRANCH   4  12
TORSDOF 3
ENDMDL
