MODEL 1
REMARK VINA RESULT:    -2.819      0.000      0.000
REMARK INTER + INTRA:          -3.627
REMARK INTER:                  -3.313
REMARK INTRA:                  -0.314
REMARK UNBOUND:                -0.314
REMARK SMILES O=c1cc(-c2ccc(O)c(O)c2)oc2cc(O)cc(O)c12
REMARK SMILES IDX 4 1 3 2 2 3 1 4 21 5 19 6 18 7 16 8 15 9 14 10 13 11 5 12
REMARK SMILES IDX 6 13 7 14 8 15 12 16 10 17 9 18 11 20 20 22 17 24
REMARK H PARENT 9 19 11 21 20 23 17 25
REMARK Flexibility Score: inf
ROOT
ATOM      1  C   UNL     1       8.760  11.992 -16.366  1.00  0.00     0.138 A 
ATOM      2  C   UNL     1       7.456  12.501 -16.249  1.00  0.00     0.100 A 
ATOM      3  C   UNL     1       7.050  13.547 -17.078  1.00  0.00     0.197 A 
ATOM      4  O   UNL     1       5.878  13.998 -16.965  1.00  0.00    -0.289 OA
ATOM      5  C   UNL     1       7.954  14.082 -18.016  1.00  0.00     0.107 A 
ATOM      6  C   UNL     1       7.623  15.142 -18.895  1.00  0.00     0.134 A 
ATOM      7  C   UNL     1       8.584  15.622 -19.797  1.00  0.00     0.093 A 
ATOM      8  C   UNL     1       9.866  15.062 -19.837  1.00  0.00     0.123 A 
ATOM      9  C   UNL     1      10.197  14.017 -18.973  1.00  0.00     0.094 A 
ATOM     10  C   UNL     1       9.254  13.524 -18.067  1.00  0.00     0.146 A 
ATOM     11  O   UNL     1       9.593  12.526 -17.256  1.00  0.00    -0.456 OA
ENDROOT
BRANCH   1  12
ATOM     12  C   UNL     1       9.248  10.881 -15.511  1.00  0.00     0.021 A 
ATOM     13  C   UNL     1       8.321  10.084 -14.817  1.00  0.00     0.016 A 
ATOM     14  C   UNL     1       8.755   9.037 -14.000  1.00  0.00     0.051 A 
ATOM     15  C   UNL     1      10.118   8.773 -13.853  1.00  0.00     0.157 A 
ATOM     16  C   UNL     1      10.623  10.619 -15.349  1.00  0.00     0.062 A 
ATOM     17  C   UNL     1      11.058   9.569 -14.528  1.00  0.00     0.158 A 
BRANCH  15  18
ATOM     18  O   UNL     1      10.521   7.719 -13.033  1.00  0.00    -0.504 OA
ATOM     19  H   UNL     1      11.466   7.646 -12.677  1.00  0.00     0.293 HD
ENDBRANCH  15  18
BRANCH  17  20
ATOM     20  O   UNL     1      12.422   9.318 -14.377  1.00  0.00    -0.504 OA
ATOM     21  H   UNL     1      12.901   9.495 -13.502  1.00  0.00     0.293 HD
ENDBRANCH  17  20
ENDBRANCH   1  12
BRANCH   6  22
ATOM     22  O   UNL     1       6.353  15.719 -18.875  1.00  0.00    -0.507 OA
ATOM     23  H   UNL     1       6.160  16.597 -19.342  1.00  0.00     0.293 HD
ENDBRANCH   6  22
BRANCH   8  24
ATOM     24  O   UNL     1      10.820  15.539 -20.734  1.00  0.00    -0.508 OA
ATOM     25  H   UNL     1      10.709  16.430 -21.203  1.00  0.00     0.293 HD
ENDBRANCH   8  24
TORSDOF 5
ENDMDL
