MODEL 1
REMARK VINA RESULT:    -7.637      0.000      0.000
REMARK INTER + INTRA:          -7.756
REMARK INTER:                  -8.306
REMARK INTRA:                   0.551
REMARK UNBOUND:                 0.551
REMARK SMILES C[C@H]1[C@H](C)CC[C@]2(C(=O)[O-])CC[C@@]3(C)C(=CC[C@@H]4[C@]5(C)CC[C@H](O)C(C)(C)[C@@H]5CC[C@]43C)[C@@H]12
REMARK SMILES IDX 7 1 6 2 11 3 33 4 5 5 12 6 15 7 2 8 3 9 13 10 16 11 1 12
REMARK SMILES IDX 4 13 14 14 31 15 17 16 18 17 30 18 32 19 19 20 29 21 28 22
REMARK SMILES IDX 21 23 20 24 25 25 22 26 23 27 26 28 27 29 8 30 9 31 10 32
REMARK SMILES IDX 24 33
REMARK H PARENT 24 34
REMARK Flexibility Score: inf
ROOT
ATOM      1  C   UNL     1     -22.721  31.230  -3.416  1.00  0.00     0.017 C 
ATOM      2  C   UNL     1     -24.211  31.095  -3.883  1.00  0.00     0.014 C 
ATOM      3  C   UNL     1     -21.957  32.198  -4.367  1.00  0.00     0.014 C 
ATOM      4  C   UNL     1     -22.044  29.829  -3.578  1.00  0.00     0.030 C 
ATOM      5  C   UNL     1     -24.876  29.730  -3.550  1.00  0.00     0.004 C 
ATOM      6  C   UNL     1     -20.425  32.333  -4.107  1.00  0.00     0.013 C 
ATOM      7  C   UNL     1     -20.516  29.830  -3.749  1.00  0.00    -0.063 C 
ATOM      8  C   UNL     1     -22.682  28.648  -2.773  1.00  0.00    -0.003 C 
ATOM      9  C   UNL     1     -24.178  28.931  -2.424  1.00  0.00    -0.011 C 
ATOM     10  C   UNL     1     -19.686  31.106  -3.430  1.00  0.00    -0.006 C 
ATOM     11  C   UNL     1     -20.023  28.816  -4.513  1.00  0.00    -0.027 C 
ATOM     12  C   UNL     1     -21.861  28.177  -1.552  1.00  0.00     0.008 C 
ATOM     13  C   UNL     1     -24.951  27.625  -2.167  1.00  0.00     0.008 C 
ATOM     14  C   UNL     1     -19.675  31.348  -1.882  1.00  0.00     0.017 C 
ATOM     15  C   UNL     1     -18.152  30.931  -3.932  1.00  0.00    -0.020 C 
ATOM     16  C   UNL     1     -18.710  28.851  -5.245  1.00  0.00     0.032 C 
ATOM     17  C   UNL     1     -18.173  30.295  -5.373  1.00  0.00     0.006 C 
ATOM     18  C   UNL     1     -17.408  32.290  -3.984  1.00  0.00     0.008 C 
ATOM     19  C   UNL     1     -17.378  30.003  -2.919  1.00  0.00     0.012 C 
ATOM     20  C   UNL     1     -16.905  30.441  -6.354  1.00  0.00    -0.025 C 
ATOM     21  C   UNL     1     -16.033  32.171  -4.630  1.00  0.00     0.005 C 
ATOM     22  C   UNL     1     -16.140  31.822  -6.137  1.00  0.00     0.003 C 
ATOM     23  C   UNL     1     -15.910  29.243  -6.201  1.00  0.00     0.010 C 
ATOM     24  C   UNL     1     -17.495  30.397  -7.810  1.00  0.00     0.012 C 
ATOM     25  C   UNL     1     -14.733  31.945  -6.887  1.00  0.00    -0.006 C 
ATOM     26  C   UNL     1     -14.610  29.378  -7.005  1.00  0.00     0.033 C 
ATOM     27  C   UNL     1     -13.857  30.673  -6.673  1.00  0.00     0.120 C 
ATOM     28  C   UNL     1     -14.935  32.198  -8.411  1.00  0.00     0.014 C 
ATOM     29  C   UNL     1     -13.921  33.183  -6.400  1.00  0.00     0.014 C 
ENDROOT
BRANCH   1  30
ATOM     30  C   UNL     1     -22.767  31.839  -2.018  1.00  0.00     0.048 C 
ATOM     31  O   UNL     1     -23.004  33.071  -1.883  1.00  0.00    -0.550 OA
ATOM     32  O   UNL     1     -22.604  31.080  -0.870  1.00  0.00    -0.550 OA
ENDBRANCH   1  30
BRANCH  27  33
ATOM     33  O   UNL     1     -13.389  30.608  -5.349  1.00  0.00    -0.393 OA
ATOM     34  H   UNL     1     -13.477  29.665  -5.051  1.00  0.00     0.210 HD
ENDBRANCH  27  33
TORSDOF 2
ENDMDL
MODEL 2
REMARK VINA RESULT:    -7.571      3.129      4.783
REMARK INTER + INTRA:          -7.684
REMARK INTER:                  -8.234
REMARK INTRA:                   0.550
REMARK UNBOUND:                 0.551
REMARK SMILES C[C@H]1[C@H](C)CC[C@]2(C(=O)[O-])CC[C@@]3(C)C(=CC[C@@H]4[C@]5(C)CC[C@H](O)C(C)(C)[C@@H]5CC[C@]43C)[C@@H]12
REMARK SMILES IDX 7 1 6 2 11 3 33 4 5 5 12 6 15 7 2 8 3 9 13 10 16 11 1 12
REMARK SMILES IDX 4 13 14 14 31 15 17 16 18 17 30 18 32 19 19 20 29 21 28 22
REMARK SMILES IDX 21 23 20 24 25 25 22 26 23 27 26 28 27 29 8 30 9 31 10 32
REMARK SMILES IDX 24 33
REMARK H PARENT 24 34
REMARK Flexibility Score: inf
ROOT
ATOM      1  C   UNL     1     -20.407  31.793  -3.195  1.00  0.00     0.017 C 
ATOM      2  C   UNL     1     -20.663  33.180  -2.512  1.00  0.00     0.014 C 
ATOM      3  C   UNL     1     -19.197  31.901  -4.171  1.00  0.00     0.014 C 
ATOM      4  C   UNL     1     -21.655  31.461  -4.078  1.00  0.00     0.030 C 
ATOM      5  C   UNL     1     -22.141  33.448  -2.117  1.00  0.00     0.004 C 
ATOM      6  C   UNL     1     -18.901  30.630  -5.025  1.00  0.00     0.013 C 
ATOM      7  C   UNL     1     -21.417  30.500  -5.255  1.00  0.00    -0.063 C 
ATOM      8  C   UNL     1     -23.031  31.371  -3.336  1.00  0.00    -0.003 C 
ATOM      9  C   UNL     1     -23.017  32.177  -1.998  1.00  0.00    -0.011 C 
ATOM     10  C   UNL     1     -20.113  29.657  -5.336  1.00  0.00    -0.006 C 
ATOM     11  C   UNL     1     -22.211  30.714  -6.340  1.00  0.00    -0.027 C 
ATOM     12  C   UNL     1     -23.585  29.939  -3.167  1.00  0.00     0.008 C 
ATOM     13  C   UNL     1     -24.440  32.573  -1.567  1.00  0.00     0.008 C 
ATOM     14  C   UNL     1     -20.136  28.551  -4.227  1.00  0.00     0.017 C 
ATOM     15  C   UNL     1     -19.990  28.931  -6.783  1.00  0.00    -0.020 C 
ATOM     16  C   UNL     1     -21.875  30.302  -7.747  1.00  0.00     0.032 C 
ATOM     17  C   UNL     1     -20.371  29.978  -7.896  1.00  0.00     0.006 C 
ATOM     18  C   UNL     1     -18.553  28.409  -7.041  1.00  0.00     0.008 C 
ATOM     19  C   UNL     1     -20.962  27.690  -6.822  1.00  0.00     0.012 C 
ATOM     20  C   UNL     1     -19.891  29.770  -9.418  1.00  0.00    -0.025 C 
ATOM     21  C   UNL     1     -18.374  27.895  -8.464  1.00  0.00     0.005 C 
ATOM     22  C   UNL     1     -18.475  29.043  -9.502  1.00  0.00     0.003 C 
ATOM     23  C   UNL     1     -20.950  28.986 -10.261  1.00  0.00     0.010 C 
ATOM     24  C   UNL     1     -19.768  31.217 -10.020  1.00  0.00     0.012 C 
ATOM     25  C   UNL     1     -18.036  28.574 -10.967  1.00  0.00    -0.006 C 
ATOM     26  C   UNL     1     -20.506  28.631 -11.685  1.00  0.00     0.033 C 
ATOM     27  C   UNL     1     -19.196  27.833 -11.701  1.00  0.00     0.120 C 
ATOM     28  C   UNL     1     -17.560  29.787 -11.820  1.00  0.00     0.014 C 
ATOM     29  C   UNL     1     -16.800  27.626 -10.928  1.00  0.00     0.014 C 
ENDROOT
BRANCH   1  30
ATOM     30  C   UNL     1     -20.054  30.823  -2.071  1.00  0.00     0.048 C 
ATOM     31  O   UNL     1     -18.855  30.719  -1.693  1.00  0.00    -0.550 OA
ATOM     32  O   UNL     1     -21.012  30.076  -1.405  1.00  0.00    -0.550 OA
ENDBRANCH   1  30
BRANCH  27  33
ATOM     33  O   UNL     1     -19.418  26.568 -11.128  1.00  0.00    -0.393 OA
ATOM     34  H   UNL     1     -18.990  25.897 -11.722  1.00  0.00     0.210 HD
ENDBRANCH  27  33
TORSDOF 2
ENDMDL
MODEL 3
REMARK VINA RESULT:    -7.412      4.017      7.833
REMARK INTER + INTRA:          -7.511
REMARK INTER:                  -8.065
REMARK INTRA:                   0.554
REMARK UNBOUND:                 0.551
REMARK SMILES C[C@H]1[C@H](C)CC[C@]2(C(=O)[O-])CC[C@@]3(C)C(=CC[C@@H]4[C@]5(C)CC[C@H](O)C(C)(C)[C@@H]5CC[C@]43C)[C@@H]12
REMARK SMILES IDX 7 1 6 2 11 3 33 4 5 5 12 6 15 7 2 8 3 9 13 10 16 11 1 12
REMARK SMILES IDX 4 13 14 14 31 15 17 16 18 17 30 18 32 19 19 20 29 21 28 22
REMARK SMILES IDX 21 23 20 24 25 25 22 26 23 27 26 28 27 29 8 30 9 31 10 32
REMARK SMILES IDX 24 33
REMARK H PARENT 24 34
REMARK Flexibility Score: inf
ROOT
ATOM      1  C   UNL     1     -20.591  29.611 -10.319  1.00  0.00     0.017 C 
ATOM      2  C   UNL     1     -19.531  29.932 -11.428  1.00  0.00     0.014 C 
ATOM      3  C   UNL     1     -21.002  30.923  -9.586  1.00  0.00     0.014 C 
ATOM      4  C   UNL     1     -19.896  28.708  -9.246  1.00  0.00     0.030 C 
ATOM      5  C   UNL     1     -18.535  28.778 -11.731  1.00  0.00     0.004 C 
ATOM      6  C   UNL     1     -21.957  30.746  -8.366  1.00  0.00     0.013 C 
ATOM      7  C   UNL     1     -20.502  28.745  -7.834  1.00  0.00    -0.063 C 
ATOM      8  C   UNL     1     -19.317  27.344  -9.751  1.00  0.00    -0.003 C 
ATOM      9  C   UNL     1     -19.017  27.378 -11.283  1.00  0.00    -0.011 C 
ATOM     10  C   UNL     1     -21.908  29.363  -7.593  1.00  0.00    -0.006 C 
ATOM     11  C   UNL     1     -19.612  28.552  -6.821  1.00  0.00    -0.027 C 
ATOM     12  C   UNL     1     -20.126  26.098  -9.326  1.00  0.00     0.008 C 
ATOM     13  C   UNL     1     -17.965  26.325 -11.672  1.00  0.00     0.008 C 
ATOM     14  C   UNL     1     -23.003  28.429  -8.213  1.00  0.00     0.017 C 
ATOM     15  C   UNL     1     -22.204  29.513  -6.003  1.00  0.00    -0.020 C 
ATOM     16  C   UNL     1     -19.802  29.024  -5.406  1.00  0.00     0.032 C 
ATOM     17  C   UNL     1     -20.913  30.096  -5.313  1.00  0.00     0.006 C 
ATOM     18  C   UNL     1     -23.401  30.458  -5.730  1.00  0.00     0.008 C 
ATOM     19  C   UNL     1     -22.569  28.098  -5.409  1.00  0.00     0.012 C 
ATOM     20  C   UNL     1     -21.005  30.825  -3.882  1.00  0.00    -0.025 C 
ATOM     21  C   UNL     1     -23.572  30.758  -4.246  1.00  0.00     0.005 C 
ATOM     22  C   UNL     1     -22.388  31.593  -3.692  1.00  0.00     0.003 C 
ATOM     23  C   UNL     1     -20.780  29.822  -2.702  1.00  0.00     0.010 C 
ATOM     24  C   UNL     1     -19.827  31.865  -3.865  1.00  0.00     0.012 C 
ATOM     25  C   UNL     1     -22.670  32.135  -2.214  1.00  0.00    -0.006 C 
ATOM     26  C   UNL     1     -20.986  30.417  -1.303  1.00  0.00     0.033 C 
ATOM     27  C   UNL     1     -22.377  31.043  -1.139  1.00  0.00     0.120 C 
ATOM     28  C   UNL     1     -21.823  33.409  -1.918  1.00  0.00     0.014 C 
ATOM     29  C   UNL     1     -24.144  32.608  -2.039  1.00  0.00     0.014 C 
ENDROOT
BRANCH   1  30
ATOM     30  C   UNL     1     -21.807  29.043 -11.044  1.00  0.00     0.048 C 
ATOM     31  O   UNL     1     -22.692  29.828 -11.483  1.00  0.00    -0.550 OA
ATOM     32  O   UNL     1     -21.963  27.688 -11.287  1.00  0.00    -0.550 OA
ENDBRANCH   1  30
BRANCH  27  33
ATOM     33  O   UNL     1     -23.349  30.029  -1.185  1.00  0.00    -0.393 OA
ATOM     34  H   UNL     1     -24.040  30.252  -0.508  1.00  0.00     0.210 HD
ENDBRANCH  27  33
TORSDOF 2
ENDMDL
MODEL 4
REMARK VINA RESULT:    -7.362      2.599      8.196
REMARK INTER + INTRA:          -7.457
REMARK INTER:                  -8.010
REMARK INTRA:                   0.554
REMARK UNBOUND:                 0.551
REMARK SMILES C[C@H]1[C@H](C)CC[C@]2(C(=O)[O-])CC[C@@]3(C)C(=CC[C@@H]4[C@]5(C)CC[C@H](O)C(C)(C)[C@@H]5CC[C@]43C)[C@@H]12
REMARK SMILES IDX 7 1 6 2 11 3 33 4 5 5 12 6 15 7 2 8 3 9 13 10 16 11 1 12
REMARK SMILES IDX 4 13 14 14 31 15 17 16 18 17 30 18 32 19 19 20 29 21 28 22
REMARK SMILES IDX 21 23 20 24 25 25 22 26 23 27 26 28 27 29 8 30 9 31 10 32
REMARK SMILES IDX 24 33
REMARK H PARENT 24 34
REMARK Flexibility Score: inf
ROOT
ATOM      1  C   UNL     1     -19.714  31.456  -2.639  1.00  0.00     0.017 C 
ATOM      2  C   UNL     1     -18.330  31.786  -1.982  1.00  0.00     0.014 C 
ATOM      3  C   UNL     1     -20.611  30.690  -1.622  1.00  0.00     0.014 C 
ATOM      4  C   UNL     1     -19.452  30.468  -3.824  1.00  0.00     0.030 C 
ATOM      5  C   UNL     1     -17.140  31.870  -2.978  1.00  0.00     0.004 C 
ATOM      6  C   UNL     1     -21.976  30.177  -2.175  1.00  0.00     0.013 C 
ATOM      7  C   UNL     1     -20.632  29.570  -4.231  1.00  0.00    -0.063 C 
ATOM      8  C   UNL     1     -18.503  30.977  -4.961  1.00  0.00    -0.003 C 
ATOM      9  C   UNL     1     -17.549  32.104  -4.452  1.00  0.00    -0.011 C 
ATOM     10  C   UNL     1     -22.071  29.879  -3.729  1.00  0.00    -0.006 C 
ATOM     11  C   UNL     1     -20.282  28.349  -4.721  1.00  0.00    -0.027 C 
ATOM     12  C   UNL     1     -19.213  31.345  -6.283  1.00  0.00     0.008 C 
ATOM     13  C   UNL     1     -16.285  32.205  -5.324  1.00  0.00     0.008 C 
ATOM     14  C   UNL     1     -22.603  31.174  -4.433  1.00  0.00     0.017 C 
ATOM     15  C   UNL     1     -23.076  28.653  -4.081  1.00  0.00    -0.020 C 
ATOM     16  C   UNL     1     -21.165  27.132  -4.711  1.00  0.00     0.032 C 
ATOM     17  C   UNL     1     -22.349  27.301  -3.730  1.00  0.00     0.006 C 
ATOM     18  C   UNL     1     -24.397  28.747  -3.276  1.00  0.00     0.008 C 
ATOM     19  C   UNL     1     -23.446  28.712  -5.612  1.00  0.00     0.012 C 
ATOM     20  C   UNL     1     -23.193  25.955  -3.481  1.00  0.00    -0.025 C 
ATOM     21  C   UNL     1     -25.268  27.510  -3.452  1.00  0.00     0.005 C 
ATOM     22  C   UNL     1     -24.612  26.255  -2.819  1.00  0.00     0.003 C 
ATOM     23  C   UNL     1     -23.377  25.130  -4.797  1.00  0.00     0.010 C 
ATOM     24  C   UNL     1     -22.329  25.095  -2.488  1.00  0.00     0.012 C 
ATOM     25  C   UNL     1     -25.615  25.011  -2.764  1.00  0.00    -0.006 C 
ATOM     26  C   UNL     1     -24.287  23.901  -4.667  1.00  0.00     0.033 C 
ATOM     27  C   UNL     1     -25.678  24.265  -4.132  1.00  0.00     0.120 C 
ATOM     28  C   UNL     1     -25.205  24.016  -1.638  1.00  0.00     0.014 C 
ATOM     29  C   UNL     1     -27.061  25.446  -2.380  1.00  0.00     0.014 C 
ENDROOT
BRANCH   1  30
ATOM     30  C   UNL     1     -20.362  32.798  -2.964  1.00  0.00     0.048 C 
ATOM     31  O   UNL     1     -21.060  33.380  -2.088  1.00  0.00    -0.550 OA
ATOM     32  O   UNL     1     -20.179  33.439  -4.179  1.00  0.00    -0.550 OA
ENDBRANCH   1  30
BRANCH  27  33
ATOM     33  O   UNL     1     -26.352  25.042  -5.091  1.00  0.00    -0.393 OA
ATOM     34  H   UNL     1     -26.088  25.988  -4.941  1.00  0.00     0.210 HD
ENDBRANCH  27  33
TORSDOF 2
ENDMDL
MODEL 5
REMARK VINA RESULT:    -7.248      3.615      7.867
REMARK INTER + INTRA:          -7.333
REMARK INTER:                  -7.879
REMARK INTRA:                   0.547
REMARK UNBOUND:                 0.551
REMARK SMILES C[C@H]1[C@H](C)CC[C@]2(C(=O)[O-])CC[C@@]3(C)C(=CC[C@@H]4[C@]5(C)CC[C@H](O)C(C)(C)[C@@H]5CC[C@]43C)[C@@H]12
REMARK SMILES IDX 7 1 6 2 11 3 33 4 5 5 12 6 15 7 2 8 3 9 13 10 16 11 1 12
REMARK SMILES IDX 4 13 14 14 31 15 17 16 18 17 30 18 32 19 19 20 29 21 28 22
REMARK SMILES IDX 21 23 20 24 25 25 22 26 23 27 26 28 27 29 8 30 9 31 10 32
REMARK SMILES IDX 24 33
REMARK H PARENT 24 34
REMARK Flexibility Score: inf
ROOT
ATOM      1  C   UNL     1     -20.001  30.798  -2.695  1.00  0.00     0.017 C 
ATOM      2  C   UNL     1     -18.861  31.429  -1.825  1.00  0.00     0.014 C 
ATOM      3  C   UNL     1     -20.764  29.723  -1.864  1.00  0.00     0.014 C 
ATOM      4  C   UNL     1     -19.325  30.036  -3.883  1.00  0.00     0.030 C 
ATOM      5  C   UNL     1     -17.629  31.930  -2.630  1.00  0.00     0.004 C 
ATOM      6  C   UNL     1     -21.847  28.912  -2.640  1.00  0.00     0.013 C 
ATOM      7  C   UNL     1     -20.141  28.894  -4.508  1.00  0.00    -0.063 C 
ATOM      8  C   UNL     1     -18.426  30.891  -4.838  1.00  0.00    -0.003 C 
ATOM      9  C   UNL     1     -17.901  32.182  -4.133  1.00  0.00    -0.011 C 
ATOM     10  C   UNL     1     -21.659  28.748  -4.205  1.00  0.00    -0.006 C 
ATOM     11  C   UNL     1     -19.401  27.867  -5.010  1.00  0.00    -0.027 C 
ATOM     12  C   UNL     1     -19.040  31.175  -6.227  1.00  0.00     0.008 C 
ATOM     13  C   UNL     1     -16.620  32.707  -4.804  1.00  0.00     0.008 C 
ATOM     14  C   UNL     1     -22.445  29.909  -4.905  1.00  0.00     0.017 C 
ATOM     15  C   UNL     1     -22.224  27.334  -4.769  1.00  0.00    -0.020 C 
ATOM     16  C   UNL     1     -19.897  26.460  -5.199  1.00  0.00     0.032 C 
ATOM     17  C   UNL     1     -21.192  26.205  -4.393  1.00  0.00     0.006 C 
ATOM     18  C   UNL     1     -23.607  26.986  -4.161  1.00  0.00     0.008 C 
ATOM     19  C   UNL     1     -22.402  27.435  -6.332  1.00  0.00     0.012 C 
ATOM     20  C   UNL     1     -21.645  24.662  -4.346  1.00  0.00    -0.025 C 
ATOM     21  C   UNL     1     -24.062  25.581  -4.532  1.00  0.00     0.005 C 
ATOM     22  C   UNL     1     -23.161  24.498  -3.883  1.00  0.00     0.003 C 
ATOM     23  C   UNL     1     -21.421  23.947  -5.720  1.00  0.00     0.010 C 
ATOM     24  C   UNL     1     -20.702  23.980  -3.288  1.00  0.00     0.012 C 
ATOM     25  C   UNL     1     -23.769  23.028  -4.045  1.00  0.00    -0.006 C 
ATOM     26  C   UNL     1     -21.954  22.510  -5.794  1.00  0.00     0.033 C 
ATOM     27  C   UNL     1     -23.446  22.428  -5.448  1.00  0.00     0.120 C 
ATOM     28  C   UNL     1     -23.236  22.080  -2.930  1.00  0.00     0.014 C 
ATOM     29  C   UNL     1     -25.315  23.013  -3.852  1.00  0.00     0.014 C 
ENDROOT
BRANCH   1  30
ATOM     30  C   UNL     1     -20.958  31.936  -3.034  1.00  0.00     0.048 C 
ATOM     31  O   UNL     1     -21.811  32.307  -2.182  1.00  0.00    -0.550 OA
ATOM     32  O   UNL     1     -20.901  32.623  -4.237  1.00  0.00    -0.550 OA
ENDBRANCH   1  30
BRANCH  27  33
ATOM     33  O   UNL     1     -24.189  23.079  -6.449  1.00  0.00    -0.393 OA
ATOM     34  H   UNL     1     -24.034  24.054  -6.343  1.00  0.00     0.210 HD
ENDBRANCH  27  33
TORSDOF 2
ENDMDL
MODEL 6
REMARK VINA RESULT:    -7.205      1.946      3.810
REMARK INTER + INTRA:          -7.287
REMARK INTER:                  -7.839
REMARK INTRA:                   0.552
REMARK UNBOUND:                 0.551
REMARK SMILES C[C@H]1[C@H](C)CC[C@]2(C(=O)[O-])CC[C@@]3(C)C(=CC[C@@H]4[C@]5(C)CC[C@H](O)C(C)(C)[C@@H]5CC[C@]43C)[C@@H]12
REMARK SMILES IDX 7 1 6 2 11 3 33 4 5 5 12 6 15 7 2 8 3 9 13 10 16 11 1 12
REMARK SMILES IDX 4 13 14 14 31 15 17 16 18 17 30 18 32 19 19 20 29 21 28 22
REMARK SMILES IDX 21 23 20 24 25 25 22 26 23 27 26 28 27 29 8 30 9 31 10 32
REMARK SMILES IDX 24 33
REMARK H PARENT 24 34
REMARK Flexibility Score: inf
ROOT
ATOM      1  C   UNL     1     -21.008  29.780  -3.513  1.00  0.00     0.017 C 
ATOM      2  C   UNL     1     -21.530  29.399  -2.085  1.00  0.00     0.014 C 
ATOM      3  C   UNL     1     -19.905  28.772  -3.956  1.00  0.00     0.014 C 
ATOM      4  C   UNL     1     -20.309  31.176  -3.406  1.00  0.00     0.030 C 
ATOM      5  C   UNL     1     -22.040  30.598  -1.238  1.00  0.00     0.004 C 
ATOM      6  C   UNL     1     -19.195  29.097  -5.307  1.00  0.00     0.013 C 
ATOM      7  C   UNL     1     -19.248  31.486  -4.474  1.00  0.00    -0.063 C 
ATOM      8  C   UNL     1     -21.196  32.363  -2.900  1.00  0.00    -0.003 C 
ATOM      9  C   UNL     1     -22.411  31.856  -2.059  1.00  0.00    -0.011 C 
ATOM     10  C   UNL     1     -19.139  30.615  -5.758  1.00  0.00    -0.006 C 
ATOM     11  C   UNL     1     -18.232  32.292  -4.057  1.00  0.00    -0.027 C 
ATOM     12  C   UNL     1     -21.604  33.379  -3.990  1.00  0.00     0.008 C 
ATOM     13  C   UNL     1     -22.934  32.951  -1.113  1.00  0.00     0.008 C 
ATOM     14  C   UNL     1     -20.378  30.887  -6.679  1.00  0.00     0.017 C 
ATOM     15  C   UNL     1     -17.793  30.983  -6.587  1.00  0.00    -0.020 C 
ATOM     16  C   UNL     1     -16.863  32.342  -4.676  1.00  0.00     0.032 C 
ATOM     17  C   UNL     1     -16.600  31.104  -5.566  1.00  0.00     0.006 C 
ATOM     18  C   UNL     1     -17.456  29.897  -7.641  1.00  0.00     0.008 C 
ATOM     19  C   UNL     1     -18.014  32.341  -7.357  1.00  0.00     0.012 C 
ATOM     20  C   UNL     1     -15.076  30.963  -6.062  1.00  0.00    -0.025 C 
ATOM     21  C   UNL     1     -16.099  30.131  -8.295  1.00  0.00     0.005 C 
ATOM     22  C   UNL     1     -14.938  29.948  -7.283  1.00  0.00     0.003 C 
ATOM     23  C   UNL     1     -14.456  32.348  -6.441  1.00  0.00     0.010 C 
ATOM     24  C   UNL     1     -14.284  30.400  -4.827  1.00  0.00     0.012 C 
ATOM     25  C   UNL     1     -13.509  29.933  -7.999  1.00  0.00    -0.006 C 
ATOM     26  C   UNL     1     -13.050  32.280  -7.051  1.00  0.00     0.033 C 
ATOM     27  C   UNL     1     -13.000  31.378  -8.291  1.00  0.00     0.120 C 
ATOM     28  C   UNL     1     -12.462  29.169  -7.134  1.00  0.00     0.014 C 
ATOM     29  C   UNL     1     -13.539  29.146  -9.343  1.00  0.00     0.014 C 
ENDROOT
BRANCH   1  30
ATOM     30  C   UNL     1     -22.204  29.654  -4.451  1.00  0.00     0.048 C 
ATOM     31  O   UNL     1     -22.592  28.510  -4.814  1.00  0.00    -0.550 OA
ATOM     32  O   UNL     1     -22.923  30.753  -4.891  1.00  0.00    -0.550 OA
ENDBRANCH   1  30
BRANCH  27  33
ATOM     33  O   UNL     1     -13.751  31.969  -9.322  1.00  0.00    -0.393 OA
ATOM     34  H   UNL     1     -13.144  32.583  -9.813  1.00  0.00     0.210 HD
ENDBRANCH  27  33
TORSDOF 2
ENDMDL
MODEL 7
REMARK VINA RESULT:    -7.188      1.776      8.260
REMARK INTER + INTRA:          -7.268
REMARK INTER:                  -7.818
REMARK INTRA:                   0.550
REMARK UNBOUND:                 0.551
REMARK SMILES C[C@H]1[C@H](C)CC[C@]2(C(=O)[O-])CC[C@@]3(C)C(=CC[C@@H]4[C@]5(C)CC[C@H](O)C(C)(C)[C@@H]5CC[C@]43C)[C@@H]12
REMARK SMILES IDX 7 1 6 2 11 3 33 4 5 5 12 6 15 7 2 8 3 9 13 10 16 11 1 12
REMARK SMILES IDX 4 13 14 14 31 15 17 16 18 17 30 18 32 19 19 20 29 21 28 22
REMARK SMILES IDX 21 23 20 24 25 25 22 26 23 27 26 28 27 29 8 30 9 31 10 32
REMARK SMILES IDX 24 33
REMARK H PARENT 24 34
REMARK Flexibility Score: inf
ROOT
ATOM      1  C   UNL     1     -15.152  31.518  -7.591  1.00  0.00     0.017 C 
ATOM      2  C   UNL     1     -13.984  32.527  -7.864  1.00  0.00     0.014 C 
ATOM      3  C   UNL     1     -16.506  32.286  -7.521  1.00  0.00     0.014 C 
ATOM      4  C   UNL     1     -14.924  30.901  -6.171  1.00  0.00     0.030 C 
ATOM      5  C   UNL     1     -12.609  32.104  -7.278  1.00  0.00     0.004 C 
ATOM      6  C   UNL     1     -17.749  31.431  -7.125  1.00  0.00     0.013 C 
ATOM      7  C   UNL     1     -16.174  30.365  -5.456  1.00  0.00    -0.063 C 
ATOM      8  C   UNL     1     -13.578  30.130  -5.954  1.00  0.00    -0.003 C 
ATOM      9  C   UNL     1     -12.479  30.595  -6.962  1.00  0.00    -0.011 C 
ATOM     10  C   UNL     1     -17.499  30.140  -6.239  1.00  0.00    -0.006 C 
ATOM     11  C   UNL     1     -16.142  30.456  -4.097  1.00  0.00    -0.027 C 
ATOM     12  C   UNL     1     -13.715  28.593  -5.884  1.00  0.00     0.008 C 
ATOM     13  C   UNL     1     -11.067  30.302  -6.426  1.00  0.00     0.008 C 
ATOM     14  C   UNL     1     -17.332  28.920  -7.208  1.00  0.00     0.017 C 
ATOM     15  C   UNL     1     -18.721  29.822  -5.219  1.00  0.00    -0.020 C 
ATOM     16  C   UNL     1     -17.355  30.496  -3.209  1.00  0.00     0.032 C 
ATOM     17  C   UNL     1     -18.633  30.830  -4.012  1.00  0.00     0.006 C 
ATOM     18  C   UNL     1     -20.099  29.973  -5.912  1.00  0.00     0.008 C 
ATOM     19  C   UNL     1     -18.601  28.332  -4.717  1.00  0.00     0.012 C 
ATOM     20  C   UNL     1     -19.923  31.134  -3.099  1.00  0.00    -0.025 C 
ATOM     21  C   UNL     1     -21.255  29.863  -4.926  1.00  0.00     0.005 C 
ATOM     22  C   UNL     1     -21.277  31.058  -3.936  1.00  0.00     0.003 C 
ATOM     23  C   UNL     1     -19.999  30.177  -1.863  1.00  0.00     0.010 C 
ATOM     24  C   UNL     1     -19.724  32.599  -2.566  1.00  0.00     0.012 C 
ATOM     25  C   UNL     1     -22.618  31.099  -3.068  1.00  0.00    -0.006 C 
ATOM     26  C   UNL     1     -21.273  30.315  -1.020  1.00  0.00     0.033 C 
ATOM     27  C   UNL     1     -22.545  30.120  -1.855  1.00  0.00     0.120 C 
ATOM     28  C   UNL     1     -22.910  32.543  -2.564  1.00  0.00     0.014 C 
ATOM     29  C   UNL     1     -23.873  30.730  -3.916  1.00  0.00     0.014 C 
ENDROOT
BRANCH   1  30
ATOM     30  C   UNL     1     -15.181  30.566  -8.783  1.00  0.00     0.048 C 
ATOM     31  O   UNL     1     -15.767  30.916  -9.844  1.00  0.00    -0.550 OA
ATOM     32  O   UNL     1     -14.541  29.337  -8.769  1.00  0.00    -0.550 OA
ENDBRANCH   1  30
BRANCH  27  33
ATOM     33  O   UNL     1     -22.612  28.785  -2.290  1.00  0.00    -0.393 OA
ATOM     34  H   UNL     1     -21.924  28.276  -1.786  1.00  0.00     0.210 HD
ENDBRANCH  27  33
TORSDOF 2
ENDMDL
MODEL 8
REMARK VINA RESULT:    -7.169      3.847      6.955
REMARK INTER + INTRA:          -7.247
REMARK INTER:                  -7.791
REMARK INTRA:                   0.544
REMARK UNBOUND:                 0.551
REMARK SMILES C[C@H]1[C@H](C)CC[C@]2(C(=O)[O-])CC[C@@]3(C)C(=CC[C@@H]4[C@]5(C)CC[C@H](O)C(C)(C)[C@@H]5CC[C@]43C)[C@@H]12
REMARK SMILES IDX 7 1 6 2 11 3 33 4 5 5 12 6 15 7 2 8 3 9 13 10 16 11 1 12
REMARK SMILES IDX 4 13 14 14 31 15 17 16 18 17 30 18 32 19 19 20 29 21 28 22
REMARK SMILES IDX 21 23 20 24 25 25 22 26 23 27 26 28 27 29 8 30 9 31 10 32
REMARK SMILES IDX 24 33
REMARK H PARENT 24 34
REMARK Flexibility Score: inf
ROOT
ATOM      1  C   UNL     1     -22.077  23.779  -3.524  1.00  0.00     0.017 C 
ATOM      2  C   UNL     1     -21.813  22.479  -2.689  1.00  0.00     0.014 C 
ATOM      3  C   UNL     1     -20.781  24.643  -3.576  1.00  0.00     0.014 C 
ATOM      4  C   UNL     1     -23.141  24.629  -2.755  1.00  0.00     0.030 C 
ATOM      5  C   UNL     1     -23.061  21.911  -1.958  1.00  0.00     0.004 C 
ATOM      6  C   UNL     1     -20.924  26.035  -4.265  1.00  0.00     0.013 C 
ATOM      7  C   UNL     1     -23.133  26.140  -3.036  1.00  0.00    -0.063 C 
ATOM      8  C   UNL     1     -24.527  23.947  -2.500  1.00  0.00    -0.003 C 
ATOM      9  C   UNL     1     -24.417  22.389  -2.532  1.00  0.00    -0.011 C 
ATOM     10  C   UNL     1     -22.356  26.714  -4.254  1.00  0.00    -0.006 C 
ATOM     11  C   UNL     1     -23.517  26.921  -1.988  1.00  0.00    -0.027 C 
ATOM     12  C   UNL     1     -25.684  24.483  -3.372  1.00  0.00     0.008 C 
ATOM     13  C   UNL     1     -25.566  21.729  -1.750  1.00  0.00     0.008 C 
ATOM     14  C   UNL     1     -23.088  26.309  -5.579  1.00  0.00     0.017 C 
ATOM     15  C   UNL     1     -22.290  28.335  -4.180  1.00  0.00    -0.020 C 
ATOM     16  C   UNL     1     -23.133  28.363  -1.802  1.00  0.00     0.032 C 
ATOM     17  C   UNL     1     -21.936  28.748  -2.702  1.00  0.00     0.006 C 
ATOM     18  C   UNL     1     -21.219  28.909  -5.142  1.00  0.00     0.008 C 
ATOM     19  C   UNL     1     -23.685  28.929  -4.611  1.00  0.00     0.012 C 
ATOM     20  C   UNL     1     -21.312  30.196  -2.381  1.00  0.00    -0.025 C 
ATOM     21  C   UNL     1     -21.014  30.406  -4.949  1.00  0.00     0.005 C 
ATOM     22  C   UNL     1     -20.385  30.722  -3.566  1.00  0.00     0.003 C 
ATOM     23  C   UNL     1     -22.422  31.250  -2.057  1.00  0.00     0.010 C 
ATOM     24  C   UNL     1     -20.439  30.000  -1.088  1.00  0.00     0.012 C 
ATOM     25  C   UNL     1     -19.925  32.249  -3.446  1.00  0.00    -0.006 C 
ATOM     26  C   UNL     1     -21.914  32.686  -1.873  1.00  0.00     0.033 C 
ATOM     27  C   UNL     1     -21.124  33.181  -3.092  1.00  0.00     0.120 C 
ATOM     28  C   UNL     1     -18.800  32.408  -2.380  1.00  0.00     0.014 C 
ATOM     29  C   UNL     1     -19.277  32.767  -4.765  1.00  0.00     0.014 C 
ENDROOT
BRANCH   1  30
ATOM     30  C   UNL     1     -22.423  23.315  -4.936  1.00  0.00     0.048 C 
ATOM     31  O   UNL     1     -21.495  23.013  -5.736  1.00  0.00    -0.550 OA
ATOM     32  O   UNL     1     -23.730  23.164  -5.370  1.00  0.00    -0.550 OA
ENDBRANCH   1  30
BRANCH  27  33
ATOM     33  O   UNL     1     -21.997  33.306  -4.188  1.00  0.00    -0.393 OA
ATOM     34  H   UNL     1     -22.879  33.588  -3.831  1.00  0.00     0.210 HD
ENDBRANCH  27  33
TORSDOF 2
ENDMDL
MODEL 9
REMARK VINA RESULT:    -7.163      1.445      8.204
REMARK INTER + INTRA:          -7.240
REMARK INTER:                  -7.815
REMARK INTRA:                   0.574
REMARK UNBOUND:                 0.551
REMARK SMILES C[C@H]1[C@H](C)CC[C@]2(C(=O)[O-])CC[C@@]3(C)C(=CC[C@@H]4[C@]5(C)CC[C@H](O)C(C)(C)[C@@H]5CC[C@]43C)[C@@H]12
REMARK SMILES IDX 7 1 6 2 11 3 33 4 5 5 12 6 15 7 2 8 3 9 13 10 16 11 1 12
REMARK SMILES IDX 4 13 14 14 31 15 17 16 18 17 30 18 32 19 19 20 29 21 28 22
REMARK SMILES IDX 21 23 20 24 25 25 22 26 23 27 26 28 27 29 8 30 9 31 10 32
REMARK SMILES IDX 24 33
REMARK H PARENT 24 34
REMARK Flexibility Score: inf
ROOT
ATOM      1  C   UNL     1     -14.659  29.289  -6.435  1.00  0.00     0.017 C 
ATOM      2  C   UNL     1     -13.826  28.182  -7.169  1.00  0.00     0.014 C 
ATOM      3  C   UNL     1     -15.392  28.670  -5.208  1.00  0.00     0.014 C 
ATOM      4  C   UNL     1     -15.777  29.771  -7.418  1.00  0.00     0.030 C 
ATOM      5  C   UNL     1     -13.646  28.408  -8.695  1.00  0.00     0.004 C 
ATOM      6  C   UNL     1     -16.367  29.623  -4.451  1.00  0.00     0.013 C 
ATOM      7  C   UNL     1     -17.029  30.385  -6.771  1.00  0.00    -0.063 C 
ATOM      8  C   UNL     1     -15.296  30.372  -8.781  1.00  0.00    -0.003 C 
ATOM      9  C   UNL     1     -13.868  29.867  -9.161  1.00  0.00    -0.011 C 
ATOM     10  C   UNL     1     -17.019  30.809  -5.276  1.00  0.00    -0.006 C 
ATOM     11  C   UNL     1     -18.186  30.190  -7.462  1.00  0.00    -0.027 C 
ATOM     12  C   UNL     1     -15.440  31.906  -8.901  1.00  0.00     0.008 C 
ATOM     13  C   UNL     1     -13.624  29.963 -10.678  1.00  0.00     0.008 C 
ATOM     14  C   UNL     1     -16.110  32.073  -5.097  1.00  0.00     0.017 C 
ATOM     15  C   UNL     1     -18.519  31.182  -4.776  1.00  0.00    -0.020 C 
ATOM     16  C   UNL     1     -19.563  30.216  -6.859  1.00  0.00     0.032 C 
ATOM     17  C   UNL     1     -19.508  30.084  -5.319  1.00  0.00     0.006 C 
ATOM     18  C   UNL     1     -18.610  31.234  -3.229  1.00  0.00     0.008 C 
ATOM     19  C   UNL     1     -18.906  32.609  -5.324  1.00  0.00     0.012 C 
ATOM     20  C   UNL     1     -20.943  29.856  -4.627  1.00  0.00    -0.025 C 
ATOM     21  C   UNL     1     -20.045  31.395  -2.743  1.00  0.00     0.005 C 
ATOM     22  C   UNL     1     -20.900  30.141  -3.060  1.00  0.00     0.003 C 
ATOM     23  C   UNL     1     -22.058  30.721  -5.301  1.00  0.00     0.010 C 
ATOM     24  C   UNL     1     -21.290  28.343  -4.871  1.00  0.00     0.012 C 
ATOM     25  C   UNL     1     -22.325  30.182  -2.335  1.00  0.00    -0.006 C 
ATOM     26  C   UNL     1     -23.427  30.661  -4.610  1.00  0.00     0.033 C 
ATOM     27  C   UNL     1     -23.345  31.053  -3.130  1.00  0.00     0.120 C 
ATOM     28  C   UNL     1     -22.894  28.744  -2.146  1.00  0.00     0.014 C 
ATOM     29  C   UNL     1     -22.226  30.746  -0.886  1.00  0.00     0.014 C 
ENDROOT
BRANCH   1  30
ATOM     30  C   UNL     1     -13.652  30.323  -5.943  1.00  0.00     0.048 C 
ATOM     31  O   UNL     1     -12.858  30.024  -5.009  1.00  0.00    -0.550 OA
ATOM     32  O   UNL     1     -13.535  31.580  -6.517  1.00  0.00    -0.550 OA
ENDBRANCH   1  30
BRANCH  27  33
ATOM     33  O   UNL     1     -23.016  32.417  -3.031  1.00  0.00    -0.393 OA
ATOM     34  H   UNL     1     -22.320  32.501  -2.328  1.00  0.00     0.210 HD
ENDBRANCH  27  33
TORSDOF 2
ENDMDL
