MODEL 1
REMARK VINA RESULT:    -6.689      0.000      0.000
REMARK INTER + INTRA:         -12.885
REMARK INTER:                 -12.163
REMARK INTRA:                  -0.721
REMARK UNBOUND:                -0.721
REMARK SMILES CCCCCC=CCC=CCCCCCCCC(=O)[O-]
REMARK SMILES IDX 11 1 12 2 13 3 14 4 15 5 16 6 17 7 18 8 19 9 20 10 10 11
REMARK SMILES IDX 9 12 8 13 7 14 6 15 5 16 4 17 3 18 2 19 1 20
REMARK H PARENT
REMARK Flexibility Score: inf
ROOT
ATOM      1  C   UNL     1      23.956 138.224 353.470  1.00  0.00     0.027 C 
ENDROOT
BRANCH   1   2
ATOM      2  C   UNL     1      24.965 137.565 352.512  1.00  0.00     0.004 C 
BRANCH   2   3
ATOM      3  C   UNL     1      25.452 136.178 352.973  1.00  0.00     0.000 C 
BRANCH   3   4
ATOM      4  C   UNL     1      26.658 136.252 353.925  1.00  0.00     0.000 C 
BRANCH   4   5
ATOM      5  C   UNL     1      27.694 135.149 353.651  1.00  0.00     0.000 C 
BRANCH   5   6
ATOM      6  C   UNL     1      29.130 135.585 353.993  1.00  0.00     0.006 C 
BRANCH   6   7
ATOM      7  C   UNL     1      30.092 135.381 352.814  1.00  0.00     0.053 C 
BRANCH   7   8
ATOM      8  C   UNL     1      30.811 134.069 352.903  1.00  0.00     0.041 C 
ATOM      9  O   UNL     1      31.355 133.574 351.882  1.00  0.00    -0.550 OA
ATOM     10  O   UNL     1      30.848 133.377 354.107  1.00  0.00    -0.550 OA
ENDBRANCH   7   8
ENDBRANCH   6   7
ENDBRANCH   5   6
ENDBRANCH   4   5
ENDBRANCH   3   4
ENDBRANCH   2   3
ENDBRANCH   1   2
BRANCH   1  11
ATOM     11  C   UNL     1      23.219 139.376 352.845  1.00  0.00    -0.031 C 
ATOM     12  C   UNL     1      23.712 140.623 352.864  1.00  0.00    -0.027 C 
BRANCH  12  13
ATOM     13  C   UNL     1      22.964 141.770 352.243  1.00  0.00     0.054 C 
BRANCH  13  14
ATOM     14  C   UNL     1      22.188 142.536 353.276  1.00  0.00    -0.027 C 
ATOM     15  C   UNL     1      20.974 142.132 353.683  1.00  0.00    -0.031 C 
BRANCH  15  16
ATOM     16  C   UNL     1      20.193 142.894 354.719  1.00  0.00     0.027 C 
BRANCH  16  17
ATOM     17  C   UNL     1      18.690 142.959 354.397  1.00  0.00     0.004 C 
BRANCH  17  18
ATOM     18  C   UNL     1      18.364 143.103 352.897  1.00  0.00     0.000 C 
BRANCH  18  19
ATOM     19  C   UNL     1      17.828 144.484 352.481  1.00  0.00    -0.003 C 
ATOM     20  C   UNL     1      16.862 145.082 353.505  1.00  0.00     0.004 C 
ENDBRANCH  18  19
ENDBRANCH  17  18
ENDBRANCH  16  17
ENDBRANCH  15  16
ENDBRANCH  13  14
ENDBRANCH  12  13
ENDBRANCH   1  11
TORSDOF 14
ENDMDL
MODEL 2
REMARK VINA RESULT:    -6.507      6.084     11.859
REMARK INTER + INTRA:         -12.554
REMARK INTER:                 -11.710
REMARK INTRA:                  -0.845
REMARK UNBOUND:                -0.721
REMARK SMILES CCCCCC=CCC=CCCCCCCCC(=O)[O-]
REMARK SMILES IDX 11 1 12 2 13 3 14 4 15 5 16 6 17 7 18 8 19 9 20 10 10 11
REMARK SMILES IDX 9 12 8 13 7 14 6 15 5 16 4 17 3 18 2 19 1 20
REMARK H PARENT
REMARK Flexibility Score: inf
ROOT
ATOM      1  C   UNL     1      23.153 141.968 351.936  1.00  0.00     0.027 C 
ENDROOT
BRANCH   1   2
ATOM      2  C   UNL     1      21.869 142.727 352.317  1.00  0.00     0.004 C 
BRANCH   2   3
ATOM      3  C   UNL     1      21.593 142.769 353.832  1.00  0.00     0.000 C 
BRANCH   3   4
ATOM      4  C   UNL     1      20.213 142.202 354.206  1.00  0.00     0.000 C 
BRANCH   4   5
ATOM      5  C   UNL     1      19.216 143.299 354.614  1.00  0.00     0.000 C 
BRANCH   5   6
ATOM      6  C   UNL     1      17.917 143.258 353.789  1.00  0.00     0.006 C 
BRANCH   6   7
ATOM      7  C   UNL     1      17.935 144.267 352.632  1.00  0.00     0.053 C 
BRANCH   7   8
ATOM      8  C   UNL     1      16.869 145.309 352.787  1.00  0.00     0.041 C 
ATOM      9  O   UNL     1      16.516 145.688 353.934  1.00  0.00    -0.550 OA
ATOM     10  O   UNL     1      16.241 145.834 351.665  1.00  0.00    -0.550 OA
ENDBRANCH   7   8
ENDBRANCH   6   7
ENDBRANCH   5   6
ENDBRANCH   4   5
ENDBRANCH   3   4
ENDBRANCH   2   3
ENDBRANCH   1   2
BRANCH   1  11
ATOM     11  C   UNL     1      23.426 140.789 352.829  1.00  0.00    -0.031 C 
ATOM     12  C   UNL     1      23.311 139.527 352.387  1.00  0.00    -0.027 C 
BRANCH  12  13
ATOM     13  C   UNL     1      23.579 138.355 353.289  1.00  0.00     0.054 C 
BRANCH  13  14
ATOM     14  C   UNL     1      24.961 137.806 353.071  1.00  0.00    -0.027 C 
ATOM     15  C   UNL     1      25.281 136.552 353.426  1.00  0.00    -0.031 C 
BRANCH  15  16
ATOM     16  C   UNL     1      26.663 135.998 353.208  1.00  0.00     0.027 C 
BRANCH  16  17
ATOM     17  C   UNL     1      27.362 135.618 354.525  1.00  0.00     0.004 C 
BRANCH  17  18
ATOM     18  C   UNL     1      28.890 135.438 354.407  1.00  0.00     0.000 C 
BRANCH  18  19
ATOM     19  C   UNL     1      29.430 135.425 352.967  1.00  0.00    -0.003 C 
ATOM     20  C   UNL     1      30.352 134.238 352.686  1.00  0.00     0.004 C 
ENDBRANCH  18  19
ENDBRANCH  17  18
ENDBRANCH  16  17
ENDBRANCH  15  16
ENDBRANCH  13  14
ENDBRANCH  12  13
ENDBRANCH   1  11
TORSDOF 14
ENDMDL
MODEL 3
REMARK VINA RESULT:    -6.414      0.915      1.371
REMARK INTER + INTRA:         -12.384
REMARK INTER:                 -11.494
REMARK INTRA:                  -0.890
REMARK UNBOUND:                -0.721
REMARK SMILES CCCCCC=CCC=CCCCCCCCC(=O)[O-]
REMARK SMILES IDX 11 1 12 2 13 3 14 4 15 5 16 6 17 7 18 8 19 9 20 10 10 11
REMARK SMILES IDX 9 12 8 13 7 14 6 15 5 16 4 17 3 18 2 19 1 20
REMARK H PARENT
REMARK Flexibility Score: inf
ROOT
ATOM      1  C   UNL     1      23.815 137.342 352.206  1.00  0.00     0.027 C 
ENDROOT
BRANCH   1   2
ATOM      2  C   UNL     1      24.890 136.241 352.160  1.00  0.00     0.004 C 
BRANCH   2   3
ATOM      3  C   UNL     1      25.953 136.357 353.270  1.00  0.00     0.000 C 
BRANCH   3   4
ATOM      4  C   UNL     1      27.085 135.325 353.126  1.00  0.00     0.000 C 
BRANCH   4   5
ATOM      5  C   UNL     1      28.038 135.323 354.333  1.00  0.00     0.000 C 
BRANCH   5   6
ATOM      6  C   UNL     1      29.486 135.674 353.946  1.00  0.00     0.006 C 
BRANCH   6   7
ATOM      7  C   UNL     1      29.798 135.314 352.487  1.00  0.00     0.053 C 
BRANCH   7   8
ATOM      8  C   UNL     1      30.733 134.148 352.390  1.00  0.00     0.041 C 
ATOM      9  O   UNL     1      31.094 133.717 351.263  1.00  0.00    -0.550 OA
ATOM     10  O   UNL     1      31.176 133.513 353.544  1.00  0.00    -0.550 OA
ENDBRANCH   7   8
ENDBRANCH   6   7
ENDBRANCH   5   6
ENDBRANCH   4   5
ENDBRANCH   3   4
ENDBRANCH   2   3
ENDBRANCH   1   2
BRANCH   1  11
ATOM     11  C   UNL     1      24.276 138.583 352.918  1.00  0.00    -0.031 C 
ATOM     12  C   UNL     1      23.468 139.642 353.085  1.00  0.00    -0.027 C 
BRANCH  12  13
ATOM     13  C   UNL     1      23.940 140.882 353.793  1.00  0.00     0.054 C 
BRANCH  13  14
ATOM     14  C   UNL     1      23.010 142.036 353.544  1.00  0.00    -0.027 C 
ATOM     15  C   UNL     1      22.049 141.973 352.609  1.00  0.00    -0.031 C 
BRANCH  15  16
ATOM     16  C   UNL     1      21.115 143.125 352.356  1.00  0.00     0.027 C 
BRANCH  16  17
ATOM     17  C   UNL     1      20.330 143.536 353.614  1.00  0.00     0.004 C 
BRANCH  17  18
ATOM     18  C   UNL     1      19.331 142.476 354.119  1.00  0.00     0.000 C 
BRANCH  18  19
ATOM     19  C   UNL     1      17.850 142.814 353.874  1.00  0.00    -0.003 C 
ATOM     20  C   UNL     1      17.604 144.312 353.684  1.00  0.00     0.004 C 
ENDBRANCH  18  19
ENDBRANCH  17  18
ENDBRANCH  16  17
ENDBRANCH  15  16
ENDBRANCH  13  14
ENDBRANCH  12  13
ENDBRANCH   1  11
TORSDOF 14
ENDMDL
MODEL 4
REMARK VINA RESULT:    -6.173      5.364     11.404
REMARK INTER + INTRA:         -11.946
REMARK INTER:                 -11.094
REMARK INTRA:                  -0.852
REMARK UNBOUND:                -0.721
REMARK SMILES CCCCCC=CCC=CCCCCCCCC(=O)[O-]
REMARK SMILES IDX 11 1 12 2 13 3 14 4 15 5 16 6 17 7 18 8 19 9 20 10 10 11
REMARK SMILES IDX 9 12 8 13 7 14 6 15 5 16 4 17 3 18 2 19 1 20
REMARK H PARENT
REMARK Flexibility Score: inf
ROOT
ATOM      1  C   UNL     1      23.579 139.287 353.661  1.00  0.00     0.027 C 
ENDROOT
BRANCH   1   2
ATOM      2  C   UNL     1      22.939 140.210 352.608  1.00  0.00     0.004 C 
BRANCH   2   3
ATOM      3  C   UNL     1      23.179 141.711 352.864  1.00  0.00     0.000 C 
BRANCH   3   4
ATOM      4  C   UNL     1      22.088 142.605 352.251  1.00  0.00     0.000 C 
BRANCH   4   5
ATOM      5  C   UNL     1      21.249 143.328 353.318  1.00  0.00     0.000 C 
BRANCH   5   6
ATOM      6  C   UNL     1      20.257 142.390 354.030  1.00  0.00     0.006 C 
BRANCH   6   7
ATOM      7  C   UNL     1      19.018 143.139 354.540  1.00  0.00     0.053 C 
BRANCH   7   8
ATOM      8  C   UNL     1      18.004 143.338 353.455  1.00  0.00     0.041 C 
ATOM      9  O   UNL     1      18.065 142.657 352.398  1.00  0.00    -0.550 OA
ATOM     10  O   UNL     1      17.013 144.301 353.597  1.00  0.00    -0.550 OA
ENDBRANCH   7   8
ENDBRANCH   6   7
ENDBRANCH   5   6
ENDBRANCH   4   5
ENDBRANCH   3   4
ENDBRANCH   2   3
ENDBRANCH   1   2
BRANCH   1  11
ATOM     11  C   UNL     1      24.013 137.963 353.095  1.00  0.00    -0.031 C 
ATOM     12  C   UNL     1      24.917 137.880 352.106  1.00  0.00    -0.027 C 
BRANCH  12  13
ATOM     13  C   UNL     1      25.340 136.552 351.542  1.00  0.00     0.054 C 
BRANCH  13  14
ATOM     14  C   UNL     1      25.944 135.678 352.605  1.00  0.00    -0.027 C 
ATOM     15  C   UNL     1      27.014 136.073 353.311  1.00  0.00    -0.031 C 
BRANCH  15  16
ATOM     16  C   UNL     1      27.622 135.202 354.378  1.00  0.00     0.027 C 
BRANCH  16  17
ATOM     17  C   UNL     1      29.150 135.358 354.469  1.00  0.00     0.004 C 
BRANCH  17  18
ATOM     18  C   UNL     1      29.845 135.632 353.120  1.00  0.00     0.000 C 
BRANCH  18  19
ATOM     19  C   UNL     1      30.365 134.378 352.394  1.00  0.00    -0.003 C 
ATOM     20  C   UNL     1      31.149 133.440 353.312  1.00  0.00     0.004 C 
ENDBRANCH  18  19
ENDBRANCH  17  18
ENDBRANCH  16  17
ENDBRANCH  15  16
ENDBRANCH  13  14
ENDBRANCH  12  13
ENDBRANCH   1  11
TORSDOF 14
ENDMDL
MODEL 5
REMARK VINA RESULT:    -6.018     10.632     11.589
REMARK INTER + INTRA:         -11.665
REMARK INTER:                 -10.638
REMARK INTRA:                  -1.028
REMARK UNBOUND:                -0.721
REMARK SMILES CCCCCC=CCC=CCCCCCCCC(=O)[O-]
REMARK SMILES IDX 11 1 12 2 13 3 14 4 15 5 16 6 17 7 18 8 19 9 20 10 10 11
REMARK SMILES IDX 9 12 8 13 7 14 6 15 5 16 4 17 3 18 2 19 1 20
REMARK H PARENT
REMARK Flexibility Score: inf
ROOT
ATOM      1  C   UNL     1      24.378 139.990 342.129  1.00  0.00     0.027 C 
ENDROOT
BRANCH   1   2
ATOM      2  C   UNL     1      24.723 140.772 343.409  1.00  0.00     0.004 C 
BRANCH   2   3
ATOM      3  C   UNL     1      26.194 141.222 343.490  1.00  0.00     0.000 C 
BRANCH   3   4
ATOM      4  C   UNL     1      27.030 140.756 342.285  1.00  0.00     0.000 C 
BRANCH   4   5
ATOM      5  C   UNL     1      28.542 140.819 342.558  1.00  0.00     0.000 C 
BRANCH   5   6
ATOM      6  C   UNL     1      29.383 140.372 341.347  1.00  0.00     0.006 C 
BRANCH   6   7
ATOM      7  C   UNL     1      30.287 139.178 341.681  1.00  0.00     0.053 C 
BRANCH   7   8
ATOM      8  C   UNL     1      31.555 139.612 342.353  1.00  0.00     0.041 C 
ATOM      9  O   UNL     1      31.639 139.611 343.609  1.00  0.00    -0.550 OA
ATOM     10  O   UNL     1      32.630 140.051 341.591  1.00  0.00    -0.550 OA
ENDBRANCH   7   8
ENDBRANCH   6   7
ENDBRANCH   5   6
ENDBRANCH   4   5
ENDBRANCH   3   4
ENDBRANCH   2   3
ENDBRANCH   1   2
BRANCH   1  11
ATOM     11  C   UNL     1      23.614 138.724 342.401  1.00  0.00    -0.031 C 
ATOM     12  C   UNL     1      22.576 138.695 343.251  1.00  0.00    -0.027 C 
BRANCH  12  13
ATOM     13  C   UNL     1      21.822 137.422 343.523  1.00  0.00     0.054 C 
BRANCH  13  14
ATOM     14  C   UNL     1      20.400 137.521 343.046  1.00  0.00    -0.027 C 
ATOM     15  C   UNL     1      20.068 138.269 341.983  1.00  0.00    -0.031 C 
BRANCH  15  16
ATOM     16  C   UNL     1      18.646 138.370 341.501  1.00  0.00     0.027 C 
BRANCH  16  17
ATOM     17  C   UNL     1      17.895 139.562 342.119  1.00  0.00     0.004 C 
BRANCH  17  18
ATOM     18  C   UNL     1      16.731 139.169 343.052  1.00  0.00     0.000 C 
BRANCH  18  19
ATOM     19  C   UNL     1      16.884 139.640 344.509  1.00  0.00    -0.003 C 
ATOM     20  C   UNL     1      17.842 138.768 345.322  1.00  0.00     0.004 C 
ENDBRANCH  18  19
ENDBRANCH  17  18
ENDBRANCH  16  17
ENDBRANCH  15  16
ENDBRANCH  13  14
ENDBRANCH  12  13
ENDBRANCH   1  11
TORSDOF 14
ENDMDL
MODEL 6
REMARK VINA RESULT:    -5.979      3.107      5.063
REMARK INTER + INTRA:         -11.593
REMARK INTER:                 -10.187
REMARK INTRA:                  -1.406
REMARK UNBOUND:                -0.721
REMARK SMILES CCCCCC=CCC=CCCCCCCCC(=O)[O-]
REMARK SMILES IDX 11 1 12 2 13 3 14 4 15 5 16 6 17 7 18 8 19 9 20 10 10 11
REMARK SMILES IDX 9 12 8 13 7 14 6 15 5 16 4 17 3 18 2 19 1 20
REMARK H PARENT
REMARK Flexibility Score: inf
ROOT
ATOM      1  C   UNL     1      27.956 135.573 354.220  1.00  0.00     0.027 C 
ENDROOT
BRANCH   1   2
ATOM      2  C   UNL     1      28.470 134.481 353.264  1.00  0.00     0.004 C 
BRANCH   2   3
ATOM      3  C   UNL     1      29.607 134.948 352.334  1.00  0.00     0.000 C 
BRANCH   3   4
ATOM      4  C   UNL     1      29.095 135.509 350.997  1.00  0.00     0.000 C 
BRANCH   4   5
ATOM      5  C   UNL     1      27.932 134.685 350.419  1.00  0.00     0.000 C 
BRANCH   5   6
ATOM      6  C   UNL     1      26.938 135.544 349.615  1.00  0.00     0.006 C 
BRANCH   6   7
ATOM      7  C   UNL     1      25.482 135.276 350.022  1.00  0.00     0.053 C 
BRANCH   7   8
ATOM      8  C   UNL     1      24.727 134.560 348.944  1.00  0.00     0.041 C 
ATOM      9  O   UNL     1      25.302 133.692 348.237  1.00  0.00    -0.550 OA
ATOM     10  O   UNL     1      23.398 134.878 348.697  1.00  0.00    -0.550 OA
ENDBRANCH   7   8
ENDBRANCH   6   7
ENDBRANCH   5   6
ENDBRANCH   4   5
ENDBRANCH   3   4
ENDBRANCH   2   3
ENDBRANCH   1   2
BRANCH   1  11
ATOM     11  C   UNL     1      26.494 135.872 354.039  1.00  0.00    -0.031 C 
ATOM     12  C   UNL     1      26.071 136.880 353.262  1.00  0.00    -0.027 C 
BRANCH  12  13
ATOM     13  C   UNL     1      24.606 137.176 353.092  1.00  0.00     0.054 C 
BRANCH  13  14
ATOM     14  C   UNL     1      24.389 138.580 352.604  1.00  0.00    -0.027 C 
ATOM     15  C   UNL     1      23.960 139.550 353.426  1.00  0.00    -0.031 C 
BRANCH  15  16
ATOM     16  C   UNL     1      23.743 140.958 352.943  1.00  0.00     0.027 C 
BRANCH  16  17
ATOM     17  C   UNL     1      22.487 141.606 353.553  1.00  0.00     0.004 C 
BRANCH  17  18
ATOM     18  C   UNL     1      21.680 142.481 352.573  1.00  0.00     0.000 C 
BRANCH  18  19
ATOM     19  C   UNL     1      20.615 143.375 353.232  1.00  0.00    -0.003 C 
ATOM     20  C   UNL     1      19.959 142.723 354.450  1.00  0.00     0.004 C 
ENDBRANCH  18  19
ENDBRANCH  17  18
ENDBRANCH  16  17
ENDBRANCH  15  16
ENDBRANCH  13  14
ENDBRANCH  12  13
ENDBRANCH   1  11
TORSDOF 14
ENDMDL
MODEL 7
REMARK VINA RESULT:    -5.938     11.448     14.454
REMARK INTER + INTRA:         -11.518
REMARK INTER:                 -10.517
REMARK INTRA:                  -1.001
REMARK UNBOUND:                -0.721
REMARK SMILES CCCCCC=CCC=CCCCCCCCC(=O)[O-]
REMARK SMILES IDX 11 1 12 2 13 3 14 4 15 5 16 6 17 7 18 8 19 9 20 10 10 11
REMARK SMILES IDX 9 12 8 13 7 14 6 15 5 16 4 17 3 18 2 19 1 20
REMARK H PARENT
REMARK Flexibility Score: inf
ROOT
ATOM      1  C   UNL     1      24.263 140.150 342.337  1.00  0.00     0.027 C 
ENDROOT
BRANCH   1   2
ATOM      2  C   UNL     1      23.245 139.331 343.150  1.00  0.00     0.004 C 
BRANCH   2   3
ATOM      3  C   UNL     1      22.521 138.243 342.333  1.00  0.00     0.000 C 
BRANCH   3   4
ATOM      4  C   UNL     1      21.137 137.887 342.902  1.00  0.00     0.000 C 
BRANCH   4   5
ATOM      5  C   UNL     1      19.998 138.187 341.914  1.00  0.00     0.000 C 
BRANCH   5   6
ATOM      6  C   UNL     1      18.606 138.082 342.563  1.00  0.00     0.006 C 
BRANCH   6   7
ATOM      7  C   UNL     1      17.545 138.873 341.786  1.00  0.00     0.053 C 
BRANCH   7   8
ATOM      8  C   UNL     1      16.686 139.695 342.697  1.00  0.00     0.041 C 
ATOM      9  O   UNL     1      17.107 140.795 343.143  1.00  0.00    -0.550 OA
ATOM     10  O   UNL     1      15.436 139.229 343.083  1.00  0.00    -0.550 OA
ENDBRANCH   7   8
ENDBRANCH   6   7
ENDBRANCH   5   6
ENDBRANCH   4   5
ENDBRANCH   3   4
ENDBRANCH   2   3
ENDBRANCH   1   2
BRANCH   1  11
ATOM     11  C   UNL     1      25.479 140.533 343.134  1.00  0.00    -0.031 C 
ATOM     12  C   UNL     1      25.389 141.282 344.243  1.00  0.00    -0.027 C 
BRANCH  12  13
ATOM     13  C   UNL     1      26.611 141.666 345.030  1.00  0.00     0.054 C 
BRANCH  13  14
ATOM     14  C   UNL     1      27.837 140.976 344.501  1.00  0.00    -0.027 C 
ATOM     15  C   UNL     1      28.813 140.555 345.320  1.00  0.00    -0.031 C 
BRANCH  15  16
ATOM     16  C   UNL     1      30.040 139.861 344.796  1.00  0.00     0.027 C 
BRANCH  16  17
ATOM     17  C   UNL     1      30.670 140.597 343.600  1.00  0.00     0.004 C 
BRANCH  17  18
ATOM     18  C   UNL     1      31.197 139.670 342.485  1.00  0.00     0.000 C 
BRANCH  18  19
ATOM     19  C   UNL     1      30.122 139.150 341.515  1.00  0.00    -0.003 C 
ATOM     20  C   UNL     1      29.110 140.224 341.114  1.00  0.00     0.004 C 
ENDBRANCH  18  19
ENDBRANCH  17  18
ENDBRANCH  16  17
ENDBRANCH  15  16
ENDBRANCH  13  14
ENDBRANCH  12  13
ENDBRANCH   1  11
TORSDOF 14
ENDMDL
MODEL 8
REMARK VINA RESULT:    -5.921     10.503     11.388
REMARK INTER + INTRA:         -11.489
REMARK INTER:                 -10.587
REMARK INTRA:                  -0.901
REMARK UNBOUND:                -0.721
REMARK SMILES CCCCCC=CCC=CCCCCCCCC(=O)[O-]
REMARK SMILES IDX 11 1 12 2 13 3 14 4 15 5 16 6 17 7 18 8 19 9 20 10 10 11
REMARK SMILES IDX 9 12 8 13 7 14 6 15 5 16 4 17 3 18 2 19 1 20
REMARK H PARENT
REMARK Flexibility Score: inf
ROOT
ATOM      1  C   UNL     1      24.407 140.037 342.370  1.00  0.00     0.027 C 
ENDROOT
BRANCH   1   2
ATOM      2  C   UNL     1      25.728 140.319 343.109  1.00  0.00     0.004 C 
BRANCH   2   3
ATOM      3  C   UNL     1      26.696 141.233 342.333  1.00  0.00     0.000 C 
BRANCH   3   4
ATOM      4  C   UNL     1      28.166 140.801 342.469  1.00  0.00     0.000 C 
BRANCH   4   5
ATOM      5  C   UNL     1      28.737 140.234 341.159  1.00  0.00     0.000 C 
BRANCH   5   6
ATOM      6  C   UNL     1      30.265 140.050 341.208  1.00  0.00     0.006 C 
BRANCH   6   7
ATOM      7  C   UNL     1      30.684 138.952 342.196  1.00  0.00     0.053 C 
BRANCH   7   8
ATOM      8  C   UNL     1      31.888 139.351 342.992  1.00  0.00     0.041 C 
ATOM      9  O   UNL     1      33.007 139.478 342.428  1.00  0.00    -0.550 OA
ATOM     10  O   UNL     1      31.783 139.547 344.363  1.00  0.00    -0.550 OA
ENDBRANCH   7   8
ENDBRANCH   6   7
ENDBRANCH   5   6
ENDBRANCH   4   5
ENDBRANCH   3   4
ENDBRANCH   2   3
ENDBRANCH   1   2
BRANCH   1  11
ATOM     11  C   UNL     1      23.441 139.222 343.185  1.00  0.00    -0.031 C 
ATOM     12  C   UNL     1      23.250 137.914 342.952  1.00  0.00    -0.027 C 
BRANCH  12  13
ATOM     13  C   UNL     1      22.276 137.109 343.767  1.00  0.00     0.054 C 
BRANCH  13  14
ATOM     14  C   UNL     1      21.299 137.999 344.482  1.00  0.00    -0.027 C 
ATOM     15  C   UNL     1      19.976 137.784 344.416  1.00  0.00    -0.031 C 
BRANCH  15  16
ATOM     16  C   UNL     1      18.994 138.671 345.132  1.00  0.00     0.027 C 
BRANCH  16  17
ATOM     17  C   UNL     1      17.672 138.832 344.361  1.00  0.00     0.004 C 
BRANCH  17  18
ATOM     18  C   UNL     1      17.505 137.866 343.171  1.00  0.00     0.000 C 
BRANCH  18  19
ATOM     19  C   UNL     1      17.452 138.543 341.791  1.00  0.00    -0.003 C 
ATOM     20  C   UNL     1      18.838 138.828 341.212  1.00  0.00     0.004 C 
ENDBRANCH  18  19
ENDBRANCH  17  18
ENDBRANCH  16  17
ENDBRANCH  15  16
ENDBRANCH  13  14
ENDBRANCH  12  13
ENDBRANCH   1  11
TORSDOF 14
ENDMDL
MODEL 9
REMARK VINA RESULT:    -5.915      5.088     10.791
REMARK INTER + INTRA:         -11.477
REMARK INTER:                 -10.369
REMARK INTRA:                  -1.108
REMARK UNBOUND:                -0.721
REMARK SMILES CCCCCC=CCC=CCCCCCCCC(=O)[O-]
REMARK SMILES IDX 11 1 12 2 13 3 14 4 15 5 16 6 17 7 18 8 19 9 20 10 10 11
REMARK SMILES IDX 9 12 8 13 7 14 6 15 5 16 4 17 3 18 2 19 1 20
REMARK H PARENT
REMARK Flexibility Score: inf
ROOT
ATOM      1  C   UNL     1      24.312 137.245 351.946  1.00  0.00     0.027 C 
ENDROOT
BRANCH   1   2
ATOM      2  C   UNL     1      24.655 138.316 352.998  1.00  0.00     0.004 C 
BRANCH   2   3
ATOM      3  C   UNL     1      24.372 139.758 352.537  1.00  0.00     0.000 C 
BRANCH   3   4
ATOM      4  C   UNL     1      23.219 140.420 353.312  1.00  0.00     0.000 C 
BRANCH   4   5
ATOM      5  C   UNL     1      22.530 141.534 352.507  1.00  0.00     0.000 C 
BRANCH   5   6
ATOM      6  C   UNL     1      21.992 142.667 353.400  1.00  0.00     0.006 C 
BRANCH   6   7
ATOM      7  C   UNL     1      20.684 143.258 352.858  1.00  0.00     0.053 C 
BRANCH   7   8
ATOM      8  C   UNL     1      19.543 143.043 353.805  1.00  0.00     0.041 C 
ATOM      9  O   UNL     1      19.744 143.030 355.048  1.00  0.00    -0.550 OA
ATOM     10  O   UNL     1      18.263 142.822 353.313  1.00  0.00    -0.550 OA
ENDBRANCH   7   8
ENDBRANCH   6   7
ENDBRANCH   5   6
ENDBRANCH   4   5
ENDBRANCH   3   4
ENDBRANCH   2   3
ENDBRANCH   1   2
BRANCH   1  11
ATOM     11  C   UNL     1      25.496 136.841 351.111  1.00  0.00    -0.031 C 
ATOM     12  C   UNL     1      25.484 135.729 350.362  1.00  0.00    -0.027 C 
BRANCH  12  13
ATOM     13  C   UNL     1      26.675 135.329 349.536  1.00  0.00     0.054 C 
BRANCH  13  14
ATOM     14  C   UNL     1      27.760 134.743 350.395  1.00  0.00    -0.027 C 
ATOM     15  C   UNL     1      28.853 135.448 350.722  1.00  0.00    -0.031 C 
BRANCH  15  16
ATOM     16  C   UNL     1      29.941 134.867 351.584  1.00  0.00     0.027 C 
BRANCH  16  17
ATOM     17  C   UNL     1      30.044 135.559 352.954  1.00  0.00     0.004 C 
BRANCH  17  18
ATOM     18  C   UNL     1      29.497 134.728 354.132  1.00  0.00     0.000 C 
BRANCH  18  19
ATOM     19  C   UNL     1      28.368 135.403 354.930  1.00  0.00    -0.003 C 
ATOM     20  C   UNL     1      27.175 135.798 354.059  1.00  0.00     0.004 C 
ENDBRANCH  18  19
ENDBRANCH  17  18
ENDBRANCH  16  17
ENDBRANCH  15  16
ENDBRANCH  13  14
ENDBRANCH  12  13
ENDBRANCH   1  11
TORSDOF 14
ENDMDL
