MODEL 1
REMARK VINA RESULT:    -6.747      0.000      0.000
REMARK INTER + INTRA:          -7.339
REMARK INTER:                  -7.339
REMARK INTRA:                   0.000
REMARK UNBOUND:                 0.000
REMARK SMILES Cc1cc(O)c2c(c1)C(=O)c1cc(O)cc(O)c1C2=O
REMARK SMILES IDX 1 1 2 2 8 3 7 4 6 5 4 6 3 7 19 8 20 9 18 10 11 11 9 12 10 13
REMARK SMILES IDX 12 14 13 15 15 16 16 17 5 18 17 20 14 22
REMARK H PARENT 5 19 17 21 14 23
REMARK Flexibility Score: inf
ROOT
ATOM      1  C   UNL     1      26.015 -29.339  -9.956  1.00  0.00     0.044 C 
ATOM      2  C   UNL     1      25.533 -30.629  -9.362  1.00  0.00    -0.047 A 
ATOM      3  C   UNL     1      24.168 -30.935  -9.357  1.00  0.00     0.016 A 
ATOM      4  C   UNL     1      23.702 -32.129  -8.781  1.00  0.00     0.038 A 
ATOM      5  C   UNL     1      24.618 -33.035  -8.198  1.00  0.00     0.076 A 
ATOM      6  C   UNL     1      25.989 -32.669  -8.118  1.00  0.00     0.127 A 
ATOM      7  C   UNL     1      26.431 -31.488  -8.722  1.00  0.00     0.050 A 
ATOM      8  C   UNL     1      24.112 -34.358  -7.740  1.00  0.00     0.201 C 
ATOM      9  O   UNL     1      24.905 -35.329  -7.609  1.00  0.00    -0.288 OA
ATOM     10  C   UNL     1      22.653 -34.574  -7.547  1.00  0.00     0.076 A 
ATOM     11  C   UNL     1      21.744 -33.632  -8.073  1.00  0.00     0.041 A 
ATOM     12  C   UNL     1      22.251 -32.431  -8.775  1.00  0.00     0.194 C 
ATOM     13  O   UNL     1      21.442 -31.654  -9.354  1.00  0.00    -0.289 OA
ATOM     14  C   UNL     1      20.361 -33.842  -7.931  1.00  0.00     0.059 A 
ATOM     15  C   UNL     1      19.879 -34.973  -7.265  1.00  0.00     0.120 A 
ATOM     16  C   UNL     1      20.775 -35.901  -6.738  1.00  0.00     0.093 A 
ATOM     17  C   UNL     1      22.157 -35.712  -6.870  1.00  0.00     0.131 A 
ENDROOT
BRANCH   6  18
ATOM     18  O   UNL     1      26.937 -33.420  -7.420  1.00  0.00    -0.507 OA
ATOM     19  H   UNL     1      27.382 -33.110  -6.567  1.00  0.00     0.293 HD
ENDBRANCH   6  18
BRANCH  17  20
ATOM     20  O   UNL     1      23.031 -36.652  -6.320  1.00  0.00    -0.507 OA
ATOM     21  H   UNL     1      22.899 -37.020  -5.385  1.00  0.00     0.293 HD
ENDBRANCH  17  20
BRANCH  15  22
ATOM     22  O   UNL     1      18.509 -35.182  -7.122  1.00  0.00    -0.508 OA
ATOM     23  H   UNL     1      18.145 -35.952  -6.573  1.00  0.00     0.293 HD
ENDBRANCH  15  22
TORSDOF 3
ENDMDL
MODEL 2
REMARK VINA RESULT:    -6.459     12.307     12.947
REMARK INTER + INTRA:          -7.025
REMARK INTER:                  -7.025
REMARK INTRA:                   0.000
REMARK UNBOUND:                 0.000
REMARK SMILES Cc1cc(O)c2c(c1)C(=O)c1cc(O)cc(O)c1C2=O
REMARK SMILES IDX 1 1 2 2 8 3 7 4 6 5 4 6 3 7 19 8 20 9 18 10 11 11 9 12 10 13
REMARK SMILES IDX 12 14 13 15 15 16 16 17 5 18 17 20 14 22
REMARK H PARENT 5 19 17 21 14 23
REMARK Flexibility Score: inf
ROOT
ATOM      1  C   UNL     1      19.616 -19.875  -3.450  1.00  0.00     0.044 C 
ATOM      2  C   UNL     1      18.959 -20.538  -4.624  1.00  0.00    -0.047 A 
ATOM      3  C   UNL     1      17.845 -21.362  -4.434  1.00  0.00     0.016 A 
ATOM      4  C   UNL     1      17.236 -22.008  -5.523  1.00  0.00     0.038 A 
ATOM      5  C   UNL     1      17.751 -21.828  -6.827  1.00  0.00     0.076 A 
ATOM      6  C   UNL     1      18.942 -21.071  -6.997  1.00  0.00     0.127 A 
ATOM      7  C   UNL     1      19.513 -20.417  -5.901  1.00  0.00     0.050 A 
ATOM      8  C   UNL     1      16.991 -22.397  -7.975  1.00  0.00     0.201 C 
ATOM      9  O   UNL     1      17.155 -21.935  -9.135  1.00  0.00    -0.288 OA
ATOM     10  C   UNL     1      15.950 -23.433  -7.741  1.00  0.00     0.076 A 
ATOM     11  C   UNL     1      15.486 -23.657  -6.426  1.00  0.00     0.041 A 
ATOM     12  C   UNL     1      16.063 -22.887  -5.301  1.00  0.00     0.194 C 
ATOM     13  O   UNL     1      15.565 -22.995  -4.146  1.00  0.00    -0.289 OA
ATOM     14  C   UNL     1      14.476 -24.607  -6.195  1.00  0.00     0.059 A 
ATOM     15  C   UNL     1      13.932 -25.338  -7.255  1.00  0.00     0.120 A 
ATOM     16  C   UNL     1      14.394 -25.125  -8.553  1.00  0.00     0.093 A 
ATOM     17  C   UNL     1      15.399 -24.182  -8.806  1.00  0.00     0.131 A 
ENDROOT
BRANCH   6  18
ATOM     18  O   UNL     1      19.614 -20.973  -8.218  1.00  0.00    -0.507 OA
ATOM     19  H   UNL     1      20.193 -20.187  -8.479  1.00  0.00     0.293 HD
ENDBRANCH   6  18
BRANCH  17  20
ATOM     20  O   UNL     1      15.851 -23.999 -10.114  1.00  0.00    -0.507 OA
ATOM     21  H   UNL     1      16.585 -24.575 -10.510  1.00  0.00     0.293 HD
ENDBRANCH  17  20
BRANCH  15  22
ATOM     22  O   UNL     1      12.932 -26.281  -7.028  1.00  0.00    -0.508 OA
ATOM     23  H   UNL     1      12.487 -26.776  -7.791  1.00  0.00     0.293 HD
ENDBRANCH  15  22
TORSDOF 3
ENDMDL
MODEL 3
REMARK VINA RESULT:    -6.388      3.108      6.534
REMARK INTER + INTRA:          -6.948
REMARK INTER:                  -6.948
REMARK INTRA:                   0.000
REMARK UNBOUND:                 0.000
REMARK SMILES Cc1cc(O)c2c(c1)C(=O)c1cc(O)cc(O)c1C2=O
REMARK SMILES IDX 1 1 2 2 8 3 7 4 6 5 4 6 3 7 19 8 20 9 18 10 11 11 9 12 10 13
REMARK SMILES IDX 12 14 13 15 15 16 16 17 5 18 17 20 14 22
REMARK H PARENT 5 19 17 21 14 23
REMARK Flexibility Score: inf
ROOT
ATOM      1  C   UNL     1      17.386 -32.654 -11.599  1.00  0.00     0.044 C 
ATOM      2  C   UNL     1      18.784 -32.110 -11.592  1.00  0.00    -0.047 A 
ATOM      3  C   UNL     1      19.737 -32.632 -10.712  1.00  0.00     0.016 A 
ATOM      4  C   UNL     1      21.043 -32.115 -10.679  1.00  0.00     0.038 A 
ATOM      5  C   UNL     1      21.403 -31.054 -11.543  1.00  0.00     0.076 A 
ATOM      6  C   UNL     1      20.402 -30.465 -12.361  1.00  0.00     0.127 A 
ATOM      7  C   UNL     1      19.117 -31.016 -12.395  1.00  0.00     0.050 A 
ATOM      8  C   UNL     1      22.832 -30.637 -11.596  1.00  0.00     0.201 C 
ATOM      9  O   UNL     1      23.275 -30.020 -12.601  1.00  0.00    -0.288 OA
ATOM     10  C   UNL     1      23.769 -31.045 -10.516  1.00  0.00     0.076 A 
ATOM     11  C   UNL     1      23.379 -32.058  -9.614  1.00  0.00     0.041 A 
ATOM     12  C   UNL     1      22.037 -32.672  -9.731  1.00  0.00     0.194 C 
ATOM     13  O   UNL     1      21.733 -33.660  -9.007  1.00  0.00    -0.289 OA
ATOM     14  C   UNL     1      24.270 -32.481  -8.611  1.00  0.00     0.059 A 
ATOM     15  C   UNL     1      25.537 -31.901  -8.496  1.00  0.00     0.120 A 
ATOM     16  C   UNL     1      25.921 -30.895  -9.381  1.00  0.00     0.093 A 
ATOM     17  C   UNL     1      25.051 -30.460 -10.388  1.00  0.00     0.131 A 
ENDROOT
BRANCH   6  18
ATOM     18  O   UNL     1      20.622 -29.315 -13.124  1.00  0.00    -0.507 OA
ATOM     19  H   UNL     1      21.307 -28.610 -12.891  1.00  0.00     0.293 HD
ENDBRANCH   6  18
BRANCH  17  20
ATOM     20  O   UNL     1      25.458 -29.442 -11.252  1.00  0.00    -0.507 OA
ATOM     21  H   UNL     1      24.806 -28.974 -11.870  1.00  0.00     0.293 HD
ENDBRANCH  17  20
BRANCH  15  22
ATOM     22  O   UNL     1      26.420 -32.317  -7.503  1.00  0.00    -0.508 OA
ATOM     23  H   UNL     1      27.351 -31.925  -7.422  1.00  0.00     0.293 HD
ENDBRANCH  15  22
TORSDOF 3
ENDMDL
MODEL 4
REMARK VINA RESULT:    -6.366      1.581      2.011
REMARK INTER + INTRA:          -6.925
REMARK INTER:                  -6.925
REMARK INTRA:                   0.000
REMARK UNBOUND:                 0.000
REMARK SMILES Cc1cc(O)c2c(c1)C(=O)c1cc(O)cc(O)c1C2=O
REMARK SMILES IDX 1 1 2 2 8 3 7 4 6 5 4 6 3 7 19 8 20 9 18 10 11 11 9 12 10 13
REMARK SMILES IDX 12 14 13 15 15 16 16 17 5 18 17 20 14 22
REMARK H PARENT 5 19 17 21 14 23
REMARK Flexibility Score: inf
ROOT
ATOM      1  C   UNL     1      27.127 -28.921 -10.530  1.00  0.00     0.044 C 
ATOM      2  C   UNL     1      26.226 -29.974  -9.955  1.00  0.00    -0.047 A 
ATOM      3  C   UNL     1      24.871 -30.005 -10.302  1.00  0.00     0.016 A 
ATOM      4  C   UNL     1      24.012 -30.972  -9.751  1.00  0.00     0.038 A 
ATOM      5  C   UNL     1      24.517 -31.924  -8.836  1.00  0.00     0.076 A 
ATOM      6  C   UNL     1      25.870 -31.821  -8.415  1.00  0.00     0.127 A 
ATOM      7  C   UNL     1      26.711 -30.868  -8.997  1.00  0.00     0.050 A 
ATOM      8  C   UNL     1      23.620 -33.028  -8.395  1.00  0.00     0.201 C 
ATOM      9  O   UNL     1      24.107 -34.096  -7.938  1.00  0.00    -0.288 OA
ATOM     10  C   UNL     1      22.150 -32.922  -8.598  1.00  0.00     0.076 A 
ATOM     11  C   UNL     1      21.646 -31.926  -9.461  1.00  0.00     0.041 A 
ATOM     12  C   UNL     1      22.577 -30.982 -10.120  1.00  0.00     0.194 C 
ATOM     13  O   UNL     1      22.141 -30.174 -10.986  1.00  0.00    -0.289 OA
ATOM     14  C   UNL     1      20.261 -31.838  -9.691  1.00  0.00     0.059 A 
ATOM     15  C   UNL     1      19.380 -32.725  -9.067  1.00  0.00     0.120 A 
ATOM     16  C   UNL     1      19.875 -33.705  -8.208  1.00  0.00     0.093 A 
ATOM     17  C   UNL     1      21.250 -33.812  -7.965  1.00  0.00     0.131 A 
ENDROOT
BRANCH   6  18
ATOM     18  O   UNL     1      26.412 -32.612  -7.398  1.00  0.00    -0.507 OA
ATOM     19  H   UNL     1      25.856 -33.112  -6.718  1.00  0.00     0.293 HD
ENDBRANCH   6  18
BRANCH  17  20
ATOM     20  O   UNL     1      21.716 -34.794  -7.090  1.00  0.00    -0.507 OA
ATOM     21  H   UNL     1      22.562 -35.319  -7.279  1.00  0.00     0.293 HD
ENDBRANCH  17  20
BRANCH  15  22
ATOM     22  O   UNL     1      18.008 -32.639  -9.293  1.00  0.00    -0.508 OA
ATOM     23  H   UNL     1      17.467 -33.443  -9.586  1.00  0.00     0.293 HD
ENDBRANCH  15  22
TORSDOF 3
ENDMDL
MODEL 5
REMARK VINA RESULT:    -6.350      2.147      5.786
REMARK INTER + INTRA:          -6.906
REMARK INTER:                  -6.906
REMARK INTRA:                   0.000
REMARK UNBOUND:                 0.000
REMARK SMILES Cc1cc(O)c2c(c1)C(=O)c1cc(O)cc(O)c1C2=O
REMARK SMILES IDX 1 1 2 2 8 3 7 4 6 5 4 6 3 7 19 8 20 9 18 10 11 11 9 12 10 13
REMARK SMILES IDX 12 14 13 15 15 16 16 17 5 18 17 20 14 22
REMARK H PARENT 5 19 17 21 14 23
REMARK Flexibility Score: inf
ROOT
ATOM      1  C   UNL     1      17.700 -32.480  -9.735  1.00  0.00     0.044 C 
ATOM      2  C   UNL     1      19.135 -32.049  -9.658  1.00  0.00    -0.047 A 
ATOM      3  C   UNL     1      20.129 -32.972  -9.317  1.00  0.00     0.016 A 
ATOM      4  C   UNL     1      21.474 -32.574  -9.218  1.00  0.00     0.038 A 
ATOM      5  C   UNL     1      21.831 -31.228  -9.463  1.00  0.00     0.076 A 
ATOM      6  C   UNL     1      20.802 -30.279  -9.710  1.00  0.00     0.127 A 
ATOM      7  C   UNL     1      19.476 -30.704  -9.830  1.00  0.00     0.050 A 
ATOM      8  C   UNL     1      23.277 -30.874  -9.505  1.00  0.00     0.201 C 
ATOM      9  O   UNL     1      23.658 -29.836 -10.109  1.00  0.00    -0.288 OA
ATOM     10  C   UNL     1      24.289 -31.803  -8.936  1.00  0.00     0.076 A 
ATOM     11  C   UNL     1      23.911 -33.128  -8.629  1.00  0.00     0.041 A 
ATOM     12  C   UNL     1      22.512 -33.563  -8.843  1.00  0.00     0.194 C 
ATOM     13  O   UNL     1      22.202 -34.777  -8.689  1.00  0.00    -0.289 OA
ATOM     14  C   UNL     1      24.867 -34.027  -8.125  1.00  0.00     0.059 A 
ATOM     15  C   UNL     1      26.188 -33.618  -7.918  1.00  0.00     0.120 A 
ATOM     16  C   UNL     1      26.562 -32.308  -8.213  1.00  0.00     0.093 A 
ATOM     17  C   UNL     1      25.626 -31.396  -8.717  1.00  0.00     0.131 A 
ENDROOT
BRANCH   6  18
ATOM     18  O   UNL     1      21.041 -28.905  -9.803  1.00  0.00    -0.507 OA
ATOM     19  H   UNL     1      21.331 -28.442 -10.653  1.00  0.00     0.293 HD
ENDBRANCH   6  18
BRANCH  17  20
ATOM     20  O   UNL     1      26.026 -30.087  -8.991  1.00  0.00    -0.507 OA
ATOM     21  H   UNL     1      26.843 -29.886  -9.556  1.00  0.00     0.293 HD
ENDBRANCH  17  20
BRANCH  15  22
ATOM     22  O   UNL     1      27.136 -34.508  -7.418  1.00  0.00    -0.508 OA
ATOM     23  H   UNL     1      26.953 -35.071  -6.596  1.00  0.00     0.293 HD
ENDBRANCH  15  22
TORSDOF 3
ENDMDL
MODEL 6
REMARK VINA RESULT:    -6.336      1.603      6.128
REMARK INTER + INTRA:          -6.891
REMARK INTER:                  -6.891
REMARK INTRA:                   0.000
REMARK UNBOUND:                 0.000
REMARK SMILES Cc1cc(O)c2c(c1)C(=O)c1cc(O)cc(O)c1C2=O
REMARK SMILES IDX 1 1 2 2 8 3 7 4 6 5 4 6 3 7 19 8 20 9 18 10 11 11 9 12 10 13
REMARK SMILES IDX 12 14 13 15 15 16 16 17 5 18 17 20 14 22
REMARK H PARENT 5 19 17 21 14 23
REMARK Flexibility Score: inf
ROOT
ATOM      1  C   UNL     1      19.023 -35.251  -6.753  1.00  0.00     0.044 C 
ATOM      2  C   UNL     1      20.134 -34.380  -7.260  1.00  0.00    -0.047 A 
ATOM      3  C   UNL     1      21.460 -34.819  -7.190  1.00  0.00     0.016 A 
ATOM      4  C   UNL     1      22.512 -34.001  -7.639  1.00  0.00     0.038 A 
ATOM      5  C   UNL     1      22.231 -32.720  -8.167  1.00  0.00     0.076 A 
ATOM      6  C   UNL     1      20.893 -32.244  -8.141  1.00  0.00     0.127 A 
ATOM      7  C   UNL     1      19.862 -33.086  -7.714  1.00  0.00     0.050 A 
ATOM      8  C   UNL     1      23.348 -31.945  -8.778  1.00  0.00     0.201 C 
ATOM      9  O   UNL     1      23.103 -31.028  -9.606  1.00  0.00    -0.288 OA
ATOM     10  C   UNL     1      24.758 -32.326  -8.504  1.00  0.00     0.076 A 
ATOM     11  C   UNL     1      25.030 -33.580  -7.914  1.00  0.00     0.041 A 
ATOM     12  C   UNL     1      23.912 -34.478  -7.546  1.00  0.00     0.194 C 
ATOM     13  O   UNL     1      24.155 -35.647  -7.136  1.00  0.00    -0.289 OA
ATOM     14  C   UNL     1      26.361 -33.968  -7.683  1.00  0.00     0.059 A 
ATOM     15  C   UNL     1      27.419 -33.121  -8.026  1.00  0.00     0.120 A 
ATOM     16  C   UNL     1      27.153 -31.879  -8.601  1.00  0.00     0.093 A 
ATOM     17  C   UNL     1      25.834 -31.472  -8.841  1.00  0.00     0.131 A 
ENDROOT
BRANCH   6  18
ATOM     18  O   UNL     1      20.543 -30.936  -8.489  1.00  0.00    -0.507 OA
ATOM     19  H   UNL     1      19.670 -30.688  -8.933  1.00  0.00     0.293 HD
ENDBRANCH   6  18
BRANCH  17  20
ATOM     20  O   UNL     1      25.598 -30.218  -9.406  1.00  0.00    -0.507 OA
ATOM     21  H   UNL     1      25.092 -29.495  -8.908  1.00  0.00     0.293 HD
ENDBRANCH  17  20
BRANCH  15  22
ATOM     22  O   UNL     1      28.738 -33.504  -7.796  1.00  0.00    -0.508 OA
ATOM     23  H   UNL     1      29.001 -34.479  -7.714  1.00  0.00     0.293 HD
ENDBRANCH  15  22
TORSDOF 3
ENDMDL
MODEL 7
REMARK VINA RESULT:    -6.302      2.977      5.833
REMARK INTER + INTRA:          -6.855
REMARK INTER:                  -6.855
REMARK INTRA:                   0.000
REMARK UNBOUND:                 0.000
REMARK SMILES Cc1cc(O)c2c(c1)C(=O)c1cc(O)cc(O)c1C2=O
REMARK SMILES IDX 1 1 2 2 8 3 7 4 6 5 4 6 3 7 19 8 20 9 18 10 11 11 9 12 10 13
REMARK SMILES IDX 12 14 13 15 15 16 16 17 5 18 17 20 14 22
REMARK H PARENT 5 19 17 21 14 23
REMARK Flexibility Score: inf
ROOT
ATOM      1  C   UNL     1      19.963 -38.046  -6.141  1.00  0.00     0.044 C 
ATOM      2  C   UNL     1      20.584 -37.118  -7.143  1.00  0.00    -0.047 A 
ATOM      3  C   UNL     1      20.438 -35.734  -7.004  1.00  0.00     0.016 A 
ATOM      4  C   UNL     1      20.994 -34.855  -7.950  1.00  0.00     0.038 A 
ATOM      5  C   UNL     1      21.709 -35.371  -9.055  1.00  0.00     0.076 A 
ATOM      6  C   UNL     1      21.766 -36.779  -9.240  1.00  0.00     0.127 A 
ATOM      7  C   UNL     1      21.228 -37.631  -8.272  1.00  0.00     0.050 A 
ATOM      8  C   UNL     1      22.419 -34.414  -9.949  1.00  0.00     0.201 C 
ATOM      9  O   UNL     1      23.376 -34.808 -10.667  1.00  0.00    -0.288 OA
ATOM     10  C   UNL     1      22.078 -32.967  -9.914  1.00  0.00     0.076 A 
ATOM     11  C   UNL     1      21.306 -32.468  -8.843  1.00  0.00     0.041 A 
ATOM     12  C   UNL     1      20.819 -33.392  -7.794  1.00  0.00     0.194 C 
ATOM     13  O   UNL     1      20.237 -32.931  -6.773  1.00  0.00    -0.289 OA
ATOM     14  C   UNL     1      21.008 -31.096  -8.778  1.00  0.00     0.059 A 
ATOM     15  C   UNL     1      21.464 -30.221  -9.769  1.00  0.00     0.120 A 
ATOM     16  C   UNL     1      22.219 -30.713 -10.832  1.00  0.00     0.093 A 
ATOM     17  C   UNL     1      22.529 -32.076 -10.916  1.00  0.00     0.131 A 
ENDROOT
BRANCH   6  18
ATOM     18  O   UNL     1      22.308 -37.375 -10.383  1.00  0.00    -0.507 OA
ATOM     19  H   UNL     1      22.739 -36.856 -11.136  1.00  0.00     0.293 HD
ENDBRANCH   6  18
BRANCH  17  20
ATOM     20  O   UNL     1      23.277 -32.542 -11.999  1.00  0.00    -0.507 OA
ATOM     21  H   UNL     1      24.167 -32.128 -12.250  1.00  0.00     0.293 HD
ENDBRANCH  17  20
BRANCH  15  22
ATOM     22  O   UNL     1      21.168 -28.861  -9.706  1.00  0.00    -0.508 OA
ATOM     23  H   UNL     1      21.552 -28.204 -10.374  1.00  0.00     0.293 HD
ENDBRANCH  15  22
TORSDOF 3
ENDMDL
MODEL 8
REMARK VINA RESULT:    -6.196      2.574      3.478
REMARK INTER + INTRA:          -6.739
REMARK INTER:                  -6.739
REMARK INTRA:                   0.000
REMARK UNBOUND:                 0.000
REMARK SMILES Cc1cc(O)c2c(c1)C(=O)c1cc(O)cc(O)c1C2=O
REMARK SMILES IDX 1 1 2 2 8 3 7 4 6 5 4 6 3 7 19 8 20 9 18 10 11 11 9 12 10 13
REMARK SMILES IDX 12 14 13 15 15 16 16 17 5 18 17 20 14 22
REMARK H PARENT 5 19 17 21 14 23
REMARK Flexibility Score: inf
ROOT
ATOM      1  C   UNL     1      24.124 -30.599 -12.401  1.00  0.00     0.044 C 
ATOM      2  C   UNL     1      23.392 -31.179 -11.227  1.00  0.00    -0.047 A 
ATOM      3  C   UNL     1      23.380 -32.562 -11.020  1.00  0.00     0.016 A 
ATOM      4  C   UNL     1      22.678 -33.120  -9.937  1.00  0.00     0.038 A 
ATOM      5  C   UNL     1      21.973 -32.278  -9.046  1.00  0.00     0.076 A 
ATOM      6  C   UNL     1      21.908 -30.885  -9.323  1.00  0.00     0.127 A 
ATOM      7  C   UNL     1      22.637 -30.353 -10.390  1.00  0.00     0.050 A 
ATOM      8  C   UNL     1      21.373 -32.883  -7.825  1.00  0.00     0.201 C 
ATOM      9  O   UNL     1      21.112 -32.163  -6.824  1.00  0.00    -0.288 OA
ATOM     10  C   UNL     1      21.186 -34.355  -7.735  1.00  0.00     0.076 A 
ATOM     11  C   UNL     1      21.839 -35.189  -8.669  1.00  0.00     0.041 A 
ATOM     12  C   UNL     1      22.666 -34.589  -9.740  1.00  0.00     0.194 C 
ATOM     13  O   UNL     1      23.348 -35.333 -10.498  1.00  0.00    -0.289 OA
ATOM     14  C   UNL     1      21.701 -36.585  -8.574  1.00  0.00     0.059 A 
ATOM     15  C   UNL     1      20.918 -37.155  -7.566  1.00  0.00     0.120 A 
ATOM     16  C   UNL     1      20.266 -36.333  -6.647  1.00  0.00     0.093 A 
ATOM     17  C   UNL     1      20.390 -34.940  -6.723  1.00  0.00     0.131 A 
ENDROOT
BRANCH   6  18
ATOM     18  O   UNL     1      21.107 -30.002  -8.595  1.00  0.00    -0.507 OA
ATOM     19  H   UNL     1      20.930 -30.090  -7.604  1.00  0.00     0.293 HD
ENDBRANCH   6  18
BRANCH  17  20
ATOM     20  O   UNL     1      19.716 -34.142  -5.797  1.00  0.00    -0.507 OA
ATOM     21  H   UNL     1      18.760 -34.336  -5.522  1.00  0.00     0.293 HD
ENDBRANCH  17  20
BRANCH  15  22
ATOM     22  O   UNL     1      20.779 -38.538  -7.471  1.00  0.00    -0.508 OA
ATOM     23  H   UNL     1      21.220 -39.065  -6.727  1.00  0.00     0.293 HD
ENDBRANCH  15  22
TORSDOF 3
ENDMDL
