MODEL 1
REMARK VINA RESULT:    -4.714      0.000      0.000
REMARK INTER + INTRA:         -10.696
REMARK INTER:                  -8.572
REMARK INTRA:                  -2.124
REMARK UNBOUND:                -2.124
REMARK SMILES CCCCCCCCCCCCCC[C@@H](C)C(=O)[O-]
REMARK SMILES IDX 9 1 10 2 11 3 12 4 13 5 14 6 15 7 16 8 17 9 18 10 19 11 8 12
REMARK SMILES IDX 7 13 6 14 5 15 4 16 3 17 2 18 1 19
REMARK H PARENT
REMARK Flexibility Score: inf
ROOT
ATOM      1  C   UNL     1       1.944  51.351  -0.566  1.00  0.00     0.000 C 
ENDROOT
BRANCH   1   2
ATOM      2  C   UNL     1       2.564  50.534   0.582  1.00  0.00     0.000 C 
BRANCH   2   3
ATOM      3  C   UNL     1       3.298  51.416   1.604  1.00  0.00     0.000 C 
BRANCH   3   4
ATOM      4  C   UNL     1       4.816  51.450   1.370  1.00  0.00     0.000 C 
BRANCH   4   5
ATOM      5  C   UNL     1       5.274  52.841   0.917  1.00  0.00     0.001 C 
BRANCH   5   6
ATOM      6  C   UNL     1       4.174  53.888   1.156  1.00  0.00     0.009 C 
BRANCH   6   7
ATOM      7  C   UNL     1       4.104  54.929   0.020  1.00  0.00     0.032 C 
ATOM      8  C   UNL     1       2.716  54.926  -0.628  1.00  0.00     0.014 C 
BRANCH   7   9
ATOM      9  C   UNL     1       4.425  56.312   0.523  1.00  0.00     0.044 C 
ATOM     10  O   UNL     1       3.594  57.246   0.373  1.00  0.00    -0.550 OA
ATOM     11  O   UNL     1       5.633  56.565   1.162  1.00  0.00    -0.550 OA
ENDBRANCH   7   9
ENDBRANCH   6   7
ENDBRANCH   5   6
ENDBRANCH   4   5
ENDBRANCH   3   4
ENDBRANCH   2   3
ENDBRANCH   1   2
BRANCH   1  12
ATOM     12  C   UNL     1       2.859  51.434  -1.801  1.00  0.00     0.000 C 
BRANCH  12  13
ATOM     13  C   UNL     1       2.131  51.323  -3.153  1.00  0.00    -0.000 C 
BRANCH  13  14
ATOM     14  C   UNL     1       3.078  51.454  -4.358  1.00  0.00    -0.000 C 
BRANCH  14  15
ATOM     15  C   UNL     1       4.559  51.538  -3.934  1.00  0.00    -0.000 C 
BRANCH  15  16
ATOM     16  C   UNL     1       5.140  52.963  -3.999  1.00  0.00    -0.000 C 
BRANCH  16  17
ATOM     17  C   UNL     1       6.373  53.198  -3.109  1.00  0.00    -0.000 C 
BRANCH  17  18
ATOM     18  C   UNL     1       6.704  51.988  -2.225  1.00  0.00    -0.003 C 
ATOM     19  C   UNL     1       8.071  52.148  -1.566  1.00  0.00     0.004 C 
ENDBRANCH  17  18
ENDBRANCH  16  17
ENDBRANCH  15  16
ENDBRANCH  14  15
ENDBRANCH  13  14
ENDBRANCH  12  13
ENDBRANCH   1  12
TORSDOF 14
ENDMDL
MODEL 2
REMARK VINA RESULT:    -4.596      1.055      1.739
REMARK INTER + INTRA:         -10.482
REMARK INTER:                  -8.234
REMARK INTRA:                  -2.248
REMARK UNBOUND:                -2.124
REMARK SMILES CCCCCCCCCCCCCC[C@@H](C)C(=O)[O-]
REMARK SMILES IDX 9 1 10 2 11 3 12 4 13 5 14 6 15 7 16 8 17 9 18 10 19 11 8 12
REMARK SMILES IDX 7 13 6 14 5 15 4 16 3 17 2 18 1 19
REMARK H PARENT
REMARK Flexibility Score: inf
ROOT
ATOM      1  C   UNL     1       2.264  50.746  -2.018  1.00  0.00     0.000 C 
ENDROOT
BRANCH   1   2
ATOM      2  C   UNL     1       1.929  51.232  -0.597  1.00  0.00     0.000 C 
BRANCH   2   3
ATOM      3  C   UNL     1       2.257  50.184   0.478  1.00  0.00     0.000 C 
BRANCH   3   4
ATOM      4  C   UNL     1       3.202  50.727   1.561  1.00  0.00     0.000 C 
BRANCH   4   5
ATOM      5  C   UNL     1       4.196  51.734   0.972  1.00  0.00     0.001 C 
BRANCH   5   6
ATOM      6  C   UNL     1       3.888  53.160   1.454  1.00  0.00     0.009 C 
BRANCH   6   7
ATOM      7  C   UNL     1       4.316  54.228   0.427  1.00  0.00     0.032 C 
ATOM      8  C   UNL     1       3.111  54.700  -0.392  1.00  0.00     0.014 C 
BRANCH   7   9
ATOM      9  C   UNL     1       4.964  55.409   1.101  1.00  0.00     0.044 C 
ATOM     10  O   UNL     1       4.687  56.579   0.727  1.00  0.00    -0.550 OA
ATOM     11  O   UNL     1       5.862  55.218   2.144  1.00  0.00    -0.550 OA
ENDBRANCH   7   9
ENDBRANCH   6   7
ENDBRANCH   5   6
ENDBRANCH   4   5
ENDBRANCH   3   4
ENDBRANCH   2   3
ENDBRANCH   1   2
BRANCH   1  12
ATOM     12  C   UNL     1       2.746  51.881  -2.939  1.00  0.00     0.000 C 
BRANCH  12  13
ATOM     13  C   UNL     1       3.583  51.422  -4.146  1.00  0.00    -0.000 C 
BRANCH  13  14
ATOM     14  C   UNL     1       5.071  51.792  -4.022  1.00  0.00    -0.000 C 
BRANCH  14  15
ATOM     15  C   UNL     1       5.368  52.607  -2.747  1.00  0.00    -0.000 C 
BRANCH  15  16
ATOM     16  C   UNL     1       6.457  51.983  -1.854  1.00  0.00    -0.000 C 
BRANCH  16  17
ATOM     17  C   UNL     1       7.792  52.748  -1.835  1.00  0.00    -0.000 C 
BRANCH  17  18
ATOM     18  C   UNL     1       8.009  53.529  -0.531  1.00  0.00    -0.003 C 
ATOM     19  C   UNL     1       7.783  52.637   0.687  1.00  0.00     0.004 C 
ENDBRANCH  17  18
ENDBRANCH  16  17
ENDBRANCH  15  16
ENDBRANCH  14  15
ENDBRANCH  13  14
ENDBRANCH  12  13
ENDBRANCH   1  12
TORSDOF 14
ENDMDL
MODEL 3
REMARK VINA RESULT:    -4.593      2.594      5.186
REMARK INTER + INTRA:         -10.476
REMARK INTER:                  -8.897
REMARK INTRA:                  -1.578
REMARK UNBOUND:                -2.124
REMARK SMILES CCCCCCCCCCCCCC[C@@H](C)C(=O)[O-]
REMARK SMILES IDX 9 1 10 2 11 3 12 4 13 5 14 6 15 7 16 8 17 9 18 10 19 11 8 12
REMARK SMILES IDX 7 13 6 14 5 15 4 16 3 17 2 18 1 19
REMARK H PARENT
REMARK Flexibility Score: inf
ROOT
ATOM      1  C   UNL     1       5.266  51.876   1.174  1.00  0.00     0.000 C 
ENDROOT
BRANCH   1   2
ATOM      2  C   UNL     1       5.823  52.489  -0.123  1.00  0.00     0.000 C 
BRANCH   2   3
ATOM      3  C   UNL     1       7.347  52.677  -0.079  1.00  0.00     0.000 C 
BRANCH   3   4
ATOM      4  C   UNL     1       8.011  52.428  -1.442  1.00  0.00     0.000 C 
BRANCH   4   5
ATOM      5  C   UNL     1       9.239  51.521  -1.300  1.00  0.00     0.001 C 
BRANCH   5   6
ATOM      6  C   UNL     1       9.989  51.810   0.009  1.00  0.00     0.009 C 
BRANCH   6   7
ATOM      7  C   UNL     1      11.235  52.692  -0.216  1.00  0.00     0.032 C 
ATOM      8  C   UNL     1      11.695  52.611  -1.675  1.00  0.00     0.014 C 
BRANCH   7   9
ATOM      9  C   UNL     1      10.965  54.127   0.152  1.00  0.00     0.044 C 
ATOM     10  O   UNL     1      11.240  54.545   1.307  1.00  0.00    -0.550 OA
ATOM     11  O   UNL     1      10.419  55.001  -0.781  1.00  0.00    -0.550 OA
ENDBRANCH   7   9
ENDBRANCH   6   7
ENDBRANCH   5   6
ENDBRANCH   4   5
ENDBRANCH   3   4
ENDBRANCH   2   3
ENDBRANCH   1   2
BRANCH   1  12
ATOM     12  C   UNL     1       3.785  51.472   1.056  1.00  0.00     0.000 C 
BRANCH  12  13
ATOM     13  C   UNL     1       2.910  52.453   0.256  1.00  0.00    -0.000 C 
BRANCH  13  14
ATOM     14  C   UNL     1       1.960  51.747  -0.727  1.00  0.00    -0.000 C 
BRANCH  14  15
ATOM     15  C   UNL     1       2.721  50.935  -1.796  1.00  0.00    -0.000 C 
BRANCH  15  16
ATOM     16  C   UNL     1       2.159  51.109  -3.220  1.00  0.00    -0.000 C 
BRANCH  16  17
ATOM     17  C   UNL     1       3.214  51.413  -4.297  1.00  0.00    -0.000 C 
BRANCH  17  18
ATOM     18  C   UNL     1       4.638  51.485  -3.728  1.00  0.00    -0.003 C 
ATOM     19  C   UNL     1       5.196  52.903  -3.821  1.00  0.00     0.004 C 
ENDBRANCH  17  18
ENDBRANCH  16  17
ENDBRANCH  15  16
ENDBRANCH  14  15
ENDBRANCH  13  14
ENDBRANCH  12  13
ENDBRANCH   1  12
TORSDOF 14
ENDMDL
MODEL 4
REMARK VINA RESULT:    -4.582      2.862      5.383
REMARK INTER + INTRA:         -10.456
REMARK INTER:                  -8.303
REMARK INTRA:                  -2.153
REMARK UNBOUND:                -2.124
REMARK SMILES CCCCCCCCCCCCCC[C@@H](C)C(=O)[O-]
REMARK SMILES IDX 9 1 10 2 11 3 12 4 13 5 14 6 15 7 16 8 17 9 18 10 19 11 8 12
REMARK SMILES IDX 7 13 6 14 5 15 4 16 3 17 2 18 1 19
REMARK H PARENT
REMARK Flexibility Score: inf
ROOT
ATOM      1  C   UNL     1       2.674  51.178  -3.202  1.00  0.00     0.000 C 
ENDROOT
BRANCH   1   2
ATOM      2  C   UNL     1       3.785  52.226  -3.389  1.00  0.00     0.000 C 
BRANCH   2   3
ATOM      3  C   UNL     1       5.189  51.602  -3.395  1.00  0.00     0.000 C 
BRANCH   3   4
ATOM      4  C   UNL     1       6.280  52.603  -2.984  1.00  0.00     0.000 C 
BRANCH   4   5
ATOM      5  C   UNL     1       6.910  52.211  -1.641  1.00  0.00     0.001 C 
BRANCH   5   6
ATOM      6  C   UNL     1       8.444  52.240  -1.723  1.00  0.00     0.009 C 
BRANCH   6   7
ATOM      7  C   UNL     1       9.091  52.646  -0.382  1.00  0.00     0.032 C 
ATOM      8  C   UNL     1       8.077  52.534   0.760  1.00  0.00     0.014 C 
BRANCH   7   9
ATOM      9  C   UNL     1      10.295  51.795  -0.075  1.00  0.00     0.044 C 
ATOM     10  O   UNL     1      10.221  50.887   0.793  1.00  0.00    -0.550 OA
ATOM     11  O   UNL     1      11.492  52.000  -0.752  1.00  0.00    -0.550 OA
ENDBRANCH   7   9
ENDBRANCH   6   7
ENDBRANCH   5   6
ENDBRANCH   4   5
ENDBRANCH   3   4
ENDBRANCH   2   3
ENDBRANCH   1   2
BRANCH   1  12
ATOM     12  C   UNL     1       1.970  51.291  -1.838  1.00  0.00     0.000 C 
BRANCH  12  13
ATOM     13  C   UNL     1       2.452  50.287  -0.776  1.00  0.00    -0.000 C 
BRANCH  13  14
ATOM     14  C   UNL     1       2.090  50.708   0.659  1.00  0.00    -0.000 C 
BRANCH  14  15
ATOM     15  C   UNL     1       3.333  50.837   1.563  1.00  0.00    -0.000 C 
BRANCH  15  16
ATOM     16  C   UNL     1       4.470  51.667   0.936  1.00  0.00    -0.000 C 
BRANCH  16  17
ATOM     17  C   UNL     1       4.401  53.177   1.223  1.00  0.00    -0.000 C 
BRANCH  17  18
ATOM     18  C   UNL     1       4.121  54.007  -0.037  1.00  0.00    -0.003 C 
ATOM     19  C   UNL     1       2.644  54.378  -0.133  1.00  0.00     0.004 C 
ENDBRANCH  17  18
ENDBRANCH  16  17
ENDBRANCH  15  16
ENDBRANCH  14  15
ENDBRANCH  13  14
ENDBRANCH  12  13
ENDBRANCH   1  12
TORSDOF 14
ENDMDL
MODEL 5
REMARK VINA RESULT:    -4.575      2.549      4.895
REMARK INTER + INTRA:         -10.443
REMARK INTER:                  -9.011
REMARK INTRA:                  -1.433
REMARK UNBOUND:                -2.124
REMARK SMILES CCCCCCCCCCCCCC[C@@H](C)C(=O)[O-]
REMARK SMILES IDX 9 1 10 2 11 3 12 4 13 5 14 6 15 7 16 8 17 9 18 10 19 11 8 12
REMARK SMILES IDX 7 13 6 14 5 15 4 16 3 17 2 18 1 19
REMARK H PARENT
REMARK Flexibility Score: inf
ROOT
ATOM      1  C   UNL     1       5.782  52.577  -0.126  1.00  0.00     0.000 C 
ENDROOT
BRANCH   1   2
ATOM      2  C   UNL     1       5.305  51.908   1.175  1.00  0.00     0.000 C 
BRANCH   2   3
ATOM      3  C   UNL     1       3.785  52.013   1.370  1.00  0.00     0.000 C 
BRANCH   3   4
ATOM      4  C   UNL     1       3.112  50.639   1.503  1.00  0.00     0.000 C 
BRANCH   4   5
ATOM      5  C   UNL     1       2.248  50.326   0.276  1.00  0.00     0.001 C 
BRANCH   5   6
ATOM      6  C   UNL     1       1.962  51.599  -0.536  1.00  0.00     0.009 C 
BRANCH   6   7
ATOM      7  C   UNL     1       2.720  51.617  -1.879  1.00  0.00     0.032 C 
ATOM      8  C   UNL     1       2.004  50.743  -2.913  1.00  0.00     0.014 C 
BRANCH   7   9
ATOM      9  C   UNL     1       2.861  53.019  -2.411  1.00  0.00     0.044 C 
ATOM     10  O   UNL     1       2.889  53.995  -1.616  1.00  0.00    -0.550 OA
ATOM     11  O   UNL     1       2.969  53.245  -3.778  1.00  0.00    -0.550 OA
ENDBRANCH   7   9
ENDBRANCH   6   7
ENDBRANCH   5   6
ENDBRANCH   4   5
ENDBRANCH   3   4
ENDBRANCH   2   3
ENDBRANCH   1   2
BRANCH   1  12
ATOM     12  C   UNL     1       7.308  52.768  -0.175  1.00  0.00     0.000 C 
BRANCH  12  13
ATOM     13  C   UNL     1       7.951  52.488  -1.545  1.00  0.00    -0.000 C 
BRANCH  13  14
ATOM     14  C   UNL     1       9.139  51.514  -1.465  1.00  0.00    -0.000 C 
BRANCH  14  15
ATOM     15  C   UNL     1       9.873  51.596  -0.110  1.00  0.00    -0.000 C 
BRANCH  15  16
ATOM     16  C   UNL     1      11.264  52.254  -0.200  1.00  0.00    -0.000 C 
BRANCH  16  17
ATOM     17  C   UNL     1      11.293  53.602  -0.940  1.00  0.00    -0.000 C 
BRANCH  17  18
ATOM     18  C   UNL     1      10.795  54.765  -0.072  1.00  0.00    -0.003 C 
ATOM     19  C   UNL     1       9.864  55.681  -0.863  1.00  0.00     0.004 C 
ENDBRANCH  17  18
ENDBRANCH  16  17
ENDBRANCH  15  16
ENDBRANCH  14  15
ENDBRANCH  13  14
ENDBRANCH  12  13
ENDBRANCH   1  12
TORSDOF 14
ENDMDL
MODEL 6
REMARK VINA RESULT:    -4.543      3.022      4.953
REMARK INTER + INTRA:         -10.385
REMARK INTER:                  -8.895
REMARK INTRA:                  -1.490
REMARK UNBOUND:                -2.124
REMARK SMILES CCCCCCCCCCCCCC[C@@H](C)C(=O)[O-]
REMARK SMILES IDX 9 1 10 2 11 3 12 4 13 5 14 6 15 7 16 8 17 9 18 10 19 11 8 12
REMARK SMILES IDX 7 13 6 14 5 15 4 16 3 17 2 18 1 19
REMARK H PARENT
REMARK Flexibility Score: inf
ROOT
ATOM      1  C   UNL     1       5.423  52.222   1.407  1.00  0.00     0.000 C 
ENDROOT
BRANCH   1   2
ATOM      2  C   UNL     1       3.886  52.189   1.484  1.00  0.00     0.000 C 
BRANCH   2   3
ATOM      3  C   UNL     1       3.334  50.764   1.640  1.00  0.00     0.000 C 
BRANCH   3   4
ATOM      4  C   UNL     1       2.440  50.346   0.463  1.00  0.00     0.000 C 
BRANCH   4   5
ATOM      5  C   UNL     1       2.091  51.551  -0.420  1.00  0.00     0.001 C 
BRANCH   5   6
ATOM      6  C   UNL     1       2.084  51.162  -1.906  1.00  0.00     0.009 C 
BRANCH   6   7
ATOM      7  C   UNL     1       2.614  52.296  -2.808  1.00  0.00     0.032 C 
ATOM      8  C   UNL     1       3.128  53.463  -1.958  1.00  0.00     0.014 C 
BRANCH   7   9
ATOM      9  C   UNL     1       3.712  51.808  -3.715  1.00  0.00     0.044 C 
ATOM     10  O   UNL     1       3.436  51.384  -4.868  1.00  0.00    -0.550 OA
ATOM     11  O   UNL     1       5.036  51.829  -3.292  1.00  0.00    -0.550 OA
ENDBRANCH   7   9
ENDBRANCH   6   7
ENDBRANCH   5   6
ENDBRANCH   4   5
ENDBRANCH   3   4
ENDBRANCH   2   3
ENDBRANCH   1   2
BRANCH   1  12
ATOM     12  C   UNL     1       5.946  52.381  -0.032  1.00  0.00     0.000 C 
BRANCH  12  13
ATOM     13  C   UNL     1       7.436  52.749  -0.141  1.00  0.00    -0.000 C 
BRANCH  13  14
ATOM     14  C   UNL     1       8.079  52.274  -1.455  1.00  0.00    -0.000 C 
BRANCH  14  15
ATOM     15  C   UNL     1       9.359  51.447  -1.217  1.00  0.00    -0.000 C 
BRANCH  15  16
ATOM     16  C   UNL     1      10.660  52.231  -1.480  1.00  0.00    -0.000 C 
BRANCH  16  17
ATOM     17  C   UNL     1      11.531  52.470  -0.235  1.00  0.00    -0.000 C 
BRANCH  17  18
ATOM     18  C   UNL     1      11.103  53.712   0.558  1.00  0.00    -0.003 C 
ATOM     19  C   UNL     1      10.828  54.890  -0.373  1.00  0.00     0.004 C 
ENDBRANCH  17  18
ENDBRANCH  16  17
ENDBRANCH  15  16
ENDBRANCH  14  15
ENDBRANCH  13  14
ENDBRANCH  12  13
ENDBRANCH   1  12
TORSDOF 14
ENDMDL
MODEL 7
REMARK VINA RESULT:    -4.531      1.430      1.956
REMARK INTER + INTRA:         -10.364
REMARK INTER:                  -8.085
REMARK INTRA:                  -2.279
REMARK UNBOUND:                -2.124
REMARK SMILES CCCCCCCCCCCCCC[C@@H](C)C(=O)[O-]
REMARK SMILES IDX 9 1 10 2 11 3 12 4 13 5 14 6 15 7 16 8 17 9 18 10 19 11 8 12
REMARK SMILES IDX 7 13 6 14 5 15 4 16 3 17 2 18 1 19
REMARK H PARENT
REMARK Flexibility Score: inf
ROOT
ATOM      1  C   UNL     1       2.131  50.012   0.623  1.00  0.00     0.000 C 
ENDROOT
BRANCH   1   2
ATOM      2  C   UNL     1       3.018  50.461   1.798  1.00  0.00     0.000 C 
BRANCH   2   3
ATOM      3  C   UNL     1       3.694  51.816   1.543  1.00  0.00     0.000 C 
BRANCH   3   4
ATOM      4  C   UNL     1       5.222  51.699   1.422  1.00  0.00     0.000 C 
BRANCH   4   5
ATOM      5  C   UNL     1       5.730  52.396   0.155  1.00  0.00     0.001 C 
BRANCH   5   6
ATOM      6  C   UNL     1       4.729  53.456  -0.330  1.00  0.00     0.009 C 
BRANCH   6   7
ATOM      7  C   UNL     1       5.342  54.872  -0.347  1.00  0.00     0.032 C 
ATOM      8  C   UNL     1       4.327  55.892  -0.872  1.00  0.00     0.014 C 
BRANCH   7   9
ATOM      9  C   UNL     1       5.811  55.283   1.023  1.00  0.00     0.044 C 
ATOM     10  O   UNL     1       6.981  55.720   1.184  1.00  0.00    -0.550 OA
ATOM     11  O   UNL     1       4.957  55.192   2.116  1.00  0.00    -0.550 OA
ENDBRANCH   7   9
ENDBRANCH   6   7
ENDBRANCH   5   6
ENDBRANCH   4   5
ENDBRANCH   3   4
ENDBRANCH   2   3
ENDBRANCH   1   2
BRANCH   1  12
ATOM     12  C   UNL     1       1.929  51.118  -0.429  1.00  0.00     0.000 C 
BRANCH  12  13
ATOM     13  C   UNL     1       2.219  50.691  -1.879  1.00  0.00    -0.000 C 
BRANCH  13  14
ATOM     14  C   UNL     1       2.672  51.859  -2.771  1.00  0.00    -0.000 C 
BRANCH  14  15
ATOM     15  C   UNL     1       2.956  51.414  -4.221  1.00  0.00    -0.000 C 
BRANCH  15  16
ATOM     16  C   UNL     1       4.392  51.718  -4.690  1.00  0.00    -0.000 C 
BRANCH  16  17
ATOM     17  C   UNL     1       5.446  51.738  -3.571  1.00  0.00    -0.000 C 
BRANCH  17  18
ATOM     18  C   UNL     1       6.226  53.059  -3.514  1.00  0.00    -0.003 C 
ATOM     19  C   UNL     1       5.561  54.126  -4.380  1.00  0.00     0.004 C 
ENDBRANCH  17  18
ENDBRANCH  16  17
ENDBRANCH  15  16
ENDBRANCH  14  15
ENDBRANCH  13  14
ENDBRANCH  12  13
ENDBRANCH   1  12
TORSDOF 14
ENDMDL
MODEL 8
REMARK VINA RESULT:    -4.530      2.222      3.676
REMARK INTER + INTRA:         -10.361
REMARK INTER:                  -8.211
REMARK INTRA:                  -2.151
REMARK UNBOUND:                -2.124
REMARK SMILES CCCCCCCCCCCCCC[C@@H](C)C(=O)[O-]
REMARK SMILES IDX 9 1 10 2 11 3 12 4 13 5 14 6 15 7 16 8 17 9 18 10 19 11 8 12
REMARK SMILES IDX 7 13 6 14 5 15 4 16 3 17 2 18 1 19
REMARK H PARENT
REMARK Flexibility Score: inf
ROOT
ATOM      1  C   UNL     1       3.160  53.262  -1.611  1.00  0.00     0.000 C 
ENDROOT
BRANCH   1   2
ATOM      2  C   UNL     1       2.402  52.588  -0.453  1.00  0.00     0.000 C 
BRANCH   2   3
ATOM      3  C   UNL     1       2.900  51.162  -0.173  1.00  0.00     0.000 C 
BRANCH   3   4
ATOM      4  C   UNL     1       3.602  51.040   1.188  1.00  0.00     0.000 C 
BRANCH   4   5
ATOM      5  C   UNL     1       4.363  52.325   1.533  1.00  0.00     0.001 C 
BRANCH   5   6
ATOM      6  C   UNL     1       5.878  52.073   1.580  1.00  0.00     0.009 C 
BRANCH   6   7
ATOM      7  C   UNL     1       6.691  53.375   1.430  1.00  0.00     0.032 C 
ATOM      8  C   UNL     1       5.782  54.530   0.999  1.00  0.00     0.014 C 
BRANCH   7   9
ATOM      9  C   UNL     1       7.394  53.734   2.712  1.00  0.00     0.044 C 
ATOM     10  O   UNL     1       7.033  54.747   3.367  1.00  0.00    -0.550 OA
ATOM     11  O   UNL     1       8.438  52.948   3.186  1.00  0.00    -0.550 OA
ENDBRANCH   7   9
ENDBRANCH   6   7
ENDBRANCH   5   6
ENDBRANCH   4   5
ENDBRANCH   3   4
ENDBRANCH   2   3
ENDBRANCH   1   2
BRANCH   1  12
ATOM     12  C   UNL     1       4.109  52.297  -2.345  1.00  0.00     0.000 C 
BRANCH  12  13
ATOM     13  C   UNL     1       5.530  52.840  -2.577  1.00  0.00    -0.000 C 
BRANCH  13  14
ATOM     14  C   UNL     1       6.630  51.866  -2.120  1.00  0.00    -0.000 C 
BRANCH  14  15
ATOM     15  C   UNL     1       7.907  52.598  -1.660  1.00  0.00    -0.000 C 
BRANCH  15  16
ATOM     16  C   UNL     1       9.101  51.657  -1.405  1.00  0.00    -0.000 C 
BRANCH  16  17
ATOM     17  C   UNL     1       9.740  51.788  -0.012  1.00  0.00    -0.000 C 
BRANCH  17  18
ATOM     18  C   UNL     1      11.138  52.420  -0.058  1.00  0.00    -0.003 C 
ATOM     19  C   UNL     1      11.661  52.490  -1.490  1.00  0.00     0.004 C 
ENDBRANCH  17  18
ENDBRANCH  16  17
ENDBRANCH  15  16
ENDBRANCH  14  15
ENDBRANCH  13  14
ENDBRANCH  12  13
ENDBRANCH   1  12
TORSDOF 14
ENDMDL
MODEL 9
REMARK VINA RESULT:    -4.486      1.670      4.723
REMARK INTER + INTRA:         -10.282
REMARK INTER:                  -7.876
REMARK INTRA:                  -2.405
REMARK UNBOUND:                -2.124
REMARK SMILES CCCCCCCCCCCCCC[C@@H](C)C(=O)[O-]
REMARK SMILES IDX 9 1 10 2 11 3 12 4 13 5 14 6 15 7 16 8 17 9 18 10 19 11 8 12
REMARK SMILES IDX 7 13 6 14 5 15 4 16 3 17 2 18 1 19
REMARK H PARENT
REMARK Flexibility Score: inf
ROOT
ATOM      1  C   UNL     1       2.123  51.546  -0.940  1.00  0.00     0.000 C 
ENDROOT
BRANCH   1   2
ATOM      2  C   UNL     1       2.254  50.667  -2.197  1.00  0.00     0.000 C 
BRANCH   2   3
ATOM      3  C   UNL     1       2.990  51.380  -3.341  1.00  0.00     0.000 C 
BRANCH   3   4
ATOM      4  C   UNL     1       3.980  52.440  -2.835  1.00  0.00     0.000 C 
BRANCH   4   5
ATOM      5  C   UNL     1       5.429  51.971  -3.013  1.00  0.00     0.001 C 
BRANCH   5   6
ATOM      6  C   UNL     1       6.415  53.128  -2.789  1.00  0.00     0.009 C 
BRANCH   6   7
ATOM      7  C   UNL     1       7.220  52.963  -1.484  1.00  0.00     0.032 C 
ATOM      8  C   UNL     1       8.242  51.831  -1.621  1.00  0.00     0.014 C 
BRANCH   7   9
ATOM      9  C   UNL     1       7.925  54.240  -1.110  1.00  0.00     0.044 C 
ATOM     10  O   UNL     1       8.328  55.024  -2.008  1.00  0.00    -0.550 OA
ATOM     11  O   UNL     1       8.129  54.566   0.226  1.00  0.00    -0.550 OA
ENDBRANCH   7   9
ENDBRANCH   6   7
ENDBRANCH   5   6
ENDBRANCH   4   5
ENDBRANCH   3   4
ENDBRANCH   2   3
ENDBRANCH   1   2
BRANCH   1  12
ATOM     12  C   UNL     1       2.040  50.723   0.358  1.00  0.00     0.000 C 
BRANCH  12  13
ATOM     13  C   UNL     1       3.213  50.931   1.332  1.00  0.00    -0.000 C 
BRANCH  13  14
ATOM     14  C   UNL     1       4.473  51.487   0.646  1.00  0.00    -0.000 C 
BRANCH  14  15
ATOM     15  C   UNL     1       5.199  52.535   1.514  1.00  0.00    -0.000 C 
BRANCH  15  16
ATOM     16  C   UNL     1       4.532  53.924   1.495  1.00  0.00    -0.000 C 
BRANCH  16  17
ATOM     17  C   UNL     1       4.161  54.442   0.095  1.00  0.00    -0.000 C 
BRANCH  17  18
ATOM     18  C   UNL     1       3.201  55.639   0.142  1.00  0.00    -0.003 C 
ATOM     19  C   UNL     1       1.876  55.306  -0.539  1.00  0.00     0.004 C 
ENDBRANCH  17  18
ENDBRANCH  16  17
ENDBRANCH  15  16
ENDBRANCH  14  15
ENDBRANCH  13  14
ENDBRANCH  12  13
ENDBRANCH   1  12
TORSDOF 14
ENDMDL
