MODEL 1
REMARK VINA RESULT:    -2.730      0.000      0.000
REMARK INTER + INTRA:         -13.373
REMARK INTER:                  -7.199
REMARK INTRA:                  -6.173
REMARK UNBOUND:                -6.173
REMARK SMILES CCCCCCCCCCCCCCCCCCCCCCCCCCCCCC(=O)[O-]
REMARK SMILES IDX 16 1 17 2 18 3 19 4 20 5 21 6 22 7 23 8 24 9 25 10 26 11
REMARK SMILES IDX 27 12 28 13 29 14 30 15 31 16 32 17 15 18 14 19 13 20 12 21
REMARK SMILES IDX 11 22 10 23 9 24 8 25 7 26 6 27 5 28 4 29 3 30 2 31 1 32
REMARK H PARENT
REMARK Flexibility Score: inf
ROOT
ATOM      1  C   UNL     1     147.266 162.058 153.689  1.00  0.00     0.000 C 
ENDROOT
BRANCH   1   2
ATOM      2  C   UNL     1     146.281 162.126 152.510  1.00  0.00     0.000 C 
BRANCH   2   3
ATOM      3  C   UNL     1     146.977 162.406 151.169  1.00  0.00     0.000 C 
BRANCH   3   4
ATOM      4  C   UNL     1     148.508 162.275 151.261  1.00  0.00     0.000 C 
BRANCH   4   5
ATOM      5  C   UNL     1     149.248 163.259 150.344  1.00  0.00     0.000 C 
BRANCH   5   6
ATOM      6  C   UNL     1     150.445 163.928 151.041  1.00  0.00     0.000 C 
BRANCH   6   7
ATOM      7  C   UNL     1     150.798 163.276 152.390  1.00  0.00     0.000 C 
BRANCH   7   8
ATOM      8  C   UNL     1     150.424 164.094 153.640  1.00  0.00     0.000 C 
BRANCH   8   9
ATOM      9  C   UNL     1     151.534 164.112 154.705  1.00  0.00     0.000 C 
BRANCH   9  10
ATOM     10  C   UNL     1     151.238 163.176 155.889  1.00  0.00     0.000 C 
BRANCH  10  11
ATOM     11  C   UNL     1     151.236 161.673 155.547  1.00  0.00     0.000 C 
BRANCH  11  12
ATOM     12  C   UNL     1     149.967 160.909 155.966  1.00  0.00     0.000 C 
BRANCH  12  13
ATOM     13  C   UNL     1     149.613 159.734 155.029  1.00  0.00     0.006 C 
BRANCH  13  14
ATOM     14  C   UNL     1     150.315 159.842 153.669  1.00  0.00     0.053 C 
BRANCH  14  15
ATOM     15  C   UNL     1     151.105 158.604 153.383  1.00  0.00     0.041 C 
ATOM     16  O   UNL     1     151.405 157.815 154.317  1.00  0.00    -0.550 OA
ATOM     17  O   UNL     1     151.552 158.348 152.093  1.00  0.00    -0.550 OA
ENDBRANCH  14  15
ENDBRANCH  13  14
ENDBRANCH  12  13
ENDBRANCH  11  12
ENDBRANCH  10  11
ENDBRANCH   9  10
ENDBRANCH   8   9
ENDBRANCH   7   8
ENDBRANCH   6   7
ENDBRANCH   5   6
ENDBRANCH   4   5
ENDBRANCH   3   4
ENDBRANCH   2   3
ENDBRANCH   1   2
BRANCH   1  18
ATOM     18  C   UNL     1     146.583 162.484 154.998  1.00  0.00     0.000 C 
BRANCH  18  19
ATOM     19  C   UNL     1     147.430 163.474 155.816  1.00  0.00     0.000 C 
BRANCH  19  20
ATOM     20  C   UNL     1     147.353 164.911 155.269  1.00  0.00     0.000 C 
BRANCH  20  21
ATOM     21  C   UNL     1     145.961 165.265 154.717  1.00  0.00     0.000 C 
BRANCH  21  22
ATOM     22  C   UNL     1     145.917 165.564 153.205  1.00  0.00     0.000 C 
BRANCH  22  23
ATOM     23  C   UNL     1     147.307 165.808 152.573  1.00  0.00     0.000 C 
BRANCH  23  24
ATOM     24  C   UNL     1     147.248 166.241 151.096  1.00  0.00    -0.000 C 
BRANCH  24  25
ATOM     25  C   UNL     1     147.961 167.581 150.845  1.00  0.00    -0.000 C 
BRANCH  25  26
ATOM     26  C   UNL     1     149.472 167.415 150.586  1.00  0.00    -0.000 C 
BRANCH  26  27
ATOM     27  C   UNL     1     150.358 167.548 151.839  1.00  0.00    -0.000 C 
BRANCH  27  28
ATOM     28  C   UNL     1     151.127 168.883 151.883  1.00  0.00    -0.000 C 
BRANCH  28  29
ATOM     29  C   UNL     1     152.380 168.804 152.782  1.00  0.00    -0.000 C 
BRANCH  29  30
ATOM     30  C   UNL     1     152.626 167.406 153.376  1.00  0.00    -0.000 C 
BRANCH  30  31
ATOM     31  C   UNL     1     153.916 166.756 152.851  1.00  0.00    -0.003 C 
ATOM     32  C   UNL     1     153.618 165.774 151.720  1.00  0.00     0.004 C 
ENDBRANCH  30  31
ENDBRANCH  29  30
ENDBRANCH  28  29
ENDBRANCH  27  28
ENDBRANCH  26  27
ENDBRANCH  25  26
ENDBRANCH  24  25
ENDBRANCH  23  24
ENDBRANCH  22  23
ENDBRANCH  21  22
ENDBRANCH  20  21
ENDBRANCH  19  20
ENDBRANCH  18  19
ENDBRANCH   1  18
TORSDOF 28
ENDMDL
MODEL 2
REMARK VINA RESULT:    -2.609      2.954      6.436
REMARK INTER + INTRA:         -13.053
REMARK INTER:                  -6.850
REMARK INTRA:                  -6.203
REMARK UNBOUND:                -6.173
REMARK SMILES CCCCCCCCCCCCCCCCCCCCCCCCCCCCCC(=O)[O-]
REMARK SMILES IDX 16 1 17 2 18 3 19 4 20 5 21 6 22 7 23 8 24 9 25 10 26 11
REMARK SMILES IDX 27 12 28 13 29 14 30 15 31 16 32 17 15 18 14 19 13 20 12 21
REMARK SMILES IDX 11 22 10 23 9 24 8 25 7 26 6 27 5 28 4 29 3 30 2 31 1 32
REMARK H PARENT
REMARK Flexibility Score: inf
ROOT
ATOM      1  C   UNL     1     148.734 162.881 151.764  1.00  0.00     0.000 C 
ENDROOT
BRANCH   1   2
ATOM      2  C   UNL     1     149.975 161.996 151.562  1.00  0.00     0.000 C 
BRANCH   2   3
ATOM      3  C   UNL     1     149.621 160.562 151.142  1.00  0.00     0.000 C 
BRANCH   3   4
ATOM      4  C   UNL     1     150.764 159.874 150.374  1.00  0.00     0.000 C 
BRANCH   4   5
ATOM      5  C   UNL     1     151.884 160.845 149.971  1.00  0.00     0.000 C 
BRANCH   5   6
ATOM      6  C   UNL     1     151.601 161.545 148.630  1.00  0.00     0.000 C 
BRANCH   6   7
ATOM      7  C   UNL     1     152.028 163.024 148.621  1.00  0.00     0.000 C 
BRANCH   7   8
ATOM      8  C   UNL     1     151.067 163.986 147.897  1.00  0.00     0.000 C 
BRANCH   8   9
ATOM      9  C   UNL     1     149.587 163.608 148.074  1.00  0.00     0.000 C 
BRANCH   9  10
ATOM     10  C   UNL     1     148.717 164.799 148.515  1.00  0.00     0.000 C 
BRANCH  10  11
ATOM     11  C   UNL     1     149.487 166.112 148.761  1.00  0.00     0.000 C 
BRANCH  11  12
ATOM     12  C   UNL     1     148.696 167.203 149.506  1.00  0.00     0.000 C 
BRANCH  12  13
ATOM     13  C   UNL     1     148.887 167.169 151.038  1.00  0.00     0.006 C 
BRANCH  13  14
ATOM     14  C   UNL     1     150.120 166.356 151.454  1.00  0.00     0.053 C 
BRANCH  14  15
ATOM     15  C   UNL     1     150.969 167.135 152.407  1.00  0.00     0.041 C 
ATOM     16  O   UNL     1     151.415 166.586 153.449  1.00  0.00    -0.550 OA
ATOM     17  O   UNL     1     151.226 168.479 152.171  1.00  0.00    -0.550 OA
ENDBRANCH  14  15
ENDBRANCH  13  14
ENDBRANCH  12  13
ENDBRANCH  11  12
ENDBRANCH  10  11
ENDBRANCH   9  10
ENDBRANCH   8   9
ENDBRANCH   7   8
ENDBRANCH   6   7
ENDBRANCH   5   6
ENDBRANCH   4   5
ENDBRANCH   3   4
ENDBRANCH   2   3
ENDBRANCH   1   2
BRANCH   1  18
ATOM     18  C   UNL     1     147.451 162.035 151.754  1.00  0.00     0.000 C 
BRANCH  18  19
ATOM     19  C   UNL     1     146.174 162.892 151.739  1.00  0.00     0.000 C 
BRANCH  19  20
ATOM     20  C   UNL     1     146.388 164.260 151.065  1.00  0.00     0.000 C 
BRANCH  20  21
ATOM     21  C   UNL     1     145.875 165.433 151.920  1.00  0.00     0.000 C 
BRANCH  21  22
ATOM     22  C   UNL     1     146.052 165.256 153.441  1.00  0.00     0.000 C 
BRANCH  22  23
ATOM     23  C   UNL     1     147.500 165.475 153.934  1.00  0.00     0.000 C 
BRANCH  23  24
ATOM     24  C   UNL     1     147.934 164.491 155.037  1.00  0.00    -0.000 C 
BRANCH  24  25
ATOM     25  C   UNL     1     146.762 163.647 155.569  1.00  0.00    -0.000 C 
BRANCH  25  26
ATOM     26  C   UNL     1     147.045 162.133 155.519  1.00  0.00    -0.000 C 
BRANCH  26  27
ATOM     27  C   UNL     1     148.539 161.757 155.531  1.00  0.00    -0.000 C 
BRANCH  27  28
ATOM     28  C   UNL     1     148.832 160.459 154.753  1.00  0.00    -0.000 C 
BRANCH  28  29
ATOM     29  C   UNL     1     150.154 159.798 155.197  1.00  0.00    -0.000 C 
BRANCH  29  30
ATOM     30  C   UNL     1     150.795 158.911 154.114  1.00  0.00    -0.000 C 
BRANCH  30  31
ATOM     31  C   UNL     1     152.300 159.173 153.948  1.00  0.00    -0.003 C 
ATOM     32  C   UNL     1     152.582 160.659 153.744  1.00  0.00     0.004 C 
ENDBRANCH  30  31
ENDBRANCH  29  30
ENDBRANCH  28  29
ENDBRANCH  27  28
ENDBRANCH  26  27
ENDBRANCH  25  26
ENDBRANCH  24  25
ENDBRANCH  23  24
ENDBRANCH  22  23
ENDBRANCH  21  22
ENDBRANCH  20  21
ENDBRANCH  19  20
ENDBRANCH  18  19
ENDBRANCH   1  18
TORSDOF 28
ENDMDL
MODEL 3
REMARK VINA RESULT:    -2.607      1.830      2.407
REMARK INTER + INTRA:         -13.046
REMARK INTER:                  -7.274
REMARK INTRA:                  -5.773
REMARK UNBOUND:                -6.173
REMARK SMILES CCCCCCCCCCCCCCCCCCCCCCCCCCCCCC(=O)[O-]
REMARK SMILES IDX 16 1 17 2 18 3 19 4 20 5 21 6 22 7 23 8 24 9 25 10 26 11
REMARK SMILES IDX 27 12 28 13 29 14 30 15 31 16 32 17 15 18 14 19 13 20 12 21
REMARK SMILES IDX 11 22 10 23 9 24 8 25 7 26 6 27 5 28 4 29 3 30 2 31 1 32
REMARK H PARENT
REMARK Flexibility Score: inf
ROOT
ATOM      1  C   UNL     1     147.369 161.891 154.515  1.00  0.00     0.000 C 
ENDROOT
BRANCH   1   2
ATOM      2  C   UNL     1     146.339 162.381 153.484  1.00  0.00     0.000 C 
BRANCH   2   3
ATOM      3  C   UNL     1     146.688 161.962 152.048  1.00  0.00     0.000 C 
BRANCH   3   4
ATOM      4  C   UNL     1     147.914 161.032 151.988  1.00  0.00     0.000 C 
BRANCH   4   5
ATOM      5  C   UNL     1     149.077 161.628 151.180  1.00  0.00     0.000 C 
BRANCH   5   6
ATOM      6  C   UNL     1     149.025 163.163 151.117  1.00  0.00     0.000 C 
BRANCH   6   7
ATOM      7  C   UNL     1     150.080 163.839 152.012  1.00  0.00     0.000 C 
BRANCH   7   8
ATOM      8  C   UNL     1     151.149 162.900 152.602  1.00  0.00     0.000 C 
BRANCH   8   9
ATOM      9  C   UNL     1     151.200 162.934 154.138  1.00  0.00     0.000 C 
BRANCH   9  10
ATOM     10  C   UNL     1     151.615 161.583 154.749  1.00  0.00     0.000 C 
BRANCH  10  11
ATOM     11  C   UNL     1     151.197 160.344 153.934  1.00  0.00     0.000 C 
BRANCH  11  12
ATOM     12  C   UNL     1     150.076 159.496 154.563  1.00  0.00     0.000 C 
BRANCH  12  13
ATOM     13  C   UNL     1     149.928 159.697 156.087  1.00  0.00     0.006 C 
BRANCH  13  14
ATOM     14  C   UNL     1     150.486 158.514 156.888  1.00  0.00     0.053 C 
BRANCH  14  15
ATOM     15  C   UNL     1     149.478 158.023 157.877  1.00  0.00     0.041 C 
ATOM     16  O   UNL     1     149.783 157.112 158.691  1.00  0.00    -0.550 OA
ATOM     17  O   UNL     1     148.187 158.536 157.867  1.00  0.00    -0.550 OA
ENDBRANCH  14  15
ENDBRANCH  13  14
ENDBRANCH  12  13
ENDBRANCH  11  12
ENDBRANCH  10  11
ENDBRANCH   9  10
ENDBRANCH   8   9
ENDBRANCH   7   8
ENDBRANCH   6   7
ENDBRANCH   5   6
ENDBRANCH   4   5
ENDBRANCH   3   4
ENDBRANCH   2   3
ENDBRANCH   1   2
BRANCH   1  18
ATOM     18  C   UNL     1     147.624 162.961 155.587  1.00  0.00     0.000 C 
BRANCH  18  19
ATOM     19  C   UNL     1     148.199 164.263 155.002  1.00  0.00     0.000 C 
BRANCH  19  20
ATOM     20  C   UNL     1     147.470 165.516 155.520  1.00  0.00     0.000 C 
BRANCH  20  21
ATOM     21  C   UNL     1     146.667 166.236 154.422  1.00  0.00     0.000 C 
BRANCH  21  22
ATOM     22  C   UNL     1     147.153 165.973 152.982  1.00  0.00     0.000 C 
BRANCH  22  23
ATOM     23  C   UNL     1     146.041 165.486 152.024  1.00  0.00     0.000 C 
BRANCH  23  24
ATOM     24  C   UNL     1     146.303 165.833 150.546  1.00  0.00    -0.000 C 
BRANCH  24  25
ATOM     25  C   UNL     1     147.488 166.798 150.367  1.00  0.00    -0.000 C 
BRANCH  25  26
ATOM     26  C   UNL     1     148.525 166.289 149.346  1.00  0.00    -0.000 C 
BRANCH  26  27
ATOM     27  C   UNL     1     149.939 166.875 149.519  1.00  0.00    -0.000 C 
BRANCH  27  28
ATOM     28  C   UNL     1     149.922 168.353 149.954  1.00  0.00    -0.000 C 
BRANCH  28  29
ATOM     29  C   UNL     1     150.707 168.586 151.262  1.00  0.00    -0.000 C 
BRANCH  29  30
ATOM     30  C   UNL     1     150.637 167.400 152.242  1.00  0.00    -0.000 C 
BRANCH  30  31
ATOM     31  C   UNL     1     151.954 167.181 153.002  1.00  0.00    -0.003 C 
ATOM     32  C   UNL     1     152.613 168.511 153.359  1.00  0.00     0.004 C 
ENDBRANCH  30  31
ENDBRANCH  29  30
ENDBRANCH  28  29
ENDBRANCH  27  28
ENDBRANCH  26  27
ENDBRANCH  25  26
ENDBRANCH  24  25
ENDBRANCH  23  24
ENDBRANCH  22  23
ENDBRANCH  21  22
ENDBRANCH  20  21
ENDBRANCH  19  20
ENDBRANCH  18  19
ENDBRANCH   1  18
TORSDOF 28
ENDMDL
MODEL 4
REMARK VINA RESULT:    -2.559      1.869      4.992
REMARK INTER + INTRA:         -12.922
REMARK INTER:                  -6.981
REMARK INTRA:                  -5.940
REMARK UNBOUND:                -6.173
REMARK SMILES CCCCCCCCCCCCCCCCCCCCCCCCCCCCCC(=O)[O-]
REMARK SMILES IDX 16 1 17 2 18 3 19 4 20 5 21 6 22 7 23 8 24 9 25 10 26 11
REMARK SMILES IDX 27 12 28 13 29 14 30 15 31 16 32 17 15 18 14 19 13 20 12 21
REMARK SMILES IDX 11 22 10 23 9 24 8 25 7 26 6 27 5 28 4 29 3 30 2 31 1 32
REMARK H PARENT
REMARK Flexibility Score: inf
ROOT
ATOM      1  C   UNL     1     150.014 167.696 151.129  1.00  0.00     0.000 C 
ENDROOT
BRANCH   1   2
ATOM      2  C   UNL     1     150.239 166.636 152.220  1.00  0.00     0.000 C 
BRANCH   2   3
ATOM      3  C   UNL     1     150.834 165.332 151.668  1.00  0.00     0.000 C 
BRANCH   3   4
ATOM      4  C   UNL     1     149.792 164.203 151.571  1.00  0.00     0.000 C 
BRANCH   4   5
ATOM      5  C   UNL     1     149.621 163.669 150.141  1.00  0.00     0.000 C 
BRANCH   5   6
ATOM      6  C   UNL     1     150.703 162.643 149.763  1.00  0.00     0.000 C 
BRANCH   6   7
ATOM      7  C   UNL     1     150.716 161.411 150.686  1.00  0.00     0.000 C 
BRANCH   7   8
ATOM      8  C   UNL     1     151.224 160.107 150.044  1.00  0.00     0.000 C 
BRANCH   8   9
ATOM      9  C   UNL     1     151.470 158.986 151.068  1.00  0.00     0.000 C 
BRANCH   9  10
ATOM     10  C   UNL     1     151.046 159.378 152.494  1.00  0.00     0.000 C 
BRANCH  10  11
ATOM     11  C   UNL     1     152.207 159.571 153.489  1.00  0.00     0.000 C 
BRANCH  11  12
ATOM     12  C   UNL     1     151.782 159.882 154.936  1.00  0.00     0.000 C 
BRANCH  12  13
ATOM     13  C   UNL     1     150.325 159.483 155.253  1.00  0.00     0.006 C 
BRANCH  13  14
ATOM     14  C   UNL     1     149.992 159.627 156.744  1.00  0.00     0.053 C 
BRANCH  14  15
ATOM     15  C   UNL     1     150.094 158.307 157.438  1.00  0.00     0.041 C 
ATOM     16  O   UNL     1     149.525 158.130 158.548  1.00  0.00    -0.550 OA
ATOM     17  O   UNL     1     150.859 157.287 156.885  1.00  0.00    -0.550 OA
ENDBRANCH  14  15
ENDBRANCH  13  14
ENDBRANCH  12  13
ENDBRANCH  11  12
ENDBRANCH  10  11
ENDBRANCH   9  10
ENDBRANCH   8   9
ENDBRANCH   7   8
ENDBRANCH   6   7
ENDBRANCH   5   6
ENDBRANCH   4   5
ENDBRANCH   3   4
ENDBRANCH   2   3
ENDBRANCH   1   2
BRANCH   1  18
ATOM     18  C   UNL     1     148.514 167.919 150.882  1.00  0.00     0.000 C 
BRANCH  18  19
ATOM     19  C   UNL     1     147.940 166.972 149.814  1.00  0.00     0.000 C 
BRANCH  19  20
ATOM     20  C   UNL     1     146.681 166.230 150.297  1.00  0.00     0.000 C 
BRANCH  20  21
ATOM     21  C   UNL     1     146.665 166.009 151.819  1.00  0.00     0.000 C 
BRANCH  21  22
ATOM     22  C   UNL     1     145.995 164.699 152.280  1.00  0.00     0.000 C 
BRANCH  22  23
ATOM     23  C   UNL     1     146.133 163.536 151.272  1.00  0.00     0.000 C 
BRANCH  23  24
ATOM     24  C   UNL     1     145.992 162.141 151.913  1.00  0.00    -0.000 C 
BRANCH  24  25
ATOM     25  C   UNL     1     147.312 161.348 151.895  1.00  0.00    -0.000 C 
BRANCH  25  26
ATOM     26  C   UNL     1     148.014 161.328 153.267  1.00  0.00    -0.000 C 
BRANCH  26  27
ATOM     27  C   UNL     1     147.118 161.723 154.456  1.00  0.00    -0.000 C 
BRANCH  27  28
ATOM     28  C   UNL     1     147.891 162.461 155.565  1.00  0.00    -0.000 C 
BRANCH  28  29
ATOM     29  C   UNL     1     148.034 163.970 155.273  1.00  0.00    -0.000 C 
BRANCH  29  30
ATOM     30  C   UNL     1     149.495 164.451 155.211  1.00  0.00    -0.000 C 
BRANCH  30  31
ATOM     31  C   UNL     1     150.495 163.292 155.073  1.00  0.00    -0.003 C 
ATOM     32  C   UNL     1     151.746 163.539 155.913  1.00  0.00     0.004 C 
ENDBRANCH  30  31
ENDBRANCH  29  30
ENDBRANCH  28  29
ENDBRANCH  27  28
ENDBRANCH  26  27
ENDBRANCH  25  26
ENDBRANCH  24  25
ENDBRANCH  23  24
ENDBRANCH  22  23
ENDBRANCH  21  22
ENDBRANCH  20  21
ENDBRANCH  19  20
ENDBRANCH  18  19
ENDBRANCH   1  18
TORSDOF 28
ENDMDL
MODEL 5
REMARK VINA RESULT:    -2.559      2.677      5.515
REMARK INTER + INTRA:         -12.920
REMARK INTER:                  -7.083
REMARK INTRA:                  -5.838
REMARK UNBOUND:                -6.173
REMARK SMILES CCCCCCCCCCCCCCCCCCCCCCCCCCCCCC(=O)[O-]
REMARK SMILES IDX 16 1 17 2 18 3 19 4 20 5 21 6 22 7 23 8 24 9 25 10 26 11
REMARK SMILES IDX 27 12 28 13 29 14 30 15 31 16 32 17 15 18 14 19 13 20 12 21
REMARK SMILES IDX 11 22 10 23 9 24 8 25 7 26 6 27 5 28 4 29 3 30 2 31 1 32
REMARK H PARENT
REMARK Flexibility Score: inf
ROOT
ATOM      1  C   UNL     1     148.556 163.158 155.382  1.00  0.00     0.000 C 
ENDROOT
BRANCH   1   2
ATOM      2  C   UNL     1     147.175 162.869 155.993  1.00  0.00     0.000 C 
BRANCH   2   3
ATOM      3  C   UNL     1     146.983 161.388 156.356  1.00  0.00     0.000 C 
BRANCH   3   4
ATOM      4  C   UNL     1     148.016 160.475 155.670  1.00  0.00     0.000 C 
BRANCH   4   5
ATOM      5  C   UNL     1     148.780 159.586 156.663  1.00  0.00     0.000 C 
BRANCH   5   6
ATOM      6  C   UNL     1     150.075 159.013 156.064  1.00  0.00     0.000 C 
BRANCH   6   7
ATOM      7  C   UNL     1     150.283 159.406 154.590  1.00  0.00     0.000 C 
BRANCH   7   8
ATOM      8  C   UNL     1     151.480 160.334 154.314  1.00  0.00     0.000 C 
BRANCH   8   9
ATOM      9  C   UNL     1     152.687 160.051 155.224  1.00  0.00     0.000 C 
BRANCH   9  10
ATOM     10  C   UNL     1     153.075 161.261 156.092  1.00  0.00     0.000 C 
BRANCH  10  11
ATOM     11  C   UNL     1     151.926 162.245 156.389  1.00  0.00     0.000 C 
BRANCH  11  12
ATOM     12  C   UNL     1     152.177 163.696 155.941  1.00  0.00     0.000 C 
BRANCH  12  13
ATOM     13  C   UNL     1     152.886 163.809 154.574  1.00  0.00     0.006 C 
BRANCH  13  14
ATOM     14  C   UNL     1     151.895 163.805 153.402  1.00  0.00     0.053 C 
BRANCH  14  15
ATOM     15  C   UNL     1     151.853 165.146 152.741  1.00  0.00     0.041 C 
ATOM     16  O   UNL     1     151.460 166.155 153.382  1.00  0.00    -0.550 OA
ATOM     17  O   UNL     1     152.202 165.271 151.402  1.00  0.00    -0.550 OA
ENDBRANCH  14  15
ENDBRANCH  13  14
ENDBRANCH  12  13
ENDBRANCH  11  12
ENDBRANCH  10  11
ENDBRANCH   9  10
ENDBRANCH   8   9
ENDBRANCH   7   8
ENDBRANCH   6   7
ENDBRANCH   5   6
ENDBRANCH   4   5
ENDBRANCH   3   4
ENDBRANCH   2   3
ENDBRANCH   1   2
BRANCH   1  18
ATOM     18  C   UNL     1     148.652 164.617 154.910  1.00  0.00     0.000 C 
BRANCH  18  19
ATOM     19  C   UNL     1     147.516 165.496 155.461  1.00  0.00     0.000 C 
BRANCH  19  20
ATOM     20  C   UNL     1     146.645 166.104 154.346  1.00  0.00     0.000 C 
BRANCH  20  21
ATOM     21  C   UNL     1     147.006 165.570 152.949  1.00  0.00     0.000 C 
BRANCH  21  22
ATOM     22  C   UNL     1     145.876 164.801 152.234  1.00  0.00     0.000 C 
BRANCH  22  23
ATOM     23  C   UNL     1     146.360 163.556 151.456  1.00  0.00     0.000 C 
BRANCH  23  24
ATOM     24  C   UNL     1     146.410 162.274 152.309  1.00  0.00    -0.000 C 
BRANCH  24  25
ATOM     25  C   UNL     1     147.535 161.319 151.874  1.00  0.00    -0.000 C 
BRANCH  25  26
ATOM     26  C   UNL     1     148.940 161.926 152.060  1.00  0.00    -0.000 C 
BRANCH  26  27
ATOM     27  C   UNL     1     149.595 162.442 150.765  1.00  0.00    -0.000 C 
BRANCH  27  28
ATOM     28  C   UNL     1     150.819 161.606 150.344  1.00  0.00    -0.000 C 
BRANCH  28  29
ATOM     29  C   UNL     1     150.717 160.141 150.819  1.00  0.00    -0.000 C 
BRANCH  29  30
ATOM     30  C   UNL     1     151.137 159.116 149.751  1.00  0.00    -0.000 C 
BRANCH  30  31
ATOM     31  C   UNL     1     152.290 158.213 150.216  1.00  0.00    -0.003 C 
ATOM     32  C   UNL     1     152.156 157.866 151.697  1.00  0.00     0.004 C 
ENDBRANCH  30  31
ENDBRANCH  29  30
ENDBRANCH  28  29
ENDBRANCH  27  28
ENDBRANCH  26  27
ENDBRANCH  25  26
ENDBRANCH  24  25
ENDBRANCH  23  24
ENDBRANCH  22  23
ENDBRANCH  21  22
ENDBRANCH  20  21
ENDBRANCH  19  20
ENDBRANCH  18  19
ENDBRANCH   1  18
TORSDOF 28
ENDMDL
MODEL 6
REMARK VINA RESULT:    -2.559      2.609      4.393
REMARK INTER + INTRA:         -12.920
REMARK INTER:                  -7.123
REMARK INTRA:                  -5.797
REMARK UNBOUND:                -6.173
REMARK SMILES CCCCCCCCCCCCCCCCCCCCCCCCCCCCCC(=O)[O-]
REMARK SMILES IDX 16 1 17 2 18 3 19 4 20 5 21 6 22 7 23 8 24 9 25 10 26 11
REMARK SMILES IDX 27 12 28 13 29 14 30 15 31 16 32 17 15 18 14 19 13 20 12 21
REMARK SMILES IDX 11 22 10 23 9 24 8 25 7 26 6 27 5 28 4 29 3 30 2 31 1 32
REMARK H PARENT
REMARK Flexibility Score: inf
ROOT
ATOM      1  C   UNL     1     147.047 163.908 156.023  1.00  0.00     0.000 C 
ENDROOT
BRANCH   1   2
ATOM      2  C   UNL     1     146.086 165.108 156.001  1.00  0.00     0.000 C 
BRANCH   2   3
ATOM      3  C   UNL     1     146.632 166.292 155.187  1.00  0.00     0.000 C 
BRANCH   3   4
ATOM      4  C   UNL     1     146.814 165.948 153.698  1.00  0.00     0.000 C 
BRANCH   4   5
ATOM      5  C   UNL     1     148.231 166.247 153.185  1.00  0.00     0.000 C 
BRANCH   5   6
ATOM      6  C   UNL     1     149.127 164.997 153.167  1.00  0.00     0.000 C 
BRANCH   6   7
ATOM      7  C   UNL     1     150.307 165.086 154.151  1.00  0.00     0.000 C 
BRANCH   7   8
ATOM      8  C   UNL     1     150.579 163.815 154.978  1.00  0.00     0.000 C 
BRANCH   8   9
ATOM      9  C   UNL     1     151.289 162.713 154.174  1.00  0.00     0.000 C 
BRANCH   9  10
ATOM     10  C   UNL     1     151.587 161.460 155.018  1.00  0.00     0.000 C 
BRANCH  10  11
ATOM     11  C   UNL     1     151.135 160.128 154.387  1.00  0.00     0.000 C 
BRANCH  11  12
ATOM     12  C   UNL     1     150.016 159.393 155.147  1.00  0.00     0.000 C 
BRANCH  12  13
ATOM     13  C   UNL     1     150.013 159.670 156.666  1.00  0.00     0.006 C 
BRANCH  13  14
ATOM     14  C   UNL     1     149.703 158.413 157.487  1.00  0.00     0.053 C 
BRANCH  14  15
ATOM     15  C   UNL     1     148.332 158.494 158.081  1.00  0.00     0.041 C 
ATOM     16  O   UNL     1     147.914 157.576 158.835  1.00  0.00    -0.550 OA
ATOM     17  O   UNL     1     147.498 159.558 157.760  1.00  0.00    -0.550 OA
ENDBRANCH  14  15
ENDBRANCH  13  14
ENDBRANCH  12  13
ENDBRANCH  11  12
ENDBRANCH  10  11
ENDBRANCH   9  10
ENDBRANCH   8   9
ENDBRANCH   7   8
ENDBRANCH   6   7
ENDBRANCH   5   6
ENDBRANCH   4   5
ENDBRANCH   3   4
ENDBRANCH   2   3
ENDBRANCH   1   2
BRANCH   1  18
ATOM     18  C   UNL     1     146.364 162.649 155.469  1.00  0.00     0.000 C 
BRANCH  18  19
ATOM     19  C   UNL     1     147.366 161.629 154.901  1.00  0.00     0.000 C 
BRANCH  19  20
ATOM     20  C   UNL     1     147.696 161.887 153.420  1.00  0.00     0.000 C 
BRANCH  20  21
ATOM     21  C   UNL     1     146.457 161.815 152.511  1.00  0.00     0.000 C 
BRANCH  21  22
ATOM     22  C   UNL     1     146.633 162.456 151.119  1.00  0.00     0.000 C 
BRANCH  22  23
ATOM     23  C   UNL     1     146.263 163.956 151.068  1.00  0.00     0.000 C 
BRANCH  23  24
ATOM     24  C   UNL     1     147.048 164.752 150.007  1.00  0.00    -0.000 C 
BRANCH  24  25
ATOM     25  C   UNL     1     148.195 163.935 149.387  1.00  0.00    -0.000 C 
BRANCH  25  26
ATOM     26  C   UNL     1     149.584 164.538 149.679  1.00  0.00    -0.000 C 
BRANCH  26  27
ATOM     27  C   UNL     1     150.627 163.530 150.199  1.00  0.00    -0.000 C 
BRANCH  27  28
ATOM     28  C   UNL     1     149.991 162.213 150.684  1.00  0.00    -0.000 C 
BRANCH  28  29
ATOM     29  C   UNL     1     150.960 161.018 150.562  1.00  0.00    -0.000 C 
BRANCH  29  30
ATOM     30  C   UNL     1     152.431 161.388 150.821  1.00  0.00    -0.000 C 
BRANCH  30  31
ATOM     31  C   UNL     1     153.267 160.194 151.307  1.00  0.00    -0.003 C 
ATOM     32  C   UNL     1     152.457 158.901 151.267  1.00  0.00     0.004 C 
ENDBRANCH  30  31
ENDBRANCH  29  30
ENDBRANCH  28  29
ENDBRANCH  27  28
ENDBRANCH  26  27
ENDBRANCH  25  26
ENDBRANCH  24  25
ENDBRANCH  23  24
ENDBRANCH  22  23
ENDBRANCH  21  22
ENDBRANCH  20  21
ENDBRANCH  19  20
ENDBRANCH  18  19
ENDBRANCH   1  18
TORSDOF 28
ENDMDL
MODEL 7
REMARK VINA RESULT:    -2.540      3.616      6.812
REMARK INTER + INTRA:         -12.871
REMARK INTER:                  -7.234
REMARK INTRA:                  -5.638
REMARK UNBOUND:                -6.173
REMARK SMILES CCCCCCCCCCCCCCCCCCCCCCCCCCCCCC(=O)[O-]
REMARK SMILES IDX 16 1 17 2 18 3 19 4 20 5 21 6 22 7 23 8 24 9 25 10 26 11
REMARK SMILES IDX 27 12 28 13 29 14 30 15 31 16 32 17 15 18 14 19 13 20 12 21
REMARK SMILES IDX 11 22 10 23 9 24 8 25 7 26 6 27 5 28 4 29 3 30 2 31 1 32
REMARK H PARENT
REMARK Flexibility Score: inf
ROOT
ATOM      1  C   UNL     1     151.719 160.745 153.591  1.00  0.00     0.000 C 
ENDROOT
BRANCH   1   2
ATOM      2  C   UNL     1     152.693 160.235 152.517  1.00  0.00     0.000 C 
BRANCH   2   3
ATOM      3  C   UNL     1     152.383 158.799 152.068  1.00  0.00     0.000 C 
BRANCH   3   4
ATOM      4  C   UNL     1     152.522 158.614 150.546  1.00  0.00     0.000 C 
BRANCH   4   5
ATOM      5  C   UNL     1     151.378 159.269 149.757  1.00  0.00     0.000 C 
BRANCH   5   6
ATOM      6  C   UNL     1     151.870 160.392 148.829  1.00  0.00     0.000 C 
BRANCH   6   7
ATOM      7  C   UNL     1     151.495 161.798 149.333  1.00  0.00     0.000 C 
BRANCH   7   8
ATOM      8  C   UNL     1     150.446 162.547 148.489  1.00  0.00     0.000 C 
BRANCH   8   9
ATOM      9  C   UNL     1     150.096 163.934 149.053  1.00  0.00     0.000 C 
BRANCH   9  10
ATOM     10  C   UNL     1     150.707 164.183 150.443  1.00  0.00     0.000 C 
BRANCH  10  11
ATOM     11  C   UNL     1     149.870 165.085 151.371  1.00  0.00     0.000 C 
BRANCH  11  12
ATOM     12  C   UNL     1     150.164 166.592 151.258  1.00  0.00     0.000 C 
BRANCH  12  13
ATOM     13  C   UNL     1     148.896 167.463 151.131  1.00  0.00     0.006 C 
BRANCH  13  14
ATOM     14  C   UNL     1     148.165 167.237 149.801  1.00  0.00     0.053 C 
BRANCH  14  15
ATOM     15  C   UNL     1     148.184 168.480 148.970  1.00  0.00     0.041 C 
ATOM     16  O   UNL     1     149.279 168.956 148.569  1.00  0.00    -0.550 OA
ATOM     17  O   UNL     1     146.996 169.141 148.679  1.00  0.00    -0.550 OA
ENDBRANCH  14  15
ENDBRANCH  13  14
ENDBRANCH  12  13
ENDBRANCH  11  12
ENDBRANCH  10  11
ENDBRANCH   9  10
ENDBRANCH   8   9
ENDBRANCH   7   8
ENDBRANCH   6   7
ENDBRANCH   5   6
ENDBRANCH   4   5
ENDBRANCH   3   4
ENDBRANCH   2   3
ENDBRANCH   1   2
BRANCH   1  18
ATOM     18  C   UNL     1     150.604 161.595 152.961  1.00  0.00     0.000 C 
BRANCH  18  19
ATOM     19  C   UNL     1     149.396 160.755 152.514  1.00  0.00     0.000 C 
BRANCH  19  20
ATOM     20  C   UNL     1     148.488 161.506 151.523  1.00  0.00     0.000 C 
BRANCH  20  21
ATOM     21  C   UNL     1     146.991 161.259 151.780  1.00  0.00     0.000 C 
BRANCH  21  22
ATOM     22  C   UNL     1     146.161 162.527 152.061  1.00  0.00     0.000 C 
BRANCH  22  23
ATOM     23  C   UNL     1     146.523 163.727 151.156  1.00  0.00     0.000 C 
BRANCH  23  24
ATOM     24  C   UNL     1     145.940 165.068 151.643  1.00  0.00    -0.000 C 
BRANCH  24  25
ATOM     25  C   UNL     1     145.875 165.160 153.178  1.00  0.00    -0.000 C 
BRANCH  25  26
ATOM     26  C   UNL     1     147.168 165.726 153.798  1.00  0.00    -0.000 C 
BRANCH  26  27
ATOM     27  C   UNL     1     147.405 165.328 155.267  1.00  0.00    -0.000 C 
BRANCH  27  28
ATOM     28  C   UNL     1     146.830 163.939 155.607  1.00  0.00    -0.000 C 
BRANCH  28  29
ATOM     29  C   UNL     1     147.920 162.846 155.628  1.00  0.00    -0.000 C 
BRANCH  29  30
ATOM     30  C   UNL     1     147.371 161.424 155.407  1.00  0.00    -0.000 C 
BRANCH  30  31
ATOM     31  C   UNL     1     147.850 160.431 156.477  1.00  0.00    -0.003 C 
ATOM     32  C   UNL     1     149.215 159.850 156.118  1.00  0.00     0.004 C 
ENDBRANCH  30  31
ENDBRANCH  29  30
ENDBRANCH  28  29
ENDBRANCH  27  28
ENDBRANCH  26  27
ENDBRANCH  25  26
ENDBRANCH  24  25
ENDBRANCH  23  24
ENDBRANCH  22  23
ENDBRANCH  21  22
ENDBRANCH  20  21
ENDBRANCH  19  20
ENDBRANCH  18  19
ENDBRANCH   1  18
TORSDOF 28
ENDMDL
MODEL 8
REMARK VINA RESULT:    -2.533      3.025      7.419
REMARK INTER + INTRA:         -12.854
REMARK INTER:                  -6.453
REMARK INTRA:                  -6.400
REMARK UNBOUND:                -6.173
REMARK SMILES CCCCCCCCCCCCCCCCCCCCCCCCCCCCCC(=O)[O-]
REMARK SMILES IDX 16 1 17 2 18 3 19 4 20 5 21 6 22 7 23 8 24 9 25 10 26 11
REMARK SMILES IDX 27 12 28 13 29 14 30 15 31 16 32 17 15 18 14 19 13 20 12 21
REMARK SMILES IDX 11 22 10 23 9 24 8 25 7 26 6 27 5 28 4 29 3 30 2 31 1 32
REMARK H PARENT
REMARK Flexibility Score: inf
ROOT
ATOM      1  C   UNL     1     151.121 161.121 151.139  1.00  0.00     0.000 C 
ENDROOT
BRANCH   1   2
ATOM      2  C   UNL     1     152.092 161.922 152.022  1.00  0.00     0.000 C 
BRANCH   2   3
ATOM      3  C   UNL     1     152.360 161.247 153.376  1.00  0.00     0.000 C 
BRANCH   3   4
ATOM      4  C   UNL     1     152.199 162.218 154.560  1.00  0.00     0.000 C 
BRANCH   4   5
ATOM      5  C   UNL     1     151.187 163.340 154.280  1.00  0.00     0.000 C 
BRANCH   5   6
ATOM      6  C   UNL     1     150.411 163.760 155.539  1.00  0.00     0.000 C 
BRANCH   6   7
ATOM      7  C   UNL     1     149.032 164.367 155.223  1.00  0.00     0.000 C 
BRANCH   7   8
ATOM      8  C   UNL     1     148.783 164.712 153.742  1.00  0.00     0.000 C 
BRANCH   8   9
ATOM      9  C   UNL     1     147.899 165.956 153.552  1.00  0.00     0.000 C 
BRANCH   9  10
ATOM     10  C   UNL     1     146.563 165.636 152.860  1.00  0.00     0.000 C 
BRANCH  10  11
ATOM     11  C   UNL     1     146.242 164.134 152.725  1.00  0.00     0.000 C 
BRANCH  11  12
ATOM     12  C   UNL     1     146.133 163.617 151.279  1.00  0.00     0.000 C 
BRANCH  12  13
ATOM     13  C   UNL     1     146.854 164.509 150.246  1.00  0.00     0.006 C 
BRANCH  13  14
ATOM     14  C   UNL     1     148.250 163.979 149.892  1.00  0.00     0.053 C 
BRANCH  14  15
ATOM     15  C   UNL     1     149.293 165.017 150.160  1.00  0.00     0.041 C 
ATOM     16  O   UNL     1     148.991 166.240 150.132  1.00  0.00    -0.550 OA
ATOM     17  O   UNL     1     150.609 164.636 150.392  1.00  0.00    -0.550 OA
ENDBRANCH  14  15
ENDBRANCH  13  14
ENDBRANCH  12  13
ENDBRANCH  11  12
ENDBRANCH  10  11
ENDBRANCH   9  10
ENDBRANCH   8   9
ENDBRANCH   7   8
ENDBRANCH   6   7
ENDBRANCH   5   6
ENDBRANCH   4   5
ENDBRANCH   3   4
ENDBRANCH   2   3
ENDBRANCH   1   2
BRANCH   1  18
ATOM     18  C   UNL     1     150.087 160.376 151.998  1.00  0.00     0.000 C 
BRANCH  18  19
ATOM     19  C   UNL     1     148.745 161.121 152.094  1.00  0.00     0.000 C 
BRANCH  19  20
ATOM     20  C   UNL     1     148.180 161.141 153.526  1.00  0.00     0.000 C 
BRANCH  20  21
ATOM     21  C   UNL     1     149.024 160.314 154.512  1.00  0.00     0.000 C 
BRANCH  21  22
ATOM     22  C   UNL     1     148.704 160.551 156.002  1.00  0.00     0.000 C 
BRANCH  22  23
ATOM     23  C   UNL     1     149.449 159.597 156.963  1.00  0.00     0.000 C 
BRANCH  23  24
ATOM     24  C   UNL     1     150.917 159.994 157.213  1.00  0.00    -0.000 C 
BRANCH  24  25
ATOM     25  C   UNL     1     151.909 159.085 156.465  1.00  0.00    -0.000 C 
BRANCH  25  26
ATOM     26  C   UNL     1     151.245 157.813 155.901  1.00  0.00    -0.000 C 
BRANCH  26  27
ATOM     27  C   UNL     1     152.120 157.013 154.918  1.00  0.00    -0.000 C 
BRANCH  27  28
ATOM     28  C   UNL     1     151.971 157.494 153.461  1.00  0.00    -0.000 C 
BRANCH  28  29
ATOM     29  C   UNL     1     153.337 157.762 152.793  1.00  0.00    -0.000 C 
BRANCH  29  30
ATOM     30  C   UNL     1     153.231 158.148 151.307  1.00  0.00    -0.000 C 
BRANCH  30  31
ATOM     31  C   UNL     1     152.132 157.367 150.569  1.00  0.00    -0.003 C 
ATOM     32  C   UNL     1     151.848 157.977 149.199  1.00  0.00     0.004 C 
ENDBRANCH  30  31
ENDBRANCH  29  30
ENDBRANCH  28  29
ENDBRANCH  27  28
ENDBRANCH  26  27
ENDBRANCH  25  26
ENDBRANCH  24  25
ENDBRANCH  23  24
ENDBRANCH  22  23
ENDBRANCH  21  22
ENDBRANCH  20  21
ENDBRANCH  19  20
ENDBRANCH  18  19
ENDBRANCH   1  18
TORSDOF 28
ENDMDL
MODEL 9
REMARK VINA RESULT:    -2.494      2.285      5.893
REMARK INTER + INTRA:         -12.749
REMARK INTER:                  -7.394
REMARK INTRA:                  -5.355
REMARK UNBOUND:                -6.173
REMARK SMILES CCCCCCCCCCCCCCCCCCCCCCCCCCCCCC(=O)[O-]
REMARK SMILES IDX 16 1 17 2 18 3 19 4 20 5 21 6 22 7 23 8 24 9 25 10 26 11
REMARK SMILES IDX 27 12 28 13 29 14 30 15 31 16 32 17 15 18 14 19 13 20 12 21
REMARK SMILES IDX 11 22 10 23 9 24 8 25 7 26 6 27 5 28 4 29 3 30 2 31 1 32
REMARK H PARENT
REMARK Flexibility Score: inf
ROOT
ATOM      1  C   UNL     1     150.844 161.464 152.294  1.00  0.00     0.000 C 
ENDROOT
BRANCH   1   2
ATOM      2  C   UNL     1     151.241 162.343 153.492  1.00  0.00     0.000 C 
BRANCH   2   3
ATOM      3  C   UNL     1     150.182 163.404 153.827  1.00  0.00     0.000 C 
BRANCH   3   4
ATOM      4  C   UNL     1     150.806 164.760 154.204  1.00  0.00     0.000 C 
BRANCH   4   5
ATOM      5  C   UNL     1     150.397 165.892 153.249  1.00  0.00     0.000 C 
BRANCH   5   6
ATOM      6  C   UNL     1     151.162 165.842 151.916  1.00  0.00     0.000 C 
BRANCH   6   7
ATOM      7  C   UNL     1     150.252 165.543 150.710  1.00  0.00     0.000 C 
BRANCH   7   8
ATOM      8  C   UNL     1     150.440 164.156 150.067  1.00  0.00     0.000 C 
BRANCH   8   9
ATOM      9  C   UNL     1     149.560 163.943 148.824  1.00  0.00     0.000 C 
BRANCH   9  10
ATOM     10  C   UNL     1     150.293 163.193 147.697  1.00  0.00     0.000 C 
BRANCH  10  11
ATOM     11  C   UNL     1     151.493 162.342 148.154  1.00  0.00     0.000 C 
BRANCH  11  12
ATOM     12  C   UNL     1     151.533 160.911 147.588  1.00  0.00     0.000 C 
BRANCH  12  13
ATOM     13  C   UNL     1     152.454 159.957 148.378  1.00  0.00     0.006 C 
BRANCH  13  14
ATOM     14  C   UNL     1     151.690 159.159 149.443  1.00  0.00     0.053 C 
BRANCH  14  15
ATOM     15  C   UNL     1     151.986 157.698 149.322  1.00  0.00     0.041 C 
ATOM     16  O   UNL     1     151.935 157.134 148.197  1.00  0.00    -0.550 OA
ATOM     17  O   UNL     1     152.268 156.950 150.458  1.00  0.00    -0.550 OA
ENDBRANCH  14  15
ENDBRANCH  13  14
ENDBRANCH  12  13
ENDBRANCH  11  12
ENDBRANCH  10  11
ENDBRANCH   9  10
ENDBRANCH   8   9
ENDBRANCH   7   8
ENDBRANCH   6   7
ENDBRANCH   5   6
ENDBRANCH   4   5
ENDBRANCH   3   4
ENDBRANCH   2   3
ENDBRANCH   1   2
BRANCH   1  18
ATOM     18  C   UNL     1     149.429 160.893 152.478  1.00  0.00     0.000 C 
BRANCH  18  19
ATOM     19  C   UNL     1     148.448 161.373 151.395  1.00  0.00     0.000 C 
BRANCH  19  20
ATOM     20  C   UNL     1     146.982 161.322 151.861  1.00  0.00     0.000 C 
BRANCH  20  21
ATOM     21  C   UNL     1     146.235 162.647 151.629  1.00  0.00     0.000 C 
BRANCH  21  22
ATOM     22  C   UNL     1     147.118 163.911 151.688  1.00  0.00     0.000 C 
BRANCH  22  23
ATOM     23  C   UNL     1     146.384 165.164 152.215  1.00  0.00     0.000 C 
BRANCH  23  24
ATOM     24  C   UNL     1     146.909 165.662 153.576  1.00  0.00    -0.000 C 
BRANCH  24  25
ATOM     25  C   UNL     1     146.125 165.072 154.762  1.00  0.00    -0.000 C 
BRANCH  25  26
ATOM     26  C   UNL     1     146.961 164.083 155.598  1.00  0.00    -0.000 C 
BRANCH  26  27
ATOM     27  C   UNL     1     146.758 162.600 155.234  1.00  0.00    -0.000 C 
BRANCH  27  28
ATOM     28  C   UNL     1     146.990 161.657 156.431  1.00  0.00    -0.000 C 
BRANCH  28  29
ATOM     29  C   UNL     1     147.774 160.389 156.031  1.00  0.00    -0.000 C 
BRANCH  29  30
ATOM     30  C   UNL     1     149.301 160.583 156.033  1.00  0.00    -0.000 C 
BRANCH  30  31
ATOM     31  C   UNL     1     150.049 159.393 156.655  1.00  0.00    -0.003 C 
ATOM     32  C   UNL     1     151.560 159.598 156.592  1.00  0.00     0.004 C 
ENDBRANCH  30  31
ENDBRANCH  29  30
ENDBRANCH  28  29
ENDBRANCH  27  28
ENDBRANCH  26  27
ENDBRANCH  25  26
ENDBRANCH  24  25
ENDBRANCH  23  24
ENDBRANCH  22  23
ENDBRANCH  21  22
ENDBRANCH  20  21
ENDBRANCH  19  20
ENDBRANCH  18  19
ENDBRANCH   1  18
TORSDOF 28
ENDMDL
