MODEL 1
REMARK VINA RESULT:    -4.080      0.000      0.000
REMARK INTER + INTRA:         -14.007
REMARK INTER:                 -10.281
REMARK INTRA:                  -3.726
REMARK UNBOUND:                -3.726
REMARK SMILES CCCCCCCCCCCCCCCCCCCCCCCCCCCC(=O)[O-]
REMARK SMILES IDX 15 1 16 2 17 3 18 4 19 5 20 6 21 7 22 8 23 9 24 10 25 11
REMARK SMILES IDX 26 12 27 13 28 14 29 15 30 16 14 17 13 18 12 19 11 20 10 21
REMARK SMILES IDX 9 22 8 23 7 24 6 25 5 26 4 27 3 28 2 29 1 30
REMARK H PARENT
REMARK Flexibility Score: inf
ROOT
ATOM      1  C   UNL     1       3.725  -2.811   6.232  1.00  0.00     0.000 C 
ENDROOT
BRANCH   1   2
ATOM      2  C   UNL     1       2.864  -4.082   6.169  1.00  0.00     0.000 C 
BRANCH   2   3
ATOM      3  C   UNL     1       1.394  -3.783   5.823  1.00  0.00     0.000 C 
BRANCH   3   4
ATOM      4  C   UNL     1       0.516  -5.046   5.827  1.00  0.00     0.000 C 
BRANCH   4   5
ATOM      5  C   UNL     1       1.347  -6.337   5.932  1.00  0.00     0.000 C 
BRANCH   5   6
ATOM      6  C   UNL     1       0.885  -7.421   4.945  1.00  0.00     0.000 C 
BRANCH   6   7
ATOM      7  C   UNL     1       2.054  -8.227   4.357  1.00  0.00     0.000 C 
BRANCH   7   8
ATOM      8  C   UNL     1       3.391  -7.518   4.609  1.00  0.00     0.000 C 
BRANCH   8   9
ATOM      9  C   UNL     1       4.565  -8.360   4.094  1.00  0.00     0.000 C 
BRANCH   9  10
ATOM     10  C   UNL     1       5.891  -7.602   4.234  1.00  0.00     0.000 C 
BRANCH  10  11
ATOM     11  C   UNL     1       5.851  -6.643   5.430  1.00  0.00     0.000 C 
BRANCH  11  12
ATOM     12  C   UNL     1       6.815  -5.464   5.222  1.00  0.00     0.006 C 
BRANCH  12  13
ATOM     13  C   UNL     1       7.098  -5.197   3.737  1.00  0.00     0.053 C 
BRANCH  13  14
ATOM     14  C   UNL     1       8.566  -5.084   3.458  1.00  0.00     0.041 C 
ATOM     15  O   UNL     1       9.037  -4.028   2.954  1.00  0.00    -0.550 OA
ATOM     16  O   UNL     1       9.418  -6.127   3.795  1.00  0.00    -0.550 OA
ENDBRANCH  13  14
ENDBRANCH  12  13
ENDBRANCH  11  12
ENDBRANCH  10  11
ENDBRANCH   9  10
ENDBRANCH   8   9
ENDBRANCH   7   8
ENDBRANCH   6   7
ENDBRANCH   5   6
ENDBRANCH   4   5
ENDBRANCH   3   4
ENDBRANCH   2   3
ENDBRANCH   1   2
BRANCH   1  17
ATOM     17  C   UNL     1       3.810  -2.085   4.880  1.00  0.00     0.000 C 
BRANCH  17  18
ATOM     18  C   UNL     1       5.267  -1.984   4.401  1.00  0.00     0.000 C 
BRANCH  18  19
ATOM     19  C   UNL     1       6.266  -1.783   5.556  1.00  0.00     0.000 C 
BRANCH  19  20
ATOM     20  C   UNL     1       7.169  -0.545   5.418  1.00  0.00     0.000 C 
BRANCH  20  21
ATOM     21  C   UNL     1       6.399   0.777   5.577  1.00  0.00     0.000 C 
BRANCH  21  22
ATOM     22  C   UNL     1       6.190   1.169   7.051  1.00  0.00    -0.000 C 
BRANCH  22  23
ATOM     23  C   UNL     1       4.726   1.463   7.442  1.00  0.00    -0.000 C 
BRANCH  23  24
ATOM     24  C   UNL     1       3.683   1.158   6.349  1.00  0.00    -0.000 C 
BRANCH  24  25
ATOM     25  C   UNL     1       2.637   2.263   6.122  1.00  0.00    -0.000 C 
BRANCH  25  26
ATOM     26  C   UNL     1       3.031   3.237   5.002  1.00  0.00    -0.000 C 
BRANCH  26  27
ATOM     27  C   UNL     1       3.423   4.606   5.577  1.00  0.00    -0.000 C 
BRANCH  27  28
ATOM     28  C   UNL     1       4.677   5.191   4.911  1.00  0.00    -0.000 C 
BRANCH  28  29
ATOM     29  C   UNL     1       5.965   4.463   5.329  1.00  0.00    -0.003 C 
ATOM     30  C   UNL     1       7.008   5.448   5.850  1.00  0.00     0.004 C 
ENDBRANCH  28  29
ENDBRANCH  27  28
ENDBRANCH  26  27
ENDBRANCH  25  26
ENDBRANCH  24  25
ENDBRANCH  23  24
ENDBRANCH  22  23
ENDBRANCH  21  22
ENDBRANCH  20  21
ENDBRANCH  19  20
ENDBRANCH  18  19
ENDBRANCH  17  18
ENDBRANCH   1  17
TORSDOF 26
ENDMDL
MODEL 2
REMARK VINA RESULT:    -4.078      2.988      9.182
REMARK INTER + INTRA:         -14.002
REMARK INTER:                  -9.153
REMARK INTRA:                  -4.849
REMARK UNBOUND:                -3.726
REMARK SMILES CCCCCCCCCCCCCCCCCCCCCCCCCCCC(=O)[O-]
REMARK SMILES IDX 15 1 16 2 17 3 18 4 19 5 20 6 21 7 22 8 23 9 24 10 25 11
REMARK SMILES IDX 26 12 27 13 28 14 29 15 30 16 14 17 13 18 12 19 11 20 10 21
REMARK SMILES IDX 9 22 8 23 7 24 6 25 5 26 4 27 3 28 2 29 1 30
REMARK H PARENT
REMARK Flexibility Score: inf
ROOT
ATOM      1  C   UNL     1       3.998  -1.807   5.115  1.00  0.00     0.000 C 
ENDROOT
BRANCH   1   2
ATOM      2  C   UNL     1       5.277  -2.277   4.405  1.00  0.00     0.000 C 
BRANCH   2   3
ATOM      3  C   UNL     1       5.851  -3.569   5.016  1.00  0.00     0.000 C 
BRANCH   3   4
ATOM      4  C   UNL     1       6.973  -4.180   4.161  1.00  0.00     0.000 C 
BRANCH   4   5
ATOM      5  C   UNL     1       8.374  -3.809   4.679  1.00  0.00     0.000 C 
BRANCH   5   6
ATOM      6  C   UNL     1       8.440  -3.740   6.213  1.00  0.00     0.000 C 
BRANCH   6   7
ATOM      7  C   UNL     1       8.956  -2.386   6.726  1.00  0.00     0.000 C 
BRANCH   7   8
ATOM      8  C   UNL     1       7.961  -1.757   7.710  1.00  0.00     0.000 C 
BRANCH   8   9
ATOM      9  C   UNL     1       7.203  -0.594   7.057  1.00  0.00     0.000 C 
BRANCH   9  10
ATOM     10  C   UNL     1       7.988  -0.020   5.873  1.00  0.00     0.000 C 
BRANCH  10  11
ATOM     11  C   UNL     1       7.134   0.976   5.078  1.00  0.00     0.000 C 
BRANCH  11  12
ATOM     12  C   UNL     1       5.866   1.357   5.859  1.00  0.00     0.006 C 
BRANCH  12  13
ATOM     13  C   UNL     1       5.817   2.853   6.196  1.00  0.00     0.053 C 
BRANCH  13  14
ATOM     14  C   UNL     1       5.118   3.645   5.133  1.00  0.00     0.041 C 
ATOM     15  O   UNL     1       5.669   4.662   4.633  1.00  0.00    -0.550 OA
ATOM     16  O   UNL     1       3.877   3.233   4.664  1.00  0.00    -0.550 OA
ENDBRANCH  13  14
ENDBRANCH  12  13
ENDBRANCH  11  12
ENDBRANCH  10  11
ENDBRANCH   9  10
ENDBRANCH   8   9
ENDBRANCH   7   8
ENDBRANCH   6   7
ENDBRANCH   5   6
ENDBRANCH   4   5
ENDBRANCH   3   4
ENDBRANCH   2   3
ENDBRANCH   1   2
BRANCH   1  17
ATOM     17  C   UNL     1       3.929  -2.270   6.578  1.00  0.00     0.000 C 
BRANCH  17  18
ATOM     18  C   UNL     1       2.594  -2.972   6.870  1.00  0.00     0.000 C 
BRANCH  18  19
ATOM     19  C   UNL     1       2.069  -3.785   5.672  1.00  0.00     0.000 C 
BRANCH  19  20
ATOM     20  C   UNL     1       1.961  -5.301   5.919  1.00  0.00     0.000 C 
BRANCH  20  21
ATOM     21  C   UNL     1       3.212  -6.069   5.461  1.00  0.00     0.000 C 
BRANCH  21  22
ATOM     22  C   UNL     1       4.245  -6.247   6.589  1.00  0.00    -0.000 C 
BRANCH  22  23
ATOM     23  C   UNL     1       5.400  -7.217   6.262  1.00  0.00    -0.000 C 
BRANCH  23  24
ATOM     24  C   UNL     1       5.613  -7.500   4.761  1.00  0.00    -0.000 C 
BRANCH  24  25
ATOM     25  C   UNL     1       5.643  -8.990   4.379  1.00  0.00    -0.000 C 
BRANCH  25  26
ATOM     26  C   UNL     1       4.847  -9.295   3.102  1.00  0.00    -0.000 C 
BRANCH  26  27
ATOM     27  C   UNL     1       3.342  -9.382   3.402  1.00  0.00    -0.000 C 
BRANCH  27  28
ATOM     28  C   UNL     1       3.050  -9.904   4.817  1.00  0.00    -0.000 C 
BRANCH  28  29
ATOM     29  C   UNL     1       1.687  -9.438   5.351  1.00  0.00    -0.003 C 
ATOM     30  C   UNL     1       0.902  -8.691   4.276  1.00  0.00     0.004 C 
ENDBRANCH  28  29
ENDBRANCH  27  28
ENDBRANCH  26  27
ENDBRANCH  25  26
ENDBRANCH  24  25
ENDBRANCH  23  24
ENDBRANCH  22  23
ENDBRANCH  21  22
ENDBRANCH  20  21
ENDBRANCH  19  20
ENDBRANCH  18  19
ENDBRANCH  17  18
ENDBRANCH   1  17
TORSDOF 26
ENDMDL
MODEL 3
REMARK VINA RESULT:    -4.003      2.963      9.195
REMARK INTER + INTRA:         -13.813
REMARK INTER:                  -9.538
REMARK INTRA:                  -4.276
REMARK UNBOUND:                -3.726
REMARK SMILES CCCCCCCCCCCCCCCCCCCCCCCCCCCC(=O)[O-]
REMARK SMILES IDX 15 1 16 2 17 3 18 4 19 5 20 6 21 7 22 8 23 9 24 10 25 11
REMARK SMILES IDX 26 12 27 13 28 14 29 15 30 16 14 17 13 18 12 19 11 20 10 21
REMARK SMILES IDX 9 22 8 23 7 24 6 25 5 26 4 27 3 28 2 29 1 30
REMARK H PARENT
REMARK Flexibility Score: inf
ROOT
ATOM      1  C   UNL     1       4.177  -1.784   6.637  1.00  0.00     0.000 C 
ENDROOT
BRANCH   1   2
ATOM      2  C   UNL     1       4.095  -0.382   7.260  1.00  0.00     0.000 C 
BRANCH   2   3
ATOM      3  C   UNL     1       5.355   0.460   6.987  1.00  0.00     0.000 C 
BRANCH   3   4
ATOM      4  C   UNL     1       6.649  -0.262   7.393  1.00  0.00     0.000 C 
BRANCH   4   5
ATOM      5  C   UNL     1       7.730  -0.190   6.300  1.00  0.00     0.000 C 
BRANCH   5   6
ATOM      6  C   UNL     1       7.223   0.473   5.009  1.00  0.00     0.000 C 
BRANCH   6   7
ATOM      7  C   UNL     1       8.237   1.462   4.412  1.00  0.00     0.000 C 
BRANCH   7   8
ATOM      8  C   UNL     1       9.364   1.762   5.409  1.00  0.00     0.000 C 
BRANCH   8   9
ATOM      9  C   UNL     1       9.378   3.247   5.792  1.00  0.00     0.000 C 
BRANCH   9  10
ATOM     10  C   UNL     1       8.017   3.686   6.346  1.00  0.00     0.000 C 
BRANCH  10  11
ATOM     11  C   UNL     1       7.709   5.137   5.958  1.00  0.00     0.000 C 
BRANCH  11  12
ATOM     12  C   UNL     1       6.256   5.281   5.477  1.00  0.00     0.006 C 
BRANCH  12  13
ATOM     13  C   UNL     1       5.569   3.923   5.283  1.00  0.00     0.053 C 
BRANCH  13  14
ATOM     14  C   UNL     1       4.178   4.070   4.744  1.00  0.00     0.041 C 
ATOM     15  O   UNL     1       3.767   5.193   4.347  1.00  0.00    -0.550 OA
ATOM     16  O   UNL     1       3.353   2.958   4.641  1.00  0.00    -0.550 OA
ENDBRANCH  13  14
ENDBRANCH  12  13
ENDBRANCH  11  12
ENDBRANCH  10  11
ENDBRANCH   9  10
ENDBRANCH   8   9
ENDBRANCH   7   8
ENDBRANCH   6   7
ENDBRANCH   5   6
ENDBRANCH   4   5
ENDBRANCH   3   4
ENDBRANCH   2   3
ENDBRANCH   1   2
BRANCH   1  17
ATOM     17  C   UNL     1       3.941  -1.773   5.119  1.00  0.00     0.000 C 
BRANCH  17  18
ATOM     18  C   UNL     1       5.168  -2.311   4.367  1.00  0.00     0.000 C 
BRANCH  18  19
ATOM     19  C   UNL     1       5.864  -3.469   5.106  1.00  0.00     0.000 C 
BRANCH  19  20
ATOM     20  C   UNL     1       7.133  -4.004   4.419  1.00  0.00     0.000 C 
BRANCH  20  21
ATOM     21  C   UNL     1       7.903  -5.011   5.290  1.00  0.00     0.000 C 
BRANCH  21  22
ATOM     22  C   UNL     1       8.046  -6.389   4.618  1.00  0.00    -0.000 C 
BRANCH  22  23
ATOM     23  C   UNL     1       6.972  -6.706   3.557  1.00  0.00    -0.000 C 
BRANCH  23  24
ATOM     24  C   UNL     1       5.807  -7.590   4.047  1.00  0.00    -0.000 C 
BRANCH  24  25
ATOM     25  C   UNL     1       5.776  -7.841   5.565  1.00  0.00    -0.000 C 
BRANCH  25  26
ATOM     26  C   UNL     1       4.456  -7.403   6.215  1.00  0.00    -0.000 C 
BRANCH  26  27
ATOM     27  C   UNL     1       3.673  -6.461   5.286  1.00  0.00    -0.000 C 
BRANCH  27  28
ATOM     28  C   UNL     1       2.923  -5.363   6.054  1.00  0.00    -0.000 C 
BRANCH  28  29
ATOM     29  C   UNL     1       1.417  -5.349   5.748  1.00  0.00    -0.003 C 
ATOM     30  C   UNL     1       0.870  -3.924   5.745  1.00  0.00     0.004 C 
ENDBRANCH  28  29
ENDBRANCH  27  28
ENDBRANCH  26  27
ENDBRANCH  25  26
ENDBRANCH  24  25
ENDBRANCH  23  24
ENDBRANCH  22  23
ENDBRANCH  21  22
ENDBRANCH  20  21
ENDBRANCH  19  20
ENDBRANCH  18  19
ENDBRANCH  17  18
ENDBRANCH   1  17
TORSDOF 26
ENDMDL
MODEL 4
REMARK VINA RESULT:    -3.993      3.041      8.940
REMARK INTER + INTRA:         -13.788
REMARK INTER:                  -9.376
REMARK INTRA:                  -4.411
REMARK UNBOUND:                -3.726
REMARK SMILES CCCCCCCCCCCCCCCCCCCCCCCCCCCC(=O)[O-]
REMARK SMILES IDX 15 1 16 2 17 3 18 4 19 5 20 6 21 7 22 8 23 9 24 10 25 11
REMARK SMILES IDX 26 12 27 13 28 14 29 15 30 16 14 17 13 18 12 19 11 20 10 21
REMARK SMILES IDX 9 22 8 23 7 24 6 25 5 26 4 27 3 28 2 29 1 30
REMARK H PARENT
REMARK Flexibility Score: inf
ROOT
ATOM      1  C   UNL     1       3.729  -2.074   6.350  1.00  0.00     0.000 C 
ENDROOT
BRANCH   1   2
ATOM      2  C   UNL     1       4.551  -2.077   5.052  1.00  0.00     0.000 C 
BRANCH   2   3
ATOM      3  C   UNL     1       5.866  -1.286   5.183  1.00  0.00     0.000 C 
BRANCH   3   4
ATOM      4  C   UNL     1       6.363  -1.202   6.635  1.00  0.00     0.000 C 
BRANCH   4   5
ATOM      5  C   UNL     1       7.896  -1.307   6.738  1.00  0.00     0.000 C 
BRANCH   5   6
ATOM      6  C   UNL     1       8.528  -1.961   5.499  1.00  0.00     0.000 C 
BRANCH   6   7
ATOM      7  C   UNL     1       9.825  -1.264   5.056  1.00  0.00     0.000 C 
BRANCH   7   8
ATOM      8  C   UNL     1       9.777   0.237   5.372  1.00  0.00     0.000 C 
BRANCH   8   9
ATOM      9  C   UNL     1       9.186   1.027   4.198  1.00  0.00     0.000 C 
BRANCH   9  10
ATOM     10  C   UNL     1       7.948   1.819   4.634  1.00  0.00     0.000 C 
BRANCH  10  11
ATOM     11  C   UNL     1       8.093   2.313   6.079  1.00  0.00     0.000 C 
BRANCH  11  12
ATOM     12  C   UNL     1       6.774   2.914   6.590  1.00  0.00     0.006 C 
BRANCH  12  13
ATOM     13  C   UNL     1       5.564   2.446   5.771  1.00  0.00     0.053 C 
BRANCH  13  14
ATOM     14  C   UNL     1       4.941   3.570   5.000  1.00  0.00     0.041 C 
ATOM     15  O   UNL     1       3.737   3.498   4.633  1.00  0.00    -0.550 OA
ATOM     16  O   UNL     1       5.678   4.715   4.724  1.00  0.00    -0.550 OA
ENDBRANCH  13  14
ENDBRANCH  12  13
ENDBRANCH  11  12
ENDBRANCH  10  11
ENDBRANCH   9  10
ENDBRANCH   8   9
ENDBRANCH   7   8
ENDBRANCH   6   7
ENDBRANCH   5   6
ENDBRANCH   4   5
ENDBRANCH   3   4
ENDBRANCH   2   3
ENDBRANCH   1   2
BRANCH   1  17
ATOM     17  C   UNL     1       3.178  -3.464   6.705  1.00  0.00     0.000 C 
BRANCH  17  18
ATOM     18  C   UNL     1       1.849  -3.729   5.981  1.00  0.00     0.000 C 
BRANCH  18  19
ATOM     19  C   UNL     1       1.492  -5.225   5.910  1.00  0.00     0.000 C 
BRANCH  19  20
ATOM     20  C   UNL     1       2.642  -6.142   5.457  1.00  0.00     0.000 C 
BRANCH  20  21
ATOM     21  C   UNL     1       2.147  -7.406   4.734  1.00  0.00     0.000 C 
BRANCH  21  22
ATOM     22  C   UNL     1       3.118  -8.592   4.880  1.00  0.00    -0.000 C 
BRANCH  22  23
ATOM     23  C   UNL     1       3.822  -9.018   3.574  1.00  0.00    -0.000 C 
BRANCH  23  24
ATOM     24  C   UNL     1       5.357  -8.878   3.582  1.00  0.00    -0.000 C 
BRANCH  24  25
ATOM     25  C   UNL     1       5.898  -7.702   4.414  1.00  0.00    -0.000 C 
BRANCH  25  26
ATOM     26  C   UNL     1       6.847  -6.795   3.617  1.00  0.00    -0.000 C 
BRANCH  26  27
ATOM     27  C   UNL     1       6.891  -5.381   4.219  1.00  0.00    -0.000 C 
BRANCH  27  28
ATOM     28  C   UNL     1       6.040  -5.255   5.492  1.00  0.00    -0.000 C 
BRANCH  28  29
ATOM     29  C   UNL     1       6.876  -4.888   6.729  1.00  0.00    -0.003 C 
ATOM     30  C   UNL     1       6.203  -5.374   8.010  1.00  0.00     0.004 C 
ENDBRANCH  28  29
ENDBRANCH  27  28
ENDBRANCH  26  27
ENDBRANCH  25  26
ENDBRANCH  24  25
ENDBRANCH  23  24
ENDBRANCH  22  23
ENDBRANCH  21  22
ENDBRANCH  20  21
ENDBRANCH  19  20
ENDBRANCH  18  19
ENDBRANCH  17  18
ENDBRANCH   1  17
TORSDOF 26
ENDMDL
MODEL 5
REMARK VINA RESULT:    -3.991      2.993      8.592
REMARK INTER + INTRA:         -13.784
REMARK INTER:                  -9.671
REMARK INTRA:                  -4.113
REMARK UNBOUND:                -3.726
REMARK SMILES CCCCCCCCCCCCCCCCCCCCCCCCCCCC(=O)[O-]
REMARK SMILES IDX 15 1 16 2 17 3 18 4 19 5 20 6 21 7 22 8 23 9 24 10 25 11
REMARK SMILES IDX 26 12 27 13 28 14 29 15 30 16 14 17 13 18 12 19 11 20 10 21
REMARK SMILES IDX 9 22 8 23 7 24 6 25 5 26 4 27 3 28 2 29 1 30
REMARK H PARENT
REMARK Flexibility Score: inf
ROOT
ATOM      1  C   UNL     1       1.265  -3.759   5.847  1.00  0.00     0.000 C 
ENDROOT
BRANCH   1   2
ATOM      2  C   UNL     1       1.727  -3.250   7.221  1.00  0.00     0.000 C 
BRANCH   2   3
ATOM      3  C   UNL     1       2.653  -4.249   7.940  1.00  0.00     0.000 C 
BRANCH   3   4
ATOM      4  C   UNL     1       4.126  -3.807   7.923  1.00  0.00     0.000 C 
BRANCH   4   5
ATOM      5  C   UNL     1       5.009  -4.740   7.076  1.00  0.00     0.000 C 
BRANCH   5   6
ATOM      6  C   UNL     1       4.894  -4.458   5.570  1.00  0.00     0.000 C 
BRANCH   6   7
ATOM      7  C   UNL     1       5.753  -3.265   5.122  1.00  0.00     0.000 C 
BRANCH   7   8
ATOM      8  C   UNL     1       4.904  -2.225   4.378  1.00  0.00     0.000 C 
BRANCH   8   9
ATOM      9  C   UNL     1       4.265  -1.235   5.359  1.00  0.00     0.000 C 
BRANCH   9  10
ATOM     10  C   UNL     1       5.302  -0.694   6.351  1.00  0.00     0.000 C 
BRANCH  10  11
ATOM     11  C   UNL     1       4.627   0.121   7.461  1.00  0.00     0.000 C 
BRANCH  11  12
ATOM     12  C   UNL     1       3.191   0.503   7.067  1.00  0.00     0.006 C 
BRANCH  12  13
ATOM     13  C   UNL     1       3.004   2.022   6.947  1.00  0.00     0.053 C 
BRANCH  13  14
ATOM     14  C   UNL     1       3.315   2.517   5.567  1.00  0.00     0.041 C 
ATOM     15  O   UNL     1       2.402   2.596   4.700  1.00  0.00    -0.550 OA
ATOM     16  O   UNL     1       4.602   2.933   5.253  1.00  0.00    -0.550 OA
ENDBRANCH  13  14
ENDBRANCH  12  13
ENDBRANCH  11  12
ENDBRANCH  10  11
ENDBRANCH   9  10
ENDBRANCH   8   9
ENDBRANCH   7   8
ENDBRANCH   6   7
ENDBRANCH   5   6
ENDBRANCH   4   5
ENDBRANCH   3   4
ENDBRANCH   2   3
ENDBRANCH   1   2
BRANCH   1  17
ATOM     17  C   UNL     1       1.161  -5.290   5.786  1.00  0.00     0.000 C 
BRANCH  17  18
ATOM     18  C   UNL     1      -0.225  -5.766   6.248  1.00  0.00     0.000 C 
BRANCH  18  19
ATOM     19  C   UNL     1      -0.483  -7.252   5.939  1.00  0.00     0.000 C 
BRANCH  19  20
ATOM     20  C   UNL     1      -0.106  -7.690   4.513  1.00  0.00     0.000 C 
BRANCH  20  21
ATOM     21  C   UNL     1       0.893  -8.860   4.492  1.00  0.00     0.000 C 
BRANCH  21  22
ATOM     22  C   UNL     1       2.326  -8.410   4.154  1.00  0.00    -0.000 C 
BRANCH  22  23
ATOM     23  C   UNL     1       3.191  -9.479   3.453  1.00  0.00    -0.000 C 
BRANCH  23  24
ATOM     24  C   UNL     1       4.706  -9.195   3.447  1.00  0.00    -0.000 C 
BRANCH  24  25
ATOM     25  C   UNL     1       5.188  -8.212   4.528  1.00  0.00    -0.000 C 
BRANCH  25  26
ATOM     26  C   UNL     1       6.311  -7.287   4.036  1.00  0.00    -0.000 C 
BRANCH  26  27
ATOM     27  C   UNL     1       7.472  -7.251   5.042  1.00  0.00    -0.000 C 
BRANCH  27  28
ATOM     28  C   UNL     1       8.340  -5.992   4.898  1.00  0.00    -0.000 C 
BRANCH  28  29
ATOM     29  C   UNL     1       8.535  -5.571   3.433  1.00  0.00    -0.003 C 
ATOM     30  C   UNL     1       9.141  -4.174   3.339  1.00  0.00     0.004 C 
ENDBRANCH  28  29
ENDBRANCH  27  28
ENDBRANCH  26  27
ENDBRANCH  25  26
ENDBRANCH  24  25
ENDBRANCH  23  24
ENDBRANCH  22  23
ENDBRANCH  21  22
ENDBRANCH  20  21
ENDBRANCH  19  20
ENDBRANCH  18  19
ENDBRANCH  17  18
ENDBRANCH   1  17
TORSDOF 26
ENDMDL
MODEL 6
REMARK VINA RESULT:    -3.979      3.200      4.616
REMARK INTER + INTRA:         -13.754
REMARK INTER:                 -10.203
REMARK INTRA:                  -3.551
REMARK UNBOUND:                -3.726
REMARK SMILES CCCCCCCCCCCCCCCCCCCCCCCCCCCC(=O)[O-]
REMARK SMILES IDX 15 1 16 2 17 3 18 4 19 5 20 6 21 7 22 8 23 9 24 10 25 11
REMARK SMILES IDX 26 12 27 13 28 14 29 15 30 16 14 17 13 18 12 19 11 20 10 21
REMARK SMILES IDX 9 22 8 23 7 24 6 25 5 26 4 27 3 28 2 29 1 30
REMARK H PARENT
REMARK Flexibility Score: inf
ROOT
ATOM      1  C   UNL     1       3.371  -2.792   6.045  1.00  0.00     0.000 C 
ENDROOT
BRANCH   1   2
ATOM      2  C   UNL     1       2.786  -4.211   5.957  1.00  0.00     0.000 C 
BRANCH   2   3
ATOM      3  C   UNL     1       3.788  -5.291   6.404  1.00  0.00     0.000 C 
BRANCH   3   4
ATOM      4  C   UNL     1       4.216  -6.215   5.252  1.00  0.00     0.000 C 
BRANCH   4   5
ATOM      5  C   UNL     1       5.711  -6.079   4.915  1.00  0.00     0.000 C 
BRANCH   5   6
ATOM      6  C   UNL     1       6.231  -7.236   4.047  1.00  0.00     0.000 C 
BRANCH   6   7
ATOM      7  C   UNL     1       5.531  -8.570   4.353  1.00  0.00     0.000 C 
BRANCH   7   8
ATOM      8  C   UNL     1       4.965  -9.199   3.073  1.00  0.00     0.000 C 
BRANCH   8   9
ATOM      9  C   UNL     1       3.578  -9.803   3.325  1.00  0.00     0.000 C 
BRANCH   9  10
ATOM     10  C   UNL     1       3.242  -9.809   4.821  1.00  0.00     0.000 C 
BRANCH  10  11
ATOM     11  C   UNL     1       1.737  -9.621   5.047  1.00  0.00     0.000 C 
BRANCH  11  12
ATOM     12  C   UNL     1       1.158  -8.593   4.062  1.00  0.00     0.006 C 
BRANCH  12  13
ATOM     13  C   UNL     1       0.153  -7.646   4.732  1.00  0.00     0.053 C 
BRANCH  13  14
ATOM     14  C   UNL     1      -1.265  -8.045   4.454  1.00  0.00     0.041 C 
ATOM     15  O   UNL     1      -1.798  -7.765   3.346  1.00  0.00    -0.550 OA
ATOM     16  O   UNL     1      -1.981  -8.764   5.401  1.00  0.00    -0.550 OA
ENDBRANCH  13  14
ENDBRANCH  12  13
ENDBRANCH  11  12
ENDBRANCH  10  11
ENDBRANCH   9  10
ENDBRANCH   8   9
ENDBRANCH   7   8
ENDBRANCH   6   7
ENDBRANCH   5   6
ENDBRANCH   4   5
ENDBRANCH   3   4
ENDBRANCH   2   3
ENDBRANCH   1   2
BRANCH   1  17
ATOM     17  C   UNL     1       3.745  -2.219   4.669  1.00  0.00     0.000 C 
BRANCH  17  18
ATOM     18  C   UNL     1       5.262  -2.297   4.436  1.00  0.00     0.000 C 
BRANCH  18  19
ATOM     19  C   UNL     1       6.076  -2.203   5.740  1.00  0.00     0.000 C 
BRANCH  19  20
ATOM     20  C   UNL     1       7.083  -1.041   5.789  1.00  0.00     0.000 C 
BRANCH  20  21
ATOM     21  C   UNL     1       6.408   0.338   5.697  1.00  0.00     0.000 C 
BRANCH  21  22
ATOM     22  C   UNL     1       5.402   0.584   6.835  1.00  0.00    -0.000 C 
BRANCH  22  23
ATOM     23  C   UNL     1       4.023   1.105   6.379  1.00  0.00    -0.000 C 
BRANCH  23  24
ATOM     24  C   UNL     1       3.460   2.278   7.206  1.00  0.00    -0.000 C 
BRANCH  24  25
ATOM     25  C   UNL     1       3.634   3.667   6.566  1.00  0.00    -0.000 C 
BRANCH  25  26
ATOM     26  C   UNL     1       4.274   3.604   5.171  1.00  0.00    -0.000 C 
BRANCH  26  27
ATOM     27  C   UNL     1       5.537   4.478   5.108  1.00  0.00    -0.000 C 
BRANCH  27  28
ATOM     28  C   UNL     1       6.443   4.298   6.334  1.00  0.00    -0.000 C 
BRANCH  28  29
ATOM     29  C   UNL     1       7.146   5.601   6.748  1.00  0.00    -0.003 C 
ATOM     30  C   UNL     1       6.401   6.820   6.213  1.00  0.00     0.004 C 
ENDBRANCH  28  29
ENDBRANCH  27  28
ENDBRANCH  26  27
ENDBRANCH  25  26
ENDBRANCH  24  25
ENDBRANCH  23  24
ENDBRANCH  22  23
ENDBRANCH  21  22
ENDBRANCH  20  21
ENDBRANCH  19  20
ENDBRANCH  18  19
ENDBRANCH  17  18
ENDBRANCH   1  17
TORSDOF 26
ENDMDL
MODEL 7
REMARK VINA RESULT:    -3.957      3.290      4.945
REMARK INTER + INTRA:         -13.696
REMARK INTER:                  -9.958
REMARK INTRA:                  -3.738
REMARK UNBOUND:                -3.726
REMARK SMILES CCCCCCCCCCCCCCCCCCCCCCCCCCCC(=O)[O-]
REMARK SMILES IDX 15 1 16 2 17 3 18 4 19 5 20 6 21 7 22 8 23 9 24 10 25 11
REMARK SMILES IDX 26 12 27 13 28 14 29 15 30 16 14 17 13 18 12 19 11 20 10 21
REMARK SMILES IDX 9 22 8 23 7 24 6 25 5 26 4 27 3 28 2 29 1 30
REMARK H PARENT
REMARK Flexibility Score: inf
ROOT
ATOM      1  C   UNL     1       3.728  -2.253   6.126  1.00  0.00     0.000 C 
ENDROOT
BRANCH   1   2
ATOM      2  C   UNL     1       2.617  -3.308   6.011  1.00  0.00     0.000 C 
BRANCH   2   3
ATOM      3  C   UNL     1       3.037  -4.674   6.584  1.00  0.00     0.000 C 
BRANCH   3   4
ATOM      4  C   UNL     1       3.445  -5.675   5.490  1.00  0.00     0.000 C 
BRANCH   4   5
ATOM      5  C   UNL     1       4.763  -6.398   5.819  1.00  0.00     0.000 C 
BRANCH   5   6
ATOM      6  C   UNL     1       5.834  -6.200   4.735  1.00  0.00     0.000 C 
BRANCH   6   7
ATOM      7  C   UNL     1       6.128  -7.488   3.948  1.00  0.00     0.000 C 
BRANCH   7   8
ATOM      8  C   UNL     1       5.175  -8.616   4.365  1.00  0.00     0.000 C 
BRANCH   8   9
ATOM      9  C   UNL     1       4.735  -9.441   3.150  1.00  0.00     0.000 C 
BRANCH   9  10
ATOM     10  C   UNL     1       3.268  -9.869   3.275  1.00  0.00     0.000 C 
BRANCH  10  11
ATOM     11  C   UNL     1       2.529  -9.002   4.303  1.00  0.00     0.000 C 
BRANCH  11  12
ATOM     12  C   UNL     1       1.039  -8.878   3.949  1.00  0.00     0.006 C 
BRANCH  12  13
ATOM     13  C   UNL     1       0.360  -7.715   4.684  1.00  0.00     0.053 C 
BRANCH  13  14
ATOM     14  C   UNL     1      -1.135  -7.811   4.625  1.00  0.00     0.041 C 
ATOM     15  O   UNL     1      -1.725  -7.855   3.511  1.00  0.00    -0.550 OA
ATOM     16  O   UNL     1      -1.871  -7.897   5.799  1.00  0.00    -0.550 OA
ENDBRANCH  13  14
ENDBRANCH  12  13
ENDBRANCH  11  12
ENDBRANCH  10  11
ENDBRANCH   9  10
ENDBRANCH   8   9
ENDBRANCH   7   8
ENDBRANCH   6   7
ENDBRANCH   5   6
ENDBRANCH   4   5
ENDBRANCH   3   4
ENDBRANCH   2   3
ENDBRANCH   1   2
BRANCH   1  17
ATOM     17  C   UNL     1       4.332  -1.877   4.764  1.00  0.00     0.000 C 
BRANCH  17  18
ATOM     18  C   UNL     1       5.716  -2.517   4.581  1.00  0.00     0.000 C 
BRANCH  18  19
ATOM     19  C   UNL     1       6.420  -2.817   5.917  1.00  0.00     0.000 C 
BRANCH  19  20
ATOM     20  C   UNL     1       7.859  -3.347   5.784  1.00  0.00     0.000 C 
BRANCH  20  21
ATOM     21  C   UNL     1       8.880  -2.234   5.495  1.00  0.00     0.000 C 
BRANCH  21  22
ATOM     22  C   UNL     1       9.109  -1.309   6.705  1.00  0.00    -0.000 C 
BRANCH  22  23
ATOM     23  C   UNL     1       9.090   0.199   6.379  1.00  0.00    -0.000 C 
BRANCH  23  24
ATOM     24  C   UNL     1       8.500   0.565   5.002  1.00  0.00    -0.000 C 
BRANCH  24  25
ATOM     25  C   UNL     1       7.192   1.375   5.050  1.00  0.00    -0.000 C 
BRANCH  25  26
ATOM     26  C   UNL     1       6.276   0.960   6.211  1.00  0.00    -0.000 C 
BRANCH  26  27
ATOM     27  C   UNL     1       4.958   1.750   6.180  1.00  0.00    -0.000 C 
BRANCH  27  28
ATOM     28  C   UNL     1       5.125   3.156   5.583  1.00  0.00    -0.000 C 
BRANCH  28  29
ATOM     29  C   UNL     1       4.507   4.251   6.465  1.00  0.00    -0.003 C 
ATOM     30  C   UNL     1       3.467   5.057   5.692  1.00  0.00     0.004 C 
ENDBRANCH  28  29
ENDBRANCH  27  28
ENDBRANCH  26  27
ENDBRANCH  25  26
ENDBRANCH  24  25
ENDBRANCH  23  24
ENDBRANCH  22  23
ENDBRANCH  21  22
ENDBRANCH  20  21
ENDBRANCH  19  20
ENDBRANCH  18  19
ENDBRANCH  17  18
ENDBRANCH   1  17
TORSDOF 26
ENDMDL
MODEL 8
REMARK VINA RESULT:    -3.938      1.188      2.774
REMARK INTER + INTRA:         -13.649
REMARK INTER:                  -9.870
REMARK INTRA:                  -3.779
REMARK UNBOUND:                -3.726
REMARK SMILES CCCCCCCCCCCCCCCCCCCCCCCCCCCC(=O)[O-]
REMARK SMILES IDX 15 1 16 2 17 3 18 4 19 5 20 6 21 7 22 8 23 9 24 10 25 11
REMARK SMILES IDX 26 12 27 13 28 14 29 15 30 16 14 17 13 18 12 19 11 20 10 21
REMARK SMILES IDX 9 22 8 23 7 24 6 25 5 26 4 27 3 28 2 29 1 30
REMARK H PARENT
REMARK Flexibility Score: inf
ROOT
ATOM      1  C   UNL     1       2.976  -5.210   5.848  1.00  0.00     0.000 C 
ENDROOT
BRANCH   1   2
ATOM      2  C   UNL     1       1.585  -4.556   5.858  1.00  0.00     0.000 C 
BRANCH   2   3
ATOM      3  C   UNL     1       0.447  -5.585   5.732  1.00  0.00     0.000 C 
BRANCH   3   4
ATOM      4  C   UNL     1       0.960  -7.034   5.703  1.00  0.00     0.000 C 
BRANCH   4   5
ATOM      5  C   UNL     1       0.316  -7.862   4.576  1.00  0.00     0.000 C 
BRANCH   5   6
ATOM      6  C   UNL     1       1.279  -8.901   3.980  1.00  0.00     0.000 C 
BRANCH   6   7
ATOM      7  C   UNL     1       2.755  -8.573   4.258  1.00  0.00     0.000 C 
BRANCH   7   8
ATOM      8  C   UNL     1       3.678  -9.365   3.323  1.00  0.00     0.000 C 
BRANCH   8   9
ATOM      9  C   UNL     1       5.146  -8.977   3.543  1.00  0.00     0.000 C 
BRANCH   9  10
ATOM     10  C   UNL     1       5.258  -7.668   4.333  1.00  0.00     0.000 C 
BRANCH  10  11
ATOM     11  C   UNL     1       6.716  -7.201   4.417  1.00  0.00     0.000 C 
BRANCH  11  12
ATOM     12  C   UNL     1       6.861  -5.756   3.913  1.00  0.00     0.006 C 
BRANCH  12  13
ATOM     13  C   UNL     1       8.112  -5.564   3.045  1.00  0.00     0.053 C 
BRANCH  13  14
ATOM     14  C   UNL     1       9.105  -4.645   3.689  1.00  0.00     0.041 C 
ATOM     15  O   UNL     1       9.377  -3.533   3.160  1.00  0.00    -0.550 OA
ATOM     16  O   UNL     1       9.695  -4.997   4.896  1.00  0.00    -0.550 OA
ENDBRANCH  13  14
ENDBRANCH  12  13
ENDBRANCH  11  12
ENDBRANCH  10  11
ENDBRANCH   9  10
ENDBRANCH   8   9
ENDBRANCH   7   8
ENDBRANCH   6   7
ENDBRANCH   5   6
ENDBRANCH   4   5
ENDBRANCH   3   4
ENDBRANCH   2   3
ENDBRANCH   1   2
BRANCH   1  17
ATOM     17  C   UNL     1       3.888  -4.677   6.964  1.00  0.00     0.000 C 
BRANCH  17  18
ATOM     18  C   UNL     1       3.397  -3.314   7.473  1.00  0.00     0.000 C 
BRANCH  18  19
ATOM     19  C   UNL     1       4.282  -2.144   7.005  1.00  0.00     0.000 C 
BRANCH  19  20
ATOM     20  C   UNL     1       4.131  -1.774   5.519  1.00  0.00     0.000 C 
BRANCH  20  21
ATOM     21  C   UNL     1       5.387  -2.101   4.693  1.00  0.00     0.000 C 
BRANCH  21  22
ATOM     22  C   UNL     1       6.576  -2.537   5.567  1.00  0.00    -0.000 C 
BRANCH  22  23
ATOM     23  C   UNL     1       7.745  -1.531   5.619  1.00  0.00    -0.000 C 
BRANCH  23  24
ATOM     24  C   UNL     1       7.532  -0.327   6.558  1.00  0.00    -0.000 C 
BRANCH  24  25
ATOM     25  C   UNL     1       7.857   1.045   5.941  1.00  0.00    -0.000 C 
BRANCH  25  26
ATOM     26  C   UNL     1       6.607   1.785   5.443  1.00  0.00    -0.000 C 
BRANCH  26  27
ATOM     27  C   UNL     1       5.405   1.512   6.360  1.00  0.00    -0.000 C 
BRANCH  27  28
ATOM     28  C   UNL     1       4.212   2.432   6.061  1.00  0.00    -0.000 C 
BRANCH  28  29
ATOM     29  C   UNL     1       4.632   3.892   5.833  1.00  0.00    -0.003 C 
ATOM     30  C   UNL     1       3.735   4.567   4.800  1.00  0.00     0.004 C 
ENDBRANCH  28  29
ENDBRANCH  27  28
ENDBRANCH  26  27
ENDBRANCH  25  26
ENDBRANCH  24  25
ENDBRANCH  23  24
ENDBRANCH  22  23
ENDBRANCH  21  22
ENDBRANCH  20  21
ENDBRANCH  19  20
ENDBRANCH  18  19
ENDBRANCH  17  18
ENDBRANCH   1  17
TORSDOF 26
ENDMDL
MODEL 9
REMARK VINA RESULT:    -3.900      3.011      9.461
REMARK INTER + INTRA:         -13.554
REMARK INTER:                  -9.645
REMARK INTRA:                  -3.909
REMARK UNBOUND:                -3.726
REMARK SMILES CCCCCCCCCCCCCCCCCCCCCCCCCCCC(=O)[O-]
REMARK SMILES IDX 15 1 16 2 17 3 18 4 19 5 20 6 21 7 22 8 23 9 24 10 25 11
REMARK SMILES IDX 26 12 27 13 28 14 29 15 30 16 14 17 13 18 12 19 11 20 10 21
REMARK SMILES IDX 9 22 8 23 7 24 6 25 5 26 4 27 3 28 2 29 1 30
REMARK H PARENT
REMARK Flexibility Score: inf
ROOT
ATOM      1  C   UNL     1       4.044  -1.990   5.009  1.00  0.00     0.000 C 
ENDROOT
BRANCH   1   2
ATOM      2  C   UNL     1       5.525  -2.368   4.847  1.00  0.00     0.000 C 
BRANCH   2   3
ATOM      3  C   UNL     1       6.247  -2.520   6.198  1.00  0.00     0.000 C 
BRANCH   3   4
ATOM      4  C   UNL     1       7.561  -3.309   6.082  1.00  0.00     0.000 C 
BRANCH   4   5
ATOM      5  C   UNL     1       8.691  -2.479   5.447  1.00  0.00     0.000 C 
BRANCH   5   6
ATOM      6  C   UNL     1       8.844  -1.094   6.094  1.00  0.00     0.000 C 
BRANCH   6   7
ATOM      7  C   UNL     1       8.664   0.055   5.089  1.00  0.00     0.000 C 
BRANCH   7   8
ATOM      8  C   UNL     1       7.584   1.036   5.564  1.00  0.00     0.000 C 
BRANCH   8   9
ATOM      9  C   UNL     1       7.445   1.003   7.091  1.00  0.00     0.000 C 
BRANCH   9  10
ATOM     10  C   UNL     1       5.978   0.847   7.508  1.00  0.00     0.000 C 
BRANCH  10  11
ATOM     11  C   UNL     1       5.037   1.271   6.374  1.00  0.00     0.000 C 
BRANCH  11  12
ATOM     12  C   UNL     1       4.408   2.643   6.665  1.00  0.00     0.006 C 
BRANCH  12  13
ATOM     13  C   UNL     1       4.887   3.724   5.687  1.00  0.00     0.053 C 
BRANCH  13  14
ATOM     14  C   UNL     1       3.797   4.161   4.756  1.00  0.00     0.041 C 
ATOM     15  O   UNL     1       3.755   5.351   4.342  1.00  0.00    -0.550 OA
ATOM     16  O   UNL     1       2.855   3.243   4.312  1.00  0.00    -0.550 OA
ENDBRANCH  13  14
ENDBRANCH  12  13
ENDBRANCH  11  12
ENDBRANCH  10  11
ENDBRANCH   9  10
ENDBRANCH   8   9
ENDBRANCH   7   8
ENDBRANCH   6   7
ENDBRANCH   5   6
ENDBRANCH   4   5
ENDBRANCH   3   4
ENDBRANCH   2   3
ENDBRANCH   1   2
BRANCH   1  17
ATOM     17  C   UNL     1       3.388  -2.670   6.220  1.00  0.00     0.000 C 
BRANCH  17  18
ATOM     18  C   UNL     1       2.376  -3.735   5.771  1.00  0.00     0.000 C 
BRANCH  18  19
ATOM     19  C   UNL     1       1.881  -4.619   6.931  1.00  0.00     0.000 C 
BRANCH  19  20
ATOM     20  C   UNL     1       0.947  -5.769   6.513  1.00  0.00     0.000 C 
BRANCH  20  21
ATOM     21  C   UNL     1       1.324  -6.379   5.152  1.00  0.00     0.000 C 
BRANCH  21  22
ATOM     22  C   UNL     1       0.367  -7.506   4.722  1.00  0.00    -0.000 C 
BRANCH  22  23
ATOM     23  C   UNL     1       1.064  -8.791   4.227  1.00  0.00    -0.000 C 
BRANCH  23  24
ATOM     24  C   UNL     1       2.604  -8.761   4.274  1.00  0.00    -0.000 C 
BRANCH  24  25
ATOM     25  C   UNL     1       3.303  -9.637   3.219  1.00  0.00    -0.000 C 
BRANCH  25  26
ATOM     26  C   UNL     1       4.791  -9.297   3.053  1.00  0.00    -0.000 C 
BRANCH  26  27
ATOM     27  C   UNL     1       5.320  -8.532   4.277  1.00  0.00    -0.000 C 
BRANCH  27  28
ATOM     28  C   UNL     1       6.327  -7.436   3.900  1.00  0.00    -0.000 C 
BRANCH  28  29
ATOM     29  C   UNL     1       5.941  -6.058   4.460  1.00  0.00    -0.003 C 
ATOM     30  C   UNL     1       5.051  -6.196   5.692  1.00  0.00     0.004 C 
ENDBRANCH  28  29
ENDBRANCH  27  28
ENDBRANCH  26  27
ENDBRANCH  25  26
ENDBRANCH  24  25
ENDBRANCH  23  24
ENDBRANCH  22  23
ENDBRANCH  21  22
ENDBRANCH  20  21
ENDBRANCH  19  20
ENDBRANCH  18  19
ENDBRANCH  17  18
ENDBRANCH   1  17
TORSDOF 26
ENDMDL
