MODEL 1
REMARK VINA RESULT:    -5.149      0.000      0.000
REMARK INTER + INTRA:          -5.954
REMARK INTER:                  -5.902
REMARK INTRA:                  -0.052
REMARK UNBOUND:                -0.052
REMARK SMILES O=C([O-])c1cc(O)c(O)c(O)c1
REMARK SMILES IDX 4 1 5 2 12 3 6 4 10 5 8 6 2 7 1 8 3 9 7 10 11 12 9 14
REMARK H PARENT 7 11 11 13 9 15
REMARK Flexibility Score: inf
ROOT
ATOM      1  C   UNL     1     -13.041  39.664  -9.981  1.00  0.00     0.005 A 
ATOM      2  C   UNL     1     -14.324  39.206 -10.320  1.00  0.00     0.060 A 
ATOM      3  C   UNL     1     -12.874  41.005  -9.602  1.00  0.00     0.060 A 
ATOM      4  C   UNL     1     -15.430  40.065 -10.283  1.00  0.00     0.162 A 
ATOM      5  C   UNL     1     -13.972  41.874  -9.562  1.00  0.00     0.162 A 
ATOM      6  C   UNL     1     -15.253  41.415  -9.900  1.00  0.00     0.200 A 
ENDROOT
BRANCH   1   7
ATOM      7  C   UNL     1     -11.878  38.749 -10.022  1.00  0.00     0.072 C 
ATOM      8  O   UNL     1     -10.704  39.204  -9.988  1.00  0.00    -0.545 OA
ATOM      9  O   UNL     1     -12.066  37.374 -10.099  1.00  0.00    -0.545 OA
ENDBRANCH   1   7
BRANCH   4  10
ATOM     10  O   UNL     1     -16.675  39.537 -10.633  1.00  0.00    -0.504 OA
ATOM     11  H   UNL     1     -17.423  39.369  -9.976  1.00  0.00     0.293 HD
ENDBRANCH   4  10
BRANCH   5  12
ATOM     12  O   UNL     1     -13.796  43.205  -9.184  1.00  0.00    -0.504 OA
ATOM     13  H   UNL     1     -12.916  43.686  -9.328  1.00  0.00     0.293 HD
ENDBRANCH   5  12
BRANCH   6  14
ATOM     14  O   UNL     1     -16.312  42.324  -9.842  1.00  0.00    -0.502 OA
ATOM     15  H   UNL     1     -16.624  42.777  -8.996  1.00  0.00     0.293 HD
ENDBRANCH   6  14
TORSDOF 4
ENDMDL
MODEL 2
REMARK VINA RESULT:    -5.076      0.283      2.452
REMARK INTER + INTRA:          -5.870
REMARK INTER:                  -5.817
REMARK INTRA:                  -0.053
REMARK UNBOUND:                -0.052
REMARK SMILES O=C([O-])c1cc(O)c(O)c(O)c1
REMARK SMILES IDX 4 1 5 2 12 3 6 4 10 5 8 6 2 7 1 8 3 9 7 10 11 12 9 14
REMARK H PARENT 7 11 11 13 9 15
REMARK Flexibility Score: inf
ROOT
ATOM      1  C   UNL     1     -13.080  39.679  -9.703  1.00  0.00     0.005 A 
ATOM      2  C   UNL     1     -12.934  41.024  -9.328  1.00  0.00     0.060 A 
ATOM      3  C   UNL     1     -14.341  39.221 -10.117  1.00  0.00     0.060 A 
ATOM      4  C   UNL     1     -14.022  41.905  -9.361  1.00  0.00     0.162 A 
ATOM      5  C   UNL     1     -15.437  40.092 -10.155  1.00  0.00     0.162 A 
ATOM      6  C   UNL     1     -15.289  41.435  -9.779  1.00  0.00     0.200 A 
ENDROOT
BRANCH   1   7
ATOM      7  C   UNL     1     -11.925  38.754  -9.665  1.00  0.00     0.072 C 
ATOM      8  O   UNL     1     -10.789  39.164  -9.308  1.00  0.00    -0.545 OA
ATOM      9  O   UNL     1     -12.079  37.420 -10.024  1.00  0.00    -0.545 OA
ENDBRANCH   1   7
BRANCH   4  10
ATOM     10  O   UNL     1     -13.799  43.228  -8.973  1.00  0.00    -0.504 OA
ATOM     11  H   UNL     1     -12.887  43.659  -8.927  1.00  0.00     0.293 HD
ENDBRANCH   4  10
BRANCH   5  12
ATOM     12  O   UNL     1     -16.686  39.628 -10.567  1.00  0.00    -0.504 OA
ATOM     13  H   UNL     1     -17.519  40.200 -10.486  1.00  0.00     0.293 HD
ENDBRANCH   5  12
BRANCH   6  14
ATOM     14  O   UNL     1     -16.414  42.260  -9.836  1.00  0.00    -0.502 OA
ATOM     15  H   UNL     1     -16.799  42.636 -10.690  1.00  0.00     0.293 HD
ENDBRANCH   6  14
TORSDOF 4
ENDMDL
MODEL 3
REMARK VINA RESULT:    -4.898      9.136     10.019
REMARK INTER + INTRA:          -5.666
REMARK INTER:                  -5.621
REMARK INTRA:                  -0.045
REMARK UNBOUND:                -0.052
REMARK SMILES O=C([O-])c1cc(O)c(O)c(O)c1
REMARK SMILES IDX 4 1 5 2 12 3 6 4 10 5 8 6 2 7 1 8 3 9 7 10 11 12 9 14
REMARK H PARENT 7 11 11 13 9 15
REMARK Flexibility Score: inf
ROOT
ATOM      1  C   UNL     1     -14.101  33.855  -3.447  1.00  0.00     0.005 A 
ATOM      2  C   UNL     1     -15.093  34.832  -3.262  1.00  0.00     0.060 A 
ATOM      3  C   UNL     1     -13.338  33.442  -2.344  1.00  0.00     0.060 A 
ATOM      4  C   UNL     1     -15.326  35.393  -2.001  1.00  0.00     0.162 A 
ATOM      5  C   UNL     1     -13.562  33.995  -1.077  1.00  0.00     0.162 A 
ATOM      6  C   UNL     1     -14.551  34.971  -0.894  1.00  0.00     0.200 A 
ENDROOT
BRANCH   1   7
ATOM      7  C   UNL     1     -13.862  33.266  -4.784  1.00  0.00     0.072 C 
ATOM      8  O   UNL     1     -14.568  32.309  -5.198  1.00  0.00    -0.545 OA
ATOM      9  O   UNL     1     -12.852  33.762  -5.602  1.00  0.00    -0.545 OA
ENDBRANCH   1   7
BRANCH   4  10
ATOM     10  O   UNL     1     -16.329  36.359  -1.894  1.00  0.00    -0.504 OA
ATOM     11  H   UNL     1     -16.538  37.040  -2.610  1.00  0.00     0.293 HD
ENDBRANCH   4  10
BRANCH   5  12
ATOM     12  O   UNL     1     -12.797  33.579   0.013  1.00  0.00    -0.504 OA
ATOM     13  H   UNL     1     -13.162  32.929   0.700  1.00  0.00     0.293 HD
ENDBRANCH   5  12
BRANCH   6  14
ATOM     14  O   UNL     1     -14.732  35.489   0.390  1.00  0.00    -0.502 OA
ATOM     15  H   UNL     1     -15.459  35.191   1.024  1.00  0.00     0.293 HD
ENDBRANCH   6  14
TORSDOF 4
ENDMDL
MODEL 4
REMARK VINA RESULT:    -4.895      7.868      9.367
REMARK INTER + INTRA:          -5.663
REMARK INTER:                  -5.618
REMARK INTRA:                  -0.045
REMARK UNBOUND:                -0.052
REMARK SMILES O=C([O-])c1cc(O)c(O)c(O)c1
REMARK SMILES IDX 4 1 5 2 12 3 6 4 10 5 8 6 2 7 1 8 3 9 7 10 11 12 9 14
REMARK H PARENT 7 11 11 13 9 15
REMARK Flexibility Score: inf
ROOT
ATOM      1  C   UNL     1     -13.596  33.692  -3.032  1.00  0.00     0.005 A 
ATOM      2  C   UNL     1     -12.515  34.587  -3.090  1.00  0.00     0.060 A 
ATOM      3  C   UNL     1     -14.365  33.479  -4.187  1.00  0.00     0.060 A 
ATOM      4  C   UNL     1     -12.199  35.261  -4.276  1.00  0.00     0.162 A 
ATOM      5  C   UNL     1     -14.060  34.147  -5.379  1.00  0.00     0.162 A 
ATOM      6  C   UNL     1     -12.981  35.040  -5.435  1.00  0.00     0.200 A 
ENDROOT
BRANCH   1   7
ATOM      7  C   UNL     1     -13.923  32.983  -1.775  1.00  0.00     0.072 C 
ATOM      8  O   UNL     1     -13.483  31.823  -1.561  1.00  0.00    -0.545 OA
ATOM      9  O   UNL     1     -14.721  33.590  -0.811  1.00  0.00    -0.545 OA
ENDBRANCH   1   7
BRANCH   4  10
ATOM     10  O   UNL     1     -11.110  36.135  -4.257  1.00  0.00    -0.504 OA
ATOM     11  H   UNL     1     -10.811  36.650  -3.442  1.00  0.00     0.293 HD
ENDBRANCH   4  10
BRANCH   5  12
ATOM     12  O   UNL     1     -14.830  33.928  -6.521  1.00  0.00    -0.504 OA
ATOM     13  H   UNL     1     -14.998  32.994  -6.878  1.00  0.00     0.293 HD
ENDBRANCH   5  12
BRANCH   6  14
ATOM     14  O   UNL     1     -12.719  35.679  -6.649  1.00  0.00    -0.502 OA
ATOM     15  H   UNL     1     -13.253  36.457  -7.006  1.00  0.00     0.293 HD
ENDBRANCH   6  14
TORSDOF 4
ENDMDL
MODEL 5
REMARK VINA RESULT:    -4.887      9.269     10.170
REMARK INTER + INTRA:          -5.653
REMARK INTER:                  -5.608
REMARK INTRA:                  -0.045
REMARK UNBOUND:                -0.052
REMARK SMILES O=C([O-])c1cc(O)c(O)c(O)c1
REMARK SMILES IDX 4 1 5 2 12 3 6 4 10 5 8 6 2 7 1 8 3 9 7 10 11 12 9 14
REMARK H PARENT 7 11 11 13 9 15
REMARK Flexibility Score: inf
ROOT
ATOM      1  C   UNL     1     -14.095  33.883  -3.281  1.00  0.00     0.005 A 
ATOM      2  C   UNL     1     -13.309  33.491  -2.185  1.00  0.00     0.060 A 
ATOM      3  C   UNL     1     -15.118  34.823  -3.083  1.00  0.00     0.060 A 
ATOM      4  C   UNL     1     -13.534  34.022  -0.909  1.00  0.00     0.162 A 
ATOM      5  C   UNL     1     -15.353  35.362  -1.812  1.00  0.00     0.162 A 
ATOM      6  C   UNL     1     -14.568  34.969  -0.719  1.00  0.00     0.200 A 
ENDROOT
BRANCH   1   7
ATOM      7  C   UNL     1     -13.850  33.317  -4.626  1.00  0.00     0.072 C 
ATOM      8  O   UNL     1     -14.624  32.446  -5.105  1.00  0.00    -0.545 OA
ATOM      9  O   UNL     1     -12.762  33.739  -5.381  1.00  0.00    -0.545 OA
ENDBRANCH   1   7
BRANCH   4  10
ATOM     10  O   UNL     1     -12.712  33.584   0.132  1.00  0.00    -0.504 OA
ATOM     11  H   UNL     1     -12.219  34.201   0.761  1.00  0.00     0.293 HD
ENDBRANCH   4  10
BRANCH   5  12
ATOM     12  O   UNL     1     -16.373  36.296  -1.625  1.00  0.00    -0.504 OA
ATOM     13  H   UNL     1     -17.274  36.029  -1.248  1.00  0.00     0.293 HD
ENDBRANCH   5  12
BRANCH   6  14
ATOM     14  O   UNL     1     -14.845  35.538   0.526  1.00  0.00    -0.502 OA
ATOM     15  H   UNL     1     -15.644  35.299   1.094  1.00  0.00     0.293 HD
ENDBRANCH   6  14
TORSDOF 4
ENDMDL
MODEL 6
REMARK VINA RESULT:    -4.851      7.809      9.018
REMARK INTER + INTRA:          -5.612
REMARK INTER:                  -5.568
REMARK INTRA:                  -0.045
REMARK UNBOUND:                -0.052
REMARK SMILES O=C([O-])c1cc(O)c(O)c(O)c1
REMARK SMILES IDX 4 1 5 2 12 3 6 4 10 5 8 6 2 7 1 8 3 9 7 10 11 12 9 14
REMARK H PARENT 7 11 11 13 9 15
REMARK Flexibility Score: inf
ROOT
ATOM      1  C   UNL     1     -13.574  33.695  -3.101  1.00  0.00     0.005 A 
ATOM      2  C   UNL     1     -14.338  33.482  -4.260  1.00  0.00     0.060 A 
ATOM      3  C   UNL     1     -12.498  34.595  -3.150  1.00  0.00     0.060 A 
ATOM      4  C   UNL     1     -14.039  34.152  -5.454  1.00  0.00     0.162 A 
ATOM      5  C   UNL     1     -12.190  35.271  -4.338  1.00  0.00     0.162 A 
ATOM      6  C   UNL     1     -12.953  35.057  -5.494  1.00  0.00     0.200 A 
ENDROOT
BRANCH   1   7
ATOM      7  C   UNL     1     -13.896  32.984  -1.844  1.00  0.00     0.072 C 
ATOM      8  O   UNL     1     -13.412  31.844  -1.611  1.00  0.00    -0.545 OA
ATOM      9  O   UNL     1     -14.738  33.564  -0.902  1.00  0.00    -0.545 OA
ENDBRANCH   1   7
BRANCH   4  10
ATOM     10  O   UNL     1     -14.843  33.889  -6.565  1.00  0.00    -0.504 OA
ATOM     11  H   UNL     1     -14.541  33.359  -7.370  1.00  0.00     0.293 HD
ENDBRANCH   4  10
BRANCH   5  12
ATOM     12  O   UNL     1     -11.118  36.164  -4.377  1.00  0.00    -0.504 OA
ATOM     13  H   UNL     1     -10.564  36.291  -5.215  1.00  0.00     0.293 HD
ENDBRANCH   5  12
BRANCH   6  14
ATOM     14  O   UNL     1     -12.602  35.757  -6.650  1.00  0.00    -0.502 OA
ATOM     15  H   UNL     1     -11.941  35.424  -7.337  1.00  0.00     0.293 HD
ENDBRANCH   6  14
TORSDOF 4
ENDMDL
MODEL 7
REMARK VINA RESULT:    -4.848      2.067      2.149
REMARK INTER + INTRA:          -5.609
REMARK INTER:                  -5.563
REMARK INTRA:                  -0.046
REMARK UNBOUND:                -0.052
REMARK SMILES O=C([O-])c1cc(O)c(O)c(O)c1
REMARK SMILES IDX 4 1 5 2 12 3 6 4 10 5 8 6 2 7 1 8 3 9 7 10 11 12 9 14
REMARK H PARENT 7 11 11 13 9 15
REMARK Flexibility Score: inf
ROOT
ATOM      1  C   UNL     1     -12.760  39.844  -7.964  1.00  0.00     0.005 A 
ATOM      2  C   UNL     1     -14.032  39.322  -7.675  1.00  0.00     0.060 A 
ATOM      3  C   UNL     1     -12.665  41.106  -8.572  1.00  0.00     0.060 A 
ATOM      4  C   UNL     1     -15.194  40.040  -7.984  1.00  0.00     0.162 A 
ATOM      5  C   UNL     1     -13.819  41.834  -8.885  1.00  0.00     0.162 A 
ATOM      6  C   UNL     1     -15.087  41.311  -8.597  1.00  0.00     0.200 A 
ENDROOT
BRANCH   1   7
ATOM      7  C   UNL     1     -11.537  39.079  -7.634  1.00  0.00     0.072 C 
ATOM      8  O   UNL     1     -10.790  38.640  -8.548  1.00  0.00    -0.545 OA
ATOM      9  O   UNL     1     -11.196  38.834  -6.308  1.00  0.00    -0.545 OA
ENDBRANCH   1   7
BRANCH   4  10
ATOM     10  O   UNL     1     -16.422  39.457  -7.667  1.00  0.00    -0.504 OA
ATOM     11  H   UNL     1     -17.315  39.811  -7.980  1.00  0.00     0.293 HD
ENDBRANCH   4  10
BRANCH   5  12
ATOM     12  O   UNL     1     -13.714  43.087  -9.490  1.00  0.00    -0.504 OA
ATOM     13  H   UNL     1     -12.952  43.310 -10.120  1.00  0.00     0.293 HD
ENDBRANCH   5  12
BRANCH   6  14
ATOM     14  O   UNL     1     -16.205  42.079  -8.931  1.00  0.00    -0.502 OA
ATOM     15  H   UNL     1     -16.936  41.774  -9.556  1.00  0.00     0.293 HD
ENDBRANCH   6  14
TORSDOF 4
ENDMDL
MODEL 8
REMARK VINA RESULT:    -4.779      8.133      9.103
REMARK INTER + INTRA:          -5.530
REMARK INTER:                  -5.486
REMARK INTRA:                  -0.045
REMARK UNBOUND:                -0.052
REMARK SMILES O=C([O-])c1cc(O)c(O)c(O)c1
REMARK SMILES IDX 4 1 5 2 12 3 6 4 10 5 8 6 2 7 1 8 3 9 7 10 11 12 9 14
REMARK H PARENT 7 11 11 13 9 15
REMARK Flexibility Score: inf
ROOT
ATOM      1  C   UNL     1     -17.600  37.266  -2.240  1.00  0.00     0.005 A 
ATOM      2  C   UNL     1     -16.609  36.273  -2.306  1.00  0.00     0.060 A 
ATOM      3  C   UNL     1     -17.801  38.102  -3.350  1.00  0.00     0.060 A 
ATOM      4  C   UNL     1     -15.826  36.110  -3.455  1.00  0.00     0.162 A 
ATOM      5  C   UNL     1     -17.025  37.949  -4.505  1.00  0.00     0.162 A 
ATOM      6  C   UNL     1     -16.035  36.958  -4.569  1.00  0.00     0.200 A 
ENDROOT
BRANCH   1   7
ATOM      7  C   UNL     1     -18.424  37.431  -1.021  1.00  0.00     0.072 C 
ATOM      8  O   UNL     1     -19.436  36.706  -0.829  1.00  0.00    -0.545 OA
ATOM      9  O   UNL     1     -18.091  38.389  -0.071  1.00  0.00    -0.545 OA
ENDBRANCH   1   7
BRANCH   4  10
ATOM     10  O   UNL     1     -14.860  35.102  -3.447  1.00  0.00    -0.504 OA
ATOM     11  H   UNL     1     -15.067  34.119  -3.553  1.00  0.00     0.293 HD
ENDBRANCH   4  10
BRANCH   5  12
ATOM     12  O   UNL     1     -17.232  38.785  -5.603  1.00  0.00    -0.504 OA
ATOM     13  H   UNL     1     -17.027  38.482  -6.548  1.00  0.00     0.293 HD
ENDBRANCH   5  12
BRANCH   6  14
ATOM     14  O   UNL     1     -15.291  36.849  -5.746  1.00  0.00    -0.502 OA
ATOM     15  H   UNL     1     -15.357  37.492  -6.520  1.00  0.00     0.293 HD
ENDBRANCH   6  14
TORSDOF 4
ENDMDL
MODEL 9
REMARK VINA RESULT:    -4.774      2.248      3.250
REMARK INTER + INTRA:          -5.524
REMARK INTER:                  -5.478
REMARK INTRA:                  -0.046
REMARK UNBOUND:                -0.052
REMARK SMILES O=C([O-])c1cc(O)c(O)c(O)c1
REMARK SMILES IDX 4 1 5 2 12 3 6 4 10 5 8 6 2 7 1 8 3 9 7 10 11 12 9 14
REMARK H PARENT 7 11 11 13 9 15
REMARK Flexibility Score: inf
ROOT
ATOM      1  C   UNL     1     -12.923  39.936  -7.672  1.00  0.00     0.005 A 
ATOM      2  C   UNL     1     -12.786  41.186  -8.298  1.00  0.00     0.060 A 
ATOM      3  C   UNL     1     -14.207  39.395  -7.505  1.00  0.00     0.060 A 
ATOM      4  C   UNL     1     -13.906  41.892  -8.751  1.00  0.00     0.162 A 
ATOM      5  C   UNL     1     -15.336  40.092  -7.955  1.00  0.00     0.162 A 
ATOM      6  C   UNL     1     -15.198  41.340  -8.578  1.00  0.00     0.200 A 
ENDROOT
BRANCH   1   7
ATOM      7  C   UNL     1     -11.733  39.195  -7.196  1.00  0.00     0.072 C 
ATOM      8  O   UNL     1     -11.432  38.078  -7.693  1.00  0.00    -0.545 OA
ATOM      9  O   UNL     1     -10.930  39.724  -6.191  1.00  0.00    -0.545 OA
ENDBRANCH   1   7
BRANCH   4  10
ATOM     10  O   UNL     1     -13.691  43.129  -9.364  1.00  0.00    -0.504 OA
ATOM     11  H   UNL     1     -13.812  43.300 -10.352  1.00  0.00     0.293 HD
ENDBRANCH   4  10
BRANCH   5  12
ATOM     12  O   UNL     1     -16.609  39.546  -7.784  1.00  0.00    -0.504 OA
ATOM     13  H   UNL     1     -16.837  38.616  -8.114  1.00  0.00     0.293 HD
ENDBRANCH   5  12
BRANCH   6  14
ATOM     14  O   UNL     1     -16.356  41.991  -9.008  1.00  0.00    -0.502 OA
ATOM     15  H   UNL     1     -16.493  42.990  -8.968  1.00  0.00     0.293 HD
ENDBRANCH   6  14
TORSDOF 4
ENDMDL
