MODEL 1
REMARK VINA RESULT:    -2.251      0.000      0.000
REMARK INTER + INTRA:          -2.251
REMARK INTER:                  -2.251
REMARK INTRA:                   0.000
REMARK UNBOUND:                 0.000
REMARK SMILES CC(=O)[O-]
REMARK SMILES IDX 1 1 2 2 3 3 4 4
REMARK H PARENT
REMARK Flexibility Score: inf
ROOT
ATOM      1  C   UNL     1     -47.107  12.848  -9.216  1.00  0.00     0.063 C 
ATOM      2  C   UNL     1     -46.238  12.385 -10.336  1.00  0.00     0.038 C 
ATOM      3  O   UNL     1     -45.609  13.222 -11.035  1.00  0.00    -0.550 OA
ATOM      4  O   UNL     1     -46.076  11.027 -10.576  1.00  0.00    -0.550 OA
ENDROOT
TORSDOF 0
ENDMDL
MODEL 2
REMARK VINA RESULT:    -2.133     19.173     19.450
REMARK INTER + INTRA:          -2.133
REMARK INTER:                  -2.133
REMARK INTRA:                   0.000
REMARK UNBOUND:                 0.000
REMARK SMILES CC(=O)[O-]
REMARK SMILES IDX 1 1 2 2 3 3 4 4
REMARK H PARENT
REMARK Flexibility Score: inf
ROOT
ATOM      1  C   UNL     1     -43.043  27.840   1.579  1.00  0.00     0.063 C 
ATOM      2  C   UNL     1     -44.293  27.170   2.037  1.00  0.00     0.038 C 
ATOM      3  O   UNL     1     -45.340  27.240   1.340  1.00  0.00    -0.550 OA
ATOM      4  O   UNL     1     -44.293  26.422   3.207  1.00  0.00    -0.550 OA
ENDROOT
TORSDOF 0
ENDMDL
MODEL 3
REMARK VINA RESULT:    -2.118     19.138     19.723
REMARK INTER + INTRA:          -2.118
REMARK INTER:                  -2.118
REMARK INTRA:                   0.000
REMARK UNBOUND:                 0.000
REMARK SMILES CC(=O)[O-]
REMARK SMILES IDX 1 1 2 2 3 3 4 4
REMARK H PARENT
REMARK Flexibility Score: inf
ROOT
ATOM      1  C   UNL     1     -43.299  28.501   2.750  1.00  0.00     0.063 C 
ATOM      2  C   UNL     1     -43.859  27.174   2.368  1.00  0.00     0.038 C 
ATOM      3  O   UNL     1     -44.456  26.469   3.223  1.00  0.00    -0.550 OA
ATOM      4  O   UNL     1     -43.773  26.735   1.053  1.00  0.00    -0.550 OA
ENDROOT
TORSDOF 0
ENDMDL
MODEL 4
REMARK VINA RESULT:    -2.072     17.855     18.453
REMARK INTER + INTRA:          -2.072
REMARK INTER:                  -2.072
REMARK INTRA:                   0.000
REMARK UNBOUND:                 0.000
REMARK SMILES CC(=O)[O-]
REMARK SMILES IDX 1 1 2 2 3 3 4 4
REMARK H PARENT
REMARK Flexibility Score: inf
ROOT
ATOM      1  C   UNL     1     -42.845  27.881   0.285  1.00  0.00     0.063 C 
ATOM      2  C   UNL     1     -44.106  27.095   0.397  1.00  0.00     0.038 C 
ATOM      3  O   UNL     1     -44.527  26.431  -0.587  1.00  0.00    -0.550 OA
ATOM      4  O   UNL     1     -44.792  27.047   1.603  1.00  0.00    -0.550 OA
ENDROOT
TORSDOF 0
ENDMDL
MODEL 5
REMARK VINA RESULT:    -2.023     24.585     24.604
REMARK INTER + INTRA:          -2.023
REMARK INTER:                  -2.023
REMARK INTRA:                   0.000
REMARK UNBOUND:                 0.000
REMARK SMILES CC(=O)[O-]
REMARK SMILES IDX 1 1 2 2 3 3 4 4
REMARK H PARENT
REMARK Flexibility Score: inf
ROOT
ATOM      1  C   UNL     1     -29.561  11.052   7.493  1.00  0.00     0.063 C 
ATOM      2  C   UNL     1     -28.415  11.418   6.612  1.00  0.00     0.038 C 
ATOM      3  O   UNL     1     -27.797  12.500   6.794  1.00  0.00    -0.550 OA
ATOM      4  O   UNL     1     -27.991  10.541   5.623  1.00  0.00    -0.550 OA
ENDROOT
TORSDOF 0
ENDMDL
MODEL 6
REMARK VINA RESULT:    -1.954     20.017     20.573
REMARK INTER + INTRA:          -1.954
REMARK INTER:                  -1.954
REMARK INTRA:                   0.000
REMARK UNBOUND:                 0.000
REMARK SMILES CC(=O)[O-]
REMARK SMILES IDX 1 1 2 2 3 3 4 4
REMARK H PARENT
REMARK Flexibility Score: inf
ROOT
ATOM      1  C   UNL     1     -43.748  28.390   3.988  1.00  0.00     0.063 C 
ATOM      2  C   UNL     1     -44.611  27.192   3.783  1.00  0.00     0.038 C 
ATOM      3  O   UNL     1     -45.811  27.204   4.165  1.00  0.00    -0.550 OA
ATOM      4  O   UNL     1     -44.110  26.079   3.120  1.00  0.00    -0.550 OA
ENDROOT
TORSDOF 0
ENDMDL
MODEL 7
REMARK VINA RESULT:    -1.947     14.307     14.952
REMARK INTER + INTRA:          -1.947
REMARK INTER:                  -1.947
REMARK INTRA:                   0.000
REMARK UNBOUND:                 0.000
REMARK SMILES CC(=O)[O-]
REMARK SMILES IDX 1 1 2 2 3 3 4 4
REMARK H PARENT
REMARK Flexibility Score: inf
ROOT
ATOM      1  C   UNL     1     -45.480  28.173  -6.994  1.00  0.00     0.063 C 
ATOM      2  C   UNL     1     -45.799  26.752  -6.677  1.00  0.00     0.038 C 
ATOM      3  O   UNL     1     -45.990  26.397  -5.484  1.00  0.00    -0.550 OA
ATOM      4  O   UNL     1     -45.941  25.825  -7.701  1.00  0.00    -0.550 OA
ENDROOT
TORSDOF 0
ENDMDL
MODEL 8
REMARK VINA RESULT:    -1.913     15.957     16.549
REMARK INTER + INTRA:          -1.913
REMARK INTER:                  -1.913
REMARK INTRA:                   0.000
REMARK UNBOUND:                 0.000
REMARK SMILES CC(=O)[O-]
REMARK SMILES IDX 1 1 2 2 3 3 4 4
REMARK H PARENT
REMARK Flexibility Score: inf
ROOT
ATOM      1  C   UNL     1     -45.947  27.365  -2.168  1.00  0.00     0.063 C 
ATOM      2  C   UNL     1     -45.328  26.242  -1.408  1.00  0.00     0.038 C 
ATOM      3  O   UNL     1     -44.480  26.481  -0.507  1.00  0.00    -0.550 OA
ATOM      4  O   UNL     1     -45.723  24.934  -1.652  1.00  0.00    -0.550 OA
ENDROOT
TORSDOF 0
ENDMDL
