MODEL 1
REMARK VINA RESULT:    -4.379      0.000      0.000
REMARK INTER + INTRA:         -12.435
REMARK INTER:                  -9.499
REMARK INTRA:                  -2.936
REMARK UNBOUND:                -2.936
REMARK SMILES CCCCCCCCCCCCCCCCCCCCCC(=O)[O-]
REMARK SMILES IDX 12 1 11 2 10 3 9 4 8 5 7 6 6 7 5 8 4 9 3 10 2 11 1 12 13 13
REMARK SMILES IDX 14 14 15 15 16 16 17 17 18 18 19 19 20 20 21 21 22 22 23 23
REMARK SMILES IDX 24 24
REMARK H PARENT
REMARK Flexibility Score: inf
ROOT
ATOM      1  C   UNL     1      57.797  33.043  78.603  1.00  0.00     0.000 C 
ENDROOT
BRANCH   1   2
ATOM      2  C   UNL     1      58.138  32.850  77.119  1.00  0.00     0.000 C 
BRANCH   2   3
ATOM      3  C   UNL     1      58.947  31.568  76.851  1.00  0.00     0.000 C 
BRANCH   3   4
ATOM      4  C   UNL     1      58.101  30.307  76.582  1.00  0.00    -0.000 C 
BRANCH   4   5
ATOM      5  C   UNL     1      57.910  29.947  75.094  1.00  0.00    -0.000 C 
BRANCH   5   6
ATOM      6  C   UNL     1      56.464  29.610  74.684  1.00  0.00    -0.000 C 
BRANCH   6   7
ATOM      7  C   UNL     1      55.924  30.541  73.586  1.00  0.00    -0.000 C 
BRANCH   7   8
ATOM      8  C   UNL     1      56.614  31.917  73.579  1.00  0.00    -0.000 C 
BRANCH   8   9
ATOM      9  C   UNL     1      57.114  32.395  72.201  1.00  0.00    -0.000 C 
BRANCH   9  10
ATOM     10  C   UNL     1      58.302  33.376  72.237  1.00  0.00    -0.000 C 
BRANCH  10  11
ATOM     11  C   UNL     1      59.126  33.345  73.537  1.00  0.00    -0.003 C 
ATOM     12  C   UNL     1      60.327  32.405  73.456  1.00  0.00     0.004 C 
ENDBRANCH  10  11
ENDBRANCH   9  10
ENDBRANCH   8   9
ENDBRANCH   7   8
ENDBRANCH   6   7
ENDBRANCH   5   6
ENDBRANCH   4   5
ENDBRANCH   3   4
ENDBRANCH   2   3
ENDBRANCH   1   2
BRANCH   1  13
ATOM     13  C   UNL     1      58.888  33.858  79.313  1.00  0.00     0.000 C 
BRANCH  13  14
ATOM     14  C   UNL     1      58.521  34.214  80.765  1.00  0.00     0.000 C 
BRANCH  14  15
ATOM     15  C   UNL     1      58.964  35.618  81.227  1.00  0.00     0.000 C 
BRANCH  15  16
ATOM     16  C   UNL     1      58.139  36.789  80.655  1.00  0.00     0.000 C 
BRANCH  16  17
ATOM     17  C   UNL     1      58.821  37.564  79.511  1.00  0.00     0.000 C 
BRANCH  17  18
ATOM     18  C   UNL     1      57.980  37.690  78.226  1.00  0.00     0.000 C 
BRANCH  18  19
ATOM     19  C   UNL     1      56.673  36.870  78.258  1.00  0.00     0.000 C 
BRANCH  19  20
ATOM     20  C   UNL     1      56.472  36.038  76.983  1.00  0.00     0.006 C 
BRANCH  20  21
ATOM     21  C   UNL     1      56.203  36.939  75.774  1.00  0.00     0.053 C 
BRANCH  21  22
ATOM     22  C   UNL     1      56.554  36.227  74.504  1.00  0.00     0.041 C 
ATOM     23  O   UNL     1      55.811  35.309  74.067  1.00  0.00    -0.550 OA
ATOM     24  O   UNL     1      57.672  36.616  73.776  1.00  0.00    -0.550 OA
ENDBRANCH  21  22
ENDBRANCH  20  21
ENDBRANCH  19  20
ENDBRANCH  18  19
ENDBRANCH  17  18
ENDBRANCH  16  17
ENDBRANCH  15  16
ENDBRANCH  14  15
ENDBRANCH  13  14
ENDBRANCH   1  13
TORSDOF 20
ENDMDL
MODEL 2
REMARK VINA RESULT:    -4.370      1.946      3.439
REMARK INTER + INTRA:         -12.415
REMARK INTER:                  -8.781
REMARK INTRA:                  -3.634
REMARK UNBOUND:                -2.936
REMARK SMILES CCCCCCCCCCCCCCCCCCCCCC(=O)[O-]
REMARK SMILES IDX 12 1 11 2 10 3 9 4 8 5 7 6 6 7 5 8 4 9 3 10 2 11 1 12 13 13
REMARK SMILES IDX 14 14 15 15 16 16 17 17 18 18 19 19 20 20 21 21 22 22 23 23
REMARK SMILES IDX 24 24
REMARK H PARENT
REMARK Flexibility Score: inf
ROOT
ATOM      1  C   UNL     1      58.641  34.589  76.348  1.00  0.00     0.000 C 
ENDROOT
BRANCH   1   2
ATOM      2  C   UNL     1      57.992  35.185  75.090  1.00  0.00     0.000 C 
BRANCH   2   3
ATOM      3  C   UNL     1      56.480  34.911  75.010  1.00  0.00     0.000 C 
BRANCH   3   4
ATOM      4  C   UNL     1      55.975  34.434  73.632  1.00  0.00    -0.000 C 
BRANCH   4   5
ATOM      5  C   UNL     1      57.079  34.093  72.609  1.00  0.00    -0.000 C 
BRANCH   5   6
ATOM      6  C   UNL     1      57.312  32.588  72.378  1.00  0.00    -0.000 C 
BRANCH   6   7
ATOM      7  C   UNL     1      56.125  31.724  72.837  1.00  0.00    -0.000 C 
BRANCH   7   8
ATOM      8  C   UNL     1      56.493  30.769  73.987  1.00  0.00    -0.000 C 
BRANCH   8   9
ATOM      9  C   UNL     1      57.638  31.249  74.900  1.00  0.00    -0.000 C 
BRANCH   9  10
ATOM     10  C   UNL     1      58.016  30.285  76.043  1.00  0.00    -0.000 C 
BRANCH  10  11
ATOM     11  C   UNL     1      59.522  30.205  76.348  1.00  0.00    -0.003 C 
ATOM     12  C   UNL     1      60.335  31.269  75.612  1.00  0.00     0.004 C 
ENDBRANCH  10  11
ENDBRANCH   9  10
ENDBRANCH   8   9
ENDBRANCH   7   8
ENDBRANCH   6   7
ENDBRANCH   5   6
ENDBRANCH   4   5
ENDBRANCH   3   4
ENDBRANCH   2   3
ENDBRANCH   1   2
BRANCH   1  13
ATOM     13  C   UNL     1      57.593  33.887  77.224  1.00  0.00     0.000 C 
BRANCH  13  14
ATOM     14  C   UNL     1      58.216  33.122  78.406  1.00  0.00     0.000 C 
BRANCH  14  15
ATOM     15  C   UNL     1      57.898  33.700  79.801  1.00  0.00     0.000 C 
BRANCH  15  16
ATOM     16  C   UNL     1      58.924  34.717  80.341  1.00  0.00     0.000 C 
BRANCH  16  17
ATOM     17  C   UNL     1      58.617  36.189  80.003  1.00  0.00     0.000 C 
BRANCH  17  18
ATOM     18  C   UNL     1      57.119  36.519  79.855  1.00  0.00     0.000 C 
BRANCH  18  19
ATOM     19  C   UNL     1      56.752  37.129  78.486  1.00  0.00     0.000 C 
BRANCH  19  20
ATOM     20  C   UNL     1      57.548  38.407  78.182  1.00  0.00     0.006 C 
BRANCH  20  21
ATOM     21  C   UNL     1      57.953  38.465  76.706  1.00  0.00     0.053 C 
BRANCH  21  22
ATOM     22  C   UNL     1      59.444  38.510  76.575  1.00  0.00     0.041 C 
ATOM     23  O   UNL     1      60.160  37.684  77.201  1.00  0.00    -0.550 OA
ATOM     24  O   UNL     1      60.039  39.430  75.720  1.00  0.00    -0.550 OA
ENDBRANCH  21  22
ENDBRANCH  20  21
ENDBRANCH  19  20
ENDBRANCH  18  19
ENDBRANCH  17  18
ENDBRANCH  16  17
ENDBRANCH  15  16
ENDBRANCH  14  15
ENDBRANCH  13  14
ENDBRANCH   1  13
TORSDOF 20
ENDMDL
MODEL 3
REMARK VINA RESULT:    -4.238      2.073      6.868
REMARK INTER + INTRA:         -12.129
REMARK INTER:                  -9.569
REMARK INTRA:                  -2.560
REMARK UNBOUND:                -2.936
REMARK SMILES CCCCCCCCCCCCCCCCCCCCCC(=O)[O-]
REMARK SMILES IDX 12 1 11 2 10 3 9 4 8 5 7 6 6 7 5 8 4 9 3 10 2 11 1 12 13 13
REMARK SMILES IDX 14 14 15 15 16 16 17 17 18 18 19 19 20 20 21 21 22 22 23 23
REMARK SMILES IDX 24 24
REMARK H PARENT
REMARK Flexibility Score: inf
ROOT
ATOM      1  C   UNL     1      58.017  34.217  77.557  1.00  0.00     0.000 C 
ENDROOT
BRANCH   1   2
ATOM      2  C   UNL     1      57.844  33.079  78.573  1.00  0.00     0.000 C 
BRANCH   2   3
ATOM      3  C   UNL     1      57.871  33.569  80.031  1.00  0.00     0.000 C 
BRANCH   3   4
ATOM      4  C   UNL     1      59.088  34.441  80.405  1.00  0.00    -0.000 C 
BRANCH   4   5
ATOM      5  C   UNL     1      58.757  35.742  81.164  1.00  0.00    -0.000 C 
BRANCH   5   6
ATOM      6  C   UNL     1      58.462  36.962  80.272  1.00  0.00    -0.000 C 
BRANCH   6   7
ATOM      7  C   UNL     1      56.957  37.223  80.098  1.00  0.00    -0.000 C 
BRANCH   7   8
ATOM      8  C   UNL     1      56.516  37.213  78.623  1.00  0.00    -0.000 C 
BRANCH   8   9
ATOM      9  C   UNL     1      57.393  38.049  77.669  1.00  0.00    -0.000 C 
BRANCH   9  10
ATOM     10  C   UNL     1      57.221  37.731  76.171  1.00  0.00    -0.000 C 
BRANCH  10  11
ATOM     11  C   UNL     1      55.989  36.874  75.830  1.00  0.00    -0.003 C 
ATOM     12  C   UNL     1      55.821  36.647  74.329  1.00  0.00     0.004 C 
ENDBRANCH  10  11
ENDBRANCH   9  10
ENDBRANCH   8   9
ENDBRANCH   7   8
ENDBRANCH   6   7
ENDBRANCH   5   6
ENDBRANCH   4   5
ENDBRANCH   3   4
ENDBRANCH   2   3
ENDBRANCH   1   2
BRANCH   1  13
ATOM     13  C   UNL     1      57.625  33.754  76.145  1.00  0.00     0.000 C 
BRANCH  13  14
ATOM     14  C   UNL     1      58.802  33.793  75.153  1.00  0.00     0.000 C 
BRANCH  14  15
ATOM     15  C   UNL     1      59.374  32.415  74.762  1.00  0.00     0.000 C 
BRANCH  15  16
ATOM     16  C   UNL     1      59.942  31.583  75.930  1.00  0.00     0.000 C 
BRANCH  16  17
ATOM     17  C   UNL     1      61.080  30.620  75.546  1.00  0.00     0.000 C 
BRANCH  17  18
ATOM     18  C   UNL     1      60.626  29.189  75.196  1.00  0.00     0.000 C 
BRANCH  18  19
ATOM     19  C   UNL     1      59.392  28.719  75.996  1.00  0.00     0.000 C 
BRANCH  19  20
ATOM     20  C   UNL     1      58.133  28.617  75.122  1.00  0.00     0.006 C 
BRANCH  20  21
ATOM     21  C   UNL     1      56.978  29.424  75.723  1.00  0.00     0.053 C 
BRANCH  21  22
ATOM     22  C   UNL     1      56.055  29.898  74.645  1.00  0.00     0.041 C 
ATOM     23  O   UNL     1      54.874  29.462  74.584  1.00  0.00    -0.550 OA
ATOM     24  O   UNL     1      56.481  30.863  73.739  1.00  0.00    -0.550 OA
ENDBRANCH  21  22
ENDBRANCH  20  21
ENDBRANCH  19  20
ENDBRANCH  18  19
ENDBRANCH  17  18
ENDBRANCH  16  17
ENDBRANCH  15  16
ENDBRANCH  14  15
ENDBRANCH  13  14
ENDBRANCH   1  13
TORSDOF 20
ENDMDL
MODEL 4
REMARK VINA RESULT:    -4.232      1.467      3.383
REMARK INTER + INTRA:         -12.116
REMARK INTER:                  -9.182
REMARK INTRA:                  -2.934
REMARK UNBOUND:                -2.936
REMARK SMILES CCCCCCCCCCCCCCCCCCCCCC(=O)[O-]
REMARK SMILES IDX 12 1 11 2 10 3 9 4 8 5 7 6 6 7 5 8 4 9 3 10 2 11 1 12 13 13
REMARK SMILES IDX 14 14 15 15 16 16 17 17 18 18 19 19 20 20 21 21 22 22 23 23
REMARK SMILES IDX 24 24
REMARK H PARENT
REMARK Flexibility Score: inf
ROOT
ATOM      1  C   UNL     1      58.404  34.672  76.427  1.00  0.00     0.000 C 
ENDROOT
BRANCH   1   2
ATOM      2  C   UNL     1      58.194  34.317  74.948  1.00  0.00     0.000 C 
BRANCH   2   3
ATOM      3  C   UNL     1      59.488  33.860  74.251  1.00  0.00     0.000 C 
BRANCH   3   4
ATOM      4  C   UNL     1      59.481  32.400  73.754  1.00  0.00    -0.000 C 
BRANCH   4   5
ATOM      5  C   UNL     1      60.702  31.556  74.175  1.00  0.00    -0.000 C 
BRANCH   5   6
ATOM      6  C   UNL     1      60.693  31.079  75.639  1.00  0.00    -0.000 C 
BRANCH   6   7
ATOM      7  C   UNL     1      59.337  30.493  76.065  1.00  0.00    -0.000 C 
BRANCH   7   8
ATOM      8  C   UNL     1      59.119  29.057  75.555  1.00  0.00    -0.000 C 
BRANCH   8   9
ATOM      9  C   UNL     1      57.654  28.678  75.264  1.00  0.00    -0.000 C 
BRANCH   9  10
ATOM     10  C   UNL     1      56.649  29.846  75.318  1.00  0.00    -0.000 C 
BRANCH  10  11
ATOM     11  C   UNL     1      55.767  29.997  74.066  1.00  0.00    -0.003 C 
ATOM     12  C   UNL     1      56.083  31.259  73.266  1.00  0.00     0.004 C 
ENDBRANCH  10  11
ENDBRANCH   9  10
ENDBRANCH   8   9
ENDBRANCH   7   8
ENDBRANCH   6   7
ENDBRANCH   5   6
ENDBRANCH   4   5
ENDBRANCH   3   4
ENDBRANCH   2   3
ENDBRANCH   1   2
BRANCH   1  13
ATOM     13  C   UNL     1      57.558  33.764  77.332  1.00  0.00     0.000 C 
BRANCH  13  14
ATOM     14  C   UNL     1      58.410  32.909  78.288  1.00  0.00     0.000 C 
BRANCH  14  15
ATOM     15  C   UNL     1      59.261  33.707  79.297  1.00  0.00     0.000 C 
BRANCH  15  16
ATOM     16  C   UNL     1      58.496  34.240  80.526  1.00  0.00     0.000 C 
BRANCH  16  17
ATOM     17  C   UNL     1      58.888  35.662  80.967  1.00  0.00     0.000 C 
BRANCH  17  18
ATOM     18  C   UNL     1      58.513  36.775  79.970  1.00  0.00     0.000 C 
BRANCH  18  19
ATOM     19  C   UNL     1      57.020  36.778  79.578  1.00  0.00     0.000 C 
BRANCH  19  20
ATOM     20  C   UNL     1      56.661  37.945  78.647  1.00  0.00     0.006 C 
BRANCH  20  21
ATOM     21  C   UNL     1      57.723  38.127  77.557  1.00  0.00     0.053 C 
BRANCH  21  22
ATOM     22  C   UNL     1      57.090  38.093  76.201  1.00  0.00     0.041 C 
ATOM     23  O   UNL     1      56.173  37.266  75.950  1.00  0.00    -0.550 OA
ATOM     24  O   UNL     1      57.477  39.010  75.231  1.00  0.00    -0.550 OA
ENDBRANCH  21  22
ENDBRANCH  20  21
ENDBRANCH  19  20
ENDBRANCH  18  19
ENDBRANCH  17  18
ENDBRANCH  16  17
ENDBRANCH  15  16
ENDBRANCH  14  15
ENDBRANCH  13  14
ENDBRANCH   1  13
TORSDOF 20
ENDMDL
MODEL 5
REMARK VINA RESULT:    -4.211      2.046      7.047
REMARK INTER + INTRA:         -12.071
REMARK INTER:                  -8.902
REMARK INTRA:                  -3.170
REMARK UNBOUND:                -2.936
REMARK SMILES CCCCCCCCCCCCCCCCCCCCCC(=O)[O-]
REMARK SMILES IDX 12 1 11 2 10 3 9 4 8 5 7 6 6 7 5 8 4 9 3 10 2 11 1 12 13 13
REMARK SMILES IDX 14 14 15 15 16 16 17 17 18 18 19 19 20 20 21 21 22 22 23 23
REMARK SMILES IDX 24 24
REMARK H PARENT
REMARK Flexibility Score: inf
ROOT
ATOM      1  C   UNL     1      57.065  34.675  75.570  1.00  0.00     0.000 C 
ENDROOT
BRANCH   1   2
ATOM      2  C   UNL     1      58.179  34.312  76.561  1.00  0.00     0.000 C 
BRANCH   2   3
ATOM      3  C   UNL     1      57.649  33.638  77.839  1.00  0.00     0.000 C 
BRANCH   3   4
ATOM      4  C   UNL     1      58.687  33.467  78.967  1.00  0.00    -0.000 C 
BRANCH   4   5
ATOM      5  C   UNL     1      58.491  34.389  80.188  1.00  0.00    -0.000 C 
BRANCH   5   6
ATOM      6  C   UNL     1      58.921  35.852  79.978  1.00  0.00    -0.000 C 
BRANCH   6   7
ATOM      7  C   UNL     1      58.048  36.848  80.761  1.00  0.00    -0.000 C 
BRANCH   7   8
ATOM      8  C   UNL     1      56.739  37.196  80.031  1.00  0.00    -0.000 C 
BRANCH   8   9
ATOM      9  C   UNL     1      56.821  37.185  78.492  1.00  0.00    -0.000 C 
BRANCH   9  10
ATOM     10  C   UNL     1      57.435  38.448  77.857  1.00  0.00    -0.000 C 
BRANCH  10  11
ATOM     11  C   UNL     1      58.012  38.246  76.445  1.00  0.00    -0.003 C 
ATOM     12  C   UNL     1      56.953  38.351  75.350  1.00  0.00     0.004 C 
ENDBRANCH  10  11
ENDBRANCH   9  10
ENDBRANCH   8   9
ENDBRANCH   7   8
ENDBRANCH   6   7
ENDBRANCH   5   6
ENDBRANCH   4   5
ENDBRANCH   3   4
ENDBRANCH   2   3
ENDBRANCH   1   2
BRANCH   1  13
ATOM     13  C   UNL     1      57.491  34.359  74.128  1.00  0.00     0.000 C 
BRANCH  13  14
ATOM     14  C   UNL     1      56.474  33.475  73.383  1.00  0.00     0.000 C 
BRANCH  14  15
ATOM     15  C   UNL     1      56.950  32.039  73.085  1.00  0.00     0.000 C 
BRANCH  15  16
ATOM     16  C   UNL     1      55.977  30.921  73.513  1.00  0.00     0.000 C 
BRANCH  16  17
ATOM     17  C   UNL     1      56.520  29.968  74.594  1.00  0.00     0.000 C 
BRANCH  17  18
ATOM     18  C   UNL     1      57.408  30.639  75.659  1.00  0.00     0.000 C 
BRANCH  18  19
ATOM     19  C   UNL     1      58.733  29.891  75.922  1.00  0.00     0.000 C 
BRANCH  19  20
ATOM     20  C   UNL     1      59.845  30.311  74.949  1.00  0.00     0.006 C 
BRANCH  20  21
ATOM     21  C   UNL     1      60.128  31.813  75.052  1.00  0.00     0.053 C 
BRANCH  21  22
ATOM     22  C   UNL     1      60.979  32.264  73.906  1.00  0.00     0.041 C 
ATOM     23  O   UNL     1      62.233  32.297  74.022  1.00  0.00    -0.550 OA
ATOM     24  O   UNL     1      60.390  32.595  72.691  1.00  0.00    -0.550 OA
ENDBRANCH  21  22
ENDBRANCH  20  21
ENDBRANCH  19  20
ENDBRANCH  18  19
ENDBRANCH  17  18
ENDBRANCH  16  17
ENDBRANCH  15  16
ENDBRANCH  14  15
ENDBRANCH  13  14
ENDBRANCH   1  13
TORSDOF 20
ENDMDL
MODEL 6
REMARK VINA RESULT:    -4.192      1.322      6.684
REMARK INTER + INTRA:         -12.029
REMARK INTER:                  -9.649
REMARK INTRA:                  -2.380
REMARK UNBOUND:                -2.936
REMARK SMILES CCCCCCCCCCCCCCCCCCCCCC(=O)[O-]
REMARK SMILES IDX 12 1 11 2 10 3 9 4 8 5 7 6 6 7 5 8 4 9 3 10 2 11 1 12 13 13
REMARK SMILES IDX 14 14 15 15 16 16 17 17 18 18 19 19 20 20 21 21 22 22 23 23
REMARK SMILES IDX 24 24
REMARK H PARENT
REMARK Flexibility Score: inf
ROOT
ATOM      1  C   UNL     1      57.995  32.969  76.691  1.00  0.00     0.000 C 
ENDROOT
BRANCH   1   2
ATOM      2  C   UNL     1      57.665  33.932  77.840  1.00  0.00     0.000 C 
BRANCH   2   3
ATOM      3  C   UNL     1      58.297  33.508  79.178  1.00  0.00     0.000 C 
BRANCH   3   4
ATOM      4  C   UNL     1      58.090  34.499  80.341  1.00  0.00    -0.000 C 
BRANCH   4   5
ATOM      5  C   UNL     1      59.044  35.712  80.349  1.00  0.00    -0.000 C 
BRANCH   5   6
ATOM      6  C   UNL     1      58.352  37.087  80.377  1.00  0.00    -0.000 C 
BRANCH   6   7
ATOM      7  C   UNL     1      56.852  37.005  80.046  1.00  0.00    -0.000 C 
BRANCH   7   8
ATOM      8  C   UNL     1      56.451  37.906  78.865  1.00  0.00    -0.000 C 
BRANCH   8   9
ATOM      9  C   UNL     1      56.950  37.439  77.483  1.00  0.00    -0.000 C 
BRANCH   9  10
ATOM     10  C   UNL     1      57.957  38.380  76.794  1.00  0.00    -0.000 C 
BRANCH  10  11
ATOM     11  C   UNL     1      58.383  39.597  77.636  1.00  0.00    -0.003 C 
ATOM     12  C   UNL     1      57.857  40.918  77.078  1.00  0.00     0.004 C 
ENDBRANCH  10  11
ENDBRANCH   9  10
ENDBRANCH   8   9
ENDBRANCH   7   8
ENDBRANCH   6   7
ENDBRANCH   5   6
ENDBRANCH   4   5
ENDBRANCH   3   4
ENDBRANCH   2   3
ENDBRANCH   1   2
BRANCH   1  13
ATOM     13  C   UNL     1      58.483  31.617  77.233  1.00  0.00     0.000 C 
BRANCH  13  14
ATOM     14  C   UNL     1      58.645  30.553  76.132  1.00  0.00     0.000 C 
BRANCH  14  15
ATOM     15  C   UNL     1      57.501  29.523  76.044  1.00  0.00     0.000 C 
BRANCH  15  16
ATOM     16  C   UNL     1      56.941  29.280  74.628  1.00  0.00     0.000 C 
BRANCH  16  17
ATOM     17  C   UNL     1      55.687  30.102  74.277  1.00  0.00     0.000 C 
BRANCH  17  18
ATOM     18  C   UNL     1      55.886  31.133  73.149  1.00  0.00     0.000 C 
BRANCH  18  19
ATOM     19  C   UNL     1      57.195  31.942  73.274  1.00  0.00     0.000 C 
BRANCH  19  20
ATOM     20  C   UNL     1      57.212  33.172  72.353  1.00  0.00     0.006 C 
BRANCH  20  21
ATOM     21  C   UNL     1      57.484  34.452  73.150  1.00  0.00     0.053 C 
BRANCH  21  22
ATOM     22  C   UNL     1      56.197  35.067  73.604  1.00  0.00     0.041 C 
ATOM     23  O   UNL     1      55.320  35.396  72.762  1.00  0.00    -0.550 OA
ATOM     24  O   UNL     1      55.945  35.227  74.962  1.00  0.00    -0.550 OA
ENDBRANCH  21  22
ENDBRANCH  20  21
ENDBRANCH  19  20
ENDBRANCH  18  19
ENDBRANCH  17  18
ENDBRANCH  16  17
ENDBRANCH  15  16
ENDBRANCH  14  15
ENDBRANCH  13  14
ENDBRANCH   1  13
TORSDOF 20
ENDMDL
MODEL 7
REMARK VINA RESULT:    -4.159      3.378      7.093
REMARK INTER + INTRA:         -11.959
REMARK INTER:                  -9.062
REMARK INTRA:                  -2.897
REMARK UNBOUND:                -2.936
REMARK SMILES CCCCCCCCCCCCCCCCCCCCCC(=O)[O-]
REMARK SMILES IDX 12 1 11 2 10 3 9 4 8 5 7 6 6 7 5 8 4 9 3 10 2 11 1 12 13 13
REMARK SMILES IDX 14 14 15 15 16 16 17 17 18 18 19 19 20 20 21 21 22 22 23 23
REMARK SMILES IDX 24 24
REMARK H PARENT
REMARK Flexibility Score: inf
ROOT
ATOM      1  C   UNL     1      58.754  35.361  80.965  1.00  0.00     0.000 C 
ENDROOT
BRANCH   1   2
ATOM      2  C   UNL     1      58.563  36.618  80.105  1.00  0.00     0.000 C 
BRANCH   2   3
ATOM      3  C   UNL     1      57.190  37.283  80.311  1.00  0.00     0.000 C 
BRANCH   3   4
ATOM      4  C   UNL     1      56.346  37.448  79.031  1.00  0.00    -0.000 C 
BRANCH   4   5
ATOM      5  C   UNL     1      56.637  36.424  77.914  1.00  0.00    -0.000 C 
BRANCH   5   6
ATOM      6  C   UNL     1      56.518  36.971  76.480  1.00  0.00    -0.000 C 
BRANCH   6   7
ATOM      7  C   UNL     1      57.742  36.636  75.611  1.00  0.00    -0.000 C 
BRANCH   7   8
ATOM      8  C   UNL     1      59.062  36.669  76.402  1.00  0.00    -0.000 C 
BRANCH   8   9
ATOM      9  C   UNL     1      60.148  37.601  75.830  1.00  0.00    -0.000 C 
BRANCH   9  10
ATOM     10  C   UNL     1      60.160  39.029  76.409  1.00  0.00    -0.000 C 
BRANCH  10  11
ATOM     11  C   UNL     1      59.223  39.246  77.611  1.00  0.00    -0.003 C 
ATOM     12  C   UNL     1      58.105  40.245  77.319  1.00  0.00     0.004 C 
ENDBRANCH  10  11
ENDBRANCH   9  10
ENDBRANCH   8   9
ENDBRANCH   7   8
ENDBRANCH   6   7
ENDBRANCH   5   6
ENDBRANCH   4   5
ENDBRANCH   3   4
ENDBRANCH   2   3
ENDBRANCH   1   2
BRANCH   1  13
ATOM     13  C   UNL     1      59.160  34.161  80.097  1.00  0.00     0.000 C 
BRANCH  13  14
ATOM     14  C   UNL     1      57.965  33.511  79.376  1.00  0.00     0.000 C 
BRANCH  14  15
ATOM     15  C   UNL     1      58.330  32.653  78.147  1.00  0.00     0.000 C 
BRANCH  15  16
ATOM     16  C   UNL     1      57.775  33.162  76.801  1.00  0.00     0.000 C 
BRANCH  16  17
ATOM     17  C   UNL     1      58.380  32.491  75.555  1.00  0.00     0.000 C 
BRANCH  17  18
ATOM     18  C   UNL     1      57.593  31.274  75.029  1.00  0.00     0.000 C 
BRANCH  18  19
ATOM     19  C   UNL     1      57.870  29.972  75.811  1.00  0.00     0.000 C 
BRANCH  19  20
ATOM     20  C   UNL     1      59.368  29.643  75.886  1.00  0.00     0.006 C 
BRANCH  20  21
ATOM     21  C   UNL     1      59.640  28.206  75.429  1.00  0.00     0.053 C 
BRANCH  21  22
ATOM     22  C   UNL     1      60.292  27.424  76.526  1.00  0.00     0.041 C 
ATOM     23  O   UNL     1      60.071  26.189  76.641  1.00  0.00    -0.550 OA
ATOM     24  O   UNL     1      61.187  28.048  77.387  1.00  0.00    -0.550 OA
ENDBRANCH  21  22
ENDBRANCH  20  21
ENDBRANCH  19  20
ENDBRANCH  18  19
ENDBRANCH  17  18
ENDBRANCH  16  17
ENDBRANCH  15  16
ENDBRANCH  14  15
ENDBRANCH  13  14
ENDBRANCH   1  13
TORSDOF 20
ENDMDL
MODEL 8
REMARK VINA RESULT:    -4.148      2.193      5.087
REMARK INTER + INTRA:         -11.935
REMARK INTER:                  -8.772
REMARK INTRA:                  -3.163
REMARK UNBOUND:                -2.936
REMARK SMILES CCCCCCCCCCCCCCCCCCCCCC(=O)[O-]
REMARK SMILES IDX 12 1 11 2 10 3 9 4 8 5 7 6 6 7 5 8 4 9 3 10 2 11 1 12 13 13
REMARK SMILES IDX 14 14 15 15 16 16 17 17 18 18 19 19 20 20 21 21 22 22 23 23
REMARK SMILES IDX 24 24
REMARK H PARENT
REMARK Flexibility Score: inf
ROOT
ATOM      1  C   UNL     1      58.940  38.201  78.853  1.00  0.00     0.000 C 
ENDROOT
BRANCH   1   2
ATOM      2  C   UNL     1      59.143  37.884  77.365  1.00  0.00     0.000 C 
BRANCH   2   3
ATOM      3  C   UNL     1      59.195  36.373  77.076  1.00  0.00     0.000 C 
BRANCH   3   4
ATOM      4  C   UNL     1      58.312  35.902  75.903  1.00  0.00    -0.000 C 
BRANCH   4   5
ATOM      5  C   UNL     1      56.831  35.648  76.255  1.00  0.00    -0.000 C 
BRANCH   5   6
ATOM      6  C   UNL     1      55.899  36.859  76.067  1.00  0.00    -0.000 C 
BRANCH   6   7
ATOM      7  C   UNL     1      56.097  37.559  74.712  1.00  0.00    -0.000 C 
BRANCH   7   8
ATOM      8  C   UNL     1      54.979  37.236  73.705  1.00  0.00    -0.000 C 
BRANCH   8   9
ATOM      9  C   UNL     1      55.379  36.282  72.562  1.00  0.00    -0.000 C 
BRANCH   9  10
ATOM     10  C   UNL     1      55.738  34.848  72.998  1.00  0.00    -0.000 C 
BRANCH  10  11
ATOM     11  C   UNL     1      57.169  34.405  72.644  1.00  0.00    -0.003 C 
ATOM     12  C   UNL     1      57.254  32.932  72.251  1.00  0.00     0.004 C 
ENDBRANCH  10  11
ENDBRANCH   9  10
ENDBRANCH   8   9
ENDBRANCH   7   8
ENDBRANCH   6   7
ENDBRANCH   5   6
ENDBRANCH   4   5
ENDBRANCH   3   4
ENDBRANCH   2   3
ENDBRANCH   1   2
BRANCH   1  13
ATOM     13  C   UNL     1      57.735  37.434  79.417  1.00  0.00     0.000 C 
BRANCH  13  14
ATOM     14  C   UNL     1      58.070  36.651  80.700  1.00  0.00     0.000 C 
BRANCH  14  15
ATOM     15  C   UNL     1      59.043  35.468  80.510  1.00  0.00     0.000 C 
BRANCH  15  16
ATOM     16  C   UNL     1      58.382  34.076  80.458  1.00  0.00     0.000 C 
BRANCH  16  17
ATOM     17  C   UNL     1      57.811  33.680  79.083  1.00  0.00     0.000 C 
BRANCH  17  18
ATOM     18  C   UNL     1      58.760  32.838  78.209  1.00  0.00     0.000 C 
BRANCH  18  19
ATOM     19  C   UNL     1      58.045  31.723  77.415  1.00  0.00     0.000 C 
BRANCH  19  20
ATOM     20  C   UNL     1      57.973  32.028  75.912  1.00  0.00     0.006 C 
BRANCH  20  21
ATOM     21  C   UNL     1      58.346  30.797  75.081  1.00  0.00     0.053 C 
BRANCH  21  22
ATOM     22  C   UNL     1      57.223  29.808  75.080  1.00  0.00     0.041 C 
ATOM     23  O   UNL     1      57.322  28.736  75.735  1.00  0.00    -0.550 OA
ATOM     24  O   UNL     1      56.045  30.094  74.399  1.00  0.00    -0.550 OA
ENDBRANCH  21  22
ENDBRANCH  20  21
ENDBRANCH  19  20
ENDBRANCH  18  19
ENDBRANCH  17  18
ENDBRANCH  16  17
ENDBRANCH  15  16
ENDBRANCH  14  15
ENDBRANCH  13  14
ENDBRANCH   1  13
TORSDOF 20
ENDMDL
MODEL 9
REMARK VINA RESULT:    -4.143      1.551      2.981
REMARK INTER + INTRA:         -11.923
REMARK INTER:                  -8.957
REMARK INTRA:                  -2.966
REMARK UNBOUND:                -2.936
REMARK SMILES CCCCCCCCCCCCCCCCCCCCCC(=O)[O-]
REMARK SMILES IDX 12 1 11 2 10 3 9 4 8 5 7 6 6 7 5 8 4 9 3 10 2 11 1 12 13 13
REMARK SMILES IDX 14 14 15 15 16 16 17 17 18 18 19 19 20 20 21 21 22 22 23 23
REMARK SMILES IDX 24 24
REMARK H PARENT
REMARK Flexibility Score: inf
ROOT
ATOM      1  C   UNL     1      57.831  33.144  78.880  1.00  0.00     0.000 C 
ENDROOT
BRANCH   1   2
ATOM      2  C   UNL     1      58.617  32.550  77.702  1.00  0.00     0.000 C 
BRANCH   2   3
ATOM      3  C   UNL     1      58.155  33.092  76.339  1.00  0.00     0.000 C 
BRANCH   3   4
ATOM      4  C   UNL     1      59.084  32.758  75.154  1.00  0.00    -0.000 C 
BRANCH   4   5
ATOM      5  C   UNL     1      58.427  31.966  74.005  1.00  0.00    -0.000 C 
BRANCH   5   6
ATOM      6  C   UNL     1      56.907  31.758  74.141  1.00  0.00    -0.000 C 
BRANCH   6   7
ATOM      7  C   UNL     1      56.524  30.285  74.360  1.00  0.00    -0.000 C 
BRANCH   7   8
ATOM      8  C   UNL     1      57.088  29.710  75.672  1.00  0.00    -0.000 C 
BRANCH   8   9
ATOM      9  C   UNL     1      57.922  28.422  75.521  1.00  0.00    -0.000 C 
BRANCH   9  10
ATOM     10  C   UNL     1      59.411  28.639  75.186  1.00  0.00    -0.000 C 
BRANCH  10  11
ATOM     11  C   UNL     1      60.275  29.119  76.366  1.00  0.00    -0.003 C 
ATOM     12  C   UNL     1      60.984  27.974  77.087  1.00  0.00     0.004 C 
ENDBRANCH  10  11
ENDBRANCH   9  10
ENDBRANCH   8   9
ENDBRANCH   7   8
ENDBRANCH   6   7
ENDBRANCH   5   6
ENDBRANCH   4   5
ENDBRANCH   3   4
ENDBRANCH   2   3
ENDBRANCH   1   2
BRANCH   1  13
ATOM     13  C   UNL     1      58.777  33.823  79.882  1.00  0.00     0.000 C 
BRANCH  13  14
ATOM     14  C   UNL     1      58.401  35.290  80.161  1.00  0.00     0.000 C 
BRANCH  14  15
ATOM     15  C   UNL     1      58.778  36.286  79.046  1.00  0.00     0.000 C 
BRANCH  15  16
ATOM     16  C   UNL     1      57.845  37.507  78.912  1.00  0.00     0.000 C 
BRANCH  16  17
ATOM     17  C   UNL     1      56.514  37.230  78.188  1.00  0.00     0.000 C 
BRANCH  17  18
ATOM     18  C   UNL     1      56.632  36.330  76.943  1.00  0.00     0.000 C 
BRANCH  18  19
ATOM     19  C   UNL     1      57.324  37.016  75.746  1.00  0.00     0.000 C 
BRANCH  19  20
ATOM     20  C   UNL     1      57.414  36.099  74.517  1.00  0.00     0.006 C 
BRANCH  20  21
ATOM     21  C   UNL     1      56.051  35.478  74.194  1.00  0.00     0.053 C 
BRANCH  21  22
ATOM     22  C   UNL     1      55.349  36.278  73.142  1.00  0.00     0.041 C 
ATOM     23  O   UNL     1      54.555  37.199  73.471  1.00  0.00    -0.550 OA
ATOM     24  O   UNL     1      55.613  36.042  71.797  1.00  0.00    -0.550 OA
ENDBRANCH  21  22
ENDBRANCH  20  21
ENDBRANCH  19  20
ENDBRANCH  18  19
ENDBRANCH  17  18
ENDBRANCH  16  17
ENDBRANCH  15  16
ENDBRANCH  14  15
ENDBRANCH  13  14
ENDBRANCH   1  13
TORSDOF 20
ENDMDL
