MODEL 1
REMARK VINA RESULT:    -3.520      0.000      0.000
REMARK INTER + INTRA:          -6.254
REMARK INTER:                  -5.063
REMARK INTRA:                  -1.191
REMARK UNBOUND:                -1.191
REMARK SMILES O=C(CO)[C@H](O)[C@@H](O)[C@H](O)CO
REMARK SMILES IDX 7 1 9 2 11 3 12 4 10 6 5 8 2 9 1 10 3 11 4 12 6 14 8 16
REMARK H PARENT 12 5 10 7 4 13 6 15 8 17
REMARK Flexibility Score: inf
ROOT
ATOM      1  C   UNL     1      55.755  20.125  52.827  1.00  0.00     0.181 C 
ENDROOT
BRANCH   1   2
ATOM      2  C   UNL     1      54.240  20.432  52.939  1.00  0.00     0.171 C 
BRANCH   2   3
ATOM      3  C   UNL     1      53.949  21.908  52.624  1.00  0.00     0.190 C 
BRANCH   3   4
ATOM      4  O   UNL     1      54.019  22.135  51.242  1.00  0.00    -0.394 OA
ATOM      5  H   UNL     1      53.716  21.298  50.800  1.00  0.00     0.210 HD
ENDBRANCH   3   4
ENDBRANCH   2   3
BRANCH   2   6
ATOM      6  O   UNL     1      53.510  19.624  52.051  1.00  0.00    -0.388 OA
ATOM      7  H   UNL     1      52.632  19.440  52.475  1.00  0.00     0.211 HD
ENDBRANCH   2   6
ENDBRANCH   1   2
BRANCH   1   8
ATOM      8  C   UNL     1      56.084  19.218  51.613  1.00  0.00     0.214 C 
BRANCH   8   9
ATOM      9  C   UNL     1      57.556  18.866  51.518  1.00  0.00     0.189 C 
ATOM     10  O   UNL     1      58.204  18.741  52.547  1.00  0.00    -0.294 OA
BRANCH   9  11
ATOM     11  C   UNL     1      58.253  18.682  50.196  1.00  0.00     0.234 C 
BRANCH  11  12
ATOM     12  O   UNL     1      57.591  17.708  49.434  1.00  0.00    -0.388 OA
ATOM     13  H   UNL     1      58.210  16.937  49.355  1.00  0.00     0.211 HD
ENDBRANCH  11  12
ENDBRANCH   9  11
ENDBRANCH   8   9
BRANCH   8  14
ATOM     14  O   UNL     1      55.648  19.802  50.410  1.00  0.00    -0.382 OA
ATOM     15  H   UNL     1      54.704  19.533  50.261  1.00  0.00     0.211 HD
ENDBRANCH   8  14
ENDBRANCH   1   8
BRANCH   1  16
ATOM     16  O   UNL     1      56.474  21.327  52.693  1.00  0.00    -0.387 OA
ATOM     17  H   UNL     1      56.561  21.723  53.599  1.00  0.00     0.211 HD
ENDBRANCH   1  16
TORSDOF 10
ENDMDL
MODEL 2
REMARK VINA RESULT:    -3.496     20.511     21.564
REMARK INTER + INTRA:          -6.219
REMARK INTER:                  -5.024
REMARK INTRA:                  -1.196
REMARK UNBOUND:                -1.191
REMARK SMILES O=C(CO)[C@H](O)[C@@H](O)[C@H](O)CO
REMARK SMILES IDX 7 1 9 2 11 3 12 4 10 6 5 8 2 9 1 10 3 11 4 12 6 14 8 16
REMARK H PARENT 12 5 10 7 4 13 6 15 8 17
REMARK Flexibility Score: inf
ROOT
ATOM      1  C   UNL     1      70.533  33.751  57.545  1.00  0.00     0.181 C 
ENDROOT
BRANCH   1   2
ATOM      2  C   UNL     1      70.354  35.280  57.366  1.00  0.00     0.171 C 
BRANCH   2   3
ATOM      3  C   UNL     1      68.908  35.708  57.663  1.00  0.00     0.190 C 
BRANCH   3   4
ATOM      4  O   UNL     1      68.665  35.677  59.044  1.00  0.00    -0.394 OA
ATOM      5  H   UNL     1      68.925  34.773  59.359  1.00  0.00     0.210 HD
ENDBRANCH   3   4
ENDBRANCH   2   3
BRANCH   2   6
ATOM      6  O   UNL     1      71.221  35.978  58.224  1.00  0.00    -0.388 OA
ATOM      7  H   UNL     1      71.533  36.783  57.735  1.00  0.00     0.211 HD
ENDBRANCH   2   6
ENDBRANCH   1   2
BRANCH   1   8
ATOM      8  C   UNL     1      71.398  33.400  58.783  1.00  0.00     0.214 C 
BRANCH   8   9
ATOM      9  C   UNL     1      71.617  31.909  58.950  1.00  0.00     0.189 C 
ATOM     10  O   UNL     1      71.651  31.200  57.955  1.00  0.00    -0.294 OA
BRANCH   9  11
ATOM     11  C   UNL     1      71.780  31.268  60.303  1.00  0.00     0.234 C 
BRANCH  11  12
ATOM     12  O   UNL     1      72.811  31.898  61.013  1.00  0.00    -0.388 OA
ATOM     13  H   UNL     1      73.539  31.231  61.113  1.00  0.00     0.211 HD
ENDBRANCH  11  12
ENDBRANCH   9  11
ENDBRANCH   8   9
BRANCH   8  14
ATOM     14  O   UNL     1      70.845  33.941  59.958  1.00  0.00    -0.382 OA
ATOM     15  H   UNL     1      71.452  33.726  60.712  1.00  0.00     0.211 HD
ENDBRANCH   8  14
ENDBRANCH   1   8
BRANCH   1  16
ATOM     16  O   UNL     1      69.274  33.140  57.693  1.00  0.00    -0.387 OA
ATOM     17  H   UNL     1      69.396  32.168  57.534  1.00  0.00     0.211 HD
ENDBRANCH   1  16
TORSDOF 10
ENDMDL
MODEL 3
REMARK VINA RESULT:    -3.317      1.619      4.967
REMARK INTER + INTRA:          -5.962
REMARK INTER:                  -5.180
REMARK INTRA:                  -0.782
REMARK UNBOUND:                -1.191
REMARK SMILES O=C(CO)[C@H](O)[C@@H](O)[C@H](O)CO
REMARK SMILES IDX 7 1 9 2 11 3 12 4 10 6 5 8 2 9 1 10 3 11 4 12 6 14 8 16
REMARK H PARENT 12 5 10 7 4 13 6 15 8 17
REMARK Flexibility Score: inf
ROOT
ATOM      1  C   UNL     1      58.883  18.607  50.884  1.00  0.00     0.181 C 
ENDROOT
BRANCH   1   2
ATOM      2  C   UNL     1      59.722  18.447  49.590  1.00  0.00     0.171 C 
BRANCH   2   3
ATOM      3  C   UNL     1      59.582  17.030  49.011  1.00  0.00     0.190 C 
BRANCH   3   4
ATOM      4  O   UNL     1      58.832  17.059  47.827  1.00  0.00    -0.394 OA
ATOM      5  H   UNL     1      58.673  18.016  47.614  1.00  0.00     0.210 HD
ENDBRANCH   3   4
ENDBRANCH   2   3
BRANCH   2   6
ATOM      6  O   UNL     1      59.310  19.378  48.622  1.00  0.00    -0.388 OA
ATOM      7  H   UNL     1      58.689  20.010  49.069  1.00  0.00     0.211 HD
ENDBRANCH   2   6
ENDBRANCH   1   2
BRANCH   1   8
ATOM      8  C   UNL     1      57.424  19.041  50.589  1.00  0.00     0.214 C 
BRANCH   8   9
ATOM      9  C   UNL     1      56.609  19.270  51.848  1.00  0.00     0.189 C 
ATOM     10  O   UNL     1      57.101  18.993  52.932  1.00  0.00    -0.294 OA
BRANCH   9  11
ATOM     11  C   UNL     1      55.205  19.814  51.806  1.00  0.00     0.234 C 
BRANCH  11  12
ATOM     12  O   UNL     1      54.874  20.195  50.498  1.00  0.00    -0.388 OA
ATOM     13  H   UNL     1      53.976  20.615  50.541  1.00  0.00     0.211 HD
ENDBRANCH  11  12
ENDBRANCH   9  11
ENDBRANCH   8   9
BRANCH   8  14
ATOM     14  O   UNL     1      56.776  18.110  49.757  1.00  0.00    -0.382 OA
ATOM     15  H   UNL     1      56.052  17.679  50.280  1.00  0.00     0.211 HD
ENDBRANCH   8  14
ENDBRANCH   1   8
BRANCH   1  16
ATOM     16  O   UNL     1      58.854  17.387  51.584  1.00  0.00    -0.387 OA
ATOM     17  H   UNL     1      58.171  17.473  52.299  1.00  0.00     0.211 HD
ENDBRANCH   1  16
TORSDOF 10
ENDMDL
MODEL 4
REMARK VINA RESULT:    -3.301     12.790     13.548
REMARK INTER + INTRA:          -5.939
REMARK INTER:                  -4.753
REMARK INTRA:                  -1.186
REMARK UNBOUND:                -1.191
REMARK SMILES O=C(CO)[C@H](O)[C@@H](O)[C@H](O)CO
REMARK SMILES IDX 7 1 9 2 11 3 12 4 10 6 5 8 2 9 1 10 3 11 4 12 6 14 8 16
REMARK H PARENT 12 5 10 7 4 13 6 15 8 17
REMARK Flexibility Score: inf
ROOT
ATOM      1  C   UNL     1      63.709  31.641  49.653  1.00  0.00     0.181 C 
ENDROOT
BRANCH   1   2
ATOM      2  C   UNL     1      63.377  33.127  49.945  1.00  0.00     0.171 C 
BRANCH   2   3
ATOM      3  C   UNL     1      63.247  33.932  48.643  1.00  0.00     0.190 C 
BRANCH   3   4
ATOM      4  O   UNL     1      61.958  33.791  48.109  1.00  0.00    -0.394 OA
ATOM      5  H   UNL     1      61.405  34.514  48.505  1.00  0.00     0.210 HD
ENDBRANCH   3   4
ENDBRANCH   2   3
BRANCH   2   6
ATOM      6  O   UNL     1      62.175  33.227  50.666  1.00  0.00    -0.388 OA
ATOM      7  H   UNL     1      62.398  33.109  51.625  1.00  0.00     0.211 HD
ENDBRANCH   2   6
ENDBRANCH   1   2
BRANCH   1   8
ATOM      8  C   UNL     1      62.545  30.691  50.037  1.00  0.00     0.214 C 
BRANCH   8   9
ATOM      9  C   UNL     1      62.885  29.227  49.837  1.00  0.00     0.189 C 
ATOM     10  O   UNL     1      64.056  28.902  49.704  1.00  0.00    -0.294 OA
BRANCH   9  11
ATOM     11  C   UNL     1      61.826  28.158  49.781  1.00  0.00     0.234 C 
BRANCH  11  12
ATOM     12  O   UNL     1      61.134  28.227  48.563  1.00  0.00    -0.388 OA
ATOM     13  H   UNL     1      61.477  29.026  48.085  1.00  0.00     0.211 HD
ENDBRANCH  11  12
ENDBRANCH   9  11
ENDBRANCH   8   9
BRANCH   8  14
ATOM     14  O   UNL     1      61.372  31.016  49.332  1.00  0.00    -0.382 OA
ATOM     15  H   UNL     1      61.234  31.996  49.396  1.00  0.00     0.211 HD
ENDBRANCH   8  14
ENDBRANCH   1   8
BRANCH   1  16
ATOM     16  O   UNL     1      63.984  31.478  48.282  1.00  0.00    -0.387 OA
ATOM     17  H   UNL     1      63.197  31.813  47.780  1.00  0.00     0.211 HD
ENDBRANCH   1  16
TORSDOF 10
ENDMDL
MODEL 5
REMARK VINA RESULT:    -3.285     21.451     22.489
REMARK INTER + INTRA:          -5.916
REMARK INTER:                  -4.719
REMARK INTRA:                  -1.197
REMARK UNBOUND:                -1.191
REMARK SMILES O=C(CO)[C@H](O)[C@@H](O)[C@H](O)CO
REMARK SMILES IDX 7 1 9 2 11 3 12 4 10 6 5 8 2 9 1 10 3 11 4 12 6 14 8 16
REMARK H PARENT 12 5 10 7 4 13 6 15 8 17
REMARK Flexibility Score: inf
ROOT
ATOM      1  C   UNL     1      71.094  33.615  57.649  1.00  0.00     0.181 C 
ENDROOT
BRANCH   1   2
ATOM      2  C   UNL     1      71.147  33.376  59.180  1.00  0.00     0.171 C 
BRANCH   2   3
ATOM      3  C   UNL     1      72.029  32.165  59.522  1.00  0.00     0.190 C 
BRANCH   3   4
ATOM      4  O   UNL     1      72.650  32.349  60.766  1.00  0.00    -0.394 OA
ATOM      5  H   UNL     1      73.414  32.964  60.614  1.00  0.00     0.210 HD
ENDBRANCH   3   4
ENDBRANCH   2   3
BRANCH   2   6
ATOM      6  O   UNL     1      71.657  34.511  59.834  1.00  0.00    -0.388 OA
ATOM      7  H   UNL     1      71.167  34.599  60.693  1.00  0.00     0.211 HD
ENDBRANCH   2   6
ENDBRANCH   1   2
BRANCH   1   8
ATOM      8  C   UNL     1      70.014  34.654  57.252  1.00  0.00     0.214 C 
BRANCH   8   9
ATOM      9  C   UNL     1      70.549  35.750  56.351  1.00  0.00     0.189 C 
ATOM     10  O   UNL     1      70.723  35.511  55.165  1.00  0.00    -0.294 OA
BRANCH   9  11
ATOM     11  C   UNL     1      70.889  37.122  56.873  1.00  0.00     0.234 C 
BRANCH  11  12
ATOM     12  O   UNL     1      71.782  37.021  57.948  1.00  0.00    -0.388 OA
ATOM     13  H   UNL     1      72.333  36.211  57.789  1.00  0.00     0.211 HD
ENDBRANCH  11  12
ENDBRANCH   9  11
ENDBRANCH   8   9
BRANCH   8  14
ATOM     14  O   UNL     1      69.408  35.216  58.390  1.00  0.00    -0.382 OA
ATOM     15  H   UNL     1      69.674  36.170  58.442  1.00  0.00     0.211 HD
ENDBRANCH   8  14
ENDBRANCH   1   8
BRANCH   1  16
ATOM     16  O   UNL     1      72.344  34.077  57.198  1.00  0.00    -0.387 OA
ATOM     17  H   UNL     1      72.691  34.708  57.881  1.00  0.00     0.211 HD
ENDBRANCH   1  16
TORSDOF 10
ENDMDL
MODEL 6
REMARK VINA RESULT:    -3.284     20.376     21.447
REMARK INTER + INTRA:          -5.915
REMARK INTER:                  -4.619
REMARK INTRA:                  -1.296
REMARK UNBOUND:                -1.191
REMARK SMILES O=C(CO)[C@H](O)[C@@H](O)[C@H](O)CO
REMARK SMILES IDX 7 1 9 2 11 3 12 4 10 6 5 8 2 9 1 10 3 11 4 12 6 14 8 16
REMARK H PARENT 12 5 10 7 4 13 6 15 8 17
REMARK Flexibility Score: inf
ROOT
ATOM      1  C   UNL     1      69.454  34.746  57.199  1.00  0.00     0.181 C 
ENDROOT
BRANCH   1   2
ATOM      2  C   UNL     1      68.582  35.947  57.648  1.00  0.00     0.171 C 
BRANCH   2   3
ATOM      3  C   UNL     1      67.295  36.040  56.815  1.00  0.00     0.190 C 
BRANCH   3   4
ATOM      4  O   UNL     1      66.335  35.139  57.297  1.00  0.00    -0.394 OA
ATOM      5  H   UNL     1      66.640  34.231  57.037  1.00  0.00     0.210 HD
ENDBRANCH   3   4
ENDBRANCH   2   3
BRANCH   2   6
ATOM      6  O   UNL     1      68.239  35.821  59.005  1.00  0.00    -0.388 OA
ATOM      7  H   UNL     1      68.548  36.645  59.464  1.00  0.00     0.211 HD
ENDBRANCH   2   6
ENDBRANCH   1   2
BRANCH   1   8
ATOM      8  C   UNL     1      70.889  34.810  57.782  1.00  0.00     0.214 C 
BRANCH   8   9
ATOM      9  C   UNL     1      71.126  33.795  58.885  1.00  0.00     0.189 C 
ATOM     10  O   UNL     1      71.187  32.609  58.596  1.00  0.00    -0.294 OA
BRANCH   9  11
ATOM     11  C   UNL     1      71.273  34.199  60.328  1.00  0.00     0.234 C 
BRANCH  11  12
ATOM     12  O   UNL     1      70.154  34.937  60.739  1.00  0.00    -0.388 OA
ATOM     13  H   UNL     1      70.259  35.096  61.713  1.00  0.00     0.211 HD
ENDBRANCH  11  12
ENDBRANCH   9  11
ENDBRANCH   8   9
BRANCH   8  14
ATOM     14  O   UNL     1      71.193  36.103  58.242  1.00  0.00    -0.382 OA
ATOM     15  H   UNL     1      70.350  36.531  58.543  1.00  0.00     0.211 HD
ENDBRANCH   8  14
ENDBRANCH   1   8
BRANCH   1  16
ATOM     16  O   UNL     1      68.855  33.543  57.617  1.00  0.00    -0.387 OA
ATOM     17  H   UNL     1      69.332  33.244  58.434  1.00  0.00     0.211 HD
ENDBRANCH   1  16
TORSDOF 10
ENDMDL
MODEL 7
REMARK VINA RESULT:    -3.272     11.736     13.030
REMARK INTER + INTRA:          -5.897
REMARK INTER:                  -4.746
REMARK INTRA:                  -1.151
REMARK UNBOUND:                -1.191
REMARK SMILES O=C(CO)[C@H](O)[C@@H](O)[C@H](O)CO
REMARK SMILES IDX 7 1 9 2 11 3 12 4 10 6 5 8 2 9 1 10 3 11 4 12 6 14 8 16
REMARK H PARENT 12 5 10 7 4 13 6 15 8 17
REMARK Flexibility Score: inf
ROOT
ATOM      1  C   UNL     1      58.967  26.892  60.640  1.00  0.00     0.181 C 
ENDROOT
BRANCH   1   2
ATOM      2  C   UNL     1      57.518  27.214  60.191  1.00  0.00     0.171 C 
BRANCH   2   3
ATOM      3  C   UNL     1      56.580  27.346  61.400  1.00  0.00     0.190 C 
BRANCH   3   4
ATOM      4  O   UNL     1      56.658  28.638  61.940  1.00  0.00    -0.394 OA
ATOM      5  H   UNL     1      55.730  28.990  61.970  1.00  0.00     0.210 HD
ENDBRANCH   3   4
ENDBRANCH   2   3
BRANCH   2   6
ATOM      6  O   UNL     1      57.489  28.412  59.458  1.00  0.00    -0.388 OA
ATOM      7  H   UNL     1      58.241  28.378  58.810  1.00  0.00     0.211 HD
ENDBRANCH   2   6
ENDBRANCH   1   2
BRANCH   1   8
ATOM      8  C   UNL     1      59.942  28.067  60.369  1.00  0.00     0.214 C 
BRANCH   8   9
ATOM      9  C   UNL     1      61.378  27.740  60.732  1.00  0.00     0.189 C 
ATOM     10  O   UNL     1      61.717  26.568  60.818  1.00  0.00    -0.294 OA
BRANCH   9  11
ATOM     11  C   UNL     1      62.399  28.812  61.006  1.00  0.00     0.234 C 
BRANCH  11  12
ATOM     12  O   UNL     1      61.995  29.596  62.096  1.00  0.00    -0.388 OA
ATOM     13  H   UNL     1      62.601  29.374  62.849  1.00  0.00     0.211 HD
ENDBRANCH  11  12
ENDBRANCH   9  11
ENDBRANCH   8   9
BRANCH   8  14
ATOM     14  O   UNL     1      59.529  29.234  61.035  1.00  0.00    -0.382 OA
ATOM     15  H   UNL     1      58.893  28.972  61.751  1.00  0.00     0.211 HD
ENDBRANCH   8  14
ENDBRANCH   1   8
BRANCH   1  16
ATOM     16  O   UNL     1      58.984  26.607  62.018  1.00  0.00    -0.387 OA
ATOM     17  H   UNL     1      58.046  26.450  62.299  1.00  0.00     0.211 HD
ENDBRANCH   1  16
TORSDOF 10
ENDMDL
MODEL 8
REMARK VINA RESULT:    -3.230     12.662     14.017
REMARK INTER + INTRA:          -5.836
REMARK INTER:                  -4.919
REMARK INTRA:                  -0.918
REMARK UNBOUND:                -1.191
REMARK SMILES O=C(CO)[C@H](O)[C@@H](O)[C@H](O)CO
REMARK SMILES IDX 7 1 9 2 11 3 12 4 10 6 5 8 2 9 1 10 3 11 4 12 6 14 8 16
REMARK H PARENT 12 5 10 7 4 13 6 15 8 17
REMARK Flexibility Score: inf
ROOT
ATOM      1  C   UNL     1      61.353  27.270  60.746  1.00  0.00     0.181 C 
ENDROOT
BRANCH   1   2
ATOM      2  C   UNL     1      59.867  27.489  60.360  1.00  0.00     0.171 C 
BRANCH   2   3
ATOM      3  C   UNL     1      59.000  26.299  60.799  1.00  0.00     0.190 C 
BRANCH   3   4
ATOM      4  O   UNL     1      58.620  26.441  62.141  1.00  0.00    -0.394 OA
ATOM      5  H   UNL     1      58.441  25.527  62.485  1.00  0.00     0.210 HD
ENDBRANCH   3   4
ENDBRANCH   2   3
BRANCH   2   6
ATOM      6  O   UNL     1      59.373  28.659  60.961  1.00  0.00    -0.388 OA
ATOM      7  H   UNL     1      58.857  28.382  61.762  1.00  0.00     0.211 HD
ENDBRANCH   2   6
ENDBRANCH   1   2
BRANCH   1   8
ATOM      8  C   UNL     1      62.171  28.587  60.705  1.00  0.00     0.214 C 
BRANCH   8   9
ATOM      9  C   UNL     1      63.666  28.352  60.605  1.00  0.00     0.189 C 
ATOM     10  O   UNL     1      64.088  27.205  60.614  1.00  0.00    -0.294 OA
BRANCH   9  11
ATOM     11  C   UNL     1      64.652  29.487  60.510  1.00  0.00     0.234 C 
BRANCH  11  12
ATOM     12  O   UNL     1      64.481  30.366  61.589  1.00  0.00    -0.388 OA
ATOM     13  H   UNL     1      63.990  29.865  62.291  1.00  0.00     0.211 HD
ENDBRANCH  11  12
ENDBRANCH   9  11
ENDBRANCH   8   9
BRANCH   8  14
ATOM     14  O   UNL     1      61.883  29.399  61.817  1.00  0.00    -0.382 OA
ATOM     15  H   UNL     1      62.647  29.342  62.447  1.00  0.00     0.211 HD
ENDBRANCH   8  14
ENDBRANCH   1   8
BRANCH   1  16
ATOM     16  O   UNL     1      61.431  26.737  62.046  1.00  0.00    -0.387 OA
ATOM     17  H   UNL     1      62.348  26.374  62.162  1.00  0.00     0.211 HD
ENDBRANCH   1  16
TORSDOF 10
ENDMDL
MODEL 9
REMARK VINA RESULT:    -3.190     10.780     11.847
REMARK INTER + INTRA:          -5.779
REMARK INTER:                  -4.393
REMARK INTRA:                  -1.386
REMARK UNBOUND:                -1.191
REMARK SMILES O=C(CO)[C@H](O)[C@@H](O)[C@H](O)CO
REMARK SMILES IDX 7 1 9 2 11 3 12 4 10 6 5 8 2 9 1 10 3 11 4 12 6 14 8 16
REMARK H PARENT 12 5 10 7 4 13 6 15 8 17
REMARK Flexibility Score: inf
ROOT
ATOM      1  C   UNL     1      62.680  28.895  50.006  1.00  0.00     0.181 C 
ENDROOT
BRANCH   1   2
ATOM      2  C   UNL     1      62.915  30.421  50.149  1.00  0.00     0.171 C 
BRANCH   2   3
ATOM      3  C   UNL     1      64.286  30.826  49.585  1.00  0.00     0.190 C 
BRANCH   3   4
ATOM      4  O   UNL     1      64.227  30.929  48.187  1.00  0.00    -0.394 OA
ATOM      5  H   UNL     1      63.922  30.047  47.849  1.00  0.00     0.210 HD
ENDBRANCH   3   4
ENDBRANCH   2   3
BRANCH   2   6
ATOM      6  O   UNL     1      61.914  31.136  49.470  1.00  0.00    -0.388 OA
ATOM      7  H   UNL     1      62.370  31.797  48.887  1.00  0.00     0.211 HD
ENDBRANCH   2   6
ENDBRANCH   1   2
BRANCH   1   8
ATOM      8  C   UNL     1      61.400  28.426  50.745  1.00  0.00     0.214 C 
BRANCH   8   9
ATOM      9  C   UNL     1      60.320  27.932  49.802  1.00  0.00     0.189 C 
ATOM     10  O   UNL     1      60.409  26.805  49.335  1.00  0.00    -0.294 OA
BRANCH   9  11
ATOM     11  C   UNL     1      59.146  28.789  49.408  1.00  0.00     0.234 C 
BRANCH  11  12
ATOM     12  O   UNL     1      59.593  29.953  48.767  1.00  0.00    -0.388 OA
ATOM     13  H   UNL     1      60.551  29.811  48.550  1.00  0.00     0.211 HD
ENDBRANCH  11  12
ENDBRANCH   9  11
ENDBRANCH   8   9
BRANCH   8  14
ATOM     14  O   UNL     1      60.891  29.441  51.574  1.00  0.00    -0.382 OA
ATOM     15  H   UNL     1      60.793  30.264  51.030  1.00  0.00     0.211 HD
ENDBRANCH   8  14
ENDBRANCH   1   8
BRANCH   1  16
ATOM     16  O   UNL     1      62.558  28.560  48.645  1.00  0.00    -0.387 OA
ATOM     17  H   UNL     1      61.684  28.908  48.331  1.00  0.00     0.211 HD
ENDBRANCH   1  16
TORSDOF 10
ENDMDL
