MODEL 1
REMARK VINA RESULT:    -4.532      0.000      0.000
REMARK INTER + INTRA:          -5.090
REMARK INTER:                  -4.929
REMARK INTRA:                  -0.160
REMARK UNBOUND:                -0.160
REMARK SMILES O=C([O-])c1ccccc1O
REMARK SMILES IDX 4 1 9 2 5 3 8 4 6 5 7 6 2 7 1 8 3 9 10 10
REMARK H PARENT 10 11
REMARK Flexibility Score: inf
ROOT
ATOM      1  C   UNL     1       1.528   7.550  -6.454  1.00  0.00     0.039 A 
ATOM      2  C   UNL     1       1.739   6.341  -5.743  1.00  0.00     0.124 A 
ATOM      3  C   UNL     1       1.484   7.514  -7.860  1.00  0.00     0.014 A 
ATOM      4  C   UNL     1       1.959   5.152  -6.449  1.00  0.00     0.047 A 
ATOM      5  C   UNL     1       1.684   6.315  -8.549  1.00  0.00     0.001 A 
ATOM      6  C   UNL     1       1.932   5.137  -7.844  1.00  0.00     0.004 A 
ENDROOT
BRANCH   1   7
ATOM      7  C   UNL     1       1.392   8.857  -5.774  1.00  0.00     0.075 C 
ATOM      8  O   UNL     1       2.380   9.366  -5.180  1.00  0.00    -0.545 OA
ATOM      9  O   UNL     1       0.166   9.506  -5.719  1.00  0.00    -0.545 OA
ENDBRANCH   1   7
BRANCH   2  10
ATOM     10  O   UNL     1       1.700   6.273  -4.348  1.00  0.00    -0.507 OA
ATOM     11  H   UNL     1       2.141   5.536  -3.815  1.00  0.00     0.293 HD
ENDBRANCH   2  10
TORSDOF 2
ENDMDL
MODEL 2
REMARK VINA RESULT:    -4.128     11.798     12.842
REMARK INTER + INTRA:          -4.650
REMARK INTER:                  -4.572
REMARK INTRA:                  -0.078
REMARK UNBOUND:                -0.160
REMARK SMILES O=C([O-])c1ccccc1O
REMARK SMILES IDX 4 1 9 2 5 3 8 4 6 5 7 6 2 7 1 8 3 9 10 10
REMARK H PARENT 10 11
REMARK Flexibility Score: inf
ROOT
ATOM      1  C   UNL     1      -6.893  -0.388  -1.390  1.00  0.00     0.039 A 
ATOM      2  C   UNL     1      -7.186  -1.575  -2.109  1.00  0.00     0.124 A 
ATOM      3  C   UNL     1      -7.759   0.715  -1.515  1.00  0.00     0.014 A 
ATOM      4  C   UNL     1      -8.288  -1.607  -2.972  1.00  0.00     0.047 A 
ATOM      5  C   UNL     1      -8.866   0.658  -2.364  1.00  0.00     0.001 A 
ATOM      6  C   UNL     1      -9.125  -0.497  -3.100  1.00  0.00     0.004 A 
ENDROOT
BRANCH   1   7
ATOM      7  C   UNL     1      -5.689  -0.252  -0.542  1.00  0.00     0.075 C 
ATOM      8  O   UNL     1      -5.750  -0.510   0.690  1.00  0.00    -0.545 OA
ATOM      9  O   UNL     1      -4.497   0.227  -1.070  1.00  0.00    -0.545 OA
ENDBRANCH   1   7
BRANCH   2  10
ATOM     10  O   UNL     1      -6.436  -2.744  -1.968  1.00  0.00    -0.507 OA
ATOM     11  H   UNL     1      -5.706  -3.018  -2.610  1.00  0.00     0.293 HD
ENDBRANCH   2  10
TORSDOF 2
ENDMDL
MODEL 3
REMARK VINA RESULT:    -4.049      1.845      3.435
REMARK INTER + INTRA:          -4.565
REMARK INTER:                  -4.336
REMARK INTRA:                  -0.228
REMARK UNBOUND:                -0.160
REMARK SMILES O=C([O-])c1ccccc1O
REMARK SMILES IDX 4 1 9 2 5 3 8 4 6 5 7 6 2 7 1 8 3 9 10 10
REMARK H PARENT 10 11
REMARK Flexibility Score: inf
ROOT
ATOM      1  C   UNL     1       1.658   6.685  -7.084  1.00  0.00     0.039 A 
ATOM      2  C   UNL     1       1.384   7.248  -5.811  1.00  0.00     0.124 A 
ATOM      3  C   UNL     1       1.351   7.430  -8.238  1.00  0.00     0.014 A 
ATOM      4  C   UNL     1       0.761   8.499  -5.727  1.00  0.00     0.047 A 
ATOM      5  C   UNL     1       0.750   8.687  -8.135  1.00  0.00     0.001 A 
ATOM      6  C   UNL     1       0.445   9.216  -6.882  1.00  0.00     0.004 A 
ENDROOT
BRANCH   1   7
ATOM      7  C   UNL     1       2.218   5.325  -7.246  1.00  0.00     0.075 C 
ATOM      8  O   UNL     1       2.090   4.475  -6.325  1.00  0.00    -0.545 OA
ATOM      9  O   UNL     1       2.949   4.987  -8.377  1.00  0.00    -0.545 OA
ENDBRANCH   1   7
BRANCH   2  10
ATOM     10  O   UNL     1       1.744   6.618  -4.618  1.00  0.00    -0.507 OA
ATOM     11  H   UNL     1       1.074   6.236  -3.965  1.00  0.00     0.293 HD
ENDBRANCH   2  10
TORSDOF 2
ENDMDL
MODEL 4
REMARK VINA RESULT:    -3.985      1.408      2.499
REMARK INTER + INTRA:          -4.495
REMARK INTER:                  -4.271
REMARK INTRA:                  -0.224
REMARK UNBOUND:                -0.160
REMARK SMILES O=C([O-])c1ccccc1O
REMARK SMILES IDX 4 1 9 2 5 3 8 4 6 5 7 6 2 7 1 8 3 9 10 10
REMARK H PARENT 10 11
REMARK Flexibility Score: inf
ROOT
ATOM      1  C   UNL     1       1.220   7.757  -6.695  1.00  0.00     0.039 A 
ATOM      2  C   UNL     1       1.346   7.331  -8.042  1.00  0.00     0.124 A 
ATOM      3  C   UNL     1       1.589   6.873  -5.663  1.00  0.00     0.014 A 
ATOM      4  C   UNL     1       1.773   6.026  -8.318  1.00  0.00     0.047 A 
ATOM      5  C   UNL     1       2.034   5.582  -5.958  1.00  0.00     0.001 A 
ATOM      6  C   UNL     1       2.116   5.155  -7.282  1.00  0.00     0.004 A 
ENDROOT
BRANCH   1   7
ATOM      7  C   UNL     1       0.677   9.084  -6.330  1.00  0.00     0.075 C 
ATOM      8  O   UNL     1      -0.024   9.728  -7.155  1.00  0.00    -0.545 OA
ATOM      9  O   UNL     1       0.985   9.668  -5.108  1.00  0.00    -0.545 OA
ENDBRANCH   1   7
BRANCH   2  10
ATOM     10  O   UNL     1       1.094   8.176  -9.124  1.00  0.00    -0.507 OA
ATOM     11  H   UNL     1       0.671   9.089  -9.030  1.00  0.00     0.293 HD
ENDBRANCH   2  10
TORSDOF 2
ENDMDL
MODEL 5
REMARK VINA RESULT:    -3.966     11.870     12.858
REMARK INTER + INTRA:          -4.474
REMARK INTER:                  -4.391
REMARK INTRA:                  -0.083
REMARK UNBOUND:                -0.160
REMARK SMILES O=C([O-])c1ccccc1O
REMARK SMILES IDX 4 1 9 2 5 3 8 4 6 5 7 6 2 7 1 8 3 9 10 10
REMARK H PARENT 10 11
REMARK Flexibility Score: inf
ROOT
ATOM      1  C   UNL     1      -6.854  -0.545  -1.383  1.00  0.00     0.039 A 
ATOM      2  C   UNL     1      -7.754   0.505  -1.700  1.00  0.00     0.124 A 
ATOM      3  C   UNL     1      -7.095  -1.829  -1.907  1.00  0.00     0.014 A 
ATOM      4  C   UNL     1      -8.890   0.233  -2.472  1.00  0.00     0.047 A 
ATOM      5  C   UNL     1      -8.222  -2.078  -2.693  1.00  0.00     0.001 A 
ATOM      6  C   UNL     1      -9.125  -1.051  -2.966  1.00  0.00     0.004 A 
ENDROOT
BRANCH   1   7
ATOM      7  C   UNL     1      -5.692  -0.351  -0.489  1.00  0.00     0.075 C 
ATOM      8  O   UNL     1      -5.811  -0.537   0.752  1.00  0.00    -0.545 OA
ATOM      9  O   UNL     1      -4.478   0.103  -0.988  1.00  0.00    -0.545 OA
ENDBRANCH   1   7
BRANCH   2  10
ATOM     10  O   UNL     1      -7.537   1.826  -1.302  1.00  0.00    -0.507 OA
ATOM     11  H   UNL     1      -6.627   2.191  -1.056  1.00  0.00     0.293 HD
ENDBRANCH   2  10
TORSDOF 2
ENDMDL
MODEL 6
REMARK VINA RESULT:    -3.771     13.107     13.665
REMARK INTER + INTRA:          -4.262
REMARK INTER:                  -4.009
REMARK INTRA:                  -0.253
REMARK UNBOUND:                -0.160
REMARK SMILES O=C([O-])c1ccccc1O
REMARK SMILES IDX 4 1 9 2 5 3 8 4 6 5 7 6 2 7 1 8 3 9 10 10
REMARK H PARENT 10 11
REMARK Flexibility Score: inf
ROOT
ATOM      1  C   UNL     1      -7.922  -1.538  -2.495  1.00  0.00     0.039 A 
ATOM      2  C   UNL     1      -7.338  -2.779  -2.857  1.00  0.00     0.124 A 
ATOM      3  C   UNL     1      -8.832  -0.930  -3.380  1.00  0.00     0.014 A 
ATOM      4  C   UNL     1      -7.627  -3.342  -4.106  1.00  0.00     0.047 A 
ATOM      5  C   UNL     1      -9.125  -1.516  -4.614  1.00  0.00     0.001 A 
ATOM      6  C   UNL     1      -8.515  -2.715  -4.981  1.00  0.00     0.004 A 
ENDROOT
BRANCH   1   7
ATOM      7  C   UNL     1      -7.582  -0.838  -1.237  1.00  0.00     0.075 C 
ATOM      8  O   UNL     1      -7.310   0.392  -1.252  1.00  0.00    -0.545 OA
ATOM      9  O   UNL     1      -7.489  -1.533  -0.038  1.00  0.00    -0.545 OA
ENDBRANCH   1   7
BRANCH   2  10
ATOM     10  O   UNL     1      -6.503  -3.496  -1.997  1.00  0.00    -0.507 OA
ATOM     11  H   UNL     1      -5.495  -3.426  -2.014  1.00  0.00     0.293 HD
ENDBRANCH   2  10
TORSDOF 2
ENDMDL
MODEL 7
REMARK VINA RESULT:    -3.732     12.747     13.718
REMARK INTER + INTRA:          -4.220
REMARK INTER:                  -3.998
REMARK INTRA:                  -0.222
REMARK UNBOUND:                -0.160
REMARK SMILES O=C([O-])c1ccccc1O
REMARK SMILES IDX 4 1 9 2 5 3 8 4 6 5 7 6 2 7 1 8 3 9 10 10
REMARK H PARENT 10 11
REMARK Flexibility Score: inf
ROOT
ATOM      1  C   UNL     1      -7.477  -1.021  -1.243  1.00  0.00     0.039 A 
ATOM      2  C   UNL     1      -7.917  -2.002  -0.318  1.00  0.00     0.124 A 
ATOM      3  C   UNL     1      -7.912  -1.102  -2.580  1.00  0.00     0.014 A 
ATOM      4  C   UNL     1      -8.719  -3.060  -0.761  1.00  0.00     0.047 A 
ATOM      5  C   UNL     1      -8.730  -2.153  -2.999  1.00  0.00     0.001 A 
ATOM      6  C   UNL     1      -9.125  -3.137  -2.094  1.00  0.00     0.004 A 
ENDROOT
BRANCH   1   7
ATOM      7  C   UNL     1      -6.545   0.064  -0.866  1.00  0.00     0.075 C 
ATOM      8  O   UNL     1      -6.817   1.260  -1.155  1.00  0.00    -0.545 OA
ATOM      9  O   UNL     1      -5.331  -0.220  -0.253  1.00  0.00    -0.545 OA
ENDBRANCH   1   7
BRANCH   2  10
ATOM     10  O   UNL     1      -7.611  -1.941   1.043  1.00  0.00    -0.507 OA
ATOM     11  H   UNL     1      -6.684  -1.754   1.398  1.00  0.00     0.293 HD
ENDBRANCH   2  10
TORSDOF 2
ENDMDL
MODEL 8
REMARK VINA RESULT:    -3.690      1.746      2.502
REMARK INTER + INTRA:          -4.174
REMARK INTER:                  -3.921
REMARK INTRA:                  -0.253
REMARK UNBOUND:                -0.160
REMARK SMILES O=C([O-])c1ccccc1O
REMARK SMILES IDX 4 1 9 2 5 3 8 4 6 5 7 6 2 7 1 8 3 9 10 10
REMARK H PARENT 10 11
REMARK Flexibility Score: inf
ROOT
ATOM      1  C   UNL     1       2.142   8.220  -6.007  1.00  0.00     0.039 A 
ATOM      2  C   UNL     1       3.394   8.289  -6.669  1.00  0.00     0.124 A 
ATOM      3  C   UNL     1       1.525   6.966  -5.845  1.00  0.00     0.014 A 
ATOM      4  C   UNL     1       3.961   7.124  -7.201  1.00  0.00     0.047 A 
ATOM      5  C   UNL     1       2.115   5.810  -6.363  1.00  0.00     0.001 A 
ATOM      6  C   UNL     1       3.325   5.890  -7.050  1.00  0.00     0.004 A 
ENDROOT
BRANCH   1   7
ATOM      7  C   UNL     1       1.439   9.425  -5.513  1.00  0.00     0.075 C 
ATOM      8  O   UNL     1       0.205   9.566  -5.721  1.00  0.00    -0.545 OA
ATOM      9  O   UNL     1       2.135  10.444  -4.876  1.00  0.00    -0.545 OA
ENDBRANCH   1   7
BRANCH   2  10
ATOM     10  O   UNL     1       4.118   9.477  -6.787  1.00  0.00    -0.507 OA
ATOM     11  H   UNL     1       4.472   9.994  -5.994  1.00  0.00     0.293 HD
ENDBRANCH   2  10
TORSDOF 2
ENDMDL
MODEL 9
REMARK VINA RESULT:    -3.568     19.805     20.510
REMARK INTER + INTRA:          -4.042
REMARK INTER:                  -3.790
REMARK INTRA:                  -0.252
REMARK UNBOUND:                -0.160
REMARK SMILES O=C([O-])c1ccccc1O
REMARK SMILES IDX 4 1 9 2 5 3 8 4 6 5 7 6 2 7 1 8 3 9 10 10
REMARK H PARENT 10 11
REMARK Flexibility Score: inf
ROOT
ATOM      1  C   UNL     1      -3.889  -5.819   8.430  1.00  0.00     0.039 A 
ATOM      2  C   UNL     1      -3.278  -6.865   7.692  1.00  0.00     0.124 A 
ATOM      3  C   UNL     1      -5.036  -5.194   7.904  1.00  0.00     0.014 A 
ATOM      4  C   UNL     1      -3.785  -7.212   6.433  1.00  0.00     0.047 A 
ATOM      5  C   UNL     1      -5.541  -5.569   6.656  1.00  0.00     0.001 A 
ATOM      6  C   UNL     1      -4.911  -6.568   5.917  1.00  0.00     0.004 A 
ENDROOT
BRANCH   1   7
ATOM      7  C   UNL     1      -3.344  -5.332   9.716  1.00  0.00     0.075 C 
ATOM      8  O   UNL     1      -3.144  -4.100   9.892  1.00  0.00    -0.545 OA
ATOM      9  O   UNL     1      -2.982  -6.222  10.718  1.00  0.00    -0.545 OA
ENDBRANCH   1   7
BRANCH   2  10
ATOM     10  O   UNL     1      -2.198  -7.600   8.184  1.00  0.00    -0.507 OA
ATOM     11  H   UNL     1      -1.285  -7.201   8.356  1.00  0.00     0.293 HD
ENDBRANCH   2  10
TORSDOF 2
ENDMDL
