MODEL 1
REMARK VINA RESULT:   154.271      0.000      0.000
REMARK INTER + INTRA:         168.081
REMARK INTER:                 167.799
REMARK INTRA:                   0.282
REMARK UNBOUND:                 0.282
REMARK SMILES CC1(C)CC[C@]2(C(=O)[O-])CC[C@]3(C)C(=CC[C@@H]4[C@@]5(C)CC[C@@H](O)C(C)(C)[C@H]5CC[C@]43C)[C@H]2C1
REMARK SMILES IDX 6 1 5 2 10 3 32 4 4 5 11 6 14 7 33 8 2 9 12 10 15 11 1 12
REMARK SMILES IDX 3 13 13 14 30 15 16 16 17 17 29 18 31 19 18 20 28 21 27 22
REMARK SMILES IDX 20 23 19 24 24 25 21 26 22 27 25 28 26 29 7 30 8 31 9 32
REMARK SMILES IDX 23 33
REMARK H PARENT 23 34
REMARK Flexibility Score: inf
ROOT
ATOM      1  C   UNL     1      11.049   2.249  17.362  1.00  0.00     0.017 C 
ATOM      2  C   UNL     1      11.416   3.739  17.575  1.00  0.00     0.014 C 
ATOM      3  C   UNL     1      10.089   2.157  16.159  1.00  0.00     0.014 C 
ATOM      4  C   UNL     1      10.294   1.724  18.624  1.00  0.00     0.028 C 
ATOM      5  C   UNL     1      12.287   3.944  18.823  1.00  0.00     0.007 C 
ATOM      6  C   UNL     1       9.655   0.710  15.881  1.00  0.00     0.013 C 
ATOM      7  C   UNL     1       9.756   0.287  18.394  1.00  0.00    -0.064 C 
ATOM      8  C   UNL     1      11.138   1.943  19.918  1.00  0.00     0.015 C 
ATOM      9  C   UNL     1      11.620   3.411  20.114  1.00  0.00    -0.035 C 
ATOM     10  C   UNL     1       8.960  -0.003  17.098  1.00  0.00    -0.006 C 
ATOM     11  C   UNL     1       9.725  -0.596  19.414  1.00  0.00    -0.027 C 
ATOM     12  C   UNL     1      10.443   4.322  20.535  1.00  0.00     0.011 C 
ATOM     13  C   UNL     1      12.665   3.435  21.252  1.00  0.00     0.011 C 
ATOM     14  C   UNL     1       7.564   0.690  17.285  1.00  0.00     0.017 C 
ATOM     15  C   UNL     1       8.810  -1.600  16.818  1.00  0.00    -0.020 C 
ATOM     16  C   UNL     1       9.337  -2.035  19.277  1.00  0.00     0.032 C 
ATOM     17  C   UNL     1       8.360  -2.344  18.115  1.00  0.00     0.006 C 
ATOM     18  C   UNL     1       7.705  -1.844  15.769  1.00  0.00     0.008 C 
ATOM     19  C   UNL     1      10.156  -2.195  16.298  1.00  0.00     0.012 C 
ATOM     20  C   UNL     1       7.993  -3.912  17.990  1.00  0.00    -0.025 C 
ATOM     21  C   UNL     1       7.363  -3.303  15.453  1.00  0.00     0.005 C 
ATOM     22  C   UNL     1       7.691  -4.418  16.496  1.00  0.00     0.003 C 
ATOM     23  C   UNL     1       6.749  -4.178  18.908  1.00  0.00     0.010 C 
ATOM     24  C   UNL     1       9.159  -4.785  18.570  1.00  0.00     0.012 C 
ATOM     25  C   UNL     1       6.605  -5.590  16.392  1.00  0.00    -0.006 C 
ATOM     26  C   UNL     1       5.431  -4.047  18.142  1.00  0.00     0.033 C 
ATOM     27  C   UNL     1       5.254  -5.175  17.099  1.00  0.00     0.120 C 
ATOM     28  C   UNL     1       7.124  -6.908  17.033  1.00  0.00     0.014 C 
ATOM     29  C   UNL     1       6.353  -5.988  14.898  1.00  0.00     0.014 C 
ENDROOT
BRANCH   1  30
ATOM     30  C   UNL     1      12.320   1.460  17.046  1.00  0.00     0.048 C 
ATOM     31  O   UNL     1      12.842   0.688  17.896  1.00  0.00    -0.550 OA
ATOM     32  O   UNL     1      12.883   1.534  15.779  1.00  0.00    -0.550 OA
ENDBRANCH   1  30
BRANCH  27  33
ATOM     33  O   UNL     1       4.285  -4.769  16.161  1.00  0.00    -0.393 OA
ATOM     34  H   UNL     1       3.445  -4.609  16.668  1.00  0.00     0.210 HD
ENDBRANCH  27  33
TORSDOF 2
ENDMDL
