MODEL 1
REMARK VINA RESULT:    -4.490      0.000      0.000
REMARK INTER + INTRA:          -6.976
REMARK INTER:                  -6.327
REMARK INTRA:                  -0.649
REMARK UNBOUND:                -0.649
REMARK SMILES CCCCCCCCC(=O)[O-]
REMARK SMILES IDX 6 1 7 2 8 3 9 4 10 5 11 6 5 7 4 8 3 9 2 10 1 11
REMARK H PARENT
REMARK Flexibility Score: inf
ROOT
ATOM      1  C   UNL     1      51.715  57.274  95.036  1.00  0.00     0.000 C 
ENDROOT
BRANCH   1   2
ATOM      2  C   UNL     1      52.913  57.092  94.085  1.00  0.00     0.006 C 
BRANCH   2   3
ATOM      3  C   UNL     1      53.408  58.393  93.430  1.00  0.00     0.053 C 
BRANCH   3   4
ATOM      4  C   UNL     1      53.051  58.464  91.979  1.00  0.00     0.041 C 
ATOM      5  O   UNL     1      52.323  57.576  91.462  1.00  0.00    -0.550 OA
ATOM      6  O   UNL     1      53.548  59.492  91.189  1.00  0.00    -0.550 OA
ENDBRANCH   3   4
ENDBRANCH   2   3
ENDBRANCH   1   2
BRANCH   1   7
ATOM      7  C   UNL     1      50.478  57.853  94.329  1.00  0.00     0.000 C 
BRANCH   7   8
ATOM      8  C   UNL     1      49.625  58.731  95.259  1.00  0.00    -0.000 C 
BRANCH   8   9
ATOM      9  C   UNL     1      49.643  60.216  94.855  1.00  0.00    -0.000 C 
BRANCH   9  10
ATOM     10  C   UNL     1      50.238  60.438  93.457  1.00  0.00    -0.003 C 
ATOM     11  C   UNL     1      51.410  61.418  93.464  1.00  0.00     0.004 C 
ENDBRANCH   9  10
ENDBRANCH   8   9
ENDBRANCH   7   8
ENDBRANCH   1   7
TORSDOF 7
ENDMDL
MODEL 2
REMARK VINA RESULT:    -4.397      1.436      1.999
REMARK INTER + INTRA:          -6.845
REMARK INTER:                  -6.257
REMARK INTRA:                  -0.589
REMARK UNBOUND:                -0.649
REMARK SMILES CCCCCCCCC(=O)[O-]
REMARK SMILES IDX 6 1 7 2 8 3 9 4 10 5 11 6 5 7 4 8 3 9 2 10 1 11
REMARK H PARENT
REMARK Flexibility Score: inf
ROOT
ATOM      1  C   UNL     1      50.013  57.669  93.075  1.00  0.00     0.000 C 
ENDROOT
BRANCH   1   2
ATOM      2  C   UNL     1      51.112  56.711  92.578  1.00  0.00     0.006 C 
BRANCH   2   3
ATOM      3  C   UNL     1      52.046  57.314  91.514  1.00  0.00     0.053 C 
BRANCH   3   4
ATOM      4  C   UNL     1      52.951  58.359  92.088  1.00  0.00     0.041 C 
ATOM      5  O   UNL     1      53.242  59.383  91.417  1.00  0.00    -0.550 OA
ATOM      6  O   UNL     1      53.499  58.187  93.353  1.00  0.00    -0.550 OA
ENDBRANCH   3   4
ENDBRANCH   2   3
ENDBRANCH   1   2
BRANCH   1   7
ATOM      7  C   UNL     1      50.134  57.984  94.576  1.00  0.00     0.000 C 
BRANCH   7   8
ATOM      8  C   UNL     1      49.796  59.448  94.900  1.00  0.00    -0.000 C 
BRANCH   8   9
ATOM      9  C   UNL     1      50.405  60.435  93.889  1.00  0.00    -0.000 C 
BRANCH   9  10
ATOM     10  C   UNL     1      49.504  61.655  93.641  1.00  0.00    -0.003 C 
ATOM     11  C   UNL     1      48.428  61.388  92.589  1.00  0.00     0.004 C 
ENDBRANCH   9  10
ENDBRANCH   8   9
ENDBRANCH   7   8
ENDBRANCH   1   7
TORSDOF 7
ENDMDL
MODEL 3
REMARK VINA RESULT:    -4.321      1.466      1.903
REMARK INTER + INTRA:          -6.739
REMARK INTER:                  -6.061
REMARK INTRA:                  -0.678
REMARK UNBOUND:                -0.649
REMARK SMILES CCCCCCCCC(=O)[O-]
REMARK SMILES IDX 6 1 7 2 8 3 9 4 10 5 11 6 5 7 4 8 3 9 2 10 1 11
REMARK H PARENT
REMARK Flexibility Score: inf
ROOT
ATOM      1  C   UNL     1      51.569  57.585  94.755  1.00  0.00     0.000 C 
ENDROOT
BRANCH   1   2
ATOM      2  C   UNL     1      52.614  57.518  93.625  1.00  0.00     0.006 C 
BRANCH   2   3
ATOM      3  C   UNL     1      52.019  57.549  92.207  1.00  0.00     0.053 C 
BRANCH   3   4
ATOM      4  C   UNL     1      51.934  56.183  91.602  1.00  0.00     0.041 C 
ATOM      5  O   UNL     1      51.927  56.043  90.351  1.00  0.00    -0.550 OA
ATOM      6  O   UNL     1      51.829  55.065  92.421  1.00  0.00    -0.550 OA
ENDBRANCH   3   4
ENDBRANCH   2   3
ENDBRANCH   1   2
BRANCH   1   7
ATOM      7  C   UNL     1      50.210  58.125  94.276  1.00  0.00     0.000 C 
BRANCH   7   8
ATOM      8  C   UNL     1      49.594  59.129  95.265  1.00  0.00    -0.000 C 
BRANCH   8   9
ATOM      9  C   UNL     1      49.673  60.581  94.763  1.00  0.00    -0.000 C 
BRANCH   9  10
ATOM     10  C   UNL     1      50.269  60.684  93.350  1.00  0.00    -0.003 C 
ATOM     11  C   UNL     1      51.661  61.316  93.343  1.00  0.00     0.004 C 
ENDBRANCH   9  10
ENDBRANCH   8   9
ENDBRANCH   7   8
ENDBRANCH   1   7
TORSDOF 7
ENDMDL
MODEL 4
REMARK VINA RESULT:    -4.300      2.865      5.002
REMARK INTER + INTRA:          -6.708
REMARK INTER:                  -5.984
REMARK INTRA:                  -0.724
REMARK UNBOUND:                -0.649
REMARK SMILES CCCCCCCCC(=O)[O-]
REMARK SMILES IDX 6 1 7 2 8 3 9 4 10 5 11 6 5 7 4 8 3 9 2 10 1 11
REMARK H PARENT
REMARK Flexibility Score: inf
ROOT
ATOM      1  C   UNL     1      52.632  57.982  91.669  1.00  0.00     0.000 C 
ENDROOT
BRANCH   1   2
ATOM      2  C   UNL     1      52.584  58.651  93.055  1.00  0.00     0.006 C 
BRANCH   2   3
ATOM      3  C   UNL     1      53.125  57.779  94.201  1.00  0.00     0.053 C 
BRANCH   3   4
ATOM      4  C   UNL     1      52.031  57.286  95.096  1.00  0.00     0.041 C 
ATOM      5  O   UNL     1      50.871  57.764  95.002  1.00  0.00    -0.550 OA
ATOM      6  O   UNL     1      52.301  56.320  96.058  1.00  0.00    -0.550 OA
ENDBRANCH   3   4
ENDBRANCH   2   3
ENDBRANCH   1   2
BRANCH   1   7
ATOM      7  C   UNL     1      51.534  56.920  91.484  1.00  0.00     0.000 C 
BRANCH   7   8
ATOM      8  C   UNL     1      51.918  55.852  90.447  1.00  0.00    -0.000 C 
BRANCH   8   9
ATOM      9  C   UNL     1      52.254  54.495  91.089  1.00  0.00    -0.000 C 
BRANCH   9  10
ATOM     10  C   UNL     1      51.903  54.448  92.584  1.00  0.00    -0.003 C 
ATOM     11  C   UNL     1      53.115  54.148  93.466  1.00  0.00     0.004 C 
ENDBRANCH   9  10
ENDBRANCH   8   9
ENDBRANCH   7   8
ENDBRANCH   1   7
TORSDOF 7
ENDMDL
MODEL 5
REMARK VINA RESULT:    -4.287      2.277      2.814
REMARK INTER + INTRA:          -6.691
REMARK INTER:                  -5.980
REMARK INTRA:                  -0.711
REMARK UNBOUND:                -0.649
REMARK SMILES CCCCCCCCC(=O)[O-]
REMARK SMILES IDX 6 1 7 2 8 3 9 4 10 5 11 6 5 7 4 8 3 9 2 10 1 11
REMARK H PARENT
REMARK Flexibility Score: inf
ROOT
ATOM      1  C   UNL     1      50.140  57.623  93.026  1.00  0.00     0.000 C 
ENDROOT
BRANCH   1   2
ATOM      2  C   UNL     1      51.462  56.982  92.562  1.00  0.00     0.006 C 
BRANCH   2   3
ATOM      3  C   UNL     1      52.505  56.800  93.678  1.00  0.00     0.053 C 
BRANCH   3   4
ATOM      4  C   UNL     1      52.658  55.365  94.075  1.00  0.00     0.041 C 
ATOM      5  O   UNL     1      52.765  55.052  95.290  1.00  0.00    -0.550 OA
ATOM      6  O   UNL     1      52.716  54.375  93.102  1.00  0.00    -0.550 OA
ENDBRANCH   3   4
ENDBRANCH   2   3
ENDBRANCH   1   2
BRANCH   1   7
ATOM      7  C   UNL     1      50.165  58.030  94.509  1.00  0.00     0.000 C 
BRANCH   7   8
ATOM      8  C   UNL     1      49.788  59.506  94.721  1.00  0.00    -0.000 C 
BRANCH   8   9
ATOM      9  C   UNL     1      49.925  60.344  93.438  1.00  0.00    -0.000 C 
BRANCH   9  10
ATOM     10  C   UNL     1      51.154  61.266  93.466  1.00  0.00    -0.003 C 
ATOM     11  C   UNL     1      52.380  60.634  92.808  1.00  0.00     0.004 C 
ENDBRANCH   9  10
ENDBRANCH   8   9
ENDBRANCH   7   8
ENDBRANCH   1   7
TORSDOF 7
ENDMDL
MODEL 6
REMARK VINA RESULT:    -4.231      2.292      3.818
REMARK INTER + INTRA:          -6.612
REMARK INTER:                  -5.858
REMARK INTRA:                  -0.753
REMARK UNBOUND:                -0.649
REMARK SMILES CCCCCCCCC(=O)[O-]
REMARK SMILES IDX 6 1 7 2 8 3 9 4 10 5 11 6 5 7 4 8 3 9 2 10 1 11
REMARK H PARENT
REMARK Flexibility Score: inf
ROOT
ATOM      1  C   UNL     1      52.099  57.432  91.560  1.00  0.00     0.000 C 
ENDROOT
BRANCH   1   2
ATOM      2  C   UNL     1      51.179  56.746  92.587  1.00  0.00     0.006 C 
BRANCH   2   3
ATOM      3  C   UNL     1      50.087  57.659  93.171  1.00  0.00     0.053 C 
BRANCH   3   4
ATOM      4  C   UNL     1      50.310  57.943  94.623  1.00  0.00     0.041 C 
ATOM      5  O   UNL     1      49.479  58.634  95.269  1.00  0.00    -0.550 OA
ATOM      6  O   UNL     1      51.454  57.473  95.258  1.00  0.00    -0.550 OA
ENDBRANCH   3   4
ENDBRANCH   2   3
ENDBRANCH   1   2
BRANCH   1   7
ATOM      7  C   UNL     1      53.102  58.399  92.214  1.00  0.00     0.000 C 
BRANCH   7   8
ATOM      8  C   UNL     1      53.457  59.585  91.301  1.00  0.00    -0.000 C 
BRANCH   8   9
ATOM      9  C   UNL     1      52.838  60.909  91.782  1.00  0.00    -0.000 C 
BRANCH   9  10
ATOM     10  C   UNL     1      52.288  60.816  93.213  1.00  0.00    -0.003 C 
ATOM     11  C   UNL     1      50.845  61.309  93.323  1.00  0.00     0.004 C 
ENDBRANCH   9  10
ENDBRANCH   8   9
ENDBRANCH   7   8
ENDBRANCH   1   7
TORSDOF 7
ENDMDL
MODEL 7
REMARK VINA RESULT:    -4.226      2.407      3.579
REMARK INTER + INTRA:          -6.605
REMARK INTER:                  -5.934
REMARK INTRA:                  -0.671
REMARK UNBOUND:                -0.649
REMARK SMILES CCCCCCCCC(=O)[O-]
REMARK SMILES IDX 6 1 7 2 8 3 9 4 10 5 11 6 5 7 4 8 3 9 2 10 1 11
REMARK H PARENT
REMARK Flexibility Score: inf
ROOT
ATOM      1  C   UNL     1      51.790  57.172  91.467  1.00  0.00     0.000 C 
ENDROOT
BRANCH   1   2
ATOM      2  C   UNL     1      51.321  56.278  92.630  1.00  0.00     0.006 C 
BRANCH   2   3
ATOM      3  C   UNL     1      52.114  54.969  92.784  1.00  0.00     0.053 C 
BRANCH   3   4
ATOM      4  C   UNL     1      52.912  54.942  94.050  1.00  0.00     0.041 C 
ATOM      5  O   UNL     1      53.888  54.155  94.166  1.00  0.00    -0.550 OA
ATOM      6  O   UNL     1      52.559  55.762  95.114  1.00  0.00    -0.550 OA
ENDBRANCH   3   4
ENDBRANCH   2   3
ENDBRANCH   1   2
BRANCH   1   7
ATOM      7  C   UNL     1      52.820  58.227  91.906  1.00  0.00     0.000 C 
BRANCH   7   8
ATOM      8  C   UNL     1      52.507  58.814  93.293  1.00  0.00    -0.000 C 
BRANCH   8   9
ATOM      9  C   UNL     1      51.665  60.099  93.217  1.00  0.00    -0.000 C 
BRANCH   9  10
ATOM     10  C   UNL     1      50.187  59.856  93.561  1.00  0.00    -0.003 C 
ATOM     11  C   UNL     1      50.007  58.973  94.796  1.00  0.00     0.004 C 
ENDBRANCH   9  10
ENDBRANCH   8   9
ENDBRANCH   7   8
ENDBRANCH   1   7
TORSDOF 7
ENDMDL
MODEL 8
REMARK VINA RESULT:    -4.224      1.956      3.961
REMARK INTER + INTRA:          -6.602
REMARK INTER:                  -6.081
REMARK INTRA:                  -0.521
REMARK UNBOUND:                -0.649
REMARK SMILES CCCCCCCCC(=O)[O-]
REMARK SMILES IDX 6 1 7 2 8 3 9 4 10 5 11 6 5 7 4 8 3 9 2 10 1 11
REMARK H PARENT
REMARK Flexibility Score: inf
ROOT
ATOM      1  C   UNL     1      50.191  58.133  94.352  1.00  0.00     0.000 C 
ENDROOT
BRANCH   1   2
ATOM      2  C   UNL     1      49.418  59.112  95.256  1.00  0.00     0.006 C 
BRANCH   2   3
ATOM      3  C   UNL     1      49.844  60.583  95.110  1.00  0.00     0.053 C 
BRANCH   3   4
ATOM      4  C   UNL     1      50.103  60.955  93.683  1.00  0.00     0.041 C 
ATOM      5  O   UNL     1      51.274  61.200  93.294  1.00  0.00    -0.550 OA
ATOM      6  O   UNL     1      49.044  61.062  92.789  1.00  0.00    -0.550 OA
ENDBRANCH   3   4
ENDBRANCH   2   3
ENDBRANCH   1   2
BRANCH   1   7
ATOM      7  C   UNL     1      51.418  57.522  95.052  1.00  0.00     0.000 C 
BRANCH   7   8
ATOM      8  C   UNL     1      52.508  57.090  94.057  1.00  0.00    -0.000 C 
BRANCH   8   9
ATOM      9  C   UNL     1      53.137  58.280  93.311  1.00  0.00    -0.000 C 
BRANCH   9  10
ATOM     10  C   UNL     1      52.914  58.207  91.793  1.00  0.00    -0.003 C 
ATOM     11  C   UNL     1      51.928  57.109  91.394  1.00  0.00     0.004 C 
ENDBRANCH   9  10
ENDBRANCH   8   9
ENDBRANCH   7   8
ENDBRANCH   1   7
TORSDOF 7
ENDMDL
MODEL 9
REMARK VINA RESULT:    -4.166      2.160      3.190
REMARK INTER + INTRA:          -6.520
REMARK INTER:                  -5.895
REMARK INTRA:                  -0.625
REMARK UNBOUND:                -0.649
REMARK SMILES CCCCCCCCC(=O)[O-]
REMARK SMILES IDX 6 1 7 2 8 3 9 4 10 5 11 6 5 7 4 8 3 9 2 10 1 11
REMARK H PARENT
REMARK Flexibility Score: inf
ROOT
ATOM      1  C   UNL     1      52.665  58.811  92.961  1.00  0.00     0.000 C 
ENDROOT
BRANCH   1   2
ATOM      2  C   UNL     1      52.239  57.744  91.935  1.00  0.00     0.006 C 
BRANCH   2   3
ATOM      3  C   UNL     1      51.310  56.656  92.499  1.00  0.00     0.053 C 
BRANCH   3   4
ATOM      4  C   UNL     1      52.064  55.427  92.901  1.00  0.00     0.041 C 
ATOM      5  O   UNL     1      51.967  54.373  92.219  1.00  0.00    -0.550 OA
ATOM      6  O   UNL     1      52.848  55.435  94.048  1.00  0.00    -0.550 OA
ENDBRANCH   3   4
ENDBRANCH   2   3
ENDBRANCH   1   2
BRANCH   1   7
ATOM      7  C   UNL     1      52.439  60.247  92.454  1.00  0.00     0.000 C 
BRANCH   7   8
ATOM      8  C   UNL     1      51.540  61.068  93.394  1.00  0.00    -0.000 C 
BRANCH   8   9
ATOM      9  C   UNL     1      50.083  60.575  93.402  1.00  0.00    -0.000 C 
BRANCH   9  10
ATOM     10  C   UNL     1      49.579  60.249  94.816  1.00  0.00    -0.003 C 
ATOM     11  C   UNL     1      49.660  58.758  95.142  1.00  0.00     0.004 C 
ENDBRANCH   9  10
ENDBRANCH   8   9
ENDBRANCH   7   8
ENDBRANCH   1   7
TORSDOF 7
ENDMDL
