MODEL 1
REMARK VINA RESULT:    -4.329      0.000      0.000
REMARK INTER + INTRA:         -10.679
REMARK INTER:                  -8.125
REMARK INTRA:                  -2.554
REMARK UNBOUND:                -2.554
REMARK SMILES CCCCCCCCC=CCCCCCCCC(=O)[O-]
REMARK SMILES IDX 10 1 9 2 11 3 12 4 13 5 14 6 15 7 16 8 17 9 18 10 19 11
REMARK SMILES IDX 20 12 8 13 7 14 6 15 5 16 4 17 3 18 2 19 1 20
REMARK H PARENT
REMARK Flexibility Score: inf
ROOT
ATOM      1  C   UNL     1     123.269 122.637 123.688  1.00  0.00    -0.031 C 
ATOM      2  C   UNL     1     123.800 122.808 122.463  1.00  0.00    -0.031 C 
ENDROOT
BRANCH   1   3
ATOM      3  C   UNL     1     124.013 122.847 124.981  1.00  0.00     0.027 C 
BRANCH   3   4
ATOM      4  C   UNL     1     123.755 124.257 125.533  1.00  0.00     0.004 C 
BRANCH   4   5
ATOM      5  C   UNL     1     122.448 124.870 125.005  1.00  0.00     0.000 C 
BRANCH   5   6
ATOM      6  C   UNL     1     122.597 126.360 124.651  1.00  0.00     0.000 C 
BRANCH   6   7
ATOM      7  C   UNL     1     121.298 126.969 124.097  1.00  0.00     0.000 C 
BRANCH   7   8
ATOM      8  C   UNL     1     120.139 125.957 124.039  1.00  0.00     0.006 C 
BRANCH   8   9
ATOM      9  C   UNL     1     119.071 126.351 123.011  1.00  0.00     0.053 C 
BRANCH   9  10
ATOM     10  C   UNL     1     117.868 125.461 123.085  1.00  0.00     0.041 C 
ATOM     11  O   UNL     1     116.762 125.921 123.470  1.00  0.00    -0.550 OA
ATOM     12  O   UNL     1     117.959 124.133 122.684  1.00  0.00    -0.550 OA
ENDBRANCH   9  10
ENDBRANCH   8   9
ENDBRANCH   7   8
ENDBRANCH   6   7
ENDBRANCH   5   6
ENDBRANCH   4   5
ENDBRANCH   3   4
ENDBRANCH   1   3
BRANCH   2  13
ATOM     13  C   UNL     1     125.196 123.316 122.202  1.00  0.00     0.027 C 
BRANCH  13  14
ATOM     14  C   UNL     1     125.249 124.845 122.330  1.00  0.00     0.004 C 
BRANCH  14  15
ATOM     15  C   UNL     1     124.950 125.564 121.006  1.00  0.00     0.000 C 
BRANCH  15  16
ATOM     16  C   UNL     1     123.967 126.738 121.176  1.00  0.00     0.000 C 
BRANCH  16  17
ATOM     17  C   UNL     1     122.713 126.577 120.295  1.00  0.00    -0.000 C 
BRANCH  17  18
ATOM     18  C   UNL     1     121.798 125.416 120.735  1.00  0.00    -0.000 C 
BRANCH  18  19
ATOM     19  C   UNL     1     121.067 124.723 119.571  1.00  0.00    -0.003 C 
ATOM     20  C   UNL     1     119.576 125.058 119.525  1.00  0.00     0.004 C 
ENDBRANCH  18  19
ENDBRANCH  17  18
ENDBRANCH  16  17
ENDBRANCH  15  16
ENDBRANCH  14  15
ENDBRANCH  13  14
ENDBRANCH   2  13
TORSDOF 15
ENDMDL
MODEL 2
REMARK VINA RESULT:    -4.290      1.160      1.963
REMARK INTER + INTRA:         -10.606
REMARK INTER:                  -7.610
REMARK INTRA:                  -2.996
REMARK UNBOUND:                -2.554
REMARK SMILES CCCCCCCCC=CCCCCCCCC(=O)[O-]
REMARK SMILES IDX 10 1 9 2 11 3 12 4 13 5 14 6 15 7 16 8 17 9 18 10 19 11
REMARK SMILES IDX 20 12 8 13 7 14 6 15 5 16 4 17 3 18 2 19 1 20
REMARK H PARENT
REMARK Flexibility Score: inf
ROOT
ATOM      1  C   UNL     1     124.118 122.718 121.958  1.00  0.00    -0.031 C 
ATOM      2  C   UNL     1     124.997 123.615 121.474  1.00  0.00    -0.031 C 
ENDROOT
BRANCH   1   3
ATOM      3  C   UNL     1     123.145 122.990 123.076  1.00  0.00     0.027 C 
BRANCH   3   4
ATOM      4  C   UNL     1     123.818 122.796 124.443  1.00  0.00     0.004 C 
BRANCH   4   5
ATOM      5  C   UNL     1     123.752 124.057 125.319  1.00  0.00     0.000 C 
BRANCH   5   6
ATOM      6  C   UNL     1     122.456 124.858 125.102  1.00  0.00     0.000 C 
BRANCH   6   7
ATOM      7  C   UNL     1     122.722 126.329 124.744  1.00  0.00     0.000 C 
BRANCH   7   8
ATOM      8  C   UNL     1     121.430 127.123 124.471  1.00  0.00     0.006 C 
BRANCH   8   9
ATOM      9  C   UNL     1     120.177 126.243 124.549  1.00  0.00     0.053 C 
BRANCH   9  10
ATOM     10  C   UNL     1     119.604 125.964 123.192  1.00  0.00     0.041 C 
ATOM     11  O   UNL     1     119.233 126.913 122.454  1.00  0.00    -0.550 OA
ATOM     12  O   UNL     1     119.523 124.657 122.727  1.00  0.00    -0.550 OA
ENDBRANCH   9  10
ENDBRANCH   8   9
ENDBRANCH   7   8
ENDBRANCH   6   7
ENDBRANCH   5   6
ENDBRANCH   4   5
ENDBRANCH   3   4
ENDBRANCH   1   3
BRANCH   2  13
ATOM     13  C   UNL     1     125.084 125.052 121.921  1.00  0.00     0.027 C 
BRANCH  13  14
ATOM     14  C   UNL     1     125.110 125.997 120.712  1.00  0.00     0.004 C 
BRANCH  14  15
ATOM     15  C   UNL     1     124.073 127.125 120.815  1.00  0.00     0.000 C 
BRANCH  15  16
ATOM     16  C   UNL     1     122.658 126.604 121.132  1.00  0.00     0.000 C 
BRANCH  16  17
ATOM     17  C   UNL     1     121.952 126.045 119.882  1.00  0.00    -0.000 C 
BRANCH  17  18
ATOM     18  C   UNL     1     121.627 124.541 119.982  1.00  0.00    -0.000 C 
BRANCH  18  19
ATOM     19  C   UNL     1     121.877 123.760 118.680  1.00  0.00    -0.003 C 
ATOM     20  C   UNL     1     123.303 123.927 118.154  1.00  0.00     0.004 C 
ENDBRANCH  18  19
ENDBRANCH  17  18
ENDBRANCH  16  17
ENDBRANCH  15  16
ENDBRANCH  14  15
ENDBRANCH  13  14
ENDBRANCH   2  13
TORSDOF 15
ENDMDL
MODEL 3
REMARK VINA RESULT:    -4.191      1.703      3.030
REMARK INTER + INTRA:         -10.419
REMARK INTER:                  -7.692
REMARK INTRA:                  -2.728
REMARK UNBOUND:                -2.554
REMARK SMILES CCCCCCCCC=CCCCCCCCC(=O)[O-]
REMARK SMILES IDX 10 1 9 2 11 3 12 4 13 5 14 6 15 7 16 8 17 9 18 10 19 11
REMARK SMILES IDX 20 12 8 13 7 14 6 15 5 16 4 17 3 18 2 19 1 20
REMARK H PARENT
REMARK Flexibility Score: inf
ROOT
ATOM      1  C   UNL     1     123.093 125.287 124.816  1.00  0.00    -0.031 C 
ATOM      2  C   UNL     1     123.747 124.346 124.110  1.00  0.00    -0.031 C 
ENDROOT
BRANCH   1   3
ATOM      3  C   UNL     1     122.483 126.532 124.226  1.00  0.00     0.027 C 
BRANCH   3   4
ATOM      4  C   UNL     1     120.994 126.633 124.591  1.00  0.00     0.004 C 
BRANCH   4   5
ATOM      5  C   UNL     1     120.107 126.939 123.373  1.00  0.00     0.000 C 
BRANCH   5   6
ATOM      6  C   UNL     1     120.846 126.732 122.039  1.00  0.00     0.000 C 
BRANCH   6   7
ATOM      7  C   UNL     1     120.511 125.384 121.380  1.00  0.00     0.000 C 
BRANCH   7   8
ATOM      8  C   UNL     1     119.831 125.540 120.007  1.00  0.00     0.006 C 
BRANCH   8   9
ATOM      9  C   UNL     1     119.267 124.215 119.481  1.00  0.00     0.053 C 
BRANCH   9  10
ATOM     10  C   UNL     1     117.814 124.053 119.813  1.00  0.00     0.041 C 
ATOM     11  O   UNL     1     117.389 124.357 120.958  1.00  0.00    -0.550 OA
ATOM     12  O   UNL     1     116.924 123.609 118.843  1.00  0.00    -0.550 OA
ENDBRANCH   9  10
ENDBRANCH   8   9
ENDBRANCH   7   8
ENDBRANCH   6   7
ENDBRANCH   5   6
ENDBRANCH   4   5
ENDBRANCH   3   4
ENDBRANCH   1   3
BRANCH   2  13
ATOM     13  C   UNL     1     123.895 124.355 122.609  1.00  0.00     0.027 C 
BRANCH  13  14
ATOM     14  C   UNL     1     125.316 124.774 122.206  1.00  0.00     0.004 C 
BRANCH  14  15
ATOM     15  C   UNL     1     125.352 125.572 120.895  1.00  0.00     0.000 C 
BRANCH  15  16
ATOM     16  C   UNL     1     124.194 126.581 120.781  1.00  0.00     0.000 C 
BRANCH  16  17
ATOM     17  C   UNL     1     123.493 126.508 119.410  1.00  0.00    -0.000 C 
BRANCH  17  18
ATOM     18  C   UNL     1     124.054 125.405 118.491  1.00  0.00    -0.000 C 
BRANCH  18  19
ATOM     19  C   UNL     1     123.030 124.316 118.126  1.00  0.00    -0.003 C 
ATOM     20  C   UNL     1     122.859 123.270 119.228  1.00  0.00     0.004 C 
ENDBRANCH  18  19
ENDBRANCH  17  18
ENDBRANCH  16  17
ENDBRANCH  15  16
ENDBRANCH  14  15
ENDBRANCH  13  14
ENDBRANCH   2  13
TORSDOF 15
ENDMDL
MODEL 4
REMARK VINA RESULT:    -4.156      1.555      4.126
REMARK INTER + INTRA:         -10.354
REMARK INTER:                  -7.323
REMARK INTRA:                  -3.031
REMARK UNBOUND:                -2.554
REMARK SMILES CCCCCCCCC=CCCCCCCCC(=O)[O-]
REMARK SMILES IDX 10 1 9 2 11 3 12 4 13 5 14 6 15 7 16 8 17 9 18 10 19 11
REMARK SMILES IDX 20 12 8 13 7 14 6 15 5 16 4 17 3 18 2 19 1 20
REMARK H PARENT
REMARK Flexibility Score: inf
ROOT
ATOM      1  C   UNL     1     123.497 123.129 121.664  1.00  0.00    -0.031 C 
ATOM      2  C   UNL     1     122.664 122.800 122.668  1.00  0.00    -0.031 C 
ENDROOT
BRANCH   1   3
ATOM      3  C   UNL     1     124.976 123.371 121.821  1.00  0.00     0.027 C 
BRANCH   3   4
ATOM      4  C   UNL     1     125.254 124.845 122.153  1.00  0.00     0.004 C 
BRANCH   4   5
ATOM      5  C   UNL     1     125.292 125.735 120.900  1.00  0.00     0.000 C 
BRANCH   5   6
ATOM      6  C   UNL     1     124.189 126.809 120.907  1.00  0.00     0.000 C 
BRANCH   6   7
ATOM      7  C   UNL     1     123.509 126.968 119.537  1.00  0.00     0.000 C 
BRANCH   7   8
ATOM      8  C   UNL     1     122.627 125.762 119.162  1.00  0.00     0.006 C 
BRANCH   8   9
ATOM      9  C   UNL     1     121.333 125.708 119.983  1.00  0.00     0.053 C 
BRANCH   9  10
ATOM     10  C   UNL     1     120.407 124.635 119.497  1.00  0.00     0.041 C 
ATOM     11  O   UNL     1     120.866 123.526 119.117  1.00  0.00    -0.550 OA
ATOM     12  O   UNL     1     119.033 124.844 119.508  1.00  0.00    -0.550 OA
ENDBRANCH   9  10
ENDBRANCH   8   9
ENDBRANCH   7   8
ENDBRANCH   6   7
ENDBRANCH   5   6
ENDBRANCH   4   5
ENDBRANCH   3   4
ENDBRANCH   1   3
BRANCH   2  13
ATOM     13  C   UNL     1     123.100 122.543 124.088  1.00  0.00     0.027 C 
BRANCH  13  14
ATOM     14  C   UNL     1     122.474 123.569 125.043  1.00  0.00     0.004 C 
BRANCH  14  15
ATOM     15  C   UNL     1     123.339 124.826 125.216  1.00  0.00     0.000 C 
BRANCH  15  16
ATOM     16  C   UNL     1     122.532 126.129 125.060  1.00  0.00     0.000 C 
BRANCH  16  17
ATOM     17  C   UNL     1     122.092 126.368 123.603  1.00  0.00    -0.000 C 
BRANCH  17  18
ATOM     18  C   UNL     1     120.675 126.964 123.479  1.00  0.00    -0.000 C 
BRANCH  18  19
ATOM     19  C   UNL     1     119.561 126.038 123.999  1.00  0.00    -0.003 C 
ATOM     20  C   UNL     1     119.444 124.744 123.193  1.00  0.00     0.004 C 
ENDBRANCH  18  19
ENDBRANCH  17  18
ENDBRANCH  16  17
ENDBRANCH  15  16
ENDBRANCH  14  15
ENDBRANCH  13  14
ENDBRANCH   2  13
TORSDOF 15
ENDMDL
MODEL 5
REMARK VINA RESULT:    -4.155      1.465      4.000
REMARK INTER + INTRA:         -10.352
REMARK INTER:                  -7.515
REMARK INTRA:                  -2.837
REMARK UNBOUND:                -2.554
REMARK SMILES CCCCCCCCC=CCCCCCCCC(=O)[O-]
REMARK SMILES IDX 10 1 9 2 11 3 12 4 13 5 14 6 15 7 16 8 17 9 18 10 19 11
REMARK SMILES IDX 20 12 8 13 7 14 6 15 5 16 4 17 3 18 2 19 1 20
REMARK H PARENT
REMARK Flexibility Score: inf
ROOT
ATOM      1  C   UNL     1     124.144 123.871 122.272  1.00  0.00    -0.031 C 
ATOM      2  C   UNL     1     123.516 123.727 123.453  1.00  0.00    -0.031 C 
ENDROOT
BRANCH   1   3
ATOM      3  C   UNL     1     125.231 124.877 121.997  1.00  0.00     0.027 C 
BRANCH   3   4
ATOM      4  C   UNL     1     124.846 125.787 120.820  1.00  0.00     0.004 C 
BRANCH   4   5
ATOM      5  C   UNL     1     124.094 127.049 121.271  1.00  0.00     0.000 C 
BRANCH   5   6
ATOM      6  C   UNL     1     122.635 127.071 120.782  1.00  0.00     0.000 C 
BRANCH   6   7
ATOM      7  C   UNL     1     122.317 125.917 119.817  1.00  0.00     0.000 C 
BRANCH   7   8
ATOM      8  C   UNL     1     121.204 124.989 120.339  1.00  0.00     0.006 C 
BRANCH   8   9
ATOM      9  C   UNL     1     119.824 125.362 119.782  1.00  0.00     0.053 C 
BRANCH   9  10
ATOM     10  C   UNL     1     118.948 124.159 119.605  1.00  0.00     0.041 C 
ATOM     11  O   UNL     1     117.696 124.280 119.612  1.00  0.00    -0.550 OA
ATOM     12  O   UNL     1     119.518 122.910 119.387  1.00  0.00    -0.550 OA
ENDBRANCH   9  10
ENDBRANCH   8   9
ENDBRANCH   7   8
ENDBRANCH   6   7
ENDBRANCH   5   6
ENDBRANCH   4   5
ENDBRANCH   3   4
ENDBRANCH   1   3
BRANCH   2  13
ATOM     13  C   UNL     1     123.863 124.496 124.703  1.00  0.00     0.027 C 
BRANCH  13  14
ATOM     14  C   UNL     1     122.641 125.264 125.225  1.00  0.00     0.004 C 
BRANCH  14  15
ATOM     15  C   UNL     1     122.565 126.699 124.683  1.00  0.00     0.000 C 
BRANCH  15  16
ATOM     16  C   UNL     1     121.168 127.056 124.139  1.00  0.00     0.000 C 
BRANCH  16  17
ATOM     17  C   UNL     1     120.082 126.091 124.651  1.00  0.00    -0.000 C 
BRANCH  17  18
ATOM     18  C   UNL     1     119.206 125.501 123.527  1.00  0.00    -0.000 C 
BRANCH  18  19
ATOM     19  C   UNL     1     119.398 123.989 123.314  1.00  0.00    -0.003 C 
ATOM     20  C   UNL     1     118.082 123.213 123.358  1.00  0.00     0.004 C 
ENDBRANCH  18  19
ENDBRANCH  17  18
ENDBRANCH  16  17
ENDBRANCH  15  16
ENDBRANCH  14  15
ENDBRANCH  13  14
ENDBRANCH   2  13
TORSDOF 15
ENDMDL
MODEL 6
REMARK VINA RESULT:    -4.134      1.336      2.241
REMARK INTER + INTRA:         -10.312
REMARK INTER:                  -7.270
REMARK INTRA:                  -3.042
REMARK UNBOUND:                -2.554
REMARK SMILES CCCCCCCCC=CCCCCCCCC(=O)[O-]
REMARK SMILES IDX 10 1 9 2 11 3 12 4 13 5 14 6 15 7 16 8 17 9 18 10 19 11
REMARK SMILES IDX 20 12 8 13 7 14 6 15 5 16 4 17 3 18 2 19 1 20
REMARK H PARENT
REMARK Flexibility Score: inf
ROOT
ATOM      1  C   UNL     1     123.741 124.030 124.733  1.00  0.00    -0.031 C 
ATOM      2  C   UNL     1     124.198 124.987 123.904  1.00  0.00    -0.031 C 
ENDROOT
BRANCH   1   3
ATOM      3  C   UNL     1     123.500 122.597 124.338  1.00  0.00     0.027 C 
BRANCH   3   4
ATOM      4  C   UNL     1     121.999 122.325 124.160  1.00  0.00     0.004 C 
BRANCH   4   5
ATOM      5  C   UNL     1     121.449 122.887 122.839  1.00  0.00     0.000 C 
BRANCH   5   6
ATOM      6  C   UNL     1     120.095 123.597 123.020  1.00  0.00     0.000 C 
BRANCH   6   7
ATOM      7  C   UNL     1     120.151 124.718 124.071  1.00  0.00     0.000 C 
BRANCH   7   8
ATOM      8  C   UNL     1     119.036 125.765 123.889  1.00  0.00     0.006 C 
BRANCH   8   9
ATOM      9  C   UNL     1     118.203 125.518 122.625  1.00  0.00     0.053 C 
BRANCH   9  10
ATOM     10  C   UNL     1     116.788 125.148 122.951  1.00  0.00     0.041 C 
ATOM     11  O   UNL     1     116.376 123.976 122.748  1.00  0.00    -0.550 OA
ATOM     12  O   UNL     1     115.937 126.087 123.521  1.00  0.00    -0.550 OA
ENDBRANCH   9  10
ENDBRANCH   8   9
ENDBRANCH   7   8
ENDBRANCH   6   7
ENDBRANCH   5   6
ENDBRANCH   4   5
ENDBRANCH   3   4
ENDBRANCH   1   3
BRANCH   2  13
ATOM     13  C   UNL     1     124.617 124.748 122.476  1.00  0.00     0.027 C 
BRANCH  13  14
ATOM     14  C   UNL     1     124.031 125.825 121.551  1.00  0.00     0.004 C 
BRANCH  14  15
ATOM     15  C   UNL     1     122.970 126.692 122.245  1.00  0.00     0.000 C 
BRANCH  15  16
ATOM     16  C   UNL     1     121.647 126.757 121.459  1.00  0.00     0.000 C 
BRANCH  16  17
ATOM     17  C   UNL     1     121.695 125.910 120.172  1.00  0.00    -0.000 C 
BRANCH  17  18
ATOM     18  C   UNL     1     120.303 125.478 119.669  1.00  0.00    -0.000 C 
BRANCH  18  19
ATOM     19  C   UNL     1     120.186 123.972 119.373  1.00  0.00    -0.003 C 
ATOM     20  C   UNL     1     121.530 123.331 119.028  1.00  0.00     0.004 C 
ENDBRANCH  18  19
ENDBRANCH  17  18
ENDBRANCH  16  17
ENDBRANCH  15  16
ENDBRANCH  14  15
ENDBRANCH  13  14
ENDBRANCH   2  13
TORSDOF 15
ENDMDL
MODEL 7
REMARK VINA RESULT:    -4.090      1.376      3.796
REMARK INTER + INTRA:         -10.231
REMARK INTER:                  -6.966
REMARK INTRA:                  -3.264
REMARK UNBOUND:                -2.554
REMARK SMILES CCCCCCCCC=CCCCCCCCC(=O)[O-]
REMARK SMILES IDX 10 1 9 2 11 3 12 4 13 5 14 6 15 7 16 8 17 9 18 10 19 11
REMARK SMILES IDX 20 12 8 13 7 14 6 15 5 16 4 17 3 18 2 19 1 20
REMARK H PARENT
REMARK Flexibility Score: inf
ROOT
ATOM      1  C   UNL     1     122.221 122.549 122.041  1.00  0.00    -0.031 C 
ATOM      2  C   UNL     1     122.463 122.717 123.354  1.00  0.00    -0.031 C 
ENDROOT
BRANCH   1   3
ATOM      3  C   UNL     1     123.255 122.695 120.954  1.00  0.00     0.027 C 
BRANCH   3   4
ATOM      4  C   UNL     1     122.646 123.359 119.710  1.00  0.00     0.004 C 
BRANCH   4   5
ATOM      5  C   UNL     1     121.122 123.176 119.628  1.00  0.00     0.000 C 
BRANCH   5   6
ATOM      6  C   UNL     1     120.388 124.489 119.302  1.00  0.00     0.000 C 
BRANCH   6   7
ATOM      7  C   UNL     1     119.065 124.634 120.072  1.00  0.00     0.000 C 
BRANCH   7   8
ATOM      8  C   UNL     1     118.770 123.433 120.989  1.00  0.00     0.006 C 
BRANCH   8   9
ATOM      9  C   UNL     1     118.564 123.851 122.451  1.00  0.00     0.053 C 
BRANCH   9  10
ATOM     10  C   UNL     1     117.461 124.855 122.594  1.00  0.00     0.041 C 
ATOM     11  O   UNL     1     116.274 124.537 122.322  1.00  0.00    -0.550 OA
ATOM     12  O   UNL     1     117.739 126.130 123.072  1.00  0.00    -0.550 OA
ENDBRANCH   9  10
ENDBRANCH   8   9
ENDBRANCH   7   8
ENDBRANCH   6   7
ENDBRANCH   5   6
ENDBRANCH   4   5
ENDBRANCH   3   4
ENDBRANCH   1   3
BRANCH   2  13
ATOM     13  C   UNL     1     123.824 122.995 123.942  1.00  0.00     0.027 C 
BRANCH  13  14
ATOM     14  C   UNL     1     123.917 124.448 124.431  1.00  0.00     0.004 C 
BRANCH  14  15
ATOM     15  C   UNL     1     122.584 124.978 124.978  1.00  0.00     0.000 C 
BRANCH  15  16
ATOM     16  C   UNL     1     122.442 126.504 124.822  1.00  0.00     0.000 C 
BRANCH  16  17
ATOM     17  C   UNL     1     121.310 126.886 123.849  1.00  0.00    -0.000 C 
BRANCH  17  18
ATOM     18  C   UNL     1     121.410 126.178 122.483  1.00  0.00    -0.000 C 
BRANCH  18  19
ATOM     19  C   UNL     1     122.209 126.965 121.429  1.00  0.00    -0.003 C 
ATOM     20  C   UNL     1     123.664 126.507 121.325  1.00  0.00     0.004 C 
ENDBRANCH  18  19
ENDBRANCH  17  18
ENDBRANCH  16  17
ENDBRANCH  15  16
ENDBRANCH  14  15
ENDBRANCH  13  14
ENDBRANCH   2  13
TORSDOF 15
ENDMDL
MODEL 8
REMARK VINA RESULT:    -4.071      1.312      2.675
REMARK INTER + INTRA:         -10.194
REMARK INTER:                  -7.152
REMARK INTRA:                  -3.042
REMARK UNBOUND:                -2.554
REMARK SMILES CCCCCCCCC=CCCCCCCCC(=O)[O-]
REMARK SMILES IDX 10 1 9 2 11 3 12 4 13 5 14 6 15 7 16 8 17 9 18 10 19 11
REMARK SMILES IDX 20 12 8 13 7 14 6 15 5 16 4 17 3 18 2 19 1 20
REMARK H PARENT
REMARK Flexibility Score: inf
ROOT
ATOM      1  C   UNL     1     124.462 124.220 122.214  1.00  0.00    -0.031 C 
ATOM      2  C   UNL     1     124.381 125.023 121.137  1.00  0.00    -0.031 C 
ENDROOT
BRANCH   1   3
ATOM      3  C   UNL     1     124.384 124.693 123.643  1.00  0.00     0.027 C 
BRANCH   3   4
ATOM      4  C   UNL     1     122.934 124.656 124.149  1.00  0.00     0.004 C 
BRANCH   4   5
ATOM      5  C   UNL     1     122.454 126.021 124.668  1.00  0.00     0.000 C 
BRANCH   5   6
ATOM      6  C   UNL     1     120.929 126.191 124.554  1.00  0.00     0.000 C 
BRANCH   6   7
ATOM      7  C   UNL     1     120.523 127.125 123.402  1.00  0.00     0.000 C 
BRANCH   7   8
ATOM      8  C   UNL     1     119.243 126.663 122.679  1.00  0.00     0.006 C 
BRANCH   8   9
ATOM      9  C   UNL     1     118.519 125.542 123.434  1.00  0.00     0.053 C 
BRANCH   9  10
ATOM     10  C   UNL     1     117.218 125.179 122.783  1.00  0.00     0.041 C 
ATOM     11  O   UNL     1     117.208 124.502 121.722  1.00  0.00    -0.550 OA
ATOM     12  O   UNL     1     116.017 125.552 123.374  1.00  0.00    -0.550 OA
ENDBRANCH   9  10
ENDBRANCH   8   9
ENDBRANCH   7   8
ENDBRANCH   6   7
ENDBRANCH   5   6
ENDBRANCH   4   5
ENDBRANCH   3   4
ENDBRANCH   1   3
BRANCH   2  13
ATOM     13  C   UNL     1     124.118 126.506 121.196  1.00  0.00     0.027 C 
BRANCH  13  14
ATOM     14  C   UNL     1     122.737 126.836 120.612  1.00  0.00     0.004 C 
BRANCH  14  15
ATOM     15  C   UNL     1     122.264 125.800 119.582  1.00  0.00     0.000 C 
BRANCH  15  16
ATOM     16  C   UNL     1     120.732 125.642 119.558  1.00  0.00     0.000 C 
BRANCH  16  17
ATOM     17  C   UNL     1     120.288 124.225 119.970  1.00  0.00    -0.000 C 
BRANCH  17  18
ATOM     18  C   UNL     1     120.924 123.741 121.288  1.00  0.00    -0.000 C 
BRANCH  18  19
ATOM     19  C   UNL     1     120.500 122.320 121.701  1.00  0.00    -0.003 C 
ATOM     20  C   UNL     1     121.573 121.594 122.513  1.00  0.00     0.004 C 
ENDBRANCH  18  19
ENDBRANCH  17  18
ENDBRANCH  16  17
ENDBRANCH  15  16
ENDBRANCH  14  15
ENDBRANCH  13  14
ENDBRANCH   2  13
TORSDOF 15
ENDMDL
MODEL 9
REMARK VINA RESULT:    -4.056      2.915      5.714
REMARK INTER + INTRA:         -10.167
REMARK INTER:                  -7.205
REMARK INTRA:                  -2.962
REMARK UNBOUND:                -2.554
REMARK SMILES CCCCCCCCC=CCCCCCCCC(=O)[O-]
REMARK SMILES IDX 10 1 9 2 11 3 12 4 13 5 14 6 15 7 16 8 17 9 18 10 19 11
REMARK SMILES IDX 20 12 8 13 7 14 6 15 5 16 4 17 3 18 2 19 1 20
REMARK H PARENT
REMARK Flexibility Score: inf
ROOT
ATOM      1  C   UNL     1     119.628 126.688 122.262  1.00  0.00    -0.031 C 
ATOM      2  C   UNL     1     120.524 127.125 123.167  1.00  0.00    -0.031 C 
ENDROOT
BRANCH   1   3
ATOM      3  C   UNL     1     118.644 125.572 122.501  1.00  0.00     0.027 C 
BRANCH   3   4
ATOM      4  C   UNL     1     118.652 124.579 121.328  1.00  0.00     0.004 C 
BRANCH   4   5
ATOM      5  C   UNL     1     119.399 125.122 120.099  1.00  0.00     0.000 C 
BRANCH   5   6
ATOM      6  C   UNL     1     120.254 124.045 119.407  1.00  0.00     0.000 C 
BRANCH   6   7
ATOM      7  C   UNL     1     121.713 124.487 119.206  1.00  0.00     0.000 C 
BRANCH   7   8
ATOM      8  C   UNL     1     122.270 125.278 120.404  1.00  0.00     0.006 C 
BRANCH   8   9
ATOM      9  C   UNL     1     122.692 126.701 120.019  1.00  0.00     0.053 C 
BRANCH   9  10
ATOM     10  C   UNL     1     124.088 126.743 119.475  1.00  0.00     0.041 C 
ATOM     11  O   UNL     1     125.073 126.607 120.246  1.00  0.00    -0.550 OA
ATOM     12  O   UNL     1     124.298 126.889 118.109  1.00  0.00    -0.550 OA
ENDBRANCH   9  10
ENDBRANCH   8   9
ENDBRANCH   7   8
ENDBRANCH   6   7
ENDBRANCH   5   6
ENDBRANCH   4   5
ENDBRANCH   3   4
ENDBRANCH   1   3
BRANCH   2  13
ATOM     13  C   UNL     1     120.621 126.619 124.584  1.00  0.00     0.027 C 
BRANCH  13  14
ATOM     14  C   UNL     1     122.045 126.135 124.891  1.00  0.00     0.004 C 
BRANCH  14  15
ATOM     15  C   UNL     1     123.018 126.374 123.728  1.00  0.00     0.000 C 
BRANCH  15  16
ATOM     16  C   UNL     1     124.055 125.244 123.578  1.00  0.00     0.000 C 
BRANCH  16  17
ATOM     17  C   UNL     1     123.748 124.049 124.503  1.00  0.00    -0.000 C 
BRANCH  17  18
ATOM     18  C   UNL     1     123.739 122.693 123.770  1.00  0.00    -0.000 C 
BRANCH  18  19
ATOM     19  C   UNL     1     122.589 122.538 122.759  1.00  0.00    -0.003 C 
ATOM     20  C   UNL     1     121.222 122.866 123.361  1.00  0.00     0.004 C 
ENDBRANCH  18  19
ENDBRANCH  17  18
ENDBRANCH  16  17
ENDBRANCH  15  16
ENDBRANCH  14  15
ENDBRANCH  13  14
ENDBRANCH   2  13
TORSDOF 15
ENDMDL
