MODEL 1
REMARK VINA RESULT:    -8.630      0.000      0.000
REMARK INTER + INTRA:         -10.765
REMARK INTER:                 -10.396
REMARK INTRA:                  -0.368
REMARK UNBOUND:                -0.368
REMARK SMILES Oc1cc(O)c2c(c1)O[C@H](c1ccc(O)c(O)c1)[C@@H](O)C2
REMARK SMILES IDX 21 1 19 2 10 3 9 4 7 5 8 6 2 7 3 8 4 9 6 10 20 11 11 13
REMARK SMILES IDX 18 14 12 15 16 16 13 17 14 18 17 19 15 21 5 23 1 25
REMARK H PARENT 20 12 17 20 15 22 5 24 1 26
REMARK Flexibility Score: inf
ROOT
ATOM      1  C   UNL     1     -24.105   8.428  15.083  1.00  0.00     0.079 C 
ATOM      2  C   UNL     1     -24.181   6.918  14.791  1.00  0.00     0.164 C 
ATOM      3  C   UNL     1     -24.069   6.678  13.273  1.00  0.00     0.232 C 
ATOM      4  O   UNL     1     -25.081   7.413  12.583  1.00  0.00    -0.482 OA
ATOM      5  C   UNL     1     -25.496   8.686  12.991  1.00  0.00     0.131 A 
ATOM      6  C   UNL     1     -26.364   9.417  12.176  1.00  0.00     0.093 A 
ATOM      7  C   UNL     1     -26.789  10.693  12.566  1.00  0.00     0.122 A 
ATOM      8  C   UNL     1     -26.341  11.237  13.774  1.00  0.00     0.092 A 
ATOM      9  C   UNL     1     -25.475  10.509  14.601  1.00  0.00     0.126 A 
ATOM     10  C   UNL     1     -25.062   9.218  14.221  1.00  0.00     0.039 A 
ENDROOT
BRANCH   2  11
ATOM     11  O   UNL     1     -23.137   6.254  15.454  1.00  0.00    -0.389 OA
ATOM     12  H   UNL     1     -23.200   5.296  15.198  1.00  0.00     0.211 HD
ENDBRANCH   2  11
BRANCH   3  13
ATOM     13  C   UNL     1     -24.195   5.209  12.945  1.00  0.00    -0.001 A 
ATOM     14  C   UNL     1     -23.106   4.509  12.398  1.00  0.00     0.057 A 
ATOM     15  C   UNL     1     -25.384   4.515  13.227  1.00  0.00     0.012 A 
ATOM     16  C   UNL     1     -23.211   3.139  12.117  1.00  0.00     0.157 A 
ATOM     17  C   UNL     1     -25.489   3.149  12.947  1.00  0.00     0.050 A 
ATOM     18  C   UNL     1     -24.404   2.459  12.390  1.00  0.00     0.157 A 
BRANCH  16  19
ATOM     19  O   UNL     1     -22.132   2.447  11.568  1.00  0.00    -0.504 OA
ATOM     20  H   UNL     1     -21.243   2.901  11.398  1.00  0.00     0.293 HD
ENDBRANCH  16  19
BRANCH  18  21
ATOM     21  O   UNL     1     -24.504   1.097  12.109  1.00  0.00    -0.504 OA
ATOM     22  H   UNL     1     -25.135   0.495  12.624  1.00  0.00     0.293 HD
ENDBRANCH  18  21
ENDBRANCH   3  13
BRANCH   9  23
ATOM     23  O   UNL     1     -25.022  11.066  15.798  1.00  0.00    -0.507 OA
ATOM     24  H   UNL     1     -25.661  11.310  16.545  1.00  0.00     0.293 HD
ENDBRANCH   9  23
BRANCH   7  25
ATOM     25  O   UNL     1     -27.653  11.431  11.759  1.00  0.00    -0.508 OA
ATOM     26  H   UNL     1     -28.303  10.978  11.127  1.00  0.00     0.293 HD
ENDBRANCH   7  25
TORSDOF 6
ENDMDL
MODEL 2
REMARK VINA RESULT:    -8.473      1.772      7.136
REMARK INTER + INTRA:         -10.575
REMARK INTER:                 -10.241
REMARK INTRA:                  -0.334
REMARK UNBOUND:                -0.368
REMARK SMILES Oc1cc(O)c2c(c1)O[C@H](c1ccc(O)c(O)c1)[C@@H](O)C2
REMARK SMILES IDX 21 1 19 2 10 3 9 4 7 5 8 6 2 7 3 8 4 9 6 10 20 11 11 13
REMARK SMILES IDX 18 14 12 15 16 16 13 17 14 18 17 19 15 21 5 23 1 25
REMARK H PARENT 20 12 17 20 15 22 5 24 1 26
REMARK Flexibility Score: inf
ROOT
ATOM      1  C   UNL     1     -26.092   4.331  12.890  1.00  0.00     0.079 C 
ATOM      2  C   UNL     1     -26.500   5.791  13.157  1.00  0.00     0.164 C 
ATOM      3  C   UNL     1     -25.943   6.697  12.042  1.00  0.00     0.232 C 
ATOM      4  O   UNL     1     -24.526   6.542  11.944  1.00  0.00    -0.482 OA
ATOM      5  C   UNL     1     -23.891   5.310  12.132  1.00  0.00     0.131 A 
ATOM      6  C   UNL     1     -22.525   5.194  11.855  1.00  0.00     0.093 A 
ATOM      7  C   UNL     1     -21.871   3.969  12.035  1.00  0.00     0.122 A 
ATOM      8  C   UNL     1     -22.587   2.859  12.492  1.00  0.00     0.092 A 
ATOM      9  C   UNL     1     -23.956   2.965  12.778  1.00  0.00     0.126 A 
ATOM     10  C   UNL     1     -24.611   4.201  12.617  1.00  0.00     0.039 A 
ENDROOT
BRANCH   2  11
ATOM     11  O   UNL     1     -27.900   5.893  13.195  1.00  0.00    -0.389 OA
ATOM     12  H   UNL     1     -28.240   5.457  12.370  1.00  0.00     0.211 HD
ENDBRANCH   2  11
BRANCH   3  13
ATOM     13  C   UNL     1     -26.279   8.146  12.301  1.00  0.00    -0.001 A 
ATOM     14  C   UNL     1     -27.275   8.789  11.546  1.00  0.00     0.057 A 
ATOM     15  C   UNL     1     -25.634   8.856  13.329  1.00  0.00     0.012 A 
ATOM     16  C   UNL     1     -27.609  10.127  11.802  1.00  0.00     0.157 A 
ATOM     17  C   UNL     1     -25.966  10.189  13.584  1.00  0.00     0.050 A 
ATOM     18  C   UNL     1     -26.952  10.828  12.821  1.00  0.00     0.157 A 
BRANCH  16  19
ATOM     19  O   UNL     1     -28.593  10.765  11.048  1.00  0.00    -0.504 OA
ATOM     20  H   UNL     1     -29.174  10.254  10.394  1.00  0.00     0.293 HD
ENDBRANCH  16  19
BRANCH  18  21
ATOM     21  O   UNL     1     -27.286  12.158  13.072  1.00  0.00    -0.504 OA
ATOM     22  H   UNL     1     -28.189  12.416  13.450  1.00  0.00     0.293 HD
ENDBRANCH  18  21
ENDBRANCH   3  13
BRANCH   9  23
ATOM     23  O   UNL     1     -24.665   1.847  13.219  1.00  0.00    -0.507 OA
ATOM     24  H   UNL     1     -24.208   1.091  13.714  1.00  0.00     0.293 HD
ENDBRANCH   9  23
BRANCH   7  25
ATOM     25  O   UNL     1     -20.511   3.844  11.760  1.00  0.00    -0.508 OA
ATOM     26  H   UNL     1     -20.051   4.439  11.080  1.00  0.00     0.293 HD
ENDBRANCH   7  25
TORSDOF 6
ENDMDL
MODEL 3
REMARK VINA RESULT:    -8.420      1.680      6.940
REMARK INTER + INTRA:         -10.511
REMARK INTER:                 -10.394
REMARK INTRA:                  -0.117
REMARK UNBOUND:                -0.368
REMARK SMILES Oc1cc(O)c2c(c1)O[C@H](c1ccc(O)c(O)c1)[C@@H](O)C2
REMARK SMILES IDX 21 1 19 2 10 3 9 4 7 5 8 6 2 7 3 8 4 9 6 10 20 11 11 13
REMARK SMILES IDX 18 14 12 15 16 16 13 17 14 18 17 19 15 21 5 23 1 25
REMARK H PARENT 20 12 17 20 15 22 5 24 1 26
REMARK Flexibility Score: inf
ROOT
ATOM      1  C   UNL     1     -22.439   6.296  12.490  1.00  0.00     0.079 C 
ATOM      2  C   UNL     1     -23.482   7.361  12.104  1.00  0.00     0.164 C 
ATOM      3  C   UNL     1     -24.803   7.086  12.848  1.00  0.00     0.232 C 
ATOM      4  O   UNL     1     -25.257   5.760  12.571  1.00  0.00    -0.482 OA
ATOM      5  C   UNL     1     -24.378   4.680  12.426  1.00  0.00     0.131 A 
ATOM      6  C   UNL     1     -24.895   3.385  12.326  1.00  0.00     0.093 A 
ATOM      7  C   UNL     1     -24.032   2.291  12.182  1.00  0.00     0.122 A 
ATOM      8  C   UNL     1     -22.650   2.496  12.139  1.00  0.00     0.092 A 
ATOM      9  C   UNL     1     -22.122   3.792  12.233  1.00  0.00     0.126 A 
ATOM     10  C   UNL     1     -22.988   4.895  12.357  1.00  0.00     0.039 A 
ENDROOT
BRANCH   2  11
ATOM     11  O   UNL     1     -23.005   8.637  12.441  1.00  0.00    -0.389 OA
ATOM     12  H   UNL     1     -22.437   8.525  13.248  1.00  0.00     0.211 HD
ENDBRANCH   2  11
BRANCH   3  13
ATOM     13  C   UNL     1     -25.868   8.080  12.451  1.00  0.00    -0.001 A 
ATOM     14  C   UNL     1     -25.925   9.342  13.066  1.00  0.00     0.057 A 
ATOM     15  C   UNL     1     -26.784   7.774  11.429  1.00  0.00     0.012 A 
ATOM     16  C   UNL     1     -26.895  10.278  12.680  1.00  0.00     0.157 A 
ATOM     17  C   UNL     1     -27.752   8.707  11.045  1.00  0.00     0.050 A 
ATOM     18  C   UNL     1     -27.810   9.959  11.670  1.00  0.00     0.157 A 
BRANCH  16  19
ATOM     19  O   UNL     1     -26.954  11.528  13.297  1.00  0.00    -0.504 OA
ATOM     20  H   UNL     1     -27.458  11.668  14.164  1.00  0.00     0.293 HD
ENDBRANCH  16  19
BRANCH  18  21
ATOM     21  O   UNL     1     -28.774  10.892  11.290  1.00  0.00    -0.504 OA
ATOM     22  H   UNL     1     -29.151  10.912  10.350  1.00  0.00     0.293 HD
ENDBRANCH  18  21
ENDBRANCH   3  13
BRANCH   9  23
ATOM     23  O   UNL     1     -20.740   3.985  12.203  1.00  0.00    -0.507 OA
ATOM     24  H   UNL     1     -20.236   4.081  11.330  1.00  0.00     0.293 HD
ENDBRANCH   9  23
BRANCH   7  25
ATOM     25  O   UNL     1     -24.538   0.996  12.084  1.00  0.00    -0.508 OA
ATOM     26  H   UNL     1     -24.163   0.331  11.418  1.00  0.00     0.293 HD
ENDBRANCH   7  25
TORSDOF 6
ENDMDL
MODEL 4
REMARK VINA RESULT:    -8.055      2.360      6.942
REMARK INTER + INTRA:         -10.071
REMARK INTER:                  -9.693
REMARK INTRA:                  -0.378
REMARK UNBOUND:                -0.368
REMARK SMILES Oc1cc(O)c2c(c1)O[C@H](c1ccc(O)c(O)c1)[C@@H](O)C2
REMARK SMILES IDX 21 1 19 2 10 3 9 4 7 5 8 6 2 7 3 8 4 9 6 10 20 11 11 13
REMARK SMILES IDX 18 14 12 15 16 16 13 17 14 18 17 19 15 21 5 23 1 25
REMARK H PARENT 20 12 17 20 15 22 5 24 1 26
REMARK Flexibility Score: inf
ROOT
ATOM      1  C   UNL     1     -26.669   6.414  13.014  1.00  0.00     0.079 C 
ATOM      2  C   UNL     1     -26.044   7.820  13.091  1.00  0.00     0.164 C 
ATOM      3  C   UNL     1     -25.161   8.063  11.851  1.00  0.00     0.232 C 
ATOM      4  O   UNL     1     -24.173   7.037  11.743  1.00  0.00    -0.482 OA
ATOM      5  C   UNL     1     -24.433   5.704  12.080  1.00  0.00     0.131 A 
ATOM      6  C   UNL     1     -23.478   4.726  11.790  1.00  0.00     0.093 A 
ATOM      7  C   UNL     1     -23.720   3.386  12.118  1.00  0.00     0.122 A 
ATOM      8  C   UNL     1     -24.921   3.027  12.737  1.00  0.00     0.092 A 
ATOM      9  C   UNL     1     -25.883   4.002  13.038  1.00  0.00     0.126 A 
ATOM     10  C   UNL     1     -25.633   5.352  12.727  1.00  0.00     0.039 A 
ENDROOT
BRANCH   2  11
ATOM     11  O   UNL     1     -27.059   8.788  13.147  1.00  0.00    -0.389 OA
ATOM     12  H   UNL     1     -26.624   9.642  13.409  1.00  0.00     0.211 HD
ENDBRANCH   2  11
BRANCH   3  13
ATOM     13  C   UNL     1     -24.488   9.412  11.920  1.00  0.00    -0.001 A 
ATOM     14  C   UNL     1     -23.597   9.708  12.966  1.00  0.00     0.057 A 
ATOM     15  C   UNL     1     -24.706  10.371  10.915  1.00  0.00     0.012 A 
ATOM     16  C   UNL     1     -22.949  10.950  13.018  1.00  0.00     0.157 A 
ATOM     17  C   UNL     1     -24.060  11.609  10.967  1.00  0.00     0.050 A 
ATOM     18  C   UNL     1     -23.182  11.902  12.019  1.00  0.00     0.157 A 
BRANCH  16  19
ATOM     19  O   UNL     1     -22.070  11.244  14.060  1.00  0.00    -0.504 OA
ATOM     20  H   UNL     1     -21.664  12.166  14.168  1.00  0.00     0.293 HD
ENDBRANCH  16  19
BRANCH  18  21
ATOM     21  O   UNL     1     -22.537  13.137  12.074  1.00  0.00    -0.504 OA
ATOM     22  H   UNL     1     -23.044  14.006  11.958  1.00  0.00     0.293 HD
ENDBRANCH  18  21
ENDBRANCH   3  13
BRANCH   9  23
ATOM     23  O   UNL     1     -27.085   3.632  13.642  1.00  0.00    -0.507 OA
ATOM     24  H   UNL     1     -27.502   4.189  14.378  1.00  0.00     0.293 HD
ENDBRANCH   9  23
BRANCH   7  25
ATOM     25  O   UNL     1     -22.774   2.403  11.831  1.00  0.00    -0.508 OA
ATOM     26  H   UNL     1     -23.025   1.422  11.796  1.00  0.00     0.293 HD
ENDBRANCH   7  25
TORSDOF 6
ENDMDL
MODEL 5
REMARK VINA RESULT:    -8.006      1.318      2.866
REMARK INTER + INTRA:         -10.013
REMARK INTER:                  -9.654
REMARK INTRA:                  -0.359
REMARK UNBOUND:                -0.368
REMARK SMILES Oc1cc(O)c2c(c1)O[C@H](c1ccc(O)c(O)c1)[C@@H](O)C2
REMARK SMILES IDX 21 1 19 2 10 3 9 4 7 5 8 6 2 7 3 8 4 9 6 10 20 11 11 13
REMARK SMILES IDX 18 14 12 15 16 16 13 17 14 18 17 19 15 21 5 23 1 25
REMARK H PARENT 20 12 17 20 15 22 5 24 1 26
REMARK Flexibility Score: inf
ROOT
ATOM      1  C   UNL     1     -26.461   8.902  12.856  1.00  0.00     0.079 C 
ATOM      2  C   UNL     1     -25.727   7.651  12.339  1.00  0.00     0.164 C 
ATOM      3  C   UNL     1     -25.394   6.720  13.522  1.00  0.00     0.232 C 
ATOM      4  O   UNL     1     -24.633   7.426  14.503  1.00  0.00    -0.482 OA
ATOM      5  C   UNL     1     -24.861   8.773  14.806  1.00  0.00     0.131 A 
ATOM      6  C   UNL     1     -24.198   9.353  15.892  1.00  0.00     0.093 A 
ATOM      7  C   UNL     1     -24.414  10.699  16.211  1.00  0.00     0.122 A 
ATOM      8  C   UNL     1     -25.297  11.464  15.443  1.00  0.00     0.092 A 
ATOM      9  C   UNL     1     -25.962  10.893  14.348  1.00  0.00     0.126 A 
ATOM     10  C   UNL     1     -25.731   9.546  14.012  1.00  0.00     0.039 A 
ENDROOT
BRANCH   2  11
ATOM     11  O   UNL     1     -26.539   6.972  11.417  1.00  0.00    -0.389 OA
ATOM     12  H   UNL     1     -27.039   7.666  10.913  1.00  0.00     0.211 HD
ENDBRANCH   2  11
BRANCH   3  13
ATOM     13  C   UNL     1     -24.625   5.506  13.059  1.00  0.00    -0.001 A 
ATOM     14  C   UNL     1     -23.281   5.626  12.665  1.00  0.00     0.057 A 
ATOM     15  C   UNL     1     -25.228   4.236  13.060  1.00  0.00     0.012 A 
ATOM     16  C   UNL     1     -22.556   4.496  12.260  1.00  0.00     0.157 A 
ATOM     17  C   UNL     1     -24.505   3.110  12.656  1.00  0.00     0.050 A 
ATOM     18  C   UNL     1     -23.169   3.238  12.253  1.00  0.00     0.157 A 
BRANCH  16  19
ATOM     19  O   UNL     1     -21.224   4.618  11.864  1.00  0.00    -0.504 OA
ATOM     20  H   UNL     1     -20.512   3.978  12.195  1.00  0.00     0.293 HD
ENDBRANCH  16  19
BRANCH  18  21
ATOM     21  O   UNL     1     -22.445   2.117  11.849  1.00  0.00    -0.504 OA
ATOM     22  H   UNL     1     -21.797   2.157  11.071  1.00  0.00     0.293 HD
ENDBRANCH  18  21
ENDBRANCH   3  13
BRANCH   9  23
ATOM     23  O   UNL     1     -26.852  11.661  13.596  1.00  0.00    -0.507 OA
ATOM     24  H   UNL     1     -26.731  12.661  13.491  1.00  0.00     0.293 HD
ENDBRANCH   9  23
BRANCH   7  25
ATOM     25  O   UNL     1     -23.760  11.285  17.293  1.00  0.00    -0.508 OA
ATOM     26  H   UNL     1     -23.067  10.777  17.831  1.00  0.00     0.293 HD
ENDBRANCH   7  25
TORSDOF 6
ENDMDL
MODEL 6
REMARK VINA RESULT:    -7.896      1.245      3.049
REMARK INTER + INTRA:          -9.880
REMARK INTER:                  -9.509
REMARK INTRA:                  -0.371
REMARK UNBOUND:                -0.368
REMARK SMILES Oc1cc(O)c2c(c1)O[C@H](c1ccc(O)c(O)c1)[C@@H](O)C2
REMARK SMILES IDX 21 1 19 2 10 3 9 4 7 5 8 6 2 7 3 8 4 9 6 10 20 11 11 13
REMARK SMILES IDX 18 14 12 15 16 16 13 17 14 18 17 19 15 21 5 23 1 25
REMARK H PARENT 20 12 17 20 15 22 5 24 1 26
REMARK Flexibility Score: inf
ROOT
ATOM      1  C   UNL     1     -26.430   8.852  12.873  1.00  0.00     0.079 C 
ATOM      2  C   UNL     1     -25.676   7.599  12.389  1.00  0.00     0.164 C 
ATOM      3  C   UNL     1     -25.362   6.686  13.590  1.00  0.00     0.232 C 
ATOM      4  O   UNL     1     -24.628   7.410  14.579  1.00  0.00    -0.482 OA
ATOM      5  C   UNL     1     -24.873   8.759  14.859  1.00  0.00     0.131 A 
ATOM      6  C   UNL     1     -24.238   9.358  15.951  1.00  0.00     0.093 A 
ATOM      7  C   UNL     1     -24.471  10.706  16.249  1.00  0.00     0.122 A 
ATOM      8  C   UNL     1     -25.342  11.454  15.451  1.00  0.00     0.092 A 
ATOM      9  C   UNL     1     -25.979  10.865  14.350  1.00  0.00     0.126 A 
ATOM     10  C   UNL     1     -25.731   9.515  14.037  1.00  0.00     0.039 A 
ENDROOT
BRANCH   2  11
ATOM     11  O   UNL     1     -26.463   6.902  11.458  1.00  0.00    -0.389 OA
ATOM     12  H   UNL     1     -26.636   7.528  10.706  1.00  0.00     0.211 HD
ENDBRANCH   2  11
BRANCH   3  13
ATOM     13  C   UNL     1     -24.574   5.473  13.159  1.00  0.00    -0.001 A 
ATOM     14  C   UNL     1     -25.121   4.185  13.298  1.00  0.00     0.057 A 
ATOM     15  C   UNL     1     -23.306   5.618  12.571  1.00  0.00     0.012 A 
ATOM     16  C   UNL     1     -24.403   3.058  12.874  1.00  0.00     0.157 A 
ATOM     17  C   UNL     1     -22.590   4.494  12.148  1.00  0.00     0.050 A 
ATOM     18  C   UNL     1     -23.136   3.213  12.300  1.00  0.00     0.157 A 
BRANCH  16  19
ATOM     19  O   UNL     1     -24.945   1.782  13.018  1.00  0.00    -0.504 OA
ATOM     20  H   UNL     1     -24.766   1.050  12.342  1.00  0.00     0.293 HD
ENDBRANCH  16  19
BRANCH  18  21
ATOM     21  O   UNL     1     -22.424   2.089  11.880  1.00  0.00    -0.504 OA
ATOM     22  H   UNL     1     -22.234   1.918  10.900  1.00  0.00     0.293 HD
ENDBRANCH  18  21
ENDBRANCH   3  13
BRANCH   9  23
ATOM     23  O   UNL     1     -26.858  11.616  13.569  1.00  0.00    -0.507 OA
ATOM     24  H   UNL     1     -26.522  12.261  12.863  1.00  0.00     0.293 HD
ENDBRANCH   9  23
BRANCH   7  25
ATOM     25  O   UNL     1     -23.844  11.312  17.337  1.00  0.00    -0.508 OA
ATOM     26  H   UNL     1     -24.361  11.886  17.993  1.00  0.00     0.293 HD
ENDBRANCH   7  25
TORSDOF 6
ENDMDL
MODEL 7
REMARK VINA RESULT:    -7.601      1.896      7.040
REMARK INTER + INTRA:          -9.525
REMARK INTER:                  -9.193
REMARK INTRA:                  -0.332
REMARK UNBOUND:                -0.368
REMARK SMILES Oc1cc(O)c2c(c1)O[C@H](c1ccc(O)c(O)c1)[C@@H](O)C2
REMARK SMILES IDX 21 1 19 2 10 3 9 4 7 5 8 6 2 7 3 8 4 9 6 10 20 11 11 13
REMARK SMILES IDX 18 14 12 15 16 16 13 17 14 18 17 19 15 21 5 23 1 25
REMARK H PARENT 20 12 17 20 15 22 5 24 1 26
REMARK Flexibility Score: inf
ROOT
ATOM      1  C   UNL     1     -25.370   4.515  13.978  1.00  0.00     0.079 C 
ATOM      2  C   UNL     1     -25.394   5.830  14.779  1.00  0.00     0.164 C 
ATOM      3  C   UNL     1     -24.948   6.996  13.874  1.00  0.00     0.232 C 
ATOM      4  O   UNL     1     -23.659   6.723  13.322  1.00  0.00    -0.482 OA
ATOM      5  C   UNL     1     -23.263   5.438  12.935  1.00  0.00     0.131 A 
ATOM      6  C   UNL     1     -22.058   5.270  12.247  1.00  0.00     0.093 A 
ATOM      7  C   UNL     1     -21.646   3.992  11.851  1.00  0.00     0.122 A 
ATOM      8  C   UNL     1     -22.443   2.881  12.143  1.00  0.00     0.092 A 
ATOM      9  C   UNL     1     -23.651   3.038  12.837  1.00  0.00     0.126 A 
ATOM     10  C   UNL     1     -24.058   4.319  13.255  1.00  0.00     0.039 A 
ENDROOT
BRANCH   2  11
ATOM     11  O   UNL     1     -26.692   6.072  15.256  1.00  0.00    -0.389 OA
ATOM     12  H   UNL     1     -26.610   6.756  15.971  1.00  0.00     0.211 HD
ENDBRANCH   2  11
BRANCH   3  13
ATOM     13  C   UNL     1     -24.907   8.295  14.643  1.00  0.00    -0.001 A 
ATOM     14  C   UNL     1     -24.251   8.365  15.884  1.00  0.00     0.057 A 
ATOM     15  C   UNL     1     -25.482   9.460  14.106  1.00  0.00     0.012 A 
ATOM     16  C   UNL     1     -24.187   9.576  16.587  1.00  0.00     0.157 A 
ATOM     17  C   UNL     1     -25.419  10.667  14.807  1.00  0.00     0.050 A 
ATOM     18  C   UNL     1     -24.773  10.728  16.050  1.00  0.00     0.157 A 
BRANCH  16  19
ATOM     19  O   UNL     1     -23.541   9.641  17.821  1.00  0.00    -0.504 OA
ATOM     20  H   UNL     1     -23.516  10.497  18.362  1.00  0.00     0.293 HD
ENDBRANCH  16  19
BRANCH  18  21
ATOM     21  O   UNL     1     -24.709  11.930  16.752  1.00  0.00    -0.504 OA
ATOM     22  H   UNL     1     -25.250  12.739  16.470  1.00  0.00     0.293 HD
ENDBRANCH  18  21
ENDBRANCH   3  13
BRANCH   9  23
ATOM     23  O   UNL     1     -24.447   1.925  13.112  1.00  0.00    -0.507 OA
ATOM     24  H   UNL     1     -25.445   2.011  13.260  1.00  0.00     0.293 HD
ENDBRANCH   9  23
BRANCH   7  25
ATOM     25  O   UNL     1     -20.447   3.815  11.162  1.00  0.00    -0.508 OA
ATOM     26  H   UNL     1     -19.865   2.999  11.314  1.00  0.00     0.293 HD
ENDBRANCH   7  25
TORSDOF 6
ENDMDL
MODEL 8
REMARK VINA RESULT:    -7.495      1.917      2.702
REMARK INTER + INTRA:          -9.397
REMARK INTER:                  -9.638
REMARK INTRA:                   0.241
REMARK UNBOUND:                -0.368
REMARK SMILES Oc1cc(O)c2c(c1)O[C@H](c1ccc(O)c(O)c1)[C@@H](O)C2
REMARK SMILES IDX 21 1 19 2 10 3 9 4 7 5 8 6 2 7 3 8 4 9 6 10 20 11 11 13
REMARK SMILES IDX 18 14 12 15 16 16 13 17 14 18 17 19 15 21 5 23 1 25
REMARK H PARENT 20 12 17 20 15 22 5 24 1 26
REMARK Flexibility Score: inf
ROOT
ATOM      1  C   UNL     1     -27.172   8.327  12.347  1.00  0.00     0.079 C 
ATOM      2  C   UNL     1     -26.569   6.922  12.166  1.00  0.00     0.164 C 
ATOM      3  C   UNL     1     -25.227   6.834  12.918  1.00  0.00     0.232 C 
ATOM      4  O   UNL     1     -24.343   7.862  12.468  1.00  0.00    -0.482 OA
ATOM      5  C   UNL     1     -24.793   9.143  12.128  1.00  0.00     0.131 A 
ATOM      6  C   UNL     1     -23.858  10.148  11.860  1.00  0.00     0.093 A 
ATOM      7  C   UNL     1     -24.288  11.436  11.520  1.00  0.00     0.122 A 
ATOM      8  C   UNL     1     -25.656  11.718  11.449  1.00  0.00     0.092 A 
ATOM      9  C   UNL     1     -26.601  10.716  11.710  1.00  0.00     0.126 A 
ATOM     10  C   UNL     1     -26.172   9.415  12.032  1.00  0.00     0.039 A 
ENDROOT
BRANCH   2  11
ATOM     11  O   UNL     1     -27.457   5.957  12.668  1.00  0.00    -0.389 OA
ATOM     12  H   UNL     1     -26.933   5.381  13.285  1.00  0.00     0.211 HD
ENDBRANCH   2  11
BRANCH   3  13
ATOM     13  C   UNL     1     -24.579   5.484  12.717  1.00  0.00    -0.001 A 
ATOM     14  C   UNL     1     -23.249   5.395  12.272  1.00  0.00     0.057 A 
ATOM     15  C   UNL     1     -25.282   4.304  13.017  1.00  0.00     0.012 A 
ATOM     16  C   UNL     1     -22.636   4.144  12.110  1.00  0.00     0.157 A 
ATOM     17  C   UNL     1     -24.671   3.057  12.856  1.00  0.00     0.050 A 
ATOM     18  C   UNL     1     -23.348   2.975  12.400  1.00  0.00     0.157 A 
BRANCH  16  19
ATOM     19  O   UNL     1     -21.318   4.058  11.662  1.00  0.00    -0.504 OA
ATOM     20  H   UNL     1     -21.054   4.357  10.732  1.00  0.00     0.293 HD
ENDBRANCH  16  19
BRANCH  18  21
ATOM     21  O   UNL     1     -22.736   1.732  12.238  1.00  0.00    -0.504 OA
ATOM     22  H   UNL     1     -22.420   1.189  13.032  1.00  0.00     0.293 HD
ENDBRANCH  18  21
ENDBRANCH   3  13
BRANCH   9  23
ATOM     23  O   UNL     1     -27.964  11.011  11.651  1.00  0.00    -0.507 OA
ATOM     24  H   UNL     1     -28.605  10.701  12.371  1.00  0.00     0.293 HD
ENDBRANCH   9  23
BRANCH   7  25
ATOM     25  O   UNL     1     -23.364  12.445  11.253  1.00  0.00    -0.508 OA
ATOM     26  H   UNL     1     -23.444  13.362  11.678  1.00  0.00     0.293 HD
ENDBRANCH   7  25
TORSDOF 6
ENDMDL
MODEL 9
REMARK VINA RESULT:    -7.473      1.370      2.077
REMARK INTER + INTRA:          -9.371
REMARK INTER:                  -9.022
REMARK INTRA:                  -0.348
REMARK UNBOUND:                -0.368
REMARK SMILES Oc1cc(O)c2c(c1)O[C@H](c1ccc(O)c(O)c1)[C@@H](O)C2
REMARK SMILES IDX 21 1 19 2 10 3 9 4 7 5 8 6 2 7 3 8 4 9 6 10 20 11 11 13
REMARK SMILES IDX 18 14 12 15 16 16 13 17 14 18 17 19 15 21 5 23 1 25
REMARK H PARENT 20 12 17 20 15 22 5 24 1 26
REMARK Flexibility Score: inf
ROOT
ATOM      1  C   UNL     1     -24.879   9.680  15.290  1.00  0.00     0.079 C 
ATOM      2  C   UNL     1     -24.940   8.163  15.035  1.00  0.00     0.164 C 
ATOM      3  C   UNL     1     -24.565   7.868  13.570  1.00  0.00     0.232 C 
ATOM      4  O   UNL     1     -25.419   8.598  12.688  1.00  0.00    -0.482 OA
ATOM      5  C   UNL     1     -25.867   9.892  12.976  1.00  0.00     0.131 A 
ATOM      6  C   UNL     1     -26.558  10.612  11.996  1.00  0.00     0.093 A 
ATOM      7  C   UNL     1     -27.013  11.908  12.265  1.00  0.00     0.122 A 
ATOM      8  C   UNL     1     -26.775  12.484  13.516  1.00  0.00     0.092 A 
ATOM      9  C   UNL     1     -26.088  11.769  14.507  1.00  0.00     0.126 A 
ATOM     10  C   UNL     1     -25.647  10.458  14.247  1.00  0.00     0.039 A 
ENDROOT
BRANCH   2  11
ATOM     11  O   UNL     1     -24.047   7.501  15.894  1.00  0.00    -0.389 OA
ATOM     12  H   UNL     1     -24.452   6.618  16.100  1.00  0.00     0.211 HD
ENDBRANCH   2  11
BRANCH   3  13
ATOM     13  C   UNL     1     -24.668   6.392  13.270  1.00  0.00    -0.001 A 
ATOM     14  C   UNL     1     -25.843   5.685  13.577  1.00  0.00     0.057 A 
ATOM     15  C   UNL     1     -23.609   5.717  12.637  1.00  0.00     0.012 A 
ATOM     16  C   UNL     1     -25.952   4.320  13.274  1.00  0.00     0.157 A 
ATOM     17  C   UNL     1     -23.717   4.356  12.336  1.00  0.00     0.050 A 
ATOM     18  C   UNL     1     -24.887   3.655  12.655  1.00  0.00     0.157 A 
BRANCH  16  19
ATOM     19  O   UNL     1     -27.117   3.620  13.586  1.00  0.00    -0.504 OA
ATOM     20  H   UNL     1     -27.099   2.631  13.804  1.00  0.00     0.293 HD
ENDBRANCH  16  19
BRANCH  18  21
ATOM     21  O   UNL     1     -24.999   2.297  12.357  1.00  0.00    -0.504 OA
ATOM     22  H   UNL     1     -25.241   1.617  13.067  1.00  0.00     0.293 HD
ENDBRANCH  18  21
ENDBRANCH   3  13
BRANCH   9  23
ATOM     23  O   UNL     1     -25.842  12.358  15.748  1.00  0.00    -0.507 OA
ATOM     24  H   UNL     1     -24.925  12.712  15.995  1.00  0.00     0.293 HD
ENDBRANCH   9  23
BRANCH   7  25
ATOM     25  O   UNL     1     -27.701  12.634  11.294  1.00  0.00    -0.508 OA
ATOM     26  H   UNL     1     -28.304  13.411  11.541  1.00  0.00     0.293 HD
ENDBRANCH   7  25
TORSDOF 6
ENDMDL
