MODEL 1
REMARK VINA RESULT:     0.000      0.000      0.000
REMARK INTER + INTRA:          -0.195
REMARK INTER:                   0.000
REMARK INTRA:                  -0.195
REMARK UNBOUND:                -0.195
REMARK SMILES O=C([O-])CCC(=O)[O-]
REMARK SMILES IDX 4 1 2 2 1 3 3 4 5 5 6 6 7 7 8 8
REMARK H PARENT
REMARK Flexibility Score: inf
ROOT
ATOM      1  C   UNL     1     185.915 176.732 175.517  1.00  0.00     0.059 C 
ENDROOT
BRANCH   1   2
ATOM      2  C   UNL     1     186.743 177.905 175.089  1.00  0.00     0.042 C 
ATOM      3  O   UNL     1     186.838 178.918 175.831  1.00  0.00    -0.550 OA
ATOM      4  O   UNL     1     187.442 177.865 173.889  1.00  0.00    -0.550 OA
ENDBRANCH   1   2
BRANCH   1   5
ATOM      5  C   UNL     1     186.753 175.452 175.607  1.00  0.00     0.059 C 
BRANCH   5   6
ATOM      6  C   UNL     1     187.857 175.585 176.611  1.00  0.00     0.042 C 
ATOM      7  O   UNL     1     189.057 175.448 176.256  1.00  0.00    -0.550 OA
ATOM      8  O   UNL     1     187.562 175.898 177.932  1.00  0.00    -0.550 OA
ENDBRANCH   5   6
ENDBRANCH   1   5
TORSDOF 3
ENDMDL
MODEL 2
REMARK VINA RESULT:     0.000     11.597     12.550
REMARK INTER + INTRA:          -0.195
REMARK INTER:                   0.000
REMARK INTRA:                  -0.195
REMARK UNBOUND:                -0.195
REMARK SMILES O=C([O-])CCC(=O)[O-]
REMARK SMILES IDX 4 1 2 2 1 3 3 4 5 5 6 6 7 7 8 8
REMARK H PARENT
REMARK Flexibility Score: inf
ROOT
ATOM      1  C   UNL     1     177.052 179.260 183.381  1.00  0.00     0.059 C 
ENDROOT
BRANCH   1   2
ATOM      2  C   UNL     1     176.255 178.003 183.560  1.00  0.00     0.042 C 
ATOM      3  O   UNL     1     175.786 177.401 182.557  1.00  0.00    -0.550 OA
ATOM      4  O   UNL     1     176.063 177.474 184.830  1.00  0.00    -0.550 OA
ENDBRANCH   1   2
BRANCH   1   5
ATOM      5  C   UNL     1     178.467 179.117 183.951  1.00  0.00     0.059 C 
BRANCH   5   6
ATOM      6  C   UNL     1     179.231 178.025 183.265  1.00  0.00     0.042 C 
ATOM      7  O   UNL     1     179.677 177.052 183.927  1.00  0.00    -0.550 OA
ATOM      8  O   UNL     1     179.415 178.064 181.889  1.00  0.00    -0.550 OA
ENDBRANCH   5   6
ENDBRANCH   1   5
TORSDOF 3
ENDMDL
MODEL 3
REMARK VINA RESULT:     0.000     11.193     12.060
REMARK INTER + INTRA:          -0.195
REMARK INTER:                   0.000
REMARK INTRA:                  -0.195
REMARK UNBOUND:                -0.195
REMARK SMILES O=C([O-])CCC(=O)[O-]
REMARK SMILES IDX 4 1 2 2 1 3 3 4 5 5 6 6 7 7 8 8
REMARK H PARENT
REMARK Flexibility Score: inf
ROOT
ATOM      1  C   UNL     1     177.600 180.863 183.398  1.00  0.00     0.059 C 
ENDROOT
BRANCH   1   2
ATOM      2  C   UNL     1     178.454 181.536 184.429  1.00  0.00     0.042 C 
ATOM      3  O   UNL     1     178.631 180.998 185.554  1.00  0.00    -0.550 OA
ATOM      4  O   UNL     1     179.087 182.737 184.134  1.00  0.00    -0.550 OA
ENDBRANCH   1   2
BRANCH   1   5
ATOM      5  C   UNL     1     178.385 180.574 182.115  1.00  0.00     0.059 C 
BRANCH   5   6
ATOM      6  C   UNL     1     179.545 179.660 182.372  1.00  0.00     0.042 C 
ATOM      7  O   UNL     1     180.718 180.035 182.110  1.00  0.00    -0.550 OA
ATOM      8  O   UNL     1     179.332 178.408 182.936  1.00  0.00    -0.550 OA
ENDBRANCH   5   6
ENDBRANCH   1   5
TORSDOF 3
ENDMDL
MODEL 4
REMARK VINA RESULT:     0.000      8.651      9.787
REMARK INTER + INTRA:          -0.195
REMARK INTER:                   0.000
REMARK INTRA:                  -0.195
REMARK UNBOUND:                -0.195
REMARK SMILES O=C([O-])CCC(=O)[O-]
REMARK SMILES IDX 4 1 2 2 1 3 3 4 5 5 6 6 7 7 8 8
REMARK H PARENT
REMARK Flexibility Score: inf
ROOT
ATOM      1  C   UNL     1     181.485 182.103 182.011  1.00  0.00     0.059 C 
ENDROOT
BRANCH   1   2
ATOM      2  C   UNL     1     180.839 183.399 181.626  1.00  0.00     0.042 C 
ATOM      3  O   UNL     1     181.524 184.453 181.554  1.00  0.00    -0.550 OA
ATOM      4  O   UNL     1     179.487 183.436 181.308  1.00  0.00    -0.550 OA
ENDBRANCH   1   2
BRANCH   1   5
ATOM      5  C   UNL     1     181.323 181.044 180.916  1.00  0.00     0.059 C 
BRANCH   5   6
ATOM      6  C   UNL     1     181.963 181.476 179.631  1.00  0.00     0.042 C 
ATOM      7  O   UNL     1     181.272 181.581 178.584  1.00  0.00    -0.550 OA
ATOM      8  O   UNL     1     183.313 181.799 179.601  1.00  0.00    -0.550 OA
ENDBRANCH   5   6
ENDBRANCH   1   5
TORSDOF 3
ENDMDL
MODEL 5
REMARK VINA RESULT:     0.000      9.582     10.480
REMARK INTER + INTRA:          -0.195
REMARK INTER:                   0.000
REMARK INTRA:                  -0.195
REMARK UNBOUND:                -0.195
REMARK SMILES O=C([O-])CCC(=O)[O-]
REMARK SMILES IDX 4 1 2 2 1 3 3 4 5 5 6 6 7 7 8 8
REMARK H PARENT
REMARK Flexibility Score: inf
ROOT
ATOM      1  C   UNL     1     179.531 178.124 183.802  1.00  0.00     0.059 C 
ENDROOT
BRANCH   1   2
ATOM      2  C   UNL     1     180.193 177.091 182.941  1.00  0.00     0.042 C 
ATOM      3  O   UNL     1     179.624 176.679 181.896  1.00  0.00    -0.550 OA
ATOM      4  O   UNL     1     181.455 176.614 183.271  1.00  0.00    -0.550 OA
ENDBRANCH   1   2
BRANCH   1   5
ATOM      5  C   UNL     1     180.392 179.384 183.936  1.00  0.00     0.059 C 
BRANCH   5   6
ATOM      6  C   UNL     1     180.635 180.030 182.605  1.00  0.00     0.042 C 
ATOM      7  O   UNL     1     181.811 180.182 182.180  1.00  0.00    -0.550 OA
ATOM      8  O   UNL     1     179.562 180.427 181.818  1.00  0.00    -0.550 OA
ENDBRANCH   5   6
ENDBRANCH   1   5
TORSDOF 3
ENDMDL
MODEL 6
REMARK VINA RESULT:     0.000      4.632      5.312
REMARK INTER + INTRA:          -0.195
REMARK INTER:                   0.000
REMARK INTRA:                  -0.195
REMARK UNBOUND:                -0.195
REMARK SMILES O=C([O-])CCC(=O)[O-]
REMARK SMILES IDX 4 1 2 2 1 3 3 4 5 5 6 6 7 7 8 8
REMARK H PARENT
REMARK Flexibility Score: inf
ROOT
ATOM      1  C   UNL     1     183.749 178.134 180.351  1.00  0.00     0.059 C 
ENDROOT
BRANCH   1   2
ATOM      2  C   UNL     1     184.550 178.514 179.143  1.00  0.00     0.042 C 
ATOM      3  O   UNL     1     185.785 178.270 179.099  1.00  0.00    -0.550 OA
ATOM      4  O   UNL     1     183.927 179.102 178.050  1.00  0.00    -0.550 OA
ENDBRANCH   1   2
BRANCH   1   5
ATOM      5  C   UNL     1     182.614 177.168 179.996  1.00  0.00     0.059 C 
BRANCH   5   6
ATOM      6  C   UNL     1     183.139 175.891 179.412  1.00  0.00     0.042 C 
ATOM      7  O   UNL     1     182.794 175.534 178.256  1.00  0.00    -0.550 OA
ATOM      8  O   UNL     1     184.040 175.117 180.133  1.00  0.00    -0.550 OA
ENDBRANCH   5   6
ENDBRANCH   1   5
TORSDOF 3
ENDMDL
MODEL 7
REMARK VINA RESULT:     0.000     11.464     12.518
REMARK INTER + INTRA:          -0.195
REMARK INTER:                   0.000
REMARK INTRA:                  -0.195
REMARK UNBOUND:                -0.195
REMARK SMILES O=C([O-])CCC(=O)[O-]
REMARK SMILES IDX 4 1 2 2 1 3 3 4 5 5 6 6 7 7 8 8
REMARK H PARENT
REMARK Flexibility Score: inf
ROOT
ATOM      1  C   UNL     1     180.590 185.833 182.822  1.00  0.00     0.059 C 
ENDROOT
BRANCH   1   2
ATOM      2  C   UNL     1     181.016 184.459 183.241  1.00  0.00     0.042 C 
ATOM      3  O   UNL     1     180.166 183.636 183.674  1.00  0.00    -0.550 OA
ATOM      4  O   UNL     1     182.345 184.073 183.117  1.00  0.00    -0.550 OA
ENDBRANCH   1   2
BRANCH   1   5
ATOM      5  C   UNL     1     180.931 186.107 181.354  1.00  0.00     0.059 C 
BRANCH   5   6
ATOM      6  C   UNL     1     180.236 185.146 180.437  1.00  0.00     0.042 C 
ATOM      7  O   UNL     1     180.906 184.403 179.672  1.00  0.00    -0.550 OA
ATOM      8  O   UNL     1     178.851 185.044 180.457  1.00  0.00    -0.550 OA
ENDBRANCH   5   6
ENDBRANCH   1   5
TORSDOF 3
ENDMDL
MODEL 8
REMARK VINA RESULT:     0.000      9.850     10.475
REMARK INTER + INTRA:          -0.195
REMARK INTER:                   0.000
REMARK INTRA:                  -0.195
REMARK UNBOUND:                -0.195
REMARK SMILES O=C([O-])CCC(=O)[O-]
REMARK SMILES IDX 4 1 2 2 1 3 3 4 5 5 6 6 7 7 8 8
REMARK H PARENT
REMARK Flexibility Score: inf
ROOT
ATOM      1  C   UNL     1     176.694 174.770 174.844  1.00  0.00     0.059 C 
ENDROOT
BRANCH   1   2
ATOM      2  C   UNL     1     176.261 174.573 176.265  1.00  0.00     0.042 C 
ATOM      3  O   UNL     1     175.450 173.655 176.559  1.00  0.00    -0.550 OA
ATOM      4  O   UNL     1     176.784 175.376 177.271  1.00  0.00    -0.550 OA
ENDBRANCH   1   2
BRANCH   1   5
ATOM      5  C   UNL     1     178.212 174.630 174.692  1.00  0.00     0.059 C 
BRANCH   5   6
ATOM      6  C   UNL     1     178.684 173.266 175.097  1.00  0.00     0.042 C 
ATOM      7  O   UNL     1     179.522 173.137 176.028  1.00  0.00    -0.550 OA
ATOM      8  O   UNL     1     178.169 172.138 174.472  1.00  0.00    -0.550 OA
ENDBRANCH   5   6
ENDBRANCH   1   5
TORSDOF 3
ENDMDL
MODEL 9
REMARK VINA RESULT:     0.000     16.307     17.525
REMARK INTER + INTRA:          -0.195
REMARK INTER:                   0.000
REMARK INTRA:                  -0.195
REMARK UNBOUND:                -0.195
REMARK SMILES O=C([O-])CCC(=O)[O-]
REMARK SMILES IDX 4 1 2 2 1 3 3 4 5 5 6 6 7 7 8 8
REMARK H PARENT
REMARK Flexibility Score: inf
ROOT
ATOM      1  C   UNL     1     175.355 189.862 182.200  1.00  0.00     0.059 C 
ENDROOT
BRANCH   1   2
ATOM      2  C   UNL     1     176.632 190.448 181.678  1.00  0.00     0.042 C 
ATOM      3  O   UNL     1     177.500 190.890 182.476  1.00  0.00    -0.550 OA
ATOM      4  O   UNL     1     176.881 190.469 180.311  1.00  0.00    -0.550 OA
ENDBRANCH   1   2
BRANCH   1   5
ATOM      5  C   UNL     1     175.179 188.406 181.757  1.00  0.00     0.059 C 
BRANCH   5   6
ATOM      6  C   UNL     1     176.287 187.536 182.267  1.00  0.00     0.042 C 
ATOM      7  O   UNL     1     177.018 186.904 181.460  1.00  0.00    -0.550 OA
ATOM      8  O   UNL     1     176.536 187.455 183.631  1.00  0.00    -0.550 OA
ENDBRANCH   5   6
ENDBRANCH   1   5
TORSDOF 3
ENDMDL
