MODEL 1
REMARK VINA RESULT:    -5.067      0.000      0.000
REMARK INTER + INTRA:          -5.215
REMARK INTER:                  -5.215
REMARK INTRA:                   0.000
REMARK UNBOUND:                 0.000
REMARK SMILES Oc1ccc2[nH]ccc2c1
REMARK SMILES IDX 3 1 4 2 5 3 9 4 8 5 7 6 6 7 10 8 2 9 1 11
REMARK H PARENT 6 10 1 12
REMARK Flexibility Score: inf
ROOT
ATOM      1  C   UNL     1     113.330 113.327 110.427  1.00  0.00     0.048 A 
ATOM      2  C   UNL     1     112.875 114.029 111.558  1.00  0.00     0.030 A 
ATOM      3  C   UNL     1     113.806 114.775 112.279  1.00  0.00     0.046 A 
ATOM      4  C   UNL     1     115.123 114.831 111.911  1.00  0.00     0.003 A 
ATOM      5  C   UNL     1     115.771 115.641 112.818  1.00  0.00     0.028 A 
ATOM      6  C   UNL     1     114.784 116.045 113.713  1.00  0.00     0.083 A 
ATOM      7  N   UNL     1     113.586 115.512 113.379  1.00  0.00    -0.361 N 
ATOM      8  C   UNL     1     115.607 114.148 110.797  1.00  0.00     0.056 A 
ATOM      9  C   UNL     1     114.690 113.383 110.044  1.00  0.00     0.116 A 
ATOM     10  H   UNL     1     112.679 115.650 113.878  1.00  0.00     0.166 HD
ENDROOT
BRANCH   9  11
ATOM     11  O   UNL     1     115.116 112.679 108.920  1.00  0.00    -0.508 OA
ATOM     12  H   UNL     1     116.036 112.258 108.876  1.00  0.00     0.293 HD
ENDBRANCH   9  11
TORSDOF 1
ENDMDL
MODEL 2
REMARK VINA RESULT:    -4.883      2.149      2.698
REMARK INTER + INTRA:          -5.026
REMARK INTER:                  -5.026
REMARK INTRA:                   0.000
REMARK UNBOUND:                 0.000
REMARK SMILES Oc1ccc2[nH]ccc2c1
REMARK SMILES IDX 3 1 4 2 5 3 9 4 8 5 7 6 6 7 10 8 2 9 1 11
REMARK H PARENT 6 10 1 12
REMARK Flexibility Score: inf
ROOT
ATOM      1  C   UNL     1     114.943 113.284 109.518  1.00  0.00     0.048 A 
ATOM      2  C   UNL     1     115.719 114.436 109.293  1.00  0.00     0.030 A 
ATOM      3  C   UNL     1     115.447 115.564 110.066  1.00  0.00     0.046 A 
ATOM      4  C   UNL     1     114.461 115.565 111.016  1.00  0.00     0.003 A 
ATOM      5  C   UNL     1     114.448 116.815 111.596  1.00  0.00     0.028 A 
ATOM      6  C   UNL     1     115.455 117.526 110.949  1.00  0.00     0.083 A 
ATOM      7  N   UNL     1     116.062 116.756 110.015  1.00  0.00    -0.361 N 
ATOM      8  C   UNL     1     113.675 114.441 111.264  1.00  0.00     0.056 A 
ATOM      9  C   UNL     1     113.924 113.282 110.499  1.00  0.00     0.116 A 
ATOM     10  H   UNL     1     116.846 117.038 109.386  1.00  0.00     0.166 HD
ENDROOT
BRANCH   9  11
ATOM     11  O   UNL     1     113.171 112.128 110.702  1.00  0.00    -0.508 OA
ATOM     12  H   UNL     1     113.403 111.256 110.242  1.00  0.00     0.293 HD
ENDBRANCH   9  11
TORSDOF 1
ENDMDL
MODEL 3
REMARK VINA RESULT:    -4.713      1.607      2.159
REMARK INTER + INTRA:          -4.850
REMARK INTER:                  -4.850
REMARK INTRA:                   0.000
REMARK UNBOUND:                 0.000
REMARK SMILES Oc1ccc2[nH]ccc2c1
REMARK SMILES IDX 3 1 4 2 5 3 9 4 8 5 7 6 6 7 10 8 2 9 1 11
REMARK H PARENT 6 10 1 12
REMARK Flexibility Score: inf
ROOT
ATOM      1  C   UNL     1     115.050 113.529 109.287  1.00  0.00     0.048 A 
ATOM      2  C   UNL     1     115.857 113.455 110.437  1.00  0.00     0.030 A 
ATOM      3  C   UNL     1     115.419 114.118 111.583  1.00  0.00     0.046 A 
ATOM      4  C   UNL     1     114.245 114.822 111.602  1.00  0.00     0.003 A 
ATOM      5  C   UNL     1     114.103 115.351 112.866  1.00  0.00     0.028 A 
ATOM      6  C   UNL     1     115.230 114.929 113.566  1.00  0.00     0.083 A 
ATOM      7  N   UNL     1     116.030 114.176 112.777  1.00  0.00    -0.361 N 
ATOM      8  C   UNL     1     113.423 114.915 110.481  1.00  0.00     0.056 A 
ATOM      9  C   UNL     1     113.837 114.255 109.305  1.00  0.00     0.116 A 
ATOM     10  H   UNL     1     116.937 113.733 113.046  1.00  0.00     0.166 HD
ENDROOT
BRANCH   9  11
ATOM     11  O   UNL     1     113.056 114.313 108.153  1.00  0.00    -0.508 OA
ATOM     12  H   UNL     1     112.317 114.998 108.047  1.00  0.00     0.293 HD
ENDBRANCH   9  11
TORSDOF 1
ENDMDL
MODEL 4
REMARK VINA RESULT:    -4.669      3.331      4.155
REMARK INTER + INTRA:          -4.805
REMARK INTER:                  -4.805
REMARK INTRA:                   0.000
REMARK UNBOUND:                 0.000
REMARK SMILES Oc1ccc2[nH]ccc2c1
REMARK SMILES IDX 3 1 4 2 5 3 9 4 8 5 7 6 6 7 10 8 2 9 1 11
REMARK H PARENT 6 10 1 12
REMARK Flexibility Score: inf
ROOT
ATOM      1  C   UNL     1     110.550 114.732 110.413  1.00  0.00     0.048 A 
ATOM      2  C   UNL     1     111.390 114.838 109.289  1.00  0.00     0.030 A 
ATOM      3  C   UNL     1     112.667 114.286 109.377  1.00  0.00     0.046 A 
ATOM      4  C   UNL     1     113.103 113.660 110.514  1.00  0.00     0.003 A 
ATOM      5  C   UNL     1     114.392 113.232 110.280  1.00  0.00     0.028 A 
ATOM      6  C   UNL     1     114.677 113.632 108.978  1.00  0.00     0.083 A 
ATOM      7  N   UNL     1     113.620 114.276 108.431  1.00  0.00    -0.361 N 
ATOM      8  C   UNL     1     112.298 113.538 111.644  1.00  0.00     0.056 A 
ATOM      9  C   UNL     1     110.998 114.086 111.588  1.00  0.00     0.116 A 
ATOM     10  H   UNL     1     113.562 114.680 107.470  1.00  0.00     0.166 HD
ENDROOT
BRANCH   9  11
ATOM     11  O   UNL     1     110.147 113.995 112.687  1.00  0.00    -0.508 OA
ATOM     12  H   UNL     1     110.320 114.519 113.536  1.00  0.00     0.293 HD
ENDBRANCH   9  11
TORSDOF 1
ENDMDL
MODEL 5
REMARK VINA RESULT:    -4.649      2.910      4.143
REMARK INTER + INTRA:          -4.785
REMARK INTER:                  -4.785
REMARK INTRA:                   0.000
REMARK UNBOUND:                 0.000
REMARK SMILES Oc1ccc2[nH]ccc2c1
REMARK SMILES IDX 3 1 4 2 5 3 9 4 8 5 7 6 6 7 10 8 2 9 1 11
REMARK H PARENT 6 10 1 12
REMARK Flexibility Score: inf
ROOT
ATOM      1  C   UNL     1     115.152 117.399 112.497  1.00  0.00     0.048 A 
ATOM      2  C   UNL     1     115.399 117.128 111.138  1.00  0.00     0.030 A 
ATOM      3  C   UNL     1     115.436 115.793 110.738  1.00  0.00     0.046 A 
ATOM      4  C   UNL     1     115.240 114.770 111.627  1.00  0.00     0.003 A 
ATOM      5  C   UNL     1     115.338 113.589 110.924  1.00  0.00     0.028 A 
ATOM      6  C   UNL     1     115.595 113.969 109.609  1.00  0.00     0.083 A 
ATOM      7  N   UNL     1     115.653 115.317 109.502  1.00  0.00    -0.361 N 
ATOM      8  C   UNL     1     114.994 115.004 112.978  1.00  0.00     0.056 A 
ATOM      9  C   UNL     1     114.950 116.345 113.416  1.00  0.00     0.116 A 
ATOM     10  H   UNL     1     115.832 115.868 108.634  1.00  0.00     0.166 HD
ENDROOT
BRANCH   9  11
ATOM     11  O   UNL     1     114.708 116.640 114.756  1.00  0.00    -0.508 OA
ATOM     12  H   UNL     1     113.840 117.070 115.055  1.00  0.00     0.293 HD
ENDBRANCH   9  11
TORSDOF 1
ENDMDL
MODEL 6
REMARK VINA RESULT:    -4.639      2.859      4.008
REMARK INTER + INTRA:          -4.775
REMARK INTER:                  -4.775
REMARK INTRA:                   0.000
REMARK UNBOUND:                 0.000
REMARK SMILES Oc1ccc2[nH]ccc2c1
REMARK SMILES IDX 3 1 4 2 5 3 9 4 8 5 7 6 6 7 10 8 2 9 1 11
REMARK H PARENT 6 10 1 12
REMARK Flexibility Score: inf
ROOT
ATOM      1  C   UNL     1     110.196 113.714 112.430  1.00  0.00     0.048 A 
ATOM      2  C   UNL     1     111.533 113.814 112.857  1.00  0.00     0.030 A 
ATOM      3  C   UNL     1     112.529 113.821 111.882  1.00  0.00     0.046 A 
ATOM      4  C   UNL     1     112.230 113.734 110.548  1.00  0.00     0.003 A 
ATOM      5  C   UNL     1     113.421 113.767 109.857  1.00  0.00     0.028 A 
ATOM      6  C   UNL     1     114.407 113.876 110.834  1.00  0.00     0.083 A 
ATOM      7  N   UNL     1     113.855 113.909 112.069  1.00  0.00    -0.361 N 
ATOM      8  C   UNL     1     110.918 113.633 110.091  1.00  0.00     0.056 A 
ATOM      9  C   UNL     1     109.885 113.624 111.054  1.00  0.00     0.116 A 
ATOM     10  H   UNL     1     114.362 113.985 112.979  1.00  0.00     0.166 HD
ENDROOT
BRANCH   9  11
ATOM     11  O   UNL     1     108.554 113.525 110.657  1.00  0.00    -0.508 OA
ATOM     12  H   UNL     1     108.184 114.086 109.898  1.00  0.00     0.293 HD
ENDBRANCH   9  11
TORSDOF 1
ENDMDL
MODEL 7
REMARK VINA RESULT:    -4.638      3.644      5.151
REMARK INTER + INTRA:          -4.773
REMARK INTER:                  -4.773
REMARK INTRA:                   0.000
REMARK UNBOUND:                 0.000
REMARK SMILES Oc1ccc2[nH]ccc2c1
REMARK SMILES IDX 3 1 4 2 5 3 9 4 8 5 7 6 6 7 10 8 2 9 1 11
REMARK H PARENT 6 10 1 12
REMARK Flexibility Score: inf
ROOT
ATOM      1  C   UNL     1     112.177 113.724 112.114  1.00  0.00     0.048 A 
ATOM      2  C   UNL     1     112.646 114.073 110.834  1.00  0.00     0.030 A 
ATOM      3  C   UNL     1     111.713 114.519 109.899  1.00  0.00     0.046 A 
ATOM      4  C   UNL     1     110.382 114.618 110.202  1.00  0.00     0.003 A 
ATOM      5  C   UNL     1     109.737 115.083 109.077  1.00  0.00     0.028 A 
ATOM      6  C   UNL     1     110.739 115.247 108.125  1.00  0.00     0.083 A 
ATOM      7  N   UNL     1     111.944 114.900 108.633  1.00  0.00    -0.361 N 
ATOM      8  C   UNL     1     109.884 114.280 111.459  1.00  0.00     0.056 A 
ATOM      9  C   UNL     1     110.802 113.825 112.429  1.00  0.00     0.116 A 
ATOM     10  H   UNL     1     112.863 114.925 108.137  1.00  0.00     0.166 HD
ENDROOT
BRANCH   9  11
ATOM     11  O   UNL     1     110.364 113.473 113.703  1.00  0.00    -0.508 OA
ATOM     12  H   UNL     1     109.380 113.477 113.945  1.00  0.00     0.293 HD
ENDBRANCH   9  11
TORSDOF 1
ENDMDL
MODEL 8
REMARK VINA RESULT:    -4.591      3.041      4.542
REMARK INTER + INTRA:          -4.725
REMARK INTER:                  -4.725
REMARK INTRA:                   0.000
REMARK UNBOUND:                 0.000
REMARK SMILES Oc1ccc2[nH]ccc2c1
REMARK SMILES IDX 3 1 4 2 5 3 9 4 8 5 7 6 6 7 10 8 2 9 1 11
REMARK H PARENT 6 10 1 12
REMARK Flexibility Score: inf
ROOT
ATOM      1  C   UNL     1     113.607 114.452 110.762  1.00  0.00     0.048 A 
ATOM      2  C   UNL     1     112.677 114.336 109.714  1.00  0.00     0.030 A 
ATOM      3  C   UNL     1     111.363 114.003 110.043  1.00  0.00     0.046 A 
ATOM      4  C   UNL     1     110.979 113.793 111.341  1.00  0.00     0.003 A 
ATOM      5  C   UNL     1     109.636 113.485 111.327  1.00  0.00     0.028 A 
ATOM      6  C   UNL     1     109.267 113.526 109.985  1.00  0.00     0.083 A 
ATOM      7  N   UNL     1     110.326 113.843 109.206  1.00  0.00    -0.361 N 
ATOM      8  C   UNL     1     111.874 113.900 112.402  1.00  0.00     0.056 A 
ATOM      9  C   UNL     1     113.212 114.236 112.103  1.00  0.00     0.116 A 
ATOM     10  H   UNL     1     110.331 113.941 108.166  1.00  0.00     0.166 HD
ENDROOT
BRANCH   9  11
ATOM     11  O   UNL     1     114.153 114.357 113.123  1.00  0.00    -0.508 OA
ATOM     12  H   UNL     1     114.691 115.206 113.249  1.00  0.00     0.293 HD
ENDBRANCH   9  11
TORSDOF 1
ENDMDL
MODEL 9
REMARK VINA RESULT:    -4.481      3.683      4.705
REMARK INTER + INTRA:          -4.612
REMARK INTER:                  -4.612
REMARK INTRA:                   0.000
REMARK UNBOUND:                 0.000
REMARK SMILES Oc1ccc2[nH]ccc2c1
REMARK SMILES IDX 3 1 4 2 5 3 9 4 8 5 7 6 6 7 10 8 2 9 1 11
REMARK H PARENT 6 10 1 12
REMARK Flexibility Score: inf
ROOT
ATOM      1  C   UNL     1     109.458 115.087 109.120  1.00  0.00     0.048 A 
ATOM      2  C   UNL     1     110.811 115.465 109.041  1.00  0.00     0.030 A 
ATOM      3  C   UNL     1     111.694 114.919 109.972  1.00  0.00     0.046 A 
ATOM      4  C   UNL     1     111.272 114.042 110.935  1.00  0.00     0.003 A 
ATOM      5  C   UNL     1     112.375 113.692 111.684  1.00  0.00     0.028 A 
ATOM      6  C   UNL     1     113.436 114.394 111.120  1.00  0.00     0.083 A 
ATOM      7  N   UNL     1     113.014 115.142 110.074  1.00  0.00    -0.361 N 
ATOM      8  C   UNL     1     109.941 113.646 111.040  1.00  0.00     0.056 A 
ATOM      9  C   UNL     1     109.020 114.181 110.113  1.00  0.00     0.116 A 
ATOM     10  H   UNL     1     113.599 115.765 109.474  1.00  0.00     0.166 HD
ENDROOT
BRANCH   9  11
ATOM     11  O   UNL     1     107.676 113.823 110.169  1.00  0.00    -0.508 OA
ATOM     12  H   UNL     1     107.100 114.048 110.972  1.00  0.00     0.293 HD
ENDBRANCH   9  11
TORSDOF 1
ENDMDL
