MODEL 1
REMARK VINA RESULT:    -3.832      0.000      0.000
REMARK INTER + INTRA:          -4.813
REMARK INTER:                  -4.728
REMARK INTRA:                  -0.085
REMARK UNBOUND:                -0.085
REMARK SMILES CCCCCC(=O)[O-]
REMARK SMILES IDX 4 1 5 2 6 3 7 4 8 5 3 6 2 7 1 8
REMARK H PARENT
REMARK Flexibility Score: inf
ROOT
ATOM      1  C   UNL     1       3.858  33.231  17.554  1.00  0.00     0.006 C 
ENDROOT
BRANCH   1   2
ATOM      2  C   UNL     1       2.328  33.213  17.631  1.00  0.00     0.053 C 
BRANCH   2   3
ATOM      3  C   UNL     1       1.804  31.847  17.320  1.00  0.00     0.041 C 
ATOM      4  O   UNL     1       2.601  30.898  17.097  1.00  0.00    -0.550 OA
ATOM      5  O   UNL     1       0.434  31.633  17.226  1.00  0.00    -0.550 OA
ENDBRANCH   2   3
ENDBRANCH   1   2
BRANCH   1   6
ATOM      6  C   UNL     1       4.478  33.331  18.951  1.00  0.00     0.000 C 
BRANCH   6   7
ATOM      7  C   UNL     1       4.738  34.792  19.335  1.00  0.00    -0.003 C 
ATOM      8  C   UNL     1       6.170  34.988  19.826  1.00  0.00     0.004 C 
ENDBRANCH   6   7
ENDBRANCH   1   6
TORSDOF 4
ENDMDL
MODEL 2
REMARK VINA RESULT:    -3.603      2.818      4.630
REMARK INTER + INTRA:          -4.530
REMARK INTER:                  -4.504
REMARK INTRA:                  -0.026
REMARK UNBOUND:                -0.085
REMARK SMILES CCCCCC(=O)[O-]
REMARK SMILES IDX 4 1 5 2 6 3 7 4 8 5 3 6 2 7 1 8
REMARK H PARENT
REMARK Flexibility Score: inf
ROOT
ATOM      1  C   UNL     1       3.805  32.806  17.799  1.00  0.00     0.006 C 
ENDROOT
BRANCH   1   2
ATOM      2  C   UNL     1       4.330  33.029  19.221  1.00  0.00     0.053 C 
BRANCH   2   3
ATOM      3  C   UNL     1       4.788  34.443  19.395  1.00  0.00     0.041 C 
ATOM      4  O   UNL     1       4.045  35.396  19.042  1.00  0.00    -0.550 OA
ATOM      5  O   UNL     1       6.054  34.706  19.902  1.00  0.00    -0.550 OA
ENDBRANCH   2   3
ENDBRANCH   1   2
BRANCH   1   6
ATOM      6  C   UNL     1       2.280  32.954  17.747  1.00  0.00     0.000 C 
BRANCH   6   7
ATOM      7  C   UNL     1       1.628  31.709  17.134  1.00  0.00    -0.003 C 
ATOM      8  C   UNL     1       2.617  30.551  17.052  1.00  0.00     0.004 C 
ENDBRANCH   6   7
ENDBRANCH   1   6
TORSDOF 4
ENDMDL
MODEL 3
REMARK VINA RESULT:    -3.565      2.331      2.669
REMARK INTER + INTRA:          -4.483
REMARK INTER:                  -4.261
REMARK INTRA:                  -0.222
REMARK UNBOUND:                -0.085
REMARK SMILES CCCCCC(=O)[O-]
REMARK SMILES IDX 4 1 5 2 6 3 7 4 8 5 3 6 2 7 1 8
REMARK H PARENT
REMARK Flexibility Score: inf
ROOT
ATOM      1  C   UNL     1       3.949  32.888  17.455  1.00  0.00     0.006 C 
ENDROOT
BRANCH   1   2
ATOM      2  C   UNL     1       3.862  31.365  17.601  1.00  0.00     0.053 C 
BRANCH   2   3
ATOM      3  C   UNL     1       4.781  30.888  18.681  1.00  0.00     0.041 C 
ATOM      4  O   UNL     1       6.026  30.877  18.493  1.00  0.00    -0.550 OA
ATOM      5  O   UNL     1       4.259  30.408  19.875  1.00  0.00    -0.550 OA
ENDBRANCH   2   3
ENDBRANCH   1   2
BRANCH   1   6
ATOM      6  C   UNL     1       3.355  33.592  18.680  1.00  0.00     0.000 C 
BRANCH   6   7
ATOM      7  C   UNL     1       4.140  34.865  19.018  1.00  0.00    -0.003 C 
ATOM      8  C   UNL     1       5.443  34.535  19.739  1.00  0.00     0.004 C 
ENDBRANCH   6   7
ENDBRANCH   1   6
TORSDOF 4
ENDMDL
MODEL 4
REMARK VINA RESULT:    -3.491      2.758      3.468
REMARK INTER + INTRA:          -4.392
REMARK INTER:                  -4.312
REMARK INTRA:                  -0.080
REMARK UNBOUND:                -0.085
REMARK SMILES CCCCCC(=O)[O-]
REMARK SMILES IDX 4 1 5 2 6 3 7 4 8 5 3 6 2 7 1 8
REMARK H PARENT
REMARK Flexibility Score: inf
ROOT
ATOM      1  C   UNL     1       4.132  32.295  19.204  1.00  0.00     0.006 C 
ENDROOT
BRANCH   1   2
ATOM      2  C   UNL     1       4.737  31.357  18.155  1.00  0.00     0.053 C 
BRANCH   2   3
ATOM      3  C   UNL     1       5.621  30.341  18.806  1.00  0.00     0.041 C 
ATOM      4  O   UNL     1       5.190  29.649  19.765  1.00  0.00    -0.550 OA
ATOM      5  O   UNL     1       6.937  30.193  18.387  1.00  0.00    -0.550 OA
ENDBRANCH   2   3
ENDBRANCH   1   2
BRANCH   1   6
ATOM      6  C   UNL     1       3.401  33.465  18.539  1.00  0.00     0.000 C 
BRANCH   6   7
ATOM      7  C   UNL     1       3.955  34.809  19.026  1.00  0.00    -0.003 C 
ATOM      8  C   UNL     1       5.367  34.654  19.584  1.00  0.00     0.004 C 
ENDBRANCH   6   7
ENDBRANCH   1   6
TORSDOF 4
ENDMDL
MODEL 5
REMARK VINA RESULT:    -3.408     14.482     15.770
REMARK INTER + INTRA:          -4.290
REMARK INTER:                  -4.181
REMARK INTRA:                  -0.109
REMARK UNBOUND:                -0.085
REMARK SMILES CCCCCC(=O)[O-]
REMARK SMILES IDX 4 1 5 2 6 3 7 4 8 5 3 6 2 7 1 8
REMARK H PARENT
REMARK Flexibility Score: inf
ROOT
ATOM      1  C   UNL     1      17.328  38.006  21.811  1.00  0.00     0.006 C 
ENDROOT
BRANCH   1   2
ATOM      2  C   UNL     1      18.806  37.603  21.837  1.00  0.00     0.053 C 
BRANCH   2   3
ATOM      3  C   UNL     1      18.944  36.127  22.042  1.00  0.00     0.041 C 
ATOM      4  O   UNL     1      19.213  35.669  23.183  1.00  0.00    -0.550 OA
ATOM      5  O   UNL     1      18.825  35.261  20.963  1.00  0.00    -0.550 OA
ENDBRANCH   2   3
ENDBRANCH   1   2
BRANCH   1   6
ATOM      6  C   UNL     1      16.938  38.577  20.443  1.00  0.00     0.000 C 
BRANCH   6   7
ATOM      7  C   UNL     1      15.599  39.319  20.518  1.00  0.00    -0.003 C 
ATOM      8  C   UNL     1      14.943  39.139  21.884  1.00  0.00     0.004 C 
ENDBRANCH   6   7
ENDBRANCH   1   6
TORSDOF 4
ENDMDL
MODEL 6
REMARK VINA RESULT:    -3.406     10.687     11.490
REMARK INTER + INTRA:          -4.287
REMARK INTER:                  -4.035
REMARK INTRA:                  -0.253
REMARK UNBOUND:                -0.085
REMARK SMILES CCCCCC(=O)[O-]
REMARK SMILES IDX 4 1 5 2 6 3 7 4 8 5 3 6 2 7 1 8
REMARK H PARENT
REMARK Flexibility Score: inf
ROOT
ATOM      1  C   UNL     1      10.053  30.903  25.095  1.00  0.00     0.006 C 
ENDROOT
BRANCH   1   2
ATOM      2  C   UNL     1      11.536  30.729  25.434  1.00  0.00     0.053 C 
BRANCH   2   3
ATOM      3  C   UNL     1      11.766  30.919  26.900  1.00  0.00     0.041 C 
ATOM      4  O   UNL     1      12.391  31.929  27.317  1.00  0.00    -0.550 OA
ATOM      5  O   UNL     1      11.333  29.955  27.802  1.00  0.00    -0.550 OA
ENDBRANCH   2   3
ENDBRANCH   1   2
BRANCH   1   6
ATOM      6  C   UNL     1       9.654  32.383  25.116  1.00  0.00     0.000 C 
BRANCH   6   7
ATOM      7  C   UNL     1      10.563  33.211  24.202  1.00  0.00    -0.003 C 
ATOM      8  C   UNL     1      11.133  34.420  24.938  1.00  0.00     0.004 C 
ENDBRANCH   6   7
ENDBRANCH   1   6
TORSDOF 4
ENDMDL
MODEL 7
REMARK VINA RESULT:    -3.397      3.371      4.293
REMARK INTER + INTRA:          -4.276
REMARK INTER:                  -4.170
REMARK INTRA:                  -0.106
REMARK UNBOUND:                -0.085
REMARK SMILES CCCCCC(=O)[O-]
REMARK SMILES IDX 4 1 5 2 6 3 7 4 8 5 3 6 2 7 1 8
REMARK H PARENT
REMARK Flexibility Score: inf
ROOT
ATOM      1  C   UNL     1       4.010  32.122  19.514  1.00  0.00     0.006 C 
ENDROOT
BRANCH   1   2
ATOM      2  C   UNL     1       4.371  33.173  18.460  1.00  0.00     0.053 C 
BRANCH   2   3
ATOM      3  C   UNL     1       4.357  34.544  19.060  1.00  0.00     0.041 C 
ATOM      4  O   UNL     1       3.299  35.226  19.056  1.00  0.00    -0.550 OA
ATOM      5  O   UNL     1       5.526  35.088  19.577  1.00  0.00    -0.550 OA
ENDBRANCH   2   3
ENDBRANCH   1   2
BRANCH   1   6
ATOM      6  C   UNL     1       4.301  30.708  19.003  1.00  0.00     0.000 C 
BRANCH   6   7
ATOM      7  C   UNL     1       5.576  30.682  18.152  1.00  0.00    -0.003 C 
ATOM      8  C   UNL     1       6.644  29.794  18.783  1.00  0.00     0.004 C 
ENDBRANCH   6   7
ENDBRANCH   1   6
TORSDOF 4
ENDMDL
MODEL 8
REMARK VINA RESULT:    -3.383     12.244     13.860
REMARK INTER + INTRA:          -4.259
REMARK INTER:                  -3.999
REMARK INTRA:                  -0.260
REMARK UNBOUND:                -0.085
REMARK SMILES CCCCCC(=O)[O-]
REMARK SMILES IDX 4 1 5 2 6 3 7 4 8 5 3 6 2 7 1 8
REMARK H PARENT
REMARK Flexibility Score: inf
ROOT
ATOM      1  C   UNL     1      12.222  30.705  28.612  1.00  0.00     0.006 C 
ENDROOT
BRANCH   1   2
ATOM      2  C   UNL     1      11.807  31.163  27.210  1.00  0.00     0.053 C 
BRANCH   2   3
ATOM      3  C   UNL     1      11.226  32.540  27.259  1.00  0.00     0.041 C 
ATOM      4  O   UNL     1      11.474  33.365  26.340  1.00  0.00    -0.550 OA
ATOM      5  O   UNL     1      10.450  32.930  28.343  1.00  0.00    -0.550 OA
ENDBRANCH   2   3
ENDBRANCH   1   2
BRANCH   1   6
ATOM      6  C   UNL     1      13.576  31.303  29.007  1.00  0.00     0.000 C 
BRANCH   6   7
ATOM      7  C   UNL     1      13.471  32.080  30.325  1.00  0.00    -0.003 C 
ATOM      8  C   UNL     1      12.251  31.641  31.129  1.00  0.00     0.004 C 
ENDBRANCH   6   7
ENDBRANCH   1   6
TORSDOF 4
ENDMDL
MODEL 9
REMARK VINA RESULT:    -3.301     10.116     11.847
REMARK INTER + INTRA:          -4.158
REMARK INTER:                  -4.067
REMARK INTRA:                  -0.091
REMARK UNBOUND:                -0.085
REMARK SMILES CCCCCC(=O)[O-]
REMARK SMILES IDX 4 1 5 2 6 3 7 4 8 5 3 6 2 7 1 8
REMARK H PARENT
REMARK Flexibility Score: inf
ROOT
ATOM      1  C   UNL     1      10.818  32.415  26.936  1.00  0.00     0.006 C 
ENDROOT
BRANCH   1   2
ATOM      2  C   UNL     1      10.046  32.540  25.619  1.00  0.00     0.053 C 
BRANCH   2   3
ATOM      3  C   UNL     1      10.805  33.383  24.644  1.00  0.00     0.041 C 
ATOM      4  O   UNL     1      11.146  32.909  23.529  1.00  0.00    -0.550 OA
ATOM      5  O   UNL     1      11.178  34.677  24.986  1.00  0.00    -0.550 OA
ENDBRANCH   2   3
ENDBRANCH   1   2
BRANCH   1   6
ATOM      6  C   UNL     1      11.822  31.258  26.877  1.00  0.00     0.000 C 
BRANCH   6   7
ATOM      7  C   UNL     1      12.240  30.820  28.285  1.00  0.00    -0.003 C 
ATOM      8  C   UNL     1      13.734  31.035  28.510  1.00  0.00     0.004 C 
ENDBRANCH   6   7
ENDBRANCH   1   6
TORSDOF 4
ENDMDL
