MODEL 1
REMARK VINA RESULT:    -4.046      0.000      0.000
REMARK INTER + INTRA:          -4.456
REMARK INTER:                  -4.283
REMARK INTRA:                  -0.174
REMARK UNBOUND:                -0.174
REMARK SMILES CC1=CC[C@@H](C(C)C)C=C1
REMARK SMILES IDX 1 1 2 2 3 3 4 4 5 5 9 6 10 7 6 8 7 9 8 10
REMARK H PARENT
REMARK Flexibility Score: inf
ROOT
ATOM      1  C   UNL     1     140.342 154.037 159.132  1.00  0.00     0.044 C 
ATOM      2  C   UNL     1     139.376 153.937 160.276  1.00  0.00    -0.055 C 
ATOM      3  C   UNL     1     139.119 155.011 161.039  1.00  0.00    -0.023 C 
ATOM      4  C   UNL     1     138.043 154.966 162.094  1.00  0.00     0.035 C 
ATOM      5  C   UNL     1     137.944 153.554 162.724  1.00  0.00     0.018 C 
ATOM      6  C   UNL     1     137.942 152.496 161.641  1.00  0.00    -0.023 C 
ATOM      7  C   UNL     1     138.655 152.668 160.523  1.00  0.00    -0.001 C 
ENDROOT
BRANCH   5   8
ATOM      8  C   UNL     1     136.744 153.379 163.700  1.00  0.00    -0.010 C 
ATOM      9  C   UNL     1     136.801 152.076 164.516  1.00  0.00     0.008 C 
ATOM     10  C   UNL     1     135.396 153.492 162.972  1.00  0.00     0.008 C 
ENDBRANCH   5   8
TORSDOF 1
ENDMDL
MODEL 2
REMARK VINA RESULT:    -4.028     21.170     22.268
REMARK INTER + INTRA:          -4.437
REMARK INTER:                  -4.248
REMARK INTRA:                  -0.188
REMARK UNBOUND:                -0.174
REMARK SMILES CC1=CC[C@@H](C(C)C)C=C1
REMARK SMILES IDX 1 1 2 2 3 3 4 4 5 5 9 6 10 7 6 8 7 9 8 10
REMARK H PARENT
REMARK Flexibility Score: inf
ROOT
ATOM      1  C   UNL     1     150.464 136.614 158.914  1.00  0.00     0.044 C 
ATOM      2  C   UNL     1     151.320 136.688 160.143  1.00  0.00    -0.055 C 
ATOM      3  C   UNL     1     151.465 135.611 160.932  1.00  0.00    -0.023 C 
ATOM      4  C   UNL     1     152.438 135.624 162.083  1.00  0.00     0.035 C 
ATOM      5  C   UNL     1     152.528 137.036 162.715  1.00  0.00     0.018 C 
ATOM      6  C   UNL     1     152.670 138.086 161.633  1.00  0.00    -0.023 C 
ATOM      7  C   UNL     1     152.060 137.932 160.453  1.00  0.00    -0.001 C 
ENDROOT
BRANCH   5   8
ATOM      8  C   UNL     1     153.635 137.176 163.799  1.00  0.00    -0.010 C 
ATOM      9  C   UNL     1     153.956 138.635 164.166  1.00  0.00     0.008 C 
ATOM     10  C   UNL     1     154.920 136.433 163.402  1.00  0.00     0.008 C 
ENDBRANCH   5   8
TORSDOF 1
ENDMDL
MODEL 3
REMARK VINA RESULT:    -3.828      0.435      1.620
REMARK INTER + INTRA:          -4.225
REMARK INTER:                  -4.083
REMARK INTRA:                  -0.142
REMARK UNBOUND:                -0.174
REMARK SMILES CC1=CC[C@@H](C(C)C)C=C1
REMARK SMILES IDX 1 1 2 2 3 3 4 4 5 5 9 6 10 7 6 8 7 9 8 10
REMARK H PARENT
REMARK Flexibility Score: inf
ROOT
ATOM      1  C   UNL     1     140.421 154.038 159.117  1.00  0.00     0.044 C 
ATOM      2  C   UNL     1     139.437 153.824 160.230  1.00  0.00    -0.055 C 
ATOM      3  C   UNL     1     138.795 152.652 160.349  1.00  0.00    -0.023 C 
ATOM      4  C   UNL     1     137.920 152.370 161.544  1.00  0.00     0.035 C 
ATOM      5  C   UNL     1     137.222 153.663 162.035  1.00  0.00     0.018 C 
ATOM      6  C   UNL     1     138.220 154.799 162.119  1.00  0.00    -0.023 C 
ATOM      7  C   UNL     1     139.223 154.887 161.238  1.00  0.00    -0.001 C 
ENDROOT
BRANCH   5   8
ATOM      8  C   UNL     1     136.435 153.492 163.367  1.00  0.00    -0.010 C 
ATOM      9  C   UNL     1     136.959 152.344 164.246  1.00  0.00     0.008 C 
ATOM     10  C   UNL     1     134.928 153.329 163.122  1.00  0.00     0.008 C 
ENDBRANCH   5   8
TORSDOF 1
ENDMDL
MODEL 4
REMARK VINA RESULT:    -3.811     16.790     17.523
REMARK INTER + INTRA:          -4.207
REMARK INTER:                  -4.039
REMARK INTRA:                  -0.168
REMARK UNBOUND:                -0.174
REMARK SMILES CC1=CC[C@@H](C(C)C)C=C1
REMARK SMILES IDX 1 1 2 2 3 3 4 4 5 5 9 6 10 7 6 8 7 9 8 10
REMARK H PARENT
REMARK Flexibility Score: inf
ROOT
ATOM      1  C   UNL     1     139.343 137.125 164.820  1.00  0.00     0.044 C 
ATOM      2  C   UNL     1     138.455 136.760 163.666  1.00  0.00    -0.055 C 
ATOM      3  C   UNL     1     138.959 136.117 162.602  1.00  0.00    -0.023 C 
ATOM      4  C   UNL     1     138.055 135.612 161.507  1.00  0.00     0.035 C 
ATOM      5  C   UNL     1     136.844 136.558 161.309  1.00  0.00     0.018 C 
ATOM      6  C   UNL     1     136.233 136.914 162.648  1.00  0.00    -0.023 C 
ATOM      7  C   UNL     1     137.005 137.052 163.731  1.00  0.00    -0.001 C 
ENDROOT
BRANCH   5   8
ATOM      8  C   UNL     1     135.774 136.020 160.315  1.00  0.00    -0.010 C 
ATOM      9  C   UNL     1     134.875 137.119 159.725  1.00  0.00     0.008 C 
ATOM     10  C   UNL     1     134.916 134.913 160.946  1.00  0.00     0.008 C 
ENDBRANCH   5   8
TORSDOF 1
ENDMDL
MODEL 5
REMARK VINA RESULT:    -3.622     16.359     17.337
REMARK INTER + INTRA:          -4.008
REMARK INTER:                  -3.821
REMARK INTRA:                  -0.187
REMARK UNBOUND:                -0.174
REMARK SMILES CC1=CC[C@@H](C(C)C)C=C1
REMARK SMILES IDX 1 1 2 2 3 3 4 4 5 5 9 6 10 7 6 8 7 9 8 10
REMARK H PARENT
REMARK Flexibility Score: inf
ROOT
ATOM      1  C   UNL     1     139.374 137.151 164.464  1.00  0.00     0.044 C 
ATOM      2  C   UNL     1     138.223 136.955 163.523  1.00  0.00    -0.055 C 
ATOM      3  C   UNL     1     137.029 137.507 163.791  1.00  0.00    -0.023 C 
ATOM      4  C   UNL     1     135.908 137.446 162.785  1.00  0.00     0.035 C 
ATOM      5  C   UNL     1     135.960 136.123 161.979  1.00  0.00     0.018 C 
ATOM      6  C   UNL     1     137.374 135.853 161.507  1.00  0.00    -0.023 C 
ATOM      7  C   UNL     1     138.420 136.205 162.262  1.00  0.00    -0.001 C 
ENDROOT
BRANCH   5   8
ATOM      8  C   UNL     1     134.941 136.057 160.804  1.00  0.00    -0.010 C 
ATOM      9  C   UNL     1     135.181 134.875 159.849  1.00  0.00     0.008 C 
ATOM     10  C   UNL     1     134.891 137.375 160.018  1.00  0.00     0.008 C 
ENDBRANCH   5   8
TORSDOF 1
ENDMDL
MODEL 6
REMARK VINA RESULT:    -3.615     21.140     22.256
REMARK INTER + INTRA:          -4.000
REMARK INTER:                  -3.879
REMARK INTRA:                  -0.121
REMARK UNBOUND:                -0.174
REMARK SMILES CC1=CC[C@@H](C(C)C)C=C1
REMARK SMILES IDX 1 1 2 2 3 3 4 4 5 5 9 6 10 7 6 8 7 9 8 10
REMARK H PARENT
REMARK Flexibility Score: inf
ROOT
ATOM      1  C   UNL     1     150.456 136.485 158.602  1.00  0.00     0.044 C 
ATOM      2  C   UNL     1     151.224 136.689 159.874  1.00  0.00    -0.055 C 
ATOM      3  C   UNL     1     151.764 137.886 160.154  1.00  0.00    -0.023 C 
ATOM      4  C   UNL     1     152.406 138.148 161.491  1.00  0.00     0.035 C 
ATOM      5  C   UNL     1     153.092 136.869 162.036  1.00  0.00     0.018 C 
ATOM      6  C   UNL     1     152.165 135.679 161.897  1.00  0.00    -0.023 C 
ATOM      7  C   UNL     1     151.332 135.586 160.856  1.00  0.00    -0.001 C 
ENDROOT
BRANCH   5   8
ATOM      8  C   UNL     1     153.632 137.009 163.489  1.00  0.00    -0.010 C 
ATOM      9  C   UNL     1     153.966 138.458 163.883  1.00  0.00     0.008 C 
ATOM     10  C   UNL     1     154.842 136.097 163.738  1.00  0.00     0.008 C 
ENDBRANCH   5   8
TORSDOF 1
ENDMDL
MODEL 7
REMARK VINA RESULT:    -3.231     21.148     22.400
REMARK INTER + INTRA:          -3.594
REMARK INTER:                  -3.441
REMARK INTRA:                  -0.153
REMARK UNBOUND:                -0.174
REMARK SMILES CC1=CC[C@@H](C(C)C)C=C1
REMARK SMILES IDX 1 1 2 2 3 3 4 4 5 5 9 6 10 7 6 8 7 9 8 10
REMARK H PARENT
REMARK Flexibility Score: inf
ROOT
ATOM      1  C   UNL     1     154.762 136.366 163.758  1.00  0.00     0.044 C 
ATOM      2  C   UNL     1     153.670 136.404 162.730  1.00  0.00    -0.055 C 
ATOM      3  C   UNL     1     153.020 135.280 162.392  1.00  0.00    -0.023 C 
ATOM      4  C   UNL     1     151.824 135.327 161.476  1.00  0.00     0.035 C 
ATOM      5  C   UNL     1     151.978 136.452 160.422  1.00  0.00     0.018 C 
ATOM      6  C   UNL     1     152.432 137.734 161.087  1.00  0.00    -0.023 C 
ATOM      7  C   UNL     1     153.262 137.697 162.136  1.00  0.00    -0.001 C 
ENDROOT
BRANCH   5   8
ATOM      8  C   UNL     1     150.711 136.678 159.547  1.00  0.00    -0.010 C 
ATOM      9  C   UNL     1     150.998 136.667 158.036  1.00  0.00     0.008 C 
ATOM     10  C   UNL     1     149.970 137.966 159.938  1.00  0.00     0.008 C 
ENDBRANCH   5   8
TORSDOF 1
ENDMDL
MODEL 8
REMARK VINA RESULT:    -3.202     21.115     22.082
REMARK INTER + INTRA:          -3.563
REMARK INTER:                  -3.432
REMARK INTRA:                  -0.131
REMARK UNBOUND:                -0.174
REMARK SMILES CC1=CC[C@@H](C(C)C)C=C1
REMARK SMILES IDX 1 1 2 2 3 3 4 4 5 5 9 6 10 7 6 8 7 9 8 10
REMARK H PARENT
REMARK Flexibility Score: inf
ROOT
ATOM      1  C   UNL     1     154.200 139.003 164.973  1.00  0.00     0.044 C 
ATOM      2  C   UNL     1     153.633 138.347 163.748  1.00  0.00    -0.055 C 
ATOM      3  C   UNL     1     153.428 139.063 162.632  1.00  0.00    -0.023 C 
ATOM      4  C   UNL     1     153.003 138.390 161.352  1.00  0.00     0.035 C 
ATOM      5  C   UNL     1     152.088 137.174 161.644  1.00  0.00     0.018 C 
ATOM      6  C   UNL     1     152.682 136.324 162.747  1.00  0.00    -0.023 C 
ATOM      7  C   UNL     1     153.361 136.892 163.750  1.00  0.00    -0.001 C 
ENDROOT
BRANCH   5   8
ATOM      8  C   UNL     1     151.744 136.323 160.387  1.00  0.00    -0.010 C 
ATOM      9  C   UNL     1     150.635 136.935 159.515  1.00  0.00     0.008 C 
ATOM     10  C   UNL     1     151.392 134.875 160.758  1.00  0.00     0.008 C 
ENDBRANCH   5   8
TORSDOF 1
ENDMDL
MODEL 9
REMARK VINA RESULT:    -2.864      0.983      4.350
REMARK INTER + INTRA:          -3.206
REMARK INTER:                  -3.049
REMARK INTRA:                  -0.156
REMARK UNBOUND:                -0.174
REMARK SMILES CC1=CC[C@@H](C(C)C)C=C1
REMARK SMILES IDX 1 1 2 2 3 3 4 4 5 5 9 6 10 7 6 8 7 9 8 10
REMARK H PARENT
REMARK Flexibility Score: inf
ROOT
ATOM      1  C   UNL     1     135.953 153.837 163.806  1.00  0.00     0.044 C 
ATOM      2  C   UNL     1     137.049 153.914 162.785  1.00  0.00    -0.055 C 
ATOM      3  C   UNL     1     137.702 155.069 162.579  1.00  0.00    -0.023 C 
ATOM      4  C   UNL     1     138.901 155.125 161.668  1.00  0.00     0.035 C 
ATOM      5  C   UNL     1     138.750 154.128 160.492  1.00  0.00     0.018 C 
ATOM      6  C   UNL     1     138.291 152.779 161.005  1.00  0.00    -0.023 C 
ATOM      7  C   UNL     1     137.458 152.697 162.048  1.00  0.00    -0.001 C 
ENDROOT
BRANCH   5   8
ATOM      8  C   UNL     1     140.019 154.001 159.601  1.00  0.00    -0.010 C 
ATOM      9  C   UNL     1     139.715 154.005 158.093  1.00  0.00     0.008 C 
ATOM     10  C   UNL     1     140.854 152.766 159.971  1.00  0.00     0.008 C 
ENDBRANCH   5   8
TORSDOF 1
ENDMDL
