MODEL 1
REMARK VINA RESULT:    -6.538      0.000      0.000
REMARK INTER + INTRA:         -10.182
REMARK INTER:                  -9.596
REMARK INTRA:                  -0.586
REMARK UNBOUND:                -0.586
REMARK SMILES O=c1c(O[C@H]2O[C@H](CO)[C@H](O)[C@H](O)[C@H]2O)c(-c2ccc(O)c(O)c2)oc2cc(O)cc(O)c12
REMARK SMILES IDX 4 1 3 2 16 3 25 4 2 5 26 6 1 7 33 8 27 9 31 10 28 11 30 12
REMARK SMILES IDX 17 13 18 14 19 15 20 16 24 17 22 18 21 19 23 21 32 23 29 25
REMARK SMILES IDX 5 27 14 28 6 29 12 30 7 31 10 32 15 33 13 35 8 37 9 38 11 40
REMARK H PARENT 21 20 23 22 32 24 29 26 15 34 13 36 9 39 11 41
REMARK Flexibility Score: inf
ROOT
ATOM      1  O   UNL     1     -14.281   3.470  24.107  1.00  0.00    -0.454 OA
ENDROOT
BRANCH   1   2
ATOM      2  C   UNL     1     -12.899   3.660  24.268  1.00  0.00     0.214 A 
ATOM      3  C   UNL     1     -12.025   2.579  24.055  1.00  0.00     0.180 A 
ATOM      4  O   UNL     1     -10.714   2.758  24.156  1.00  0.00    -0.452 OA
ATOM      5  C   UNL     1     -12.356   4.902  24.647  1.00  0.00     0.239 A 
ATOM      6  C   UNL     1     -10.156   3.921  24.462  1.00  0.00     0.146 A 
ATOM      7  O   UNL     1     -13.136   5.828  24.991  1.00  0.00    -0.285 OA
ATOM      8  C   UNL     1     -10.952   5.072  24.695  1.00  0.00     0.111 A 
ATOM      9  C   UNL     1      -8.765   3.987  24.566  1.00  0.00     0.094 A 
ATOM     10  C   UNL     1     -10.297   6.304  24.989  1.00  0.00     0.134 A 
ATOM     11  C   UNL     1      -8.138   5.181  24.911  1.00  0.00     0.123 A 
ATOM     12  C   UNL     1      -8.903   6.331  25.125  1.00  0.00     0.093 A 
BRANCH   3  13
ATOM     13  C   UNL     1     -12.521   1.232  23.697  1.00  0.00     0.025 A 
ATOM     14  C   UNL     1     -12.140   0.609  22.496  1.00  0.00     0.016 A 
ATOM     15  C   UNL     1     -12.633  -0.657  22.170  1.00  0.00     0.051 A 
ATOM     16  C   UNL     1     -13.523  -1.312  23.031  1.00  0.00     0.157 A 
ATOM     17  C   UNL     1     -13.428   0.580  24.547  1.00  0.00     0.062 A 
ATOM     18  C   UNL     1     -13.924  -0.688  24.224  1.00  0.00     0.158 A 
BRANCH  16  19
ATOM     19  O   UNL     1     -14.014  -2.576  22.703  1.00  0.00    -0.504 OA
ATOM     20  H   UNL     1     -14.085  -2.884  21.740  1.00  0.00     0.293 HD
ENDBRANCH  16  19
BRANCH  18  21
ATOM     21  O   UNL     1     -14.813  -1.311  25.099  1.00  0.00    -0.504 OA
ATOM     22  H   UNL     1     -15.551  -1.923  24.772  1.00  0.00     0.293 HD
ENDBRANCH  18  21
ENDBRANCH   3  13
BRANCH  10  23
ATOM     23  O   UNL     1     -10.961   7.528  25.125  1.00  0.00    -0.507 OA
ATOM     24  H   UNL     1     -11.958   7.630  25.243  1.00  0.00     0.293 HD
ENDBRANCH  10  23
BRANCH  11  25
ATOM     25  O   UNL     1      -6.750   5.219  25.030  1.00  0.00    -0.508 OA
ATOM     26  H   UNL     1      -6.232   4.451  25.440  1.00  0.00     0.293 HD
ENDBRANCH  11  25
ENDBRANCH   1   2
BRANCH   1  27
ATOM     27  C   UNL     1     -14.895   2.914  22.944  1.00  0.00     0.339 C 
ATOM     28  C   UNL     1     -14.871   3.961  21.819  1.00  0.00     0.214 C 
ATOM     29  O   UNL     1     -16.228   2.564  23.277  1.00  0.00    -0.332 OA
ATOM     30  C   UNL     1     -15.560   3.392  20.566  1.00  0.00     0.180 C 
ATOM     31  C   UNL     1     -16.917   1.944  22.197  1.00  0.00     0.179 C 
ATOM     32  C   UNL     1     -16.953   2.842  20.933  1.00  0.00     0.177 C 
BRANCH  28  33
ATOM     33  O   UNL     1     -15.531   5.124  22.251  1.00  0.00    -0.384 OA
ATOM     34  H   UNL     1     -16.441   4.849  22.537  1.00  0.00     0.211 HD
ENDBRANCH  28  33
BRANCH  30  35
ATOM     35  O   UNL     1     -14.774   2.379  19.993  1.00  0.00    -0.387 OA
ATOM     36  H   UNL     1     -13.949   2.309  20.541  1.00  0.00     0.211 HD
ENDBRANCH  30  35
BRANCH  31  37
ATOM     37  C   UNL     1     -16.443   0.493  21.946  1.00  0.00     0.191 C 
BRANCH  37  38
ATOM     38  O   UNL     1     -17.479  -0.268  21.387  1.00  0.00    -0.394 OA
ATOM     39  H   UNL     1     -17.988   0.338  20.787  1.00  0.00     0.210 HD
ENDBRANCH  37  38
ENDBRANCH  31  37
BRANCH  32  40
ATOM     40  O   UNL     1     -17.513   2.144  19.850  1.00  0.00    -0.387 OA
ATOM     41  H   UNL     1     -18.477   2.380  19.822  1.00  0.00     0.211 HD
ENDBRANCH  32  40
ENDBRANCH   1  27
TORSDOF 12
ENDMDL
MODEL 2
REMARK VINA RESULT:    -6.212      2.293      5.384
REMARK INTER + INTRA:          -9.703
REMARK INTER:                  -9.866
REMARK INTRA:                   0.163
REMARK UNBOUND:                -0.586
REMARK SMILES O=c1c(O[C@H]2O[C@H](CO)[C@H](O)[C@H](O)[C@H]2O)c(-c2ccc(O)c(O)c2)oc2cc(O)cc(O)c12
REMARK SMILES IDX 4 1 3 2 16 3 25 4 2 5 26 6 1 7 33 8 27 9 31 10 28 11 30 12
REMARK SMILES IDX 17 13 18 14 19 15 20 16 24 17 22 18 21 19 23 21 32 23 29 25
REMARK SMILES IDX 5 27 14 28 6 29 12 30 7 31 10 32 15 33 13 35 8 37 9 38 11 40
REMARK H PARENT 21 20 23 22 32 24 29 26 15 34 13 36 9 39 11 41
REMARK Flexibility Score: inf
ROOT
ATOM      1  O   UNL     1     -10.504   2.230  24.561  1.00  0.00    -0.454 OA
ENDROOT
BRANCH   1   2
ATOM      2  C   UNL     1     -10.179   3.592  24.664  1.00  0.00     0.214 A 
ATOM      3  C   UNL     1      -8.827   3.974  24.737  1.00  0.00     0.180 A 
ATOM      4  O   UNL     1      -8.505   5.260  24.784  1.00  0.00    -0.452 OA
ATOM      5  C   UNL     1     -11.167   4.593  24.706  1.00  0.00     0.239 A 
ATOM      6  C   UNL     1      -9.400   6.240  24.777  1.00  0.00     0.146 A 
ATOM      7  O   UNL     1     -12.374   4.253  24.800  1.00  0.00    -0.285 OA
ATOM      8  C   UNL     1     -10.789   5.956  24.705  1.00  0.00     0.111 A 
ATOM      9  C   UNL     1      -8.947   7.558  24.857  1.00  0.00     0.094 A 
ATOM     10  C   UNL     1     -11.704   7.049  24.668  1.00  0.00     0.134 A 
ATOM     11  C   UNL     1      -9.852   8.616  24.878  1.00  0.00     0.123 A 
ATOM     12  C   UNL     1     -11.223   8.359  24.788  1.00  0.00     0.093 A 
BRANCH   3  13
ATOM     13  C   UNL     1      -7.732   2.979  24.742  1.00  0.00     0.025 A 
ATOM     14  C   UNL     1      -7.962   1.643  25.111  1.00  0.00     0.016 A 
ATOM     15  C   UNL     1      -6.910   0.723  25.125  1.00  0.00     0.051 A 
ATOM     16  C   UNL     1      -5.613   1.128  24.784  1.00  0.00     0.157 A 
ATOM     17  C   UNL     1      -6.428   3.385  24.420  1.00  0.00     0.062 A 
ATOM     18  C   UNL     1      -5.371   2.467  24.432  1.00  0.00     0.158 A 
BRANCH  16  19
ATOM     19  O   UNL     1      -4.564   0.209  24.799  1.00  0.00    -0.504 OA
ATOM     20  H   UNL     1      -4.210  -0.207  23.944  1.00  0.00     0.293 HD
ENDBRANCH  16  19
BRANCH  18  21
ATOM     21  O   UNL     1      -4.091   2.903  24.094  1.00  0.00    -0.504 OA
ATOM     22  H   UNL     1      -3.725   2.818  23.153  1.00  0.00     0.293 HD
ENDBRANCH  18  21
ENDBRANCH   3  13
BRANCH  10  23
ATOM     23  O   UNL     1     -13.083   6.905  24.483  1.00  0.00    -0.507 OA
ATOM     24  H   UNL     1     -13.532   6.774  23.588  1.00  0.00     0.293 HD
ENDBRANCH  10  23
BRANCH  11  25
ATOM     25  O   UNL     1      -9.379   9.923  24.980  1.00  0.00    -0.508 OA
ATOM     26  H   UNL     1      -8.788  10.330  24.265  1.00  0.00     0.293 HD
ENDBRANCH  11  25
ENDBRANCH   1   2
BRANCH   1  27
ATOM     27  C   UNL     1     -11.734   1.725  24.040  1.00  0.00     0.339 C 
ATOM     28  C   UNL     1     -12.266   0.636  24.985  1.00  0.00     0.214 C 
ATOM     29  O   UNL     1     -11.477   1.190  22.752  1.00  0.00    -0.332 OA
ATOM     30  C   UNL     1     -13.575   0.054  24.421  1.00  0.00     0.180 C 
ATOM     31  C   UNL     1     -12.654   0.709  22.114  1.00  0.00     0.179 C 
ATOM     32  C   UNL     1     -13.372  -0.379  22.956  1.00  0.00     0.177 C 
BRANCH  28  33
ATOM     33  O   UNL     1     -11.302  -0.377  25.119  1.00  0.00    -0.384 OA
ATOM     34  H   UNL     1     -10.895  -0.508  24.222  1.00  0.00     0.211 HD
ENDBRANCH  28  33
BRANCH  30  35
ATOM     35  O   UNL     1     -14.609   1.001  24.509  1.00  0.00    -0.387 OA
ATOM     36  H   UNL     1     -15.438   0.552  24.198  1.00  0.00     0.211 HD
ENDBRANCH  30  35
BRANCH  31  37
ATOM     37  C   UNL     1     -13.571   1.852  21.619  1.00  0.00     0.191 C 
BRANCH  37  38
ATOM     38  O   UNL     1     -13.148   2.305  20.361  1.00  0.00    -0.394 OA
ATOM     39  H   UNL     1     -12.155   2.275  20.365  1.00  0.00     0.210 HD
ENDBRANCH  37  38
ENDBRANCH  31  37
BRANCH  32  40
ATOM     40  O   UNL     1     -14.599  -0.726  22.365  1.00  0.00    -0.387 OA
ATOM     41  H   UNL     1     -15.314  -0.345  22.938  1.00  0.00     0.211 HD
ENDBRANCH  32  40
ENDBRANCH   1  27
TORSDOF 12
ENDMDL
MODEL 3
REMARK VINA RESULT:    -5.709      2.180      5.758
REMARK INTER + INTRA:          -8.964
REMARK INTER:                  -9.219
REMARK INTRA:                   0.255
REMARK UNBOUND:                -0.586
REMARK SMILES O=c1c(O[C@H]2O[C@H](CO)[C@H](O)[C@H](O)[C@H]2O)c(-c2ccc(O)c(O)c2)oc2cc(O)cc(O)c12
REMARK SMILES IDX 4 1 3 2 16 3 25 4 2 5 26 6 1 7 33 8 27 9 31 10 28 11 30 12
REMARK SMILES IDX 17 13 18 14 19 15 20 16 24 17 22 18 21 19 23 21 32 23 29 25
REMARK SMILES IDX 5 27 14 28 6 29 12 30 7 31 10 32 15 33 13 35 8 37 9 38 11 40
REMARK H PARENT 21 20 23 22 32 24 29 26 15 34 13 36 9 39 11 41
REMARK Flexibility Score: inf
ROOT
ATOM      1  O   UNL     1     -11.767   3.750  24.681  1.00  0.00    -0.454 OA
ENDROOT
BRANCH   1   2
ATOM      2  C   UNL     1     -10.384   3.514  24.733  1.00  0.00     0.214 A 
ATOM      3  C   UNL     1      -9.500   4.606  24.773  1.00  0.00     0.180 A 
ATOM      4  O   UNL     1      -8.193   4.397  24.871  1.00  0.00    -0.452 OA
ATOM      5  C   UNL     1      -9.850   2.212  24.736  1.00  0.00     0.239 A 
ATOM      6  C   UNL     1      -7.648   3.188  24.927  1.00  0.00     0.146 A 
ATOM      7  O   UNL     1     -10.621   1.237  24.542  1.00  0.00    -0.285 OA
ATOM      8  C   UNL     1      -8.457   2.023  24.894  1.00  0.00     0.111 A 
ATOM      9  C   UNL     1      -6.257   3.086  25.003  1.00  0.00     0.094 A 
ATOM     10  C   UNL     1      -7.819   0.750  24.989  1.00  0.00     0.134 A 
ATOM     11  C   UNL     1      -5.642   1.838  25.037  1.00  0.00     0.123 A 
ATOM     12  C   UNL     1      -6.421   0.678  25.025  1.00  0.00     0.093 A 
BRANCH   3  13
ATOM     13  C   UNL     1      -9.981   6.005  24.729  1.00  0.00     0.025 A 
ATOM     14  C   UNL     1     -11.320   6.306  24.428  1.00  0.00     0.016 A 
ATOM     15  C   UNL     1     -11.750   7.634  24.376  1.00  0.00     0.051 A 
ATOM     16  C   UNL     1     -10.847   8.679  24.610  1.00  0.00     0.157 A 
ATOM     17  C   UNL     1      -9.075   7.055  24.944  1.00  0.00     0.062 A 
ATOM     18  C   UNL     1      -9.502   8.387  24.893  1.00  0.00     0.158 A 
BRANCH  16  19
ATOM     19  O   UNL     1     -11.278  10.005  24.557  1.00  0.00    -0.504 OA
ATOM     20  H   UNL     1     -11.365  10.500  23.677  1.00  0.00     0.293 HD
ENDBRANCH  16  19
BRANCH  18  21
ATOM     21  O   UNL     1      -8.577   9.404  25.124  1.00  0.00    -0.504 OA
ATOM     22  H   UNL     1      -7.772   9.547  24.525  1.00  0.00     0.293 HD
ENDBRANCH  18  21
ENDBRANCH   3  13
BRANCH  10  23
ATOM     23  O   UNL     1      -8.509  -0.463  25.082  1.00  0.00    -0.507 OA
ATOM     24  H   UNL     1      -8.204  -1.331  24.668  1.00  0.00     0.293 HD
ENDBRANCH  10  23
BRANCH  11  25
ATOM     25  O   UNL     1      -4.251   1.760  25.092  1.00  0.00    -0.508 OA
ATOM     26  H   UNL     1      -3.688   2.539  25.412  1.00  0.00     0.293 HD
ENDBRANCH  11  25
ENDBRANCH   1   2
BRANCH   1  27
ATOM     27  C   UNL     1     -12.664   3.129  23.759  1.00  0.00     0.339 C 
ATOM     28  C   UNL     1     -13.558   4.210  23.129  1.00  0.00     0.214 C 
ATOM     29  O   UNL     1     -13.445   2.186  24.474  1.00  0.00    -0.332 OA
ATOM     30  C   UNL     1     -14.556   3.555  22.157  1.00  0.00     0.180 C 
ATOM     31  C   UNL     1     -14.338   1.465  23.634  1.00  0.00     0.179 C 
ATOM     32  C   UNL     1     -15.301   2.404  22.861  1.00  0.00     0.177 C 
BRANCH  28  33
ATOM     33  O   UNL     1     -14.246   4.895  24.144  1.00  0.00    -0.384 OA
ATOM     34  H   UNL     1     -14.265   4.295  24.934  1.00  0.00     0.211 HD
ENDBRANCH  28  33
BRANCH  30  35
ATOM     35  O   UNL     1     -13.887   3.076  21.018  1.00  0.00    -0.387 OA
ATOM     36  H   UNL     1     -14.441   2.341  20.647  1.00  0.00     0.211 HD
ENDBRANCH  30  35
BRANCH  31  37
ATOM     37  C   UNL     1     -13.612   0.418  22.755  1.00  0.00     0.191 C 
BRANCH  37  38
ATOM     38  O   UNL     1     -14.450  -0.678  22.513  1.00  0.00    -0.394 OA
ATOM     39  H   UNL     1     -15.347  -0.438  22.867  1.00  0.00     0.210 HD
ENDBRANCH  37  38
ENDBRANCH  31  37
BRANCH  32  40
ATOM     40  O   UNL     1     -16.068   1.671  21.940  1.00  0.00    -0.387 OA
ATOM     41  H   UNL     1     -15.515   0.897  21.655  1.00  0.00     0.211 HD
ENDBRANCH  32  40
ENDBRANCH   1  27
TORSDOF 12
ENDMDL
MODEL 4
REMARK VINA RESULT:    -5.425      2.115      5.106
REMARK INTER + INTRA:          -8.547
REMARK INTER:                  -8.204
REMARK INTRA:                  -0.343
REMARK UNBOUND:                -0.586
REMARK SMILES O=c1c(O[C@H]2O[C@H](CO)[C@H](O)[C@H](O)[C@H]2O)c(-c2ccc(O)c(O)c2)oc2cc(O)cc(O)c12
REMARK SMILES IDX 4 1 3 2 16 3 25 4 2 5 26 6 1 7 33 8 27 9 31 10 28 11 30 12
REMARK SMILES IDX 17 13 18 14 19 15 20 16 24 17 22 18 21 19 23 21 32 23 29 25
REMARK SMILES IDX 5 27 14 28 6 29 12 30 7 31 10 32 15 33 13 35 8 37 9 38 11 40
REMARK H PARENT 21 20 23 22 32 24 29 26 15 34 13 36 9 39 11 41
REMARK Flexibility Score: inf
ROOT
ATOM      1  O   UNL     1     -11.646   1.912  25.124  1.00  0.00    -0.454 OA
ENDROOT
BRANCH   1   2
ATOM      2  C   UNL     1     -10.445   2.508  24.705  1.00  0.00     0.214 A 
ATOM      3  C   UNL     1     -10.468   3.818  24.195  1.00  0.00     0.180 A 
ATOM      4  O   UNL     1      -9.334   4.411  23.842  1.00  0.00    -0.452 OA
ATOM      5  C   UNL     1      -9.214   1.831  24.771  1.00  0.00     0.239 A 
ATOM      6  C   UNL     1      -8.145   3.829  23.933  1.00  0.00     0.146 A 
ATOM      7  O   UNL     1      -9.206   0.610  25.077  1.00  0.00    -0.285 OA
ATOM      8  C   UNL     1      -8.018   2.509  24.436  1.00  0.00     0.111 A 
ATOM      9  C   UNL     1      -7.021   4.540  23.507  1.00  0.00     0.094 A 
ATOM     10  C   UNL     1      -6.712   1.945  24.541  1.00  0.00     0.134 A 
ATOM     11  C   UNL     1      -5.757   3.958  23.560  1.00  0.00     0.123 A 
ATOM     12  C   UNL     1      -5.607   2.666  24.071  1.00  0.00     0.093 A 
BRANCH   3  13
ATOM     13  C   UNL     1     -11.728   4.581  24.054  1.00  0.00     0.025 A 
ATOM     14  C   UNL     1     -11.931   5.789  24.743  1.00  0.00     0.016 A 
ATOM     15  C   UNL     1     -13.135   6.485  24.608  1.00  0.00     0.051 A 
ATOM     16  C   UNL     1     -14.157   5.978  23.795  1.00  0.00     0.157 A 
ATOM     17  C   UNL     1     -12.761   4.067  23.255  1.00  0.00     0.062 A 
ATOM     18  C   UNL     1     -13.969   4.761  23.117  1.00  0.00     0.158 A 
BRANCH  16  19
ATOM     19  O   UNL     1     -15.358   6.674  23.661  1.00  0.00    -0.504 OA
ATOM     20  H   UNL     1     -16.254   6.215  23.787  1.00  0.00     0.293 HD
ENDBRANCH  16  19
BRANCH  18  21
ATOM     21  O   UNL     1     -14.968   4.227  22.304  1.00  0.00    -0.504 OA
ATOM     22  H   UNL     1     -14.787   3.471  21.655  1.00  0.00     0.293 HD
ENDBRANCH  18  21
ENDBRANCH   3  13
BRANCH  10  23
ATOM     23  O   UNL     1      -6.444   0.702  25.125  1.00  0.00    -0.507 OA
ATOM     24  H   UNL     1      -6.044   0.573  26.042  1.00  0.00     0.293 HD
ENDBRANCH  10  23
BRANCH  11  25
ATOM     25  O   UNL     1      -4.651   4.677  23.111  1.00  0.00    -0.508 OA
ATOM     26  H   UNL     1      -4.517   5.651  23.354  1.00  0.00     0.293 HD
ENDBRANCH  11  25
ENDBRANCH   1   2
BRANCH   1  27
ATOM     27  C   UNL     1     -12.573   1.257  24.257  1.00  0.00     0.339 C 
ATOM     28  C   UNL     1     -12.993  -0.078  24.893  1.00  0.00     0.214 C 
ATOM     29  O   UNL     1     -11.932   1.041  23.012  1.00  0.00    -0.332 OA
ATOM     30  C   UNL     1     -13.967  -0.814  23.957  1.00  0.00     0.180 C 
ATOM     31  C   UNL     1     -12.792   0.442  22.049  1.00  0.00     0.179 C 
ATOM     32  C   UNL     1     -13.367  -0.912  22.541  1.00  0.00     0.177 C 
BRANCH  28  33
ATOM     33  O   UNL     1     -11.851  -0.863  25.122  1.00  0.00    -0.384 OA
ATOM     34  H   UNL     1     -11.945  -1.248  26.033  1.00  0.00     0.211 HD
ENDBRANCH  28  33
BRANCH  30  35
ATOM     35  O   UNL     1     -15.204  -0.148  23.914  1.00  0.00    -0.387 OA
ATOM     36  H   UNL     1     -15.051   0.766  24.271  1.00  0.00     0.211 HD
ENDBRANCH  30  35
BRANCH  31  37
ATOM     37  C   UNL     1     -13.849   1.431  21.501  1.00  0.00     0.191 C 
BRANCH  37  38
ATOM     38  O   UNL     1     -13.282   2.252  20.516  1.00  0.00    -0.394 OA
ATOM     39  H   UNL     1     -13.716   2.010  19.656  1.00  0.00     0.210 HD
ENDBRANCH  37  38
ENDBRANCH  31  37
BRANCH  32  40
ATOM     40  O   UNL     1     -14.317  -1.402  21.629  1.00  0.00    -0.387 OA
ATOM     41  H   UNL     1     -15.105  -1.691  22.159  1.00  0.00     0.211 HD
ENDBRANCH  32  40
ENDBRANCH   1  27
TORSDOF 12
ENDMDL
MODEL 5
REMARK VINA RESULT:    -5.221      1.547      4.337
REMARK INTER + INTRA:          -8.248
REMARK INTER:                  -8.165
REMARK INTRA:                  -0.083
REMARK UNBOUND:                -0.586
REMARK SMILES O=c1c(O[C@H]2O[C@H](CO)[C@H](O)[C@H](O)[C@H]2O)c(-c2ccc(O)c(O)c2)oc2cc(O)cc(O)c12
REMARK SMILES IDX 4 1 3 2 16 3 25 4 2 5 26 6 1 7 33 8 27 9 31 10 28 11 30 12
REMARK SMILES IDX 17 13 18 14 19 15 20 16 24 17 22 18 21 19 23 21 32 23 29 25
REMARK SMILES IDX 5 27 14 28 6 29 12 30 7 31 10 32 15 33 13 35 8 37 9 38 11 40
REMARK H PARENT 21 20 23 22 32 24 29 26 15 34 13 36 9 39 11 41
REMARK Flexibility Score: inf
ROOT
ATOM      1  O   UNL     1     -11.394   2.116  22.675  1.00  0.00    -0.454 OA
ENDROOT
BRANCH   1   2
ATOM      2  C   UNL     1     -11.358   3.465  23.065  1.00  0.00     0.214 A 
ATOM      3  C   UNL     1     -12.524   4.245  22.958  1.00  0.00     0.180 A 
ATOM      4  O   UNL     1     -12.516   5.506  23.369  1.00  0.00    -0.452 OA
ATOM      5  C   UNL     1     -10.185   4.068  23.554  1.00  0.00     0.239 A 
ATOM      6  C   UNL     1     -11.447   6.102  23.882  1.00  0.00     0.146 A 
ATOM      7  O   UNL     1      -9.104   3.426  23.506  1.00  0.00    -0.285 OA
ATOM      8  C   UNL     1     -10.224   5.399  24.032  1.00  0.00     0.111 A 
ATOM      9  C   UNL     1     -11.547   7.444  24.258  1.00  0.00     0.094 A 
ATOM     10  C   UNL     1      -9.117   6.081  24.619  1.00  0.00     0.134 A 
ATOM     11  C   UNL     1     -10.444   8.116  24.776  1.00  0.00     0.123 A 
ATOM     12  C   UNL     1      -9.235   7.436  24.950  1.00  0.00     0.093 A 
BRANCH   3  13
ATOM     13  C   UNL     1     -13.785   3.695  22.413  1.00  0.00     0.025 A 
ATOM     14  C   UNL     1     -13.896   3.324  21.062  1.00  0.00     0.016 A 
ATOM     15  C   UNL     1     -15.101   2.823  20.564  1.00  0.00     0.051 A 
ATOM     16  C   UNL     1     -16.215   2.698  21.405  1.00  0.00     0.157 A 
ATOM     17  C   UNL     1     -14.909   3.587  23.246  1.00  0.00     0.062 A 
ATOM     18  C   UNL     1     -16.118   3.085  22.752  1.00  0.00     0.158 A 
BRANCH  16  19
ATOM     19  O   UNL     1     -17.418   2.198  20.906  1.00  0.00    -0.504 OA
ATOM     20  H   UNL     1     -17.467   1.295  20.447  1.00  0.00     0.293 HD
ENDBRANCH  16  19
BRANCH  18  21
ATOM     21  O   UNL     1     -17.210   2.980  23.612  1.00  0.00    -0.504 OA
ATOM     22  H   UNL     1     -17.617   2.085  23.858  1.00  0.00     0.293 HD
ENDBRANCH  18  21
ENDBRANCH   3  13
BRANCH  10  23
ATOM     23  O   UNL     1      -7.897   5.467  24.925  1.00  0.00    -0.507 OA
ATOM     24  H   UNL     1      -7.759   4.471  25.003  1.00  0.00     0.293 HD
ENDBRANCH  10  23
BRANCH  11  25
ATOM     25  O   UNL     1     -10.560   9.460  25.124  1.00  0.00    -0.508 OA
ATOM     26  H   UNL     1     -11.375   9.812  25.613  1.00  0.00     0.293 HD
ENDBRANCH  11  25
ENDBRANCH   1   2
BRANCH   1  27
ATOM     27  C   UNL     1     -12.391   1.179  23.083  1.00  0.00     0.339 C 
ATOM     28  C   UNL     1     -12.113   0.754  24.534  1.00  0.00     0.214 C 
ATOM     29  O   UNL     1     -12.326   0.063  22.211  1.00  0.00    -0.332 OA
ATOM     30  C   UNL     1     -13.158  -0.283  24.980  1.00  0.00     0.180 C 
ATOM     31  C   UNL     1     -13.322  -0.913  22.495  1.00  0.00     0.179 C 
ATOM     32  C   UNL     1     -13.234  -1.432  23.955  1.00  0.00     0.177 C 
BRANCH  28  33
ATOM     33  O   UNL     1     -10.820   0.211  24.620  1.00  0.00    -0.384 OA
ATOM     34  H   UNL     1     -10.290   0.819  25.197  1.00  0.00     0.211 HD
ENDBRANCH  28  33
BRANCH  30  35
ATOM     35  O   UNL     1     -14.418   0.322  25.125  1.00  0.00    -0.387 OA
ATOM     36  H   UNL     1     -14.726   0.129  26.049  1.00  0.00     0.211 HD
ENDBRANCH  30  35
BRANCH  31  37
ATOM     37  C   UNL     1     -14.735  -0.464  22.053  1.00  0.00     0.191 C 
BRANCH  37  38
ATOM     38  O   UNL     1     -15.589  -0.384  23.161  1.00  0.00    -0.394 OA
ATOM     39  H   UNL     1     -16.422   0.058  22.850  1.00  0.00     0.210 HD
ENDBRANCH  37  38
ENDBRANCH  31  37
BRANCH  32  40
ATOM     40  O   UNL     1     -14.315  -2.283  24.239  1.00  0.00    -0.387 OA
ATOM     41  H   UNL     1     -15.095  -1.703  24.439  1.00  0.00     0.211 HD
ENDBRANCH  32  40
ENDBRANCH   1  27
TORSDOF 12
ENDMDL
MODEL 6
REMARK VINA RESULT:    -4.813      2.325      3.316
REMARK INTER + INTRA:          -7.650
REMARK INTER:                  -7.133
REMARK INTRA:                  -0.517
REMARK UNBOUND:                -0.586
REMARK SMILES O=c1c(O[C@H]2O[C@H](CO)[C@H](O)[C@H](O)[C@H]2O)c(-c2ccc(O)c(O)c2)oc2cc(O)cc(O)c12
REMARK SMILES IDX 4 1 3 2 16 3 25 4 2 5 26 6 1 7 33 8 27 9 31 10 28 11 30 12
REMARK SMILES IDX 17 13 18 14 19 15 20 16 24 17 22 18 21 19 23 21 32 23 29 25
REMARK SMILES IDX 5 27 14 28 6 29 12 30 7 31 10 32 15 33 13 35 8 37 9 38 11 40
REMARK H PARENT 21 20 23 22 32 24 29 26 15 34 13 36 9 39 11 41
REMARK Flexibility Score: inf
ROOT
ATOM      1  O   UNL     1     -13.508   2.518  21.252  1.00  0.00    -0.454 OA
ENDROOT
BRANCH   1   2
ATOM      2  C   UNL     1     -12.569   3.312  21.929  1.00  0.00     0.214 A 
ATOM      3  C   UNL     1     -11.202   2.998  21.831  1.00  0.00     0.180 A 
ATOM      4  O   UNL     1     -10.301   3.770  22.425  1.00  0.00    -0.452 OA
ATOM      5  C   UNL     1     -12.954   4.414  22.715  1.00  0.00     0.239 A 
ATOM      6  C   UNL     1     -10.615   4.846  23.135  1.00  0.00     0.146 A 
ATOM      7  O   UNL     1     -14.178   4.608  22.935  1.00  0.00    -0.285 OA
ATOM      8  C   UNL     1     -11.967   5.247  23.292  1.00  0.00     0.111 A 
ATOM      9  C   UNL     1      -9.584   5.570  23.739  1.00  0.00     0.094 A 
ATOM     10  C   UNL     1     -12.242   6.430  24.039  1.00  0.00     0.134 A 
ATOM     11  C   UNL     1      -9.869   6.691  24.514  1.00  0.00     0.123 A 
ATOM     12  C   UNL     1     -11.193   7.114  24.665  1.00  0.00     0.093 A 
BRANCH   3  13
ATOM     13  C   UNL     1     -10.721   1.830  21.060  1.00  0.00     0.025 A 
ATOM     14  C   UNL     1      -9.824   1.983  19.989  1.00  0.00     0.016 A 
ATOM     15  C   UNL     1      -9.395   0.868  19.264  1.00  0.00     0.051 A 
ATOM     16  C   UNL     1      -9.866  -0.410  19.588  1.00  0.00     0.157 A 
ATOM     17  C   UNL     1     -11.206   0.550  21.369  1.00  0.00     0.062 A 
ATOM     18  C   UNL     1     -10.779  -0.569  20.645  1.00  0.00     0.158 A 
BRANCH  16  19
ATOM     19  O   UNL     1      -9.437  -1.522  18.862  1.00  0.00    -0.504 OA
ATOM     20  H   UNL     1     -10.094  -2.201  18.494  1.00  0.00     0.293 HD
ENDBRANCH  16  19
BRANCH  18  21
ATOM     21  O   UNL     1     -11.272  -1.827  20.989  1.00  0.00    -0.504 OA
ATOM     22  H   UNL     1     -10.699  -2.520  21.456  1.00  0.00     0.293 HD
ENDBRANCH  18  21
ENDBRANCH   3  13
BRANCH  10  23
ATOM     23  O   UNL     1     -13.518   6.991  24.169  1.00  0.00    -0.507 OA
ATOM     24  H   UNL     1     -14.329   6.698  23.647  1.00  0.00     0.293 HD
ENDBRANCH  10  23
BRANCH  11  25
ATOM     25  O   UNL     1      -8.827   7.386  25.125  1.00  0.00    -0.508 OA
ATOM     26  H   UNL     1      -8.213   7.994  24.596  1.00  0.00     0.293 HD
ENDBRANCH  11  25
ENDBRANCH   1   2
BRANCH   1  27
ATOM     27  C   UNL     1     -14.432   1.633  21.886  1.00  0.00     0.339 C 
ATOM     28  C   UNL     1     -15.843   1.912  21.344  1.00  0.00     0.214 C 
ATOM     29  O   UNL     1     -14.376   1.868  23.283  1.00  0.00    -0.332 OA
ATOM     30  C   UNL     1     -16.859   0.991  22.042  1.00  0.00     0.180 C 
ATOM     31  C   UNL     1     -15.222   0.994  24.021  1.00  0.00     0.179 C 
ATOM     32  C   UNL     1     -16.703   1.096  23.572  1.00  0.00     0.177 C 
BRANCH  28  33
ATOM     33  O   UNL     1     -16.171   3.259  21.571  1.00  0.00    -0.384 OA
ATOM     34  H   UNL     1     -16.458   3.637  20.699  1.00  0.00     0.211 HD
ENDBRANCH  28  33
BRANCH  30  35
ATOM     35  O   UNL     1     -16.681  -0.339  21.626  1.00  0.00    -0.387 OA
ATOM     36  H   UNL     1     -16.381  -0.852  22.421  1.00  0.00     0.211 HD
ENDBRANCH  30  35
BRANCH  31  37
ATOM     37  C   UNL     1     -14.666  -0.449  24.092  1.00  0.00     0.191 C 
BRANCH  37  38
ATOM     38  O   UNL     1     -15.343  -1.183  25.076  1.00  0.00    -0.394 OA
ATOM     39  H   UNL     1     -16.313  -1.017  24.940  1.00  0.00     0.210 HD
ENDBRANCH  37  38
ENDBRANCH  31  37
BRANCH  32  40
ATOM     40  O   UNL     1     -17.481   0.121  24.220  1.00  0.00    -0.387 OA
ATOM     41  H   UNL     1     -17.132   0.042  25.146  1.00  0.00     0.211 HD
ENDBRANCH  32  40
ENDBRANCH   1  27
TORSDOF 12
ENDMDL
MODEL 7
REMARK VINA RESULT:    -4.253      1.063      2.080
REMARK INTER + INTRA:          -6.828
REMARK INTER:                  -7.455
REMARK INTRA:                   0.626
REMARK UNBOUND:                -0.586
REMARK SMILES O=c1c(O[C@H]2O[C@H](CO)[C@H](O)[C@H](O)[C@H]2O)c(-c2ccc(O)c(O)c2)oc2cc(O)cc(O)c12
REMARK SMILES IDX 4 1 3 2 16 3 25 4 2 5 26 6 1 7 33 8 27 9 31 10 28 11 30 12
REMARK SMILES IDX 17 13 18 14 19 15 20 16 24 17 22 18 21 19 23 21 32 23 29 25
REMARK SMILES IDX 5 27 14 28 6 29 12 30 7 31 10 32 15 33 13 35 8 37 9 38 11 40
REMARK H PARENT 21 20 23 22 32 24 29 26 15 34 13 36 9 39 11 41
REMARK Flexibility Score: inf
ROOT
ATOM      1  O   UNL     1     -14.090   3.271  24.426  1.00  0.00    -0.454 OA
ENDROOT
BRANCH   1   2
ATOM      2  C   UNL     1     -12.692   3.398  24.432  1.00  0.00     0.214 A 
ATOM      3  C   UNL     1     -11.895   2.252  24.261  1.00  0.00     0.180 A 
ATOM      4  O   UNL     1     -10.574   2.366  24.216  1.00  0.00    -0.452 OA
ATOM      5  C   UNL     1     -12.057   4.641  24.615  1.00  0.00     0.239 A 
ATOM      6  C   UNL     1      -9.934   3.522  24.335  1.00  0.00     0.146 A 
ATOM      7  O   UNL     1     -12.755   5.641  24.925  1.00  0.00    -0.285 OA
ATOM      8  C   UNL     1     -10.650   4.735  24.510  1.00  0.00     0.111 A 
ATOM      9  C   UNL     1      -8.538   3.519  24.298  1.00  0.00     0.094 A 
ATOM     10  C   UNL     1      -9.912   5.952  24.600  1.00  0.00     0.134 A 
ATOM     11  C   UNL     1      -7.826   4.706  24.445  1.00  0.00     0.123 A 
ATOM     12  C   UNL     1      -8.512   5.914  24.599  1.00  0.00     0.093 A 
BRANCH   3  13
ATOM     13  C   UNL     1     -12.486   0.904  24.106  1.00  0.00     0.025 A 
ATOM     14  C   UNL     1     -13.267   0.329  25.123  1.00  0.00     0.016 A 
ATOM     15  C   UNL     1     -13.801  -0.952  24.964  1.00  0.00     0.051 A 
ATOM     16  C   UNL     1     -13.553  -1.680  23.793  1.00  0.00     0.157 A 
ATOM     17  C   UNL     1     -12.223   0.163  22.944  1.00  0.00     0.062 A 
ATOM     18  C   UNL     1     -12.757  -1.120  22.780  1.00  0.00     0.158 A 
BRANCH  16  19
ATOM     19  O   UNL     1     -14.087  -2.959  23.635  1.00  0.00    -0.504 OA
ATOM     20  H   UNL     1     -14.385  -3.302  22.729  1.00  0.00     0.293 HD
ENDBRANCH  16  19
BRANCH  18  21
ATOM     21  O   UNL     1     -12.486  -1.821  21.605  1.00  0.00    -0.504 OA
ATOM     22  H   UNL     1     -13.021  -1.678  20.757  1.00  0.00     0.293 HD
ENDBRANCH  18  21
ENDBRANCH   3  13
BRANCH  10  23
ATOM     23  O   UNL     1     -10.502   7.219  24.658  1.00  0.00    -0.507 OA
ATOM     24  H   UNL     1     -11.295   7.509  24.106  1.00  0.00     0.293 HD
ENDBRANCH  10  23
BRANCH  11  25
ATOM     25  O   UNL     1      -6.433   4.678  24.427  1.00  0.00    -0.508 OA
ATOM     26  H   UNL     1      -5.882   5.496  24.660  1.00  0.00     0.293 HD
ENDBRANCH  11  25
ENDBRANCH   1   2
BRANCH   1  27
ATOM     27  C   UNL     1     -14.882   3.065  23.255  1.00  0.00     0.339 C 
ATOM     28  C   UNL     1     -16.349   2.875  23.672  1.00  0.00     0.214 C 
ATOM     29  O   UNL     1     -14.394   1.909  22.594  1.00  0.00    -0.332 OA
ATOM     30  C   UNL     1     -17.214   2.617  22.426  1.00  0.00     0.180 C 
ATOM     31  C   UNL     1     -15.081   1.644  21.376  1.00  0.00     0.179 C 
ATOM     32  C   UNL     1     -16.608   1.472  21.590  1.00  0.00     0.177 C 
BRANCH  28  33
ATOM     33  O   UNL     1     -16.444   1.792  24.563  1.00  0.00    -0.384 OA
ATOM     34  H   UNL     1     -15.890   1.060  24.185  1.00  0.00     0.211 HD
ENDBRANCH  28  33
BRANCH  30  35
ATOM     35  O   UNL     1     -17.315   3.784  21.650  1.00  0.00    -0.387 OA
ATOM     36  H   UNL     1     -17.074   4.544  22.241  1.00  0.00     0.211 HD
ENDBRANCH  30  35
BRANCH  31  37
ATOM     37  C   UNL     1     -14.694   2.633  20.250  1.00  0.00     0.191 C 
BRANCH  37  38
ATOM     38  O   UNL     1     -13.308   2.842  20.240  1.00  0.00    -0.394 OA
ATOM     39  H   UNL     1     -12.883   1.944  20.250  1.00  0.00     0.210 HD
ENDBRANCH  37  38
ENDBRANCH  31  37
BRANCH  32  40
ATOM     40  O   UNL     1     -17.266   1.354  20.355  1.00  0.00    -0.387 OA
ATOM     41  H   UNL     1     -16.737   0.721  19.804  1.00  0.00     0.211 HD
ENDBRANCH  32  40
ENDBRANCH   1  27
TORSDOF 12
ENDMDL
