MODEL 1
REMARK VINA RESULT:    -3.700      0.000      0.000
REMARK INTER + INTRA:          -6.058
REMARK INTER:                  -5.647
REMARK INTRA:                  -0.411
REMARK UNBOUND:                -0.411
REMARK SMILES CC1=CCC[C@@H](C)C(=O)C[C@@H](C(C)C)C(=O)C1
REMARK SMILES IDX 8 1 9 2 6 3 7 4 5 5 4 6 3 7 2 8 1 9 10 11 11 12 15 13 16 14
REMARK SMILES IDX 17 15 12 17 13 18 14 19
REMARK H PARENT
REMARK Flexibility Score: 70.00
ROOT
ATOM      1  C   UNL     1       7.266   1.710  -6.553  1.00  0.00     0.136 C 
ATOM      2  O   UNL     1       6.796   0.847  -5.825  1.00  0.00    -0.299 OA
ENDROOT
BRANCH   1   3
ATOM      3  C   UNL     1       8.232   2.719  -5.960  1.00  0.00     0.053 C 
ATOM      4  C   UNL     1       9.455   2.021  -5.354  1.00  0.00     0.016 C 
BRANCH   3   5
ATOM      5  C   UNL     1       7.538   3.623  -4.925  1.00  0.00     0.015 C 
BRANCH   5   6
ATOM      6  C   UNL     1       6.278   4.295  -5.501  1.00  0.00     0.028 C 
BRANCH   6   7
ATOM      7  C   UNL     1       6.634   5.512  -6.314  1.00  0.00    -0.028 C 
ATOM      8  C   UNL     1       6.440   5.628  -7.648  1.00  0.00    -0.070 CG0
ATOM      9  C   UNL     1       6.813   6.932  -8.307  1.00  0.00     0.039 C 
ATOM     10  G   UNL     1       5.874   4.505  -8.505  1.00  0.00     0.000 G0
ENDBRANCH   6   7
ENDBRANCH   5   6
ENDBRANCH   3   5
ENDBRANCH   1   3
BRANCH   1  11
ATOM     11  C   UNL     1       6.835   1.746  -8.004  1.00  0.00     0.087 C 
BRANCH  11  12
ATOM     12  C   UNL     1       7.735   2.677  -8.863  1.00  0.00     0.066 C 
BRANCH  12  13
ATOM     13  C   UNL     1       6.903   3.839  -9.383  1.00  0.00     0.140 C 
ATOM     14  O   UNL     1       7.145   4.302 -10.490  1.00  0.00    -0.299 OA
BRANCH  13  15
ATOM     15  C   UNL     1       5.866   4.503  -8.513  1.00  0.00     0.106 CG0
ATOM     16  G   UNL     1       6.457   5.614  -7.658  1.00  0.00     0.000 G0
ENDBRANCH  13  15
ENDBRANCH  12  13
BRANCH  12  17
ATOM     17  C   UNL     1       8.422   1.920 -10.047  1.00  0.00    -0.006 C 
ATOM     18  C   UNL     1       9.879   1.547  -9.707  1.00  0.00     0.008 C 
ATOM     19  C   UNL     1       7.667   0.633 -10.435  1.00  0.00     0.008 C 
ENDBRANCH  12  17
ENDBRANCH  11  12
ENDBRANCH   1  11
TORSDOF 1
ENDMDL
MODEL 2
REMARK VINA RESULT:    -3.614      2.143      4.086
REMARK INTER + INTRA:          -5.926
REMARK INTER:                  -5.658
REMARK INTRA:                  -0.268
REMARK UNBOUND:                -0.411
REMARK SMILES CC1=CCC[C@@H](C)C(=O)C[C@@H](C(C)C)C(=O)C1
REMARK SMILES IDX 8 1 9 2 6 3 7 4 5 5 4 6 3 7 2 8 1 9 10 11 11 12 15 13 16 14
REMARK SMILES IDX 17 15 12 17 13 18 14 19
REMARK H PARENT
REMARK Flexibility Score: 70.00
ROOT
ATOM      1  C   UNL     1       7.419   5.031  -7.786  1.00  0.00     0.136 C 
ATOM      2  O   UNL     1       8.627   5.226  -7.758  1.00  0.00    -0.299 OA
ENDROOT
BRANCH   1   3
ATOM      3  C   UNL     1       6.674   4.881  -6.472  1.00  0.00     0.053 C 
ATOM      4  C   UNL     1       6.332   6.250  -5.873  1.00  0.00     0.016 C 
BRANCH   3   5
ATOM      5  C   UNL     1       7.464   4.017  -5.472  1.00  0.00     0.015 C 
BRANCH   5   6
ATOM      6  C   UNL     1       7.275   2.512  -5.737  1.00  0.00     0.028 C 
BRANCH   6   7
ATOM      7  C   UNL     1       8.397   1.963  -6.579  1.00  0.00    -0.028 C 
ATOM      8  C   UNL     1       8.246   1.467  -7.829  1.00  0.00    -0.070 CG0
ATOM      9  C   UNL     1       9.479   0.995  -8.557  1.00  0.00     0.039 C 
ATOM     10  G   UNL     1       6.896   1.361  -8.522  1.00  0.00     0.000 G0
ENDBRANCH   6   7
ENDBRANCH   5   6
ENDBRANCH   3   5
ENDBRANCH   1   3
BRANCH   1  11
ATOM     11  C   UNL     1       6.735   4.919  -9.131  1.00  0.00     0.087 C 
BRANCH  11  12
ATOM     12  C   UNL     1       5.826   3.663  -9.227  1.00  0.00     0.066 C 
BRANCH  12  13
ATOM     13  C   UNL     1       6.680   2.447  -9.552  1.00  0.00     0.140 C 
ATOM     14  O   UNL     1       7.114   2.305 -10.687  1.00  0.00    -0.299 OA
BRANCH  13  15
ATOM     15  C   UNL     1       6.904   1.361  -8.531  1.00  0.00     0.106 CG0
ATOM     16  G   UNL     1       8.249   1.496  -7.831  1.00  0.00     0.000 G0
ENDBRANCH  13  15
ENDBRANCH  12  13
BRANCH  12  17
ATOM     17  C   UNL     1       4.683   3.828 -10.282  1.00  0.00    -0.006 C 
ATOM     18  C   UNL     1       3.300   3.528  -9.668  1.00  0.00     0.008 C 
ATOM     19  C   UNL     1       4.649   5.245 -10.890  1.00  0.00     0.008 C 
ENDBRANCH  12  17
ENDBRANCH  11  12
ENDBRANCH   1  11
TORSDOF 1
ENDMDL
MODEL 3
REMARK VINA RESULT:    -3.534      1.967      4.969
REMARK INTER + INTRA:          -5.804
REMARK INTER:                  -5.690
REMARK INTRA:                  -0.114
REMARK UNBOUND:                -0.411
REMARK SMILES CC1=CCC[C@@H](C)C(=O)C[C@@H](C(C)C)C(=O)C1
REMARK SMILES IDX 8 1 9 2 6 3 7 4 5 5 4 6 3 7 2 8 1 9 10 11 11 12 15 13 16 14
REMARK SMILES IDX 17 15 12 17 13 18 14 19
REMARK H PARENT
REMARK Flexibility Score: 70.00
ROOT
ATOM      1  C   UNL     1       6.409   4.915  -7.191  1.00  0.00     0.136 C 
ATOM      2  O   UNL     1       6.702   6.011  -6.734  1.00  0.00    -0.299 OA
ENDROOT
BRANCH   1   3
ATOM      3  C   UNL     1       6.270   4.766  -8.695  1.00  0.00     0.053 C 
ATOM      4  C   UNL     1       5.300   3.632  -9.050  1.00  0.00     0.016 C 
BRANCH   3   5
ATOM      5  C   UNL     1       7.638   4.559  -9.370  1.00  0.00     0.015 C 
BRANCH   5   6
ATOM      6  C   UNL     1       7.723   3.203 -10.095  1.00  0.00     0.028 C 
BRANCH   6   7
ATOM      7  C   UNL     1       8.812   2.342  -9.510  1.00  0.00    -0.028 C 
ATOM      8  C   UNL     1       8.621   1.411  -8.547  1.00  0.00    -0.070 CG0
ATOM      9  C   UNL     1       9.811   0.601  -8.098  1.00  0.00     0.039 C 
ATOM     10  G   UNL     1       7.269   1.155  -7.898  1.00  0.00     0.000 G0
ENDBRANCH   6   7
ENDBRANCH   5   6
ENDBRANCH   3   5
ENDBRANCH   1   3
BRANCH   1  11
ATOM     11  C   UNL     1       6.170   3.770  -6.231  1.00  0.00     0.087 C 
BRANCH  11  12
ATOM     12  C   UNL     1       7.456   2.936  -5.977  1.00  0.00     0.066 C 
BRANCH  12  13
ATOM     13  C   UNL     1       7.222   1.502  -6.428  1.00  0.00     0.140 C 
ATOM     14  O   UNL     1       7.101   0.621  -5.588  1.00  0.00    -0.299 OA
BRANCH  13  15
ATOM     15  C   UNL     1       7.253   1.133  -7.889  1.00  0.00     0.106 CG0
ATOM     16  G   UNL     1       8.608   1.408  -8.524  1.00  0.00     0.000 G0
ENDBRANCH  13  15
ENDBRANCH  12  13
BRANCH  12  17
ATOM     17  C   UNL     1       7.909   2.973  -4.480  1.00  0.00    -0.006 C 
ATOM     18  C   UNL     1       9.430   2.760  -4.346  1.00  0.00     0.008 C 
ATOM     19  C   UNL     1       7.541   4.303  -3.791  1.00  0.00     0.008 C 
ENDBRANCH  12  17
ENDBRANCH  11  12
ENDBRANCH   1  11
TORSDOF 1
ENDMDL
MODEL 4
REMARK VINA RESULT:    -3.440      2.078      3.914
REMARK INTER + INTRA:          -5.661
REMARK INTER:                  -5.606
REMARK INTRA:                  -0.056
REMARK UNBOUND:                -0.411
REMARK SMILES CC1=CCC[C@@H](C)C(=O)C[C@@H](C(C)C)C(=O)C1
REMARK SMILES IDX 8 1 9 2 6 3 7 4 5 5 4 6 3 7 2 8 1 9 10 11 11 12 15 13 16 14
REMARK SMILES IDX 17 15 12 17 13 18 14 19
REMARK H PARENT
REMARK Flexibility Score: 70.00
ROOT
ATOM      1  C   UNL     1       7.467   5.170  -8.034  1.00  0.00     0.136 C 
ATOM      2  O   UNL     1       8.637   5.453  -7.816  1.00  0.00    -0.299 OA
ENDROOT
BRANCH   1   3
ATOM      3  C   UNL     1       6.399   5.722  -7.108  1.00  0.00     0.053 C 
ATOM      4  C   UNL     1       6.178   7.220  -7.351  1.00  0.00     0.016 C 
BRANCH   3   5
ATOM      5  C   UNL     1       6.733   5.441  -5.631  1.00  0.00     0.015 C 
BRANCH   5   6
ATOM      6  C   UNL     1       6.344   4.010  -5.216  1.00  0.00     0.028 C 
BRANCH   6   7
ATOM      7  C   UNL     1       7.561   3.204  -4.842  1.00  0.00    -0.028 C 
ATOM      8  C   UNL     1       7.968   2.085  -5.485  1.00  0.00    -0.070 CG0
ATOM      9  C   UNL     1       9.234   1.417  -5.012  1.00  0.00     0.039 C 
ATOM     10  G   UNL     1       7.204   1.474  -6.651  1.00  0.00     0.000 G0
ENDBRANCH   6   7
ENDBRANCH   5   6
ENDBRANCH   3   5
ENDBRANCH   1   3
BRANCH   1  11
ATOM     11  C   UNL     1       7.147   4.259  -9.199  1.00  0.00     0.087 C 
BRANCH  11  12
ATOM     12  C   UNL     1       6.516   2.916  -8.741  1.00  0.00     0.066 C 
BRANCH  12  13
ATOM     13  C   UNL     1       7.554   2.108  -7.978  1.00  0.00     0.140 C 
ATOM     14  O   UNL     1       8.648   1.903  -8.486  1.00  0.00    -0.299 OA
BRANCH  13  15
ATOM     15  C   UNL     1       7.217   1.459  -6.659  1.00  0.00     0.106 CG0
ATOM     16  G   UNL     1       7.969   2.092  -5.497  1.00  0.00     0.000 G0
ENDBRANCH  13  15
ENDBRANCH  12  13
BRANCH  12  17
ATOM     17  C   UNL     1       5.943   2.084  -9.936  1.00  0.00    -0.006 C 
ATOM     18  C   UNL     1       5.690   0.617  -9.531  1.00  0.00     0.008 C 
ATOM     19  C   UNL     1       4.626   2.674 -10.480  1.00  0.00     0.008 C 
ENDBRANCH  12  17
ENDBRANCH  11  12
ENDBRANCH   1  11
TORSDOF 1
ENDMDL
MODEL 5
REMARK VINA RESULT:    -3.390      1.638      2.163
REMARK INTER + INTRA:          -5.585
REMARK INTER:                  -5.274
REMARK INTRA:                  -0.311
REMARK UNBOUND:                -0.411
REMARK SMILES CC1=CCC[C@@H](C)C(=O)C[C@@H](C(C)C)C(=O)C1
REMARK SMILES IDX 8 1 9 2 6 3 7 4 5 5 4 6 3 7 2 8 1 9 10 11 11 12 15 13 16 14
REMARK SMILES IDX 17 15 12 17 13 18 14 19
REMARK H PARENT
REMARK Flexibility Score: 70.00
ROOT
ATOM      1  C   UNL     1       6.133   3.355  -6.322  1.00  0.00     0.136 C 
ATOM      2  O   UNL     1       5.633   2.602  -5.497  1.00  0.00    -0.299 OA
ENDROOT
BRANCH   1   3
ATOM      3  C   UNL     1       7.000   4.500  -5.832  1.00  0.00     0.053 C 
ATOM      4  C   UNL     1       7.313   4.357  -4.338  1.00  0.00     0.016 C 
BRANCH   3   5
ATOM      5  C   UNL     1       6.355   5.865  -6.137  1.00  0.00     0.015 C 
BRANCH   5   6
ATOM      6  C   UNL     1       7.142   6.648  -7.204  1.00  0.00     0.028 C 
BRANCH   6   7
ATOM      7  C   UNL     1       6.245   7.081  -8.333  1.00  0.00    -0.028 C 
ATOM      8  C   UNL     1       6.291   6.576  -9.588  1.00  0.00    -0.070 CG0
ATOM      9  C   UNL     1       5.292   7.087 -10.595  1.00  0.00     0.039 C 
ATOM     10  G   UNL     1       7.304   5.527 -10.023  1.00  0.00     0.000 G0
ENDBRANCH   6   7
ENDBRANCH   5   6
ENDBRANCH   3   5
ENDBRANCH   1   3
BRANCH   1  11
ATOM     11  C   UNL     1       5.836   3.123  -7.788  1.00  0.00     0.087 C 
BRANCH  11  12
ATOM     12  C   UNL     1       7.102   3.271  -8.676  1.00  0.00     0.066 C 
BRANCH  12  13
ATOM     13  C   UNL     1       6.766   4.120  -9.892  1.00  0.00     0.140 C 
ATOM     14  O   UNL     1       6.133   3.625 -10.814  1.00  0.00    -0.299 OA
BRANCH  13  15
ATOM     15  C   UNL     1       7.299   5.524 -10.029  1.00  0.00     0.106 CG0
ATOM     16  G   UNL     1       6.282   6.571  -9.597  1.00  0.00     0.000 G0
ENDBRANCH  13  15
ENDBRANCH  12  13
BRANCH  12  17
ATOM     17  C   UNL     1       7.690   1.889  -9.117  1.00  0.00    -0.006 C 
ATOM     18  C   UNL     1       8.977   1.550  -8.338  1.00  0.00     0.008 C 
ATOM     19  C   UNL     1       6.684   0.737  -8.922  1.00  0.00     0.008 C 
ENDBRANCH  12  17
ENDBRANCH  11  12
ENDBRANCH   1  11
TORSDOF 1
ENDMDL
MODEL 6
REMARK VINA RESULT:    -3.383      1.641      3.860
REMARK INTER + INTRA:          -5.573
REMARK INTER:                  -5.386
REMARK INTRA:                  -0.187
REMARK UNBOUND:                -0.411
REMARK SMILES CC1=CCC[C@@H](C)C(=O)C[C@@H](C(C)C)C(=O)C1
REMARK SMILES IDX 8 1 9 2 6 3 7 4 5 5 4 6 3 7 2 8 1 9 10 11 11 12 15 13 16 14
REMARK SMILES IDX 17 15 12 17 13 18 14 19
REMARK H PARENT
REMARK Flexibility Score: 70.00
ROOT
ATOM      1  C   UNL     1       8.382   1.451  -7.244  1.00  0.00     0.136 C 
ATOM      2  O   UNL     1       8.226   0.621  -6.360  1.00  0.00    -0.299 OA
ENDROOT
BRANCH   1   3
ATOM      3  C   UNL     1       8.375   0.987  -8.689  1.00  0.00     0.053 C 
ATOM      4  C   UNL     1       9.478   1.682  -9.497  1.00  0.00     0.016 C 
BRANCH   3   5
ATOM      5  C   UNL     1       6.995   1.192  -9.340  1.00  0.00     0.015 C 
BRANCH   5   6
ATOM      6  C   UNL     1       7.062   2.154 -10.541  1.00  0.00     0.028 C 
BRANCH   6   7
ATOM      7  C   UNL     1       6.045   3.257 -10.411  1.00  0.00    -0.028 C 
ATOM      8  C   UNL     1       6.310   4.492  -9.927  1.00  0.00    -0.070 CG0
ATOM      9  C   UNL     1       5.188   5.499  -9.902  1.00  0.00     0.039 C 
ATOM     10  G   UNL     1       7.679   4.902  -9.403  1.00  0.00     0.000 G0
ENDBRANCH   6   7
ENDBRANCH   5   6
ENDBRANCH   3   5
ENDBRANCH   1   3
BRANCH   1  11
ATOM     11  C   UNL     1       8.606   2.895  -6.850  1.00  0.00     0.087 C 
BRANCH  11  12
ATOM     12  C   UNL     1       7.329   3.760  -7.029  1.00  0.00     0.066 C 
BRANCH  12  13
ATOM     13  C   UNL     1       7.665   4.986  -7.864  1.00  0.00     0.140 C 
ATOM     14  O   UNL     1       7.843   6.061  -7.307  1.00  0.00    -0.299 OA
BRANCH  13  15
ATOM     15  C   UNL     1       7.669   4.923  -9.370  1.00  0.00     0.106 CG0
ATOM     16  G   UNL     1       6.319   4.504  -9.933  1.00  0.00     0.000 G0
ENDBRANCH  13  15
ENDBRANCH  12  13
BRANCH  12  17
ATOM     17  C   UNL     1       6.694   4.183  -5.664  1.00  0.00    -0.006 C 
ATOM     18  C   UNL     1       5.263   3.628  -5.511  1.00  0.00     0.008 C 
ATOM     19  C   UNL     1       7.532   3.710  -4.458  1.00  0.00     0.008 C 
ENDBRANCH  12  17
ENDBRANCH  11  12
ENDBRANCH   1  11
TORSDOF 1
ENDMDL
MODEL 7
REMARK VINA RESULT:    -3.370      2.012      4.130
REMARK INTER + INTRA:          -5.554
REMARK INTER:                  -5.174
REMARK INTRA:                  -0.380
REMARK UNBOUND:                -0.411
REMARK SMILES CC1=CCC[C@@H](C)C(=O)C[C@@H](C(C)C)C(=O)C1
REMARK SMILES IDX 8 1 9 2 6 3 7 4 5 5 4 6 3 7 2 8 1 9 10 11 11 12 15 13 16 14
REMARK SMILES IDX 17 15 12 17 13 18 14 19
REMARK H PARENT
REMARK Flexibility Score: 70.00
ROOT
ATOM      1  C   UNL     1       8.006   3.707  -7.046  1.00  0.00     0.136 C 
ATOM      2  O   UNL     1       8.921   3.413  -6.289  1.00  0.00    -0.299 OA
ENDROOT
BRANCH   1   3
ATOM      3  C   UNL     1       6.693   2.955  -6.930  1.00  0.00     0.053 C 
ATOM      4  C   UNL     1       6.082   3.121  -5.534  1.00  0.00     0.016 C 
BRANCH   3   5
ATOM      5  C   UNL     1       6.862   1.467  -7.290  1.00  0.00     0.015 C 
BRANCH   5   6
ATOM      6  C   UNL     1       7.032   1.258  -8.807  1.00  0.00     0.028 C 
BRANCH   6   7
ATOM      7  C   UNL     1       5.814   1.726  -9.559  1.00  0.00    -0.028 C 
ATOM      8  C   UNL     1       5.789   2.790 -10.395  1.00  0.00    -0.070 CG0
ATOM      9  C   UNL     1       4.498   3.102 -11.107  1.00  0.00     0.039 C 
ATOM     10  G   UNL     1       6.999   3.680 -10.640  1.00  0.00     0.000 G0
ENDBRANCH   6   7
ENDBRANCH   5   6
ENDBRANCH   3   5
ENDBRANCH   1   3
BRANCH   1  11
ATOM     11  C   UNL     1       8.240   4.787  -8.080  1.00  0.00     0.087 C 
BRANCH  11  12
ATOM     12  C   UNL     1       6.912   5.375  -8.630  1.00  0.00     0.066 C 
BRANCH  12  13
ATOM     13  C   UNL     1       6.813   5.084 -10.120  1.00  0.00     0.140 C 
ATOM     14  O   UNL     1       6.485   5.979 -10.886  1.00  0.00    -0.299 OA
BRANCH  13  15
ATOM     15  C   UNL     1       6.999   3.685 -10.651  1.00  0.00     0.106 CG0
ATOM     16  G   UNL     1       5.786   2.804 -10.390  1.00  0.00     0.000 G0
ENDBRANCH  13  15
ENDBRANCH  12  13
BRANCH  12  17
ATOM     17  C   UNL     1       6.779   6.911  -8.361  1.00  0.00    -0.006 C 
ATOM     18  C   UNL     1       6.055   7.189  -7.028  1.00  0.00     0.008 C 
ATOM     19  C   UNL     1       8.148   7.619  -8.329  1.00  0.00     0.008 C 
ENDBRANCH  12  17
ENDBRANCH  11  12
ENDBRANCH   1  11
TORSDOF 1
ENDMDL
MODEL 8
REMARK VINA RESULT:    -3.146      2.174      5.164
REMARK INTER + INTRA:          -5.212
REMARK INTER:                  -4.931
REMARK INTRA:                  -0.281
REMARK UNBOUND:                -0.411
REMARK SMILES CC1=CCC[C@@H](C)C(=O)C[C@@H](C(C)C)C(=O)C1
REMARK SMILES IDX 8 1 9 2 6 3 7 4 5 5 4 6 3 7 2 8 1 9 10 11 11 12 15 13 16 14
REMARK SMILES IDX 17 15 12 17 13 18 14 19
REMARK H PARENT
REMARK Flexibility Score: 70.00
ROOT
ATOM      1  C   UNL     1       5.302   3.169  -9.128  1.00  0.00     0.136 C 
ATOM      2  O   UNL     1       4.207   2.804  -9.531  1.00  0.00    -0.299 OA
ENDROOT
BRANCH   1   3
ATOM      3  C   UNL     1       6.023   4.277  -9.874  1.00  0.00     0.053 C 
ATOM      4  C   UNL     1       5.061   5.416 -10.233  1.00  0.00     0.016 C 
BRANCH   3   5
ATOM      5  C   UNL     1       6.742   3.739 -11.125  1.00  0.00     0.015 C 
BRANCH   5   6
ATOM      6  C   UNL     1       8.261   3.619 -10.908  1.00  0.00     0.028 C 
BRANCH   6   7
ATOM      7  C   UNL     1       8.694   2.176 -10.883  1.00  0.00    -0.028 C 
ATOM      8  C   UNL     1       9.215   1.549  -9.803  1.00  0.00    -0.070 CG0
ATOM      9  C   UNL     1       9.559   0.087  -9.931  1.00  0.00     0.039 C 
ATOM     10  G   UNL     1       9.473   2.254  -8.480  1.00  0.00     0.000 G0
ENDBRANCH   6   7
ENDBRANCH   5   6
ENDBRANCH   3   5
ENDBRANCH   1   3
BRANCH   1  11
ATOM     11  C   UNL     1       5.898   2.474  -7.922  1.00  0.00     0.087 C 
BRANCH  11  12
ATOM     12  C   UNL     1       7.228   3.131  -7.461  1.00  0.00     0.066 C 
BRANCH  12  13
ATOM     13  C   UNL     1       8.342   2.095  -7.507  1.00  0.00     0.140 C 
ATOM     14  O   UNL     1       8.352   1.188  -6.686  1.00  0.00    -0.299 OA
BRANCH  13  15
ATOM     15  C   UNL     1       9.492   2.235  -8.471  1.00  0.00     0.106 CG0
ATOM     16  G   UNL     1       9.220   1.541  -9.797  1.00  0.00     0.000 G0
ENDBRANCH  13  15
ENDBRANCH  12  13
BRANCH  12  17
ATOM     17  C   UNL     1       7.123   3.761  -6.033  1.00  0.00    -0.006 C 
ATOM     18  C   UNL     1       6.598   5.210  -6.093  1.00  0.00     0.008 C 
ATOM     19  C   UNL     1       6.202   2.947  -5.101  1.00  0.00     0.008 C 
ENDBRANCH  12  17
ENDBRANCH  11  12
ENDBRANCH   1  11
TORSDOF 1
ENDMDL
MODEL 9
REMARK VINA RESULT:    -3.060      2.120      3.667
REMARK INTER + INTRA:          -5.081
REMARK INTER:                  -5.166
REMARK INTRA:                   0.085
REMARK UNBOUND:                -0.411
REMARK SMILES CC1=CCC[C@@H](C)C(=O)C[C@@H](C(C)C)C(=O)C1
REMARK SMILES IDX 8 1 9 2 6 3 7 4 5 5 4 6 3 7 2 8 1 9 10 11 11 12 15 13 16 14
REMARK SMILES IDX 17 15 12 17 13 18 14 19
REMARK H PARENT
REMARK Flexibility Score: 70.00
ROOT
ATOM      1  C   UNL     1       5.996   1.078  -9.374  1.00  0.00     0.136 C 
ATOM      2  O   UNL     1       6.000  -0.044  -8.888  1.00  0.00    -0.299 OA
ENDROOT
BRANCH   1   3
ATOM      3  C   UNL     1       4.730   1.579 -10.045  1.00  0.00     0.053 C 
ATOM      4  C   UNL     1       4.042   0.456 -10.832  1.00  0.00     0.016 C 
BRANCH   3   5
ATOM      5  C   UNL     1       5.012   2.796 -10.945  1.00  0.00     0.015 C 
BRANCH   5   6
ATOM      6  C   UNL     1       4.573   4.115 -10.282  1.00  0.00     0.028 C 
BRANCH   6   7
ATOM      7  C   UNL     1       5.708   5.103 -10.232  1.00  0.00    -0.028 C 
ATOM      8  C   UNL     1       6.550   5.253  -9.183  1.00  0.00    -0.070 CG0
ATOM      9  C   UNL     1       7.665   6.260  -9.307  1.00  0.00     0.039 C 
ATOM     10  G   UNL     1       6.415   4.460  -7.891  1.00  0.00     0.000 G0
ENDBRANCH   6   7
ENDBRANCH   5   6
ENDBRANCH   3   5
ENDBRANCH   1   3
BRANCH   1  11
ATOM     11  C   UNL     1       7.266   1.900  -9.309  1.00  0.00     0.087 C 
BRANCH  11  12
ATOM     12  C   UNL     1       7.721   2.166  -7.848  1.00  0.00     0.066 C 
BRANCH  12  13
ATOM     13  C   UNL     1       7.658   3.659  -7.566  1.00  0.00     0.140 C 
ATOM     14  O   UNL     1       8.587   4.200  -6.982  1.00  0.00    -0.299 OA
BRANCH  13  15
ATOM     15  C   UNL     1       6.422   4.459  -7.891  1.00  0.00     0.106 CG0
ATOM     16  G   UNL     1       6.570   5.251  -9.182  1.00  0.00     0.000 G0
ENDBRANCH  13  15
ENDBRANCH  12  13
BRANCH  12  17
ATOM     17  C   UNL     1       9.155   1.613  -7.557  1.00  0.00    -0.006 C 
ATOM     18  C   UNL     1       9.226   0.930  -6.175  1.00  0.00     0.008 C 
ATOM     19  C   UNL     1       9.620   0.602  -8.624  1.00  0.00     0.008 C 
ENDBRANCH  12  17
ENDBRANCH  11  12
ENDBRANCH   1  11
TORSDOF 1
ENDMDL
