MODEL 1
REMARK VINA RESULT:    -4.575      0.000      0.000
REMARK INTER + INTRA:          -6.469
REMARK INTER:                  -5.912
REMARK INTRA:                  -0.556
REMARK UNBOUND:                -0.556
REMARK SMILES C=CC(=O)CCCCC
REMARK SMILES IDX 6 1 7 2 8 3 9 4 5 5 3 6 4 7 2 8 1 9
REMARK H PARENT
REMARK Flexibility Score: inf
ROOT
ATOM      1  C   UNL     1       6.518  21.431   7.427  1.00  0.00     0.008 C 
ENDROOT
BRANCH   1   2
ATOM      2  C   UNL     1       6.085  20.146   8.142  1.00  0.00     0.000 C 
BRANCH   2   3
ATOM      3  C   UNL     1       6.413  18.910   7.295  1.00  0.00    -0.003 C 
ATOM      4  C   UNL     1       5.153  18.321   6.669  1.00  0.00     0.004 C 
ENDBRANCH   2   3
ENDBRANCH   1   2
BRANCH   1   5
ATOM      5  C   UNL     1       5.325  22.102   6.729  1.00  0.00     0.080 C 
BRANCH   5   6
ATOM      6  C   UNL     1       5.193  21.708   5.276  1.00  0.00     0.155 C 
ATOM      7  O   UNL     1       4.073  21.777   4.699  1.00  0.00    -0.295 OA
BRANCH   6   8
ATOM      8  C   UNL     1       6.351  21.234   4.488  1.00  0.00     0.039 C 
ATOM      9  C   UNL     1       6.305  20.184   3.669  1.00  0.00     0.012 C 
ENDBRANCH   6   8
ENDBRANCH   5   6
ENDBRANCH   1   5
TORSDOF 5
ENDMDL
MODEL 2
REMARK VINA RESULT:    -4.445      1.768      2.835
REMARK INTER + INTRA:          -6.300
REMARK INTER:                  -5.757
REMARK INTRA:                  -0.544
REMARK UNBOUND:                -0.556
REMARK SMILES C=CC(=O)CCCCC
REMARK SMILES IDX 6 1 7 2 8 3 9 4 5 5 3 6 4 7 2 8 1 9
REMARK H PARENT
REMARK Flexibility Score: inf
ROOT
ATOM      1  C   UNL     1       5.095  22.530   7.059  1.00  0.00     0.008 C 
ENDROOT
BRANCH   1   2
ATOM      2  C   UNL     1       3.858  21.754   6.593  1.00  0.00     0.000 C 
BRANCH   2   3
ATOM      3  C   UNL     1       3.322  20.852   7.712  1.00  0.00    -0.003 C 
ATOM      4  C   UNL     1       2.846  19.512   7.159  1.00  0.00     0.004 C 
ENDBRANCH   2   3
ENDBRANCH   1   2
BRANCH   1   5
ATOM      5  C   UNL     1       6.251  21.576   7.395  1.00  0.00     0.080 C 
BRANCH   5   6
ATOM      6  C   UNL     1       6.652  20.701   6.230  1.00  0.00     0.155 C 
ATOM      7  O   UNL     1       6.927  21.219   5.113  1.00  0.00    -0.295 OA
BRANCH   6   8
ATOM      8  C   UNL     1       6.737  19.230   6.352  1.00  0.00     0.039 C 
ATOM      9  C   UNL     1       6.294  18.552   7.410  1.00  0.00     0.012 C 
ENDBRANCH   6   8
ENDBRANCH   5   6
ENDBRANCH   1   5
TORSDOF 5
ENDMDL
MODEL 3
REMARK VINA RESULT:    -4.388      1.514      2.454
REMARK INTER + INTRA:          -6.227
REMARK INTER:                  -5.623
REMARK INTRA:                  -0.604
REMARK UNBOUND:                -0.556
REMARK SMILES C=CC(=O)CCCCC
REMARK SMILES IDX 6 1 7 2 8 3 9 4 5 5 3 6 4 7 2 8 1 9
REMARK H PARENT
REMARK Flexibility Score: inf
ROOT
ATOM      1  C   UNL     1       6.448  21.221   7.504  1.00  0.00     0.008 C 
ENDROOT
BRANCH   1   2
ATOM      2  C   UNL     1       6.931  20.571   6.202  1.00  0.00     0.000 C 
BRANCH   2   3
ATOM      3  C   UNL     1       6.612  19.071   6.186  1.00  0.00    -0.003 C 
ATOM      4  C   UNL     1       6.209  18.579   7.573  1.00  0.00     0.004 C 
ENDBRANCH   2   3
ENDBRANCH   1   2
BRANCH   1   5
ATOM      5  C   UNL     1       5.382  22.292   7.223  1.00  0.00     0.080 C 
BRANCH   5   6
ATOM      6  C   UNL     1       4.107  21.720   6.648  1.00  0.00     0.155 C 
ATOM      7  O   UNL     1       3.758  22.008   5.471  1.00  0.00    -0.295 OA
BRANCH   6   8
ATOM      8  C   UNL     1       3.236  20.817   7.429  1.00  0.00     0.039 C 
ATOM      9  C   UNL     1       2.785  19.649   6.970  1.00  0.00     0.012 C 
ENDBRANCH   6   8
ENDBRANCH   5   6
ENDBRANCH   1   5
TORSDOF 5
ENDMDL
MODEL 4
REMARK VINA RESULT:    -4.358      1.796      3.544
REMARK INTER + INTRA:          -6.189
REMARK INTER:                  -5.618
REMARK INTRA:                  -0.571
REMARK UNBOUND:                -0.556
REMARK SMILES C=CC(=O)CCCCC
REMARK SMILES IDX 6 1 7 2 8 3 9 4 5 5 3 6 4 7 2 8 1 9
REMARK H PARENT
REMARK Flexibility Score: inf
ROOT
ATOM      1  C   UNL     1       6.819  21.271   7.000  1.00  0.00     0.008 C 
ENDROOT
BRANCH   1   2
ATOM      2  C   UNL     1       5.980  21.621   5.765  1.00  0.00     0.000 C 
BRANCH   2   3
ATOM      3  C   UNL     1       6.763  21.354   4.474  1.00  0.00    -0.003 C 
ATOM      4  C   UNL     1       6.024  20.367   3.575  1.00  0.00     0.004 C 
ENDBRANCH   2   3
ENDBRANCH   1   2
BRANCH   1   5
ATOM      5  C   UNL     1       6.167  20.137   7.806  1.00  0.00     0.080 C 
BRANCH   5   6
ATOM      6  C   UNL     1       5.952  18.881   6.993  1.00  0.00     0.155 C 
ATOM      7  O   UNL     1       6.936  18.287   6.474  1.00  0.00    -0.295 OA
BRANCH   6   8
ATOM      8  C   UNL     1       4.605  18.311   6.780  1.00  0.00     0.039 C 
ATOM      9  C   UNL     1       3.492  19.044   6.748  1.00  0.00     0.012 C 
ENDBRANCH   6   8
ENDBRANCH   5   6
ENDBRANCH   1   5
TORSDOF 5
ENDMDL
MODEL 5
REMARK VINA RESULT:    -4.306      1.456      2.423
REMARK INTER + INTRA:          -6.121
REMARK INTER:                  -5.592
REMARK INTRA:                  -0.529
REMARK UNBOUND:                -0.556
REMARK SMILES C=CC(=O)CCCCC
REMARK SMILES IDX 6 1 7 2 8 3 9 4 5 5 3 6 4 7 2 8 1 9
REMARK H PARENT
REMARK Flexibility Score: inf
ROOT
ATOM      1  C   UNL     1       6.552  21.187   7.089  1.00  0.00     0.008 C 
ENDROOT
BRANCH   1   2
ATOM      2  C   UNL     1       6.175  20.099   8.102  1.00  0.00     0.000 C 
BRANCH   2   3
ATOM      3  C   UNL     1       6.166  18.714   7.442  1.00  0.00    -0.003 C 
ATOM      4  C   UNL     1       6.492  18.811   5.954  1.00  0.00     0.004 C 
ENDBRANCH   2   3
ENDBRANCH   1   2
BRANCH   1   5
ATOM      5  C   UNL     1       5.453  22.257   6.996  1.00  0.00     0.080 C 
BRANCH   5   6
ATOM      6  C   UNL     1       4.312  21.855   6.091  1.00  0.00     0.155 C 
ATOM      7  O   UNL     1       4.526  21.610   4.872  1.00  0.00    -0.295 OA
BRANCH   6   8
ATOM      8  C   UNL     1       2.926  21.734   6.589  1.00  0.00     0.039 C 
ATOM      9  C   UNL     1       2.615  21.247   7.791  1.00  0.00     0.012 C 
ENDBRANCH   6   8
ENDBRANCH   5   6
ENDBRANCH   1   5
TORSDOF 5
ENDMDL
MODEL 6
REMARK VINA RESULT:    -4.229      1.935      4.140
REMARK INTER + INTRA:          -6.021
REMARK INTER:                  -5.827
REMARK INTRA:                  -0.195
REMARK UNBOUND:                -0.556
REMARK SMILES C=CC(=O)CCCCC
REMARK SMILES IDX 6 1 7 2 8 3 9 4 5 5 3 6 4 7 2 8 1 9
REMARK H PARENT
REMARK Flexibility Score: inf
ROOT
ATOM      1  C   UNL     1       5.597  21.154   4.696  1.00  0.00     0.008 C 
ENDROOT
BRANCH   1   2
ATOM      2  C   UNL     1       5.817  20.499   3.327  1.00  0.00     0.000 C 
BRANCH   2   3
ATOM      3  C   UNL     1       5.050  21.247   2.230  1.00  0.00    -0.003 C 
ATOM      4  C   UNL     1       4.706  20.320   1.068  1.00  0.00     0.004 C 
ENDBRANCH   2   3
ENDBRANCH   1   2
BRANCH   1   5
ATOM      5  C   UNL     1       6.852  21.033   5.573  1.00  0.00     0.080 C 
BRANCH   5   6
ATOM      6  C   UNL     1       6.536  20.938   7.047  1.00  0.00     0.155 C 
ATOM      7  O   UNL     1       6.613  21.962   7.780  1.00  0.00    -0.295 OA
BRANCH   6   8
ATOM      8  C   UNL     1       6.131  19.664   7.677  1.00  0.00     0.039 C 
ATOM      9  C   UNL     1       6.356  18.468   7.132  1.00  0.00     0.012 C 
ENDBRANCH   6   8
ENDBRANCH   5   6
ENDBRANCH   1   5
TORSDOF 5
ENDMDL
MODEL 7
REMARK VINA RESULT:    -4.208      1.544      2.140
REMARK INTER + INTRA:          -5.994
REMARK INTER:                  -5.863
REMARK INTRA:                  -0.131
REMARK UNBOUND:                -0.556
REMARK SMILES C=CC(=O)CCCCC
REMARK SMILES IDX 6 1 7 2 8 3 9 4 5 5 3 6 4 7 2 8 1 9
REMARK H PARENT
REMARK Flexibility Score: inf
ROOT
ATOM      1  C   UNL     1       5.941  21.609   5.674  1.00  0.00     0.008 C 
ENDROOT
BRANCH   1   2
ATOM      2  C   UNL     1       6.919  21.045   6.712  1.00  0.00     0.000 C 
BRANCH   2   3
ATOM      3  C   UNL     1       6.187  20.170   7.737  1.00  0.00    -0.003 C 
ATOM      4  C   UNL     1       6.265  18.694   7.357  1.00  0.00     0.004 C 
ENDBRANCH   2   3
ENDBRANCH   1   2
BRANCH   1   5
ATOM      5  C   UNL     1       6.054  20.851   4.342  1.00  0.00     0.080 C 
BRANCH   5   6
ATOM      6  C   UNL     1       4.873  21.084   3.428  1.00  0.00     0.155 C 
ATOM      7  O   UNL     1       3.704  21.116   3.899  1.00  0.00    -0.295 OA
BRANCH   6   8
ATOM      8  C   UNL     1       5.041  21.281   1.973  1.00  0.00     0.039 C 
ATOM      9  C   UNL     1       4.650  20.392   1.059  1.00  0.00     0.012 C 
ENDBRANCH   6   8
ENDBRANCH   5   6
ENDBRANCH   1   5
TORSDOF 5
ENDMDL
MODEL 8
REMARK VINA RESULT:    -4.159      2.119      3.674
REMARK INTER + INTRA:          -5.930
REMARK INTER:                  -5.417
REMARK INTRA:                  -0.513
REMARK UNBOUND:                -0.556
REMARK SMILES C=CC(=O)CCCCC
REMARK SMILES IDX 6 1 7 2 8 3 9 4 5 5 3 6 4 7 2 8 1 9
REMARK H PARENT
REMARK Flexibility Score: inf
ROOT
ATOM      1  C   UNL     1       6.831  20.740   6.993  1.00  0.00     0.008 C 
ENDROOT
BRANCH   1   2
ATOM      2  C   UNL     1       5.998  21.964   7.389  1.00  0.00     0.000 C 
BRANCH   2   3
ATOM      3  C   UNL     1       5.007  22.337   6.279  1.00  0.00    -0.003 C 
ATOM      4  C   UNL     1       3.736  22.950   6.858  1.00  0.00     0.004 C 
ENDBRANCH   2   3
ENDBRANCH   1   2
BRANCH   1   5
ATOM      5  C   UNL     1       6.221  19.450   7.564  1.00  0.00     0.080 C 
BRANCH   5   6
ATOM      6  C   UNL     1       5.541  18.603   6.514  1.00  0.00     0.155 C 
ATOM      7  O   UNL     1       6.219  18.068   5.594  1.00  0.00    -0.295 OA
BRANCH   6   8
ATOM      8  C   UNL     1       4.082  18.370   6.524  1.00  0.00     0.039 C 
ATOM      9  C   UNL     1       3.206  19.211   7.075  1.00  0.00     0.012 C 
ENDBRANCH   6   8
ENDBRANCH   5   6
ENDBRANCH   1   5
TORSDOF 5
ENDMDL
MODEL 9
REMARK VINA RESULT:    -4.049      1.896      2.767
REMARK INTER + INTRA:          -5.789
REMARK INTER:                  -5.255
REMARK INTRA:                  -0.533
REMARK UNBOUND:                -0.556
REMARK SMILES C=CC(=O)CCCCC
REMARK SMILES IDX 6 1 7 2 8 3 9 4 5 5 3 6 4 7 2 8 1 9
REMARK H PARENT
REMARK Flexibility Score: inf
ROOT
ATOM      1  C   UNL     1       6.107  21.700   7.348  1.00  0.00     0.008 C 
ENDROOT
BRANCH   1   2
ATOM      2  C   UNL     1       4.779  21.003   7.667  1.00  0.00     0.000 C 
BRANCH   2   3
ATOM      3  C   UNL     1       3.592  21.802   7.114  1.00  0.00    -0.003 C 
ATOM      4  C   UNL     1       4.027  23.194   6.666  1.00  0.00     0.004 C 
ENDBRANCH   2   3
ENDBRANCH   1   2
BRANCH   1   5
ATOM      5  C   UNL     1       7.089  20.732   6.670  1.00  0.00     0.080 C 
BRANCH   5   6
ATOM      6  C   UNL     1       6.518  20.083   5.431  1.00  0.00     0.155 C 
ATOM      7  O   UNL     1       6.132  18.882   5.465  1.00  0.00    -0.295 OA
BRANCH   6   8
ATOM      8  C   UNL     1       6.391  20.817   4.154  1.00  0.00     0.039 C 
ATOM      9  C   UNL     1       5.244  20.936   3.483  1.00  0.00     0.012 C 
ENDBRANCH   6   8
ENDBRANCH   5   6
ENDBRANCH   1   5
TORSDOF 5
ENDMDL
