MODEL 1
REMARK VINA RESULT:    -4.734      0.000      0.000
REMARK INTER + INTRA:          -5.222
REMARK INTER:                  -5.149
REMARK INTRA:                  -0.073
REMARK UNBOUND:                -0.073
REMARK SMILES CCc1cccc(O)c1
REMARK SMILES IDX 3 1 9 2 7 3 6 4 5 5 4 6 2 7 1 8 8 9
REMARK H PARENT 8 10
REMARK Flexibility Score: inf
ROOT
ATOM      1  C   UNL     1     -13.075   1.290  30.018  1.00  0.00    -0.045 A 
ATOM      2  C   UNL     1     -12.756   0.421  31.075  1.00  0.00     0.049 A 
ATOM      3  C   UNL     1     -11.975   0.867  32.146  1.00  0.00     0.115 A 
ATOM      4  C   UNL     1     -11.500   2.186  32.161  1.00  0.00     0.046 A 
ATOM      5  C   UNL     1     -11.803   3.051  31.108  1.00  0.00     0.004 A 
ATOM      6  C   UNL     1     -12.583   2.606  30.036  1.00  0.00     0.004 A 
ENDROOT
BRANCH   1   7
ATOM      7  C   UNL     1     -13.888   0.800  28.851  1.00  0.00     0.032 C 
ATOM      8  C   UNL     1     -14.581   1.962  28.148  1.00  0.00     0.009 C 
ENDBRANCH   1   7
BRANCH   3   9
ATOM      9  O   UNL     1     -11.673  -0.008  33.187  1.00  0.00    -0.508 OA
ATOM     10  H   UNL     1     -11.941  -0.985  33.153  1.00  0.00     0.293 HD
ENDBRANCH   3   9
TORSDOF 2
ENDMDL
MODEL 2
REMARK VINA RESULT:    -4.656      1.451      2.166
REMARK INTER + INTRA:          -5.137
REMARK INTER:                  -5.086
REMARK INTRA:                  -0.052
REMARK UNBOUND:                -0.073
REMARK SMILES CCc1cccc(O)c1
REMARK SMILES IDX 3 1 9 2 7 3 6 4 5 5 4 6 2 7 1 8 8 9
REMARK H PARENT 8 10
REMARK Flexibility Score: inf
ROOT
ATOM      1  C   UNL     1     -13.026   0.930  30.166  1.00  0.00    -0.045 A 
ATOM      2  C   UNL     1     -12.555   2.230  30.415  1.00  0.00     0.049 A 
ATOM      3  C   UNL     1     -11.856   2.515  31.593  1.00  0.00     0.115 A 
ATOM      4  C   UNL     1     -11.634   1.501  32.534  1.00  0.00     0.046 A 
ATOM      5  C   UNL     1     -12.111   0.210  32.299  1.00  0.00     0.004 A 
ATOM      6  C   UNL     1     -12.811  -0.077  31.122  1.00  0.00     0.004 A 
ENDROOT
BRANCH   1   7
ATOM      7  C   UNL     1     -13.806   0.631  28.914  1.00  0.00     0.032 C 
ATOM      8  C   UNL     1     -14.351   1.916  28.298  1.00  0.00     0.009 C 
ENDBRANCH   1   7
BRANCH   3   9
ATOM      9  O   UNL     1     -11.391   3.809  31.820  1.00  0.00    -0.508 OA
ATOM     10  H   UNL     1     -11.939   4.484  32.341  1.00  0.00     0.293 HD
ENDBRANCH   3   9
TORSDOF 2
ENDMDL
MODEL 3
REMARK VINA RESULT:    -4.520     10.514     10.934
REMARK INTER + INTRA:          -4.988
REMARK INTER:                  -4.942
REMARK INTRA:                  -0.046
REMARK UNBOUND:                -0.073
REMARK SMILES CCc1cccc(O)c1
REMARK SMILES IDX 3 1 9 2 7 3 6 4 5 5 4 6 2 7 1 8 8 9
REMARK H PARENT 8 10
REMARK Flexibility Score: inf
ROOT
ATOM      1  C   UNL     1      -2.033  -0.187  27.332  1.00  0.00    -0.045 A 
ATOM      2  C   UNL     1      -2.938  -0.695  28.280  1.00  0.00     0.049 A 
ATOM      3  C   UNL     1      -2.650  -0.615  29.646  1.00  0.00     0.115 A 
ATOM      4  C   UNL     1      -1.449  -0.032  30.072  1.00  0.00     0.046 A 
ATOM      5  C   UNL     1      -0.539   0.462  29.135  1.00  0.00     0.004 A 
ATOM      6  C   UNL     1      -0.825   0.381  27.769  1.00  0.00     0.004 A 
ENDROOT
BRANCH   1   7
ATOM      7  C   UNL     1      -2.329  -0.304  25.861  1.00  0.00     0.032 C 
ATOM      8  C   UNL     1      -3.583   0.483  25.498  1.00  0.00     0.009 C 
ENDBRANCH   1   7
BRANCH   3   9
ATOM      9  O   UNL     1      -3.562  -1.118  30.571  1.00  0.00    -0.508 OA
ATOM     10  H   UNL     1      -3.914  -0.548  31.332  1.00  0.00     0.293 HD
ENDBRANCH   3   9
TORSDOF 2
ENDMDL
MODEL 4
REMARK VINA RESULT:    -4.487     10.410     11.073
REMARK INTER + INTRA:          -4.953
REMARK INTER:                  -4.895
REMARK INTRA:                  -0.057
REMARK UNBOUND:                -0.073
REMARK SMILES CCc1cccc(O)c1
REMARK SMILES IDX 3 1 9 2 7 3 6 4 5 5 4 6 2 7 1 8 8 9
REMARK H PARENT 8 10
REMARK Flexibility Score: inf
ROOT
ATOM      1  C   UNL     1      -3.165   0.262  28.369  1.00  0.00    -0.045 A 
ATOM      2  C   UNL     1      -3.441   0.036  27.010  1.00  0.00     0.049 A 
ATOM      3  C   UNL     1      -2.396  -0.147  26.097  1.00  0.00     0.115 A 
ATOM      4  C   UNL     1      -1.067  -0.094  26.540  1.00  0.00     0.046 A 
ATOM      5  C   UNL     1      -0.786   0.145  27.887  1.00  0.00     0.004 A 
ATOM      6  C   UNL     1      -1.830   0.328  28.800  1.00  0.00     0.004 A 
ENDROOT
BRANCH   1   7
ATOM      7  C   UNL     1      -4.289   0.491  29.343  1.00  0.00     0.032 C 
ATOM      8  C   UNL     1      -4.366  -0.646  30.356  1.00  0.00     0.009 C 
ENDBRANCH   1   7
BRANCH   3   9
ATOM      9  O   UNL     1      -2.688  -0.377  24.755  1.00  0.00    -0.508 OA
ATOM     10  H   UNL     1      -2.328   0.227  24.024  1.00  0.00     0.293 HD
ENDBRANCH   3   9
TORSDOF 2
ENDMDL
MODEL 5
REMARK VINA RESULT:    -4.483      1.005      2.354
REMARK INTER + INTRA:          -4.949
REMARK INTER:                  -4.875
REMARK INTRA:                  -0.074
REMARK UNBOUND:                -0.073
REMARK SMILES CCc1cccc(O)c1
REMARK SMILES IDX 3 1 9 2 7 3 6 4 5 5 4 6 2 7 1 8 8 9
REMARK H PARENT 8 10
REMARK Flexibility Score: inf
ROOT
ATOM      1  C   UNL     1     -12.414   2.509  30.467  1.00  0.00    -0.045 A 
ATOM      2  C   UNL     1     -11.886   1.995  31.663  1.00  0.00     0.049 A 
ATOM      3  C   UNL     1     -12.089   0.655  32.008  1.00  0.00     0.115 A 
ATOM      4  C   UNL     1     -12.832  -0.178  31.159  1.00  0.00     0.046 A 
ATOM      5  C   UNL     1     -13.372   0.330  29.975  1.00  0.00     0.004 A 
ATOM      6  C   UNL     1     -13.170   1.670  29.630  1.00  0.00     0.004 A 
ENDROOT
BRANCH   1   7
ATOM      7  C   UNL     1     -12.222   3.959  30.114  1.00  0.00     0.032 C 
ATOM      8  C   UNL     1     -13.342   4.445  29.200  1.00  0.00     0.009 C 
ENDBRANCH   1   7
BRANCH   3   9
ATOM      9  O   UNL     1     -11.552   0.161  33.195  1.00  0.00    -0.508 OA
ATOM     10  H   UNL     1     -10.821   0.657  33.691  1.00  0.00     0.293 HD
ENDBRANCH   3   9
TORSDOF 2
ENDMDL
MODEL 6
REMARK VINA RESULT:    -4.420      1.953      3.624
REMARK INTER + INTRA:          -4.881
REMARK INTER:                  -4.807
REMARK INTRA:                  -0.073
REMARK UNBOUND:                -0.073
REMARK SMILES CCc1cccc(O)c1
REMARK SMILES IDX 3 1 9 2 7 3 6 4 5 5 4 6 2 7 1 8 8 9
REMARK H PARENT 8 10
REMARK Flexibility Score: inf
ROOT
ATOM      1  C   UNL     1     -12.045   2.496  31.122  1.00  0.00    -0.045 A 
ATOM      2  C   UNL     1     -12.844   2.035  30.063  1.00  0.00     0.049 A 
ATOM      3  C   UNL     1     -13.327   0.722  30.061  1.00  0.00     0.115 A 
ATOM      4  C   UNL     1     -13.003  -0.141  31.117  1.00  0.00     0.046 A 
ATOM      5  C   UNL     1     -12.197   0.307  32.166  1.00  0.00     0.004 A 
ATOM      6  C   UNL     1     -11.714   1.619  32.169  1.00  0.00     0.004 A 
ENDROOT
BRANCH   1   7
ATOM      7  C   UNL     1     -11.499   3.898  31.107  1.00  0.00     0.032 C 
ATOM      8  C   UNL     1     -11.109   4.342  32.513  1.00  0.00     0.009 C 
ENDBRANCH   1   7
BRANCH   3   9
ATOM      9  O   UNL     1     -14.123   0.284  29.005  1.00  0.00    -0.508 OA
ATOM     10  H   UNL     1     -13.930   0.557  28.048  1.00  0.00     0.293 HD
ENDBRANCH   3   9
TORSDOF 2
ENDMDL
MODEL 7
REMARK VINA RESULT:    -4.407      2.086      3.741
REMARK INTER + INTRA:          -4.866
REMARK INTER:                  -4.814
REMARK INTRA:                  -0.051
REMARK UNBOUND:                -0.073
REMARK SMILES CCc1cccc(O)c1
REMARK SMILES IDX 3 1 9 2 7 3 6 4 5 5 4 6 2 7 1 8 8 9
REMARK H PARENT 8 10
REMARK Flexibility Score: inf
ROOT
ATOM      1  C   UNL     1     -12.997   0.940  30.387  1.00  0.00    -0.045 A 
ATOM      2  C   UNL     1     -12.500   2.244  30.556  1.00  0.00     0.049 A 
ATOM      3  C   UNL     1     -12.831   3.251  29.644  1.00  0.00     0.115 A 
ATOM      4  C   UNL     1     -13.655   2.956  28.549  1.00  0.00     0.046 A 
ATOM      5  C   UNL     1     -14.142   1.660  28.367  1.00  0.00     0.004 A 
ATOM      6  C   UNL     1     -13.811   0.652  29.278  1.00  0.00     0.004 A 
ENDROOT
BRANCH   1   7
ATOM      7  C   UNL     1     -12.614  -0.150  31.351  1.00  0.00     0.032 C 
ATOM      8  C   UNL     1     -11.829   0.420  32.527  1.00  0.00     0.009 C 
ENDBRANCH   1   7
BRANCH   3   9
ATOM      9  O   UNL     1     -12.334   4.539  29.832  1.00  0.00    -0.508 OA
ATOM     10  H   UNL     1     -12.865   5.357  29.554  1.00  0.00     0.293 HD
ENDBRANCH   3   9
TORSDOF 2
ENDMDL
MODEL 8
REMARK VINA RESULT:    -4.203     14.634     15.840
REMARK INTER + INTRA:          -4.644
REMARK INTER:                  -4.593
REMARK INTRA:                  -0.052
REMARK UNBOUND:                -0.073
REMARK SMILES CCc1cccc(O)c1
REMARK SMILES IDX 3 1 9 2 7 3 6 4 5 5 4 6 2 7 1 8 8 9
REMARK H PARENT 8 10
REMARK Flexibility Score: inf
ROOT
ATOM      1  C   UNL     1     -10.278  11.557  18.364  1.00  0.00    -0.045 A 
ATOM      2  C   UNL     1      -9.873  10.289  18.817  1.00  0.00     0.049 A 
ATOM      3  C   UNL     1     -10.617   9.151  18.488  1.00  0.00     0.115 A 
ATOM      4  C   UNL     1     -11.776   9.276  17.711  1.00  0.00     0.046 A 
ATOM      5  C   UNL     1     -12.191  10.534  17.269  1.00  0.00     0.004 A 
ATOM      6  C   UNL     1     -11.449  11.673  17.597  1.00  0.00     0.004 A 
ENDROOT
BRANCH   1   7
ATOM      7  C   UNL     1      -9.495  12.784  18.745  1.00  0.00     0.032 C 
ATOM      8  C   UNL     1      -8.402  12.438  19.750  1.00  0.00     0.009 C 
ENDBRANCH   1   7
BRANCH   3   9
ATOM      9  O   UNL     1     -10.197   7.902  18.941  1.00  0.00    -0.508 OA
ATOM     10  H   UNL     1     -10.221   7.661  19.926  1.00  0.00     0.293 HD
ENDBRANCH   3   9
TORSDOF 2
ENDMDL
MODEL 9
REMARK VINA RESULT:    -4.180     11.456     12.200
REMARK INTER + INTRA:          -4.619
REMARK INTER:                  -4.548
REMARK INTRA:                  -0.072
REMARK UNBOUND:                -0.073
REMARK SMILES CCc1cccc(O)c1
REMARK SMILES IDX 3 1 9 2 7 3 6 4 5 5 4 6 2 7 1 8 8 9
REMARK H PARENT 8 10
REMARK Flexibility Score: inf
ROOT
ATOM      1  C   UNL     1      -1.694   2.145  27.347  1.00  0.00    -0.045 A 
ATOM      2  C   UNL     1      -2.330   1.553  26.242  1.00  0.00     0.049 A 
ATOM      3  C   UNL     1      -2.119   0.203  25.944  1.00  0.00     0.115 A 
ATOM      4  C   UNL     1      -1.262  -0.562  26.747  1.00  0.00     0.046 A 
ATOM      5  C   UNL     1      -0.617   0.023  27.839  1.00  0.00     0.004 A 
ATOM      6  C   UNL     1      -0.826   1.373  28.137  1.00  0.00     0.004 A 
ENDROOT
BRANCH   1   7
ATOM      7  C   UNL     1      -1.896   3.606  27.646  1.00  0.00     0.032 C 
ATOM      8  C   UNL     1      -0.601   4.239  28.143  1.00  0.00     0.009 C 
ENDBRANCH   1   7
BRANCH   3   9
ATOM      9  O   UNL     1      -2.763  -0.368  24.848  1.00  0.00    -0.508 OA
ATOM     10  H   UNL     1      -3.774  -0.375  24.773  1.00  0.00     0.293 HD
ENDBRANCH   3   9
TORSDOF 2
ENDMDL
