MODEL 1
REMARK VINA RESULT:    -5.243      0.000      0.000
REMARK INTER + INTRA:          -5.646
REMARK INTER:                  -5.550
REMARK INTRA:                  -0.096
REMARK UNBOUND:                -0.096
REMARK SMILES C=C(C)[C@@H]1CC=C(C)C(=O)C1
REMARK SMILES IDX 8 1 7 2 6 3 5 4 4 5 11 6 9 7 10 8 2 9 1 10 3 11
REMARK H PARENT
REMARK Flexibility Score: inf
ROOT
ATOM      1  C   UNL     1      -5.816  -6.748  11.104  1.00  0.00     0.048 C 
ATOM      2  C   UNL     1      -5.550  -6.113  12.441  1.00  0.00    -0.012 C 
ATOM      3  C   UNL     1      -6.542  -6.009  13.341  1.00  0.00    -0.019 C 
ATOM      4  C   UNL     1      -6.326  -5.399  14.701  1.00  0.00     0.036 C 
ATOM      5  C   UNL     1      -5.265  -4.284  14.645  1.00  0.00     0.025 C 
ATOM      6  C   UNL     1      -3.958  -4.819  14.033  1.00  0.00     0.089 C 
ATOM      7  C   UNL     1      -4.229  -5.493  12.716  1.00  0.00     0.158 C 
ATOM      8  O   UNL     1      -3.308  -5.558  11.857  1.00  0.00    -0.295 OA
ENDROOT
BRANCH   5   9
ATOM      9  C   UNL     1      -5.026  -3.675  16.020  1.00  0.00    -0.077 C 
ATOM     10  C   UNL     1      -4.624  -4.451  17.040  1.00  0.00     0.008 C 
ATOM     11  C   UNL     1      -5.232  -2.203  16.275  1.00  0.00     0.039 C 
ENDBRANCH   5   9
TORSDOF 1
ENDMDL
MODEL 2
REMARK VINA RESULT:    -5.169      2.087      3.867
REMARK INTER + INTRA:          -5.568
REMARK INTER:                  -5.470
REMARK INTRA:                  -0.098
REMARK UNBOUND:                -0.096
REMARK SMILES C=C(C)[C@@H]1CC=C(C)C(=O)C1
REMARK SMILES IDX 8 1 7 2 6 3 5 4 4 5 11 6 9 7 10 8 2 9 1 10 3 11
REMARK H PARENT
REMARK Flexibility Score: inf
ROOT
ATOM      1  C   UNL     1      -3.571  -4.250  11.863  1.00  0.00     0.048 C 
ATOM      2  C   UNL     1      -4.528  -5.204  12.523  1.00  0.00    -0.012 C 
ATOM      3  C   UNL     1      -4.885  -6.336  11.893  1.00  0.00    -0.019 C 
ATOM      4  C   UNL     1      -5.824  -7.335  12.515  1.00  0.00     0.036 C 
ATOM      5  C   UNL     1      -6.863  -6.634  13.411  1.00  0.00     0.025 C 
ATOM      6  C   UNL     1      -6.158  -5.761  14.465  1.00  0.00     0.089 C 
ATOM      7  C   UNL     1      -5.170  -4.836  13.810  1.00  0.00     0.158 C 
ATOM      8  O   UNL     1      -4.863  -3.757  14.385  1.00  0.00    -0.295 OA
ENDROOT
BRANCH   5   9
ATOM      9  C   UNL     1      -7.805  -7.638  14.061  1.00  0.00    -0.077 C 
ATOM     10  C   UNL     1      -7.501  -8.947  14.057  1.00  0.00     0.008 C 
ATOM     11  C   UNL     1      -9.091  -7.200  14.716  1.00  0.00     0.039 C 
ENDBRANCH   5   9
TORSDOF 1
ENDMDL
MODEL 3
REMARK VINA RESULT:    -5.064      1.824      3.828
REMARK INTER + INTRA:          -5.456
REMARK INTER:                  -5.361
REMARK INTRA:                  -0.096
REMARK UNBOUND:                -0.096
REMARK SMILES C=C(C)[C@@H]1CC=C(C)C(=O)C1
REMARK SMILES IDX 8 1 7 2 6 3 5 4 4 5 11 6 9 7 10 8 2 9 1 10 3 11
REMARK H PARENT
REMARK Flexibility Score: inf
ROOT
ATOM      1  C   UNL     1      -3.618  -3.961  13.254  1.00  0.00     0.048 C 
ATOM      2  C   UNL     1      -4.798  -4.886  13.364  1.00  0.00    -0.012 C 
ATOM      3  C   UNL     1      -5.793  -4.602  14.221  1.00  0.00    -0.019 C 
ATOM      4  C   UNL     1      -7.006  -5.484  14.358  1.00  0.00     0.036 C 
ATOM      5  C   UNL     1      -6.647  -6.961  14.114  1.00  0.00     0.025 C 
ATOM      6  C   UNL     1      -5.958  -7.126  12.747  1.00  0.00     0.089 C 
ATOM      7  C   UNL     1      -4.803  -6.170  12.619  1.00  0.00     0.158 C 
ATOM      8  O   UNL     1      -3.853  -6.456  11.841  1.00  0.00    -0.295 OA
ENDROOT
BRANCH   5   9
ATOM      9  C   UNL     1      -7.871  -7.858  14.231  1.00  0.00    -0.077 C 
ATOM     10  C   UNL     1      -7.763  -9.178  14.005  1.00  0.00     0.008 C 
ATOM     11  C   UNL     1      -9.224  -7.300  14.596  1.00  0.00     0.039 C 
ENDBRANCH   5   9
TORSDOF 1
ENDMDL
MODEL 4
REMARK VINA RESULT:    -4.943      2.155      3.967
REMARK INTER + INTRA:          -5.328
REMARK INTER:                  -5.231
REMARK INTRA:                  -0.097
REMARK UNBOUND:                -0.096
REMARK SMILES C=C(C)[C@@H]1CC=C(C)C(=O)C1
REMARK SMILES IDX 8 1 7 2 6 3 5 4 4 5 11 6 9 7 10 8 2 9 1 10 3 11
REMARK H PARENT
REMARK Flexibility Score: inf
ROOT
ATOM      1  C   UNL     1      -7.529  -6.705  14.288  1.00  0.00     0.048 C 
ATOM      2  C   UNL     1      -6.288  -6.162  13.636  1.00  0.00    -0.012 C 
ATOM      3  C   UNL     1      -5.909  -6.623  12.431  1.00  0.00    -0.019 C 
ATOM      4  C   UNL     1      -4.686  -6.101  11.725  1.00  0.00     0.036 C 
ATOM      5  C   UNL     1      -3.594  -5.698  12.734  1.00  0.00     0.025 C 
ATOM      6  C   UNL     1      -4.153  -4.689  13.753  1.00  0.00     0.089 C 
ATOM      7  C   UNL     1      -5.419  -5.212  14.375  1.00  0.00     0.158 C 
ATOM      8  O   UNL     1      -5.755  -4.806  15.520  1.00  0.00    -0.295 OA
ENDROOT
BRANCH   5   9
ATOM      9  C   UNL     1      -2.360  -5.150  12.030  1.00  0.00    -0.077 C 
ATOM     10  C   UNL     1      -2.266  -3.837  11.759  1.00  0.00     0.008 C 
ATOM     11  C   UNL     1      -1.223  -6.052  11.619  1.00  0.00     0.039 C 
ENDBRANCH   5   9
TORSDOF 1
ENDMDL
MODEL 5
REMARK VINA RESULT:    -4.859      1.505      2.112
REMARK INTER + INTRA:          -5.239
REMARK INTER:                  -5.147
REMARK INTRA:                  -0.092
REMARK UNBOUND:                -0.096
REMARK SMILES C=C(C)[C@@H]1CC=C(C)C(=O)C1
REMARK SMILES IDX 8 1 7 2 6 3 5 4 4 5 11 6 9 7 10 8 2 9 1 10 3 11
REMARK H PARENT
REMARK Flexibility Score: inf
ROOT
ATOM      1  C   UNL     1      -5.575  -6.972  11.364  1.00  0.00     0.048 C 
ATOM      2  C   UNL     1      -5.368  -6.038  12.524  1.00  0.00    -0.012 C 
ATOM      3  C   UNL     1      -4.252  -5.292  12.591  1.00  0.00    -0.019 C 
ATOM      4  C   UNL     1      -4.002  -4.327  13.720  1.00  0.00     0.036 C 
ATOM      5  C   UNL     1      -4.623  -4.839  15.033  1.00  0.00     0.025 C 
ATOM      6  C   UNL     1      -6.122  -5.132  14.837  1.00  0.00     0.089 C 
ATOM      7  C   UNL     1      -6.334  -6.032  13.651  1.00  0.00     0.158 C 
ATOM      8  O   UNL     1      -7.363  -6.758  13.607  1.00  0.00    -0.295 OA
ENDROOT
BRANCH   5   9
ATOM      9  C   UNL     1      -4.393  -3.860  16.176  1.00  0.00    -0.077 C 
ATOM     10  C   UNL     1      -4.475  -4.281  17.450  1.00  0.00     0.008 C 
ATOM     11  C   UNL     1      -4.073  -2.409  15.918  1.00  0.00     0.039 C 
ENDBRANCH   5   9
TORSDOF 1
ENDMDL
MODEL 6
REMARK VINA RESULT:    -4.817      2.162      4.523
REMARK INTER + INTRA:          -5.195
REMARK INTER:                  -5.097
REMARK INTRA:                  -0.098
REMARK UNBOUND:                -0.096
REMARK SMILES C=C(C)[C@@H]1CC=C(C)C(=O)C1
REMARK SMILES IDX 8 1 7 2 6 3 5 4 4 5 11 6 9 7 10 8 2 9 1 10 3 11
REMARK H PARENT
REMARK Flexibility Score: inf
ROOT
ATOM      1  C   UNL     1      -2.926  -1.870  15.588  1.00  0.00     0.048 C 
ATOM      2  C   UNL     1      -3.652  -3.095  15.105  1.00  0.00    -0.012 C 
ATOM      3  C   UNL     1      -3.353  -3.620  13.905  1.00  0.00    -0.019 C 
ATOM      4  C   UNL     1      -4.036  -4.855  13.381  1.00  0.00     0.036 C 
ATOM      5  C   UNL     1      -5.493  -4.934  13.874  1.00  0.00     0.025 C 
ATOM      6  C   UNL     1      -5.543  -4.848  15.411  1.00  0.00     0.089 C 
ATOM      7  C   UNL     1      -4.780  -3.647  15.897  1.00  0.00     0.158 C 
ATOM      8  O   UNL     1      -5.085  -3.133  17.008  1.00  0.00    -0.295 OA
ENDROOT
BRANCH   5   9
ATOM      9  C   UNL     1      -6.186  -6.190  13.365  1.00  0.00    -0.077 C 
ATOM     10  C   UNL     1      -5.727  -6.816  12.268  1.00  0.00     0.008 C 
ATOM     11  C   UNL     1      -7.394  -6.761  14.065  1.00  0.00     0.039 C 
ENDBRANCH   5   9
TORSDOF 1
ENDMDL
MODEL 7
REMARK VINA RESULT:    -4.724     12.314     13.884
REMARK INTER + INTRA:          -5.097
REMARK INTER:                  -5.003
REMARK INTRA:                  -0.094
REMARK UNBOUND:                -0.096
REMARK SMILES C=C(C)[C@@H]1CC=C(C)C(=O)C1
REMARK SMILES IDX 8 1 7 2 6 3 5 4 4 5 11 6 9 7 10 8 2 9 1 10 3 11
REMARK H PARENT
REMARK Flexibility Score: inf
ROOT
ATOM      1  C   UNL     1       3.113   6.756  18.158  1.00  0.00     0.048 C 
ATOM      2  C   UNL     1       1.809   6.556  18.879  1.00  0.00    -0.012 C 
ATOM      3  C   UNL     1       1.628   5.467  19.645  1.00  0.00    -0.019 C 
ATOM      4  C   UNL     1       0.349   5.227  20.403  1.00  0.00     0.036 C 
ATOM      5  C   UNL     1      -0.862   5.798  19.641  1.00  0.00     0.025 C 
ATOM      6  C   UNL     1      -0.642   7.289  19.327  1.00  0.00     0.089 C 
ATOM      7  C   UNL     1       0.683   7.495  18.644  1.00  0.00     0.158 C 
ATOM      8  O   UNL     1       0.839   8.498  17.897  1.00  0.00    -0.295 OA
ENDROOT
BRANCH   5   9
ATOM      9  C   UNL     1      -2.157   5.577  20.409  1.00  0.00    -0.077 C 
ATOM     10  C   UNL     1      -2.512   4.338  20.789  1.00  0.00     0.008 C 
ATOM     11  C   UNL     1      -3.070   6.726  20.759  1.00  0.00     0.039 C 
ENDBRANCH   5   9
TORSDOF 1
ENDMDL
MODEL 8
REMARK VINA RESULT:    -4.690      1.493      4.011
REMARK INTER + INTRA:          -5.061
REMARK INTER:                  -4.963
REMARK INTRA:                  -0.098
REMARK UNBOUND:                -0.096
REMARK SMILES C=C(C)[C@@H]1CC=C(C)C(=O)C1
REMARK SMILES IDX 8 1 7 2 6 3 5 4 4 5 11 6 9 7 10 8 2 9 1 10 3 11
REMARK H PARENT
REMARK Flexibility Score: inf
ROOT
ATOM      1  C   UNL     1      -2.872  -2.212  15.622  1.00  0.00     0.048 C 
ATOM      2  C   UNL     1      -3.800  -3.198  14.968  1.00  0.00    -0.012 C 
ATOM      3  C   UNL     1      -4.848  -3.686  15.652  1.00  0.00    -0.019 C 
ATOM      4  C   UNL     1      -5.818  -4.662  15.040  1.00  0.00     0.036 C 
ATOM      5  C   UNL     1      -5.113  -5.580  14.024  1.00  0.00     0.025 C 
ATOM      6  C   UNL     1      -4.382  -4.740  12.961  1.00  0.00     0.089 C 
ATOM      7  C   UNL     1      -3.486  -3.724  13.615  1.00  0.00     0.158 C 
ATOM      8  O   UNL     1      -2.482  -3.293  12.986  1.00  0.00    -0.295 OA
ENDROOT
BRANCH   5   9
ATOM      9  C   UNL     1      -6.090  -6.556  13.384  1.00  0.00    -0.077 C 
ATOM     10  C   UNL     1      -5.778  -7.159  12.225  1.00  0.00     0.008 C 
ATOM     11  C   UNL     1      -7.420  -6.871  14.022  1.00  0.00     0.039 C 
ENDBRANCH   5   9
TORSDOF 1
ENDMDL
MODEL 9
REMARK VINA RESULT:    -4.668     10.809     11.498
REMARK INTER + INTRA:          -5.037
REMARK INTER:                  -4.938
REMARK INTRA:                  -0.099
REMARK UNBOUND:                -0.096
REMARK SMILES C=C(C)[C@@H]1CC=C(C)C(=O)C1
REMARK SMILES IDX 8 1 7 2 6 3 5 4 4 5 11 6 9 7 10 8 2 9 1 10 3 11
REMARK H PARENT
REMARK Flexibility Score: inf
ROOT
ATOM      1  C   UNL     1      -1.417  -7.641   3.797  1.00  0.00     0.048 C 
ATOM      2  C   UNL     1      -2.681  -6.957   3.354  1.00  0.00    -0.012 C 
ATOM      3  C   UNL     1      -2.612  -5.811   2.655  1.00  0.00    -0.019 C 
ATOM      4  C   UNL     1      -3.845  -5.095   2.171  1.00  0.00     0.036 C 
ATOM      5  C   UNL     1      -5.017  -5.287   3.152  1.00  0.00     0.025 C 
ATOM      6  C   UNL     1      -5.271  -6.786   3.395  1.00  0.00     0.089 C 
ATOM      7  C   UNL     1      -3.998  -7.479   3.796  1.00  0.00     0.158 C 
ATOM      8  O   UNL     1      -4.063  -8.534   4.483  1.00  0.00    -0.295 OA
ENDROOT
BRANCH   5   9
ATOM      9  C   UNL     1      -6.274  -4.583   2.661  1.00  0.00    -0.077 C 
ATOM     10  C   UNL     1      -7.436  -5.254   2.583  1.00  0.00     0.008 C 
ATOM     11  C   UNL     1      -6.254  -3.131   2.251  1.00  0.00     0.039 C 
ENDBRANCH   5   9
TORSDOF 1
ENDMDL
