MODEL 1
REMARK VINA RESULT:    -2.422      0.000      0.000
REMARK INTER + INTRA:          -3.136
REMARK INTER:                  -2.989
REMARK INTRA:                  -0.147
REMARK UNBOUND:                -0.147
REMARK SMILES CCCCC(=O)CC
REMARK SMILES IDX 4 1 3 2 2 3 1 4 5 5 6 6 7 7 8 8
REMARK H PARENT
REMARK Flexibility Score: inf
ROOT
ATOM      1  C   UNL     1     145.240 141.359 142.856  1.00  0.00     0.075 C 
ENDROOT
BRANCH   1   2
ATOM      2  C   UNL     1     145.942 142.197 141.780  1.00  0.00     0.008 C 
BRANCH   2   3
ATOM      3  C   UNL     1     146.055 141.460 140.437  1.00  0.00    -0.003 C 
ATOM      4  C   UNL     1     147.459 141.537 139.837  1.00  0.00     0.004 C 
ENDBRANCH   2   3
ENDBRANCH   1   2
BRANCH   1   5
ATOM      5  C   UNL     1     144.002 142.059 143.350  1.00  0.00     0.132 C 
ATOM      6  O   UNL     1     143.254 141.480 144.125  1.00  0.00    -0.300 OA
BRANCH   5   7
ATOM      7  C   UNL     1     143.668 143.460 142.910  1.00  0.00     0.072 C 
ATOM      8  C   UNL     1     143.199 144.304 144.089  1.00  0.00     0.012 C 
ENDBRANCH   5   7
ENDBRANCH   1   5
TORSDOF 4
ENDMDL
MODEL 2
REMARK VINA RESULT:    -2.419      5.418      6.952
REMARK INTER + INTRA:          -3.132
REMARK INTER:                  -2.744
REMARK INTRA:                  -0.388
REMARK UNBOUND:                -0.147
REMARK SMILES CCCCC(=O)CC
REMARK SMILES IDX 4 1 3 2 2 3 1 4 5 5 6 6 7 7 8 8
REMARK H PARENT
REMARK Flexibility Score: inf
ROOT
ATOM      1  C   UNL     1     139.726 144.139 141.473  1.00  0.00     0.075 C 
ENDROOT
BRANCH   1   2
ATOM      2  C   UNL     1     138.289 143.613 141.598  1.00  0.00     0.008 C 
BRANCH   2   3
ATOM      3  C   UNL     1     138.123 142.615 142.754  1.00  0.00    -0.003 C 
ATOM      4  C   UNL     1     137.410 143.223 143.961  1.00  0.00     0.004 C 
ENDBRANCH   2   3
ENDBRANCH   1   2
BRANCH   1   5
ATOM      5  C   UNL     1     139.860 145.480 142.143  1.00  0.00     0.132 C 
ATOM      6  O   UNL     1     139.585 146.494 141.517  1.00  0.00    -0.300 OA
BRANCH   5   7
ATOM      7  C   UNL     1     140.324 145.597 143.571  1.00  0.00     0.072 C 
ATOM      8  C   UNL     1     141.304 144.481 143.918  1.00  0.00     0.012 C 
ENDBRANCH   5   7
ENDBRANCH   1   5
TORSDOF 4
ENDMDL
MODEL 3
REMARK VINA RESULT:    -2.407      6.716      7.842
REMARK INTER + INTRA:          -3.117
REMARK INTER:                  -2.790
REMARK INTRA:                  -0.326
REMARK UNBOUND:                -0.147
REMARK SMILES CCCCC(=O)CC
REMARK SMILES IDX 4 1 3 2 2 3 1 4 5 5 6 6 7 7 8 8
REMARK H PARENT
REMARK Flexibility Score: inf
ROOT
ATOM      1  C   UNL     1     140.657 136.355 143.956  1.00  0.00     0.075 C 
ENDROOT
BRANCH   1   2
ATOM      2  C   UNL     1     139.868 137.667 144.063  1.00  0.00     0.008 C 
BRANCH   2   3
ATOM      3  C   UNL     1     138.469 137.567 143.437  1.00  0.00    -0.003 C 
ATOM      4  C   UNL     1     138.431 138.063 141.992  1.00  0.00     0.004 C 
ENDBRANCH   2   3
ENDBRANCH   1   2
BRANCH   1   5
ATOM      5  C   UNL     1     141.797 136.500 142.983  1.00  0.00     0.132 C 
ATOM      6  O   UNL     1     142.624 137.384 143.154  1.00  0.00    -0.300 OA
BRANCH   5   7
ATOM      7  C   UNL     1     141.939 135.575 141.804  1.00  0.00     0.072 C 
ATOM      8  C   UNL     1     141.337 136.197 140.548  1.00  0.00     0.012 C 
ENDBRANCH   5   7
ENDBRANCH   1   5
TORSDOF 4
ENDMDL
MODEL 4
REMARK VINA RESULT:    -2.406      6.580      7.740
REMARK INTER + INTRA:          -3.116
REMARK INTER:                  -3.025
REMARK INTRA:                  -0.090
REMARK UNBOUND:                -0.147
REMARK SMILES CCCCC(=O)CC
REMARK SMILES IDX 4 1 3 2 2 3 1 4 5 5 6 6 7 7 8 8
REMARK H PARENT
REMARK Flexibility Score: inf
ROOT
ATOM      1  C   UNL     1     137.444 143.251 143.929  1.00  0.00     0.075 C 
ENDROOT
BRANCH   1   2
ATOM      2  C   UNL     1     138.243 143.738 142.712  1.00  0.00     0.008 C 
BRANCH   2   3
ATOM      3  C   UNL     1     139.207 144.882 143.059  1.00  0.00    -0.003 C 
ATOM      4  C   UNL     1     139.472 145.811 141.874  1.00  0.00     0.004 C 
ENDBRANCH   2   3
ENDBRANCH   1   2
BRANCH   1   5
ATOM      5  C   UNL     1     137.464 141.748 144.009  1.00  0.00     0.132 C 
ATOM      6  O   UNL     1     138.535 141.160 143.993  1.00  0.00    -0.300 OA
BRANCH   5   7
ATOM      7  C   UNL     1     136.188 140.955 144.111  1.00  0.00     0.072 C 
ATOM      8  C   UNL     1     136.238 139.725 143.211  1.00  0.00     0.012 C 
ENDBRANCH   5   7
ENDBRANCH   1   5
TORSDOF 4
ENDMDL
MODEL 5
REMARK VINA RESULT:    -2.399      6.280      6.862
REMARK INTER + INTRA:          -3.107
REMARK INTER:                  -2.856
REMARK INTRA:                  -0.251
REMARK UNBOUND:                -0.147
REMARK SMILES CCCCC(=O)CC
REMARK SMILES IDX 4 1 3 2 2 3 1 4 5 5 6 6 7 7 8 8
REMARK H PARENT
REMARK Flexibility Score: inf
ROOT
ATOM      1  C   UNL     1     141.660 136.438 143.643  1.00  0.00     0.075 C 
ENDROOT
BRANCH   1   2
ATOM      2  C   UNL     1     142.501 136.230 142.376  1.00  0.00     0.008 C 
BRANCH   2   3
ATOM      3  C   UNL     1     141.867 135.223 141.405  1.00  0.00    -0.003 C 
ATOM      4  C   UNL     1     141.299 135.888 140.152  1.00  0.00     0.004 C 
ENDBRANCH   2   3
ENDBRANCH   1   2
BRANCH   1   5
ATOM      5  C   UNL     1     140.838 137.694 143.533  1.00  0.00     0.132 C 
ATOM      6  O   UNL     1     141.313 138.757 143.907  1.00  0.00    -0.300 OA
BRANCH   5   7
ATOM      7  C   UNL     1     139.442 137.668 142.970  1.00  0.00     0.072 C 
ATOM      8  C   UNL     1     138.430 137.274 144.041  1.00  0.00     0.012 C 
ENDBRANCH   5   7
ENDBRANCH   1   5
TORSDOF 4
ENDMDL
MODEL 6
REMARK VINA RESULT:    -2.394      7.551      8.355
REMARK INTER + INTRA:          -3.101
REMARK INTER:                  -2.935
REMARK INTRA:                  -0.165
REMARK UNBOUND:                -0.147
REMARK SMILES CCCCC(=O)CC
REMARK SMILES IDX 4 1 3 2 2 3 1 4 5 5 6 6 7 7 8 8
REMARK H PARENT
REMARK Flexibility Score: inf
ROOT
ATOM      1  C   UNL     1     137.651 138.385 142.225  1.00  0.00     0.075 C 
ENDROOT
BRANCH   1   2
ATOM      2  C   UNL     1     138.303 137.709 143.439  1.00  0.00     0.008 C 
BRANCH   2   3
ATOM      3  C   UNL     1     139.836 137.680 143.346  1.00  0.00    -0.003 C 
ATOM      4  C   UNL     1     140.452 136.505 144.103  1.00  0.00     0.004 C 
ENDBRANCH   2   3
ENDBRANCH   1   2
BRANCH   1   5
ATOM      5  C   UNL     1     136.450 139.189 142.648  1.00  0.00     0.132 C 
ATOM      6  O   UNL     1     135.557 139.404 141.841  1.00  0.00    -0.300 OA
BRANCH   5   7
ATOM      7  C   UNL     1     136.326 139.732 144.047  1.00  0.00     0.072 C 
ATOM      8  C   UNL     1     136.625 141.227 144.079  1.00  0.00     0.012 C 
ENDBRANCH   5   7
ENDBRANCH   1   5
TORSDOF 4
ENDMDL
MODEL 7
REMARK VINA RESULT:    -2.374      6.935      8.259
REMARK INTER + INTRA:          -3.076
REMARK INTER:                  -2.697
REMARK INTRA:                  -0.380
REMARK UNBOUND:                -0.147
REMARK SMILES CCCCC(=O)CC
REMARK SMILES IDX 4 1 3 2 2 3 1 4 5 5 6 6 7 7 8 8
REMARK H PARENT
REMARK Flexibility Score: inf
ROOT
ATOM      1  C   UNL     1     137.433 140.952 143.938  1.00  0.00     0.075 C 
ENDROOT
BRANCH   1   2
ATOM      2  C   UNL     1     136.010 140.479 143.609  1.00  0.00     0.008 C 
BRANCH   2   3
ATOM      3  C   UNL     1     135.943 139.673 142.303  1.00  0.00    -0.003 C 
ATOM      4  C   UNL     1     137.158 138.768 142.104  1.00  0.00     0.004 C 
ENDBRANCH   2   3
ENDBRANCH   1   2
BRANCH   1   5
ATOM      5  C   UNL     1     137.678 142.326 143.375  1.00  0.00     0.132 C 
ATOM      6  O   UNL     1     137.159 143.295 143.909  1.00  0.00    -0.300 OA
BRANCH   5   7
ATOM      7  C   UNL     1     138.553 142.530 142.166  1.00  0.00     0.072 C 
ATOM      8  C   UNL     1     137.711 142.790 140.922  1.00  0.00     0.012 C 
ENDBRANCH   5   7
ENDBRANCH   1   5
TORSDOF 4
ENDMDL
MODEL 8
REMARK VINA RESULT:    -2.314      7.082      8.076
REMARK INTER + INTRA:          -3.003
REMARK INTER:                  -2.648
REMARK INTRA:                  -0.355
REMARK UNBOUND:                -0.147
REMARK SMILES CCCCC(=O)CC
REMARK SMILES IDX 4 1 3 2 2 3 1 4 5 5 6 6 7 7 8 8
REMARK H PARENT
REMARK Flexibility Score: inf
ROOT
ATOM      1  C   UNL     1     138.407 141.138 144.125  1.00  0.00     0.075 C 
ENDROOT
BRANCH   1   2
ATOM      2  C   UNL     1     137.552 142.411 144.064  1.00  0.00     0.008 C 
BRANCH   2   3
ATOM      3  C   UNL     1     138.064 143.417 143.022  1.00  0.00    -0.003 C 
ATOM      4  C   UNL     1     138.000 142.875 141.595  1.00  0.00     0.004 C 
ENDBRANCH   2   3
ENDBRANCH   1   2
BRANCH   1   5
ATOM      5  C   UNL     1     137.554 139.915 143.920  1.00  0.00     0.132 C 
ATOM      6  O   UNL     1     138.032 138.808 144.122  1.00  0.00    -0.300 OA
BRANCH   5   7
ATOM      7  C   UNL     1     136.120 140.029 143.473  1.00  0.00     0.072 C 
ATOM      8  C   UNL     1     135.961 139.563 142.030  1.00  0.00     0.012 C 
ENDBRANCH   5   7
ENDBRANCH   1   5
TORSDOF 4
ENDMDL
MODEL 9
REMARK VINA RESULT:    -2.312      8.976     10.035
REMARK INTER + INTRA:          -3.000
REMARK INTER:                  -2.892
REMARK INTRA:                  -0.108
REMARK UNBOUND:                -0.147
REMARK SMILES CCCCC(=O)CC
REMARK SMILES IDX 4 1 3 2 2 3 1 4 5 5 6 6 7 7 8 8
REMARK H PARENT
REMARK Flexibility Score: inf
ROOT
ATOM      1  C   UNL     1     136.143 139.844 140.839  1.00  0.00     0.075 C 
ENDROOT
BRANCH   1   2
ATOM      2  C   UNL     1     134.610 139.856 140.778  1.00  0.00     0.008 C 
BRANCH   2   3
ATOM      3  C   UNL     1     134.077 140.028 139.347  1.00  0.00    -0.003 C 
ATOM      4  C   UNL     1     133.092 141.189 139.219  1.00  0.00     0.004 C 
ENDBRANCH   2   3
ENDBRANCH   1   2
BRANCH   1   5
ATOM      5  C   UNL     1     136.617 139.318 142.167  1.00  0.00     0.132 C 
ATOM      6  O   UNL     1     137.378 138.361 142.197  1.00  0.00    -0.300 OA
BRANCH   5   7
ATOM      7  C   UNL     1     136.173 139.949 143.461  1.00  0.00     0.072 C 
ATOM      8  C   UNL     1     137.074 141.122 143.831  1.00  0.00     0.012 C 
ENDBRANCH   5   7
ENDBRANCH   1   5
TORSDOF 4
ENDMDL
