MODEL 1
REMARK VINA RESULT:    16.032      0.000      0.000
REMARK INTER + INTRA:          16.032
REMARK INTER:                  16.032
REMARK INTRA:                   0.000
REMARK UNBOUND:                 0.000
REMARK SMILES CC1=CC[C@@]2(C)CCCC(C)(C)[C@]23C[C@H]13
REMARK SMILES IDX 1 1 2 2 3 3 4 4 5 5 7 6 8 7 9 8 10 9 13 10 15 11 14 12 11 13
REMARK SMILES IDX 12 14 6 15
REMARK H PARENT
REMARK Flexibility Score: inf
ROOT
ATOM      1  C   UNL     1     134.893 135.334 161.879  1.00  0.00     0.039 C 
ATOM      2  C   UNL     1     135.498 136.711 161.934  1.00  0.00    -0.074 C 
ATOM      3  C   UNL     1     135.189 137.588 160.970  1.00  0.00    -0.027 C 
ATOM      4  C   UNL     1     135.866 138.914 160.860  1.00  0.00     0.034 C 
ATOM      5  C   UNL     1     136.177 139.595 162.229  1.00  0.00    -0.022 C 
ATOM      6  C   UNL     1     134.875 140.264 162.746  1.00  0.00     0.008 C 
ATOM      7  C   UNL     1     135.012 140.865 164.152  1.00  0.00     0.001 C 
ATOM      8  C   UNL     1     135.439 139.815 165.183  1.00  0.00     0.007 C 
ATOM      9  C   UNL     1     136.761 139.072 164.840  1.00  0.00    -0.029 C 
ATOM     10  C   UNL     1     136.698 138.581 163.328  1.00  0.00    -0.012 C 
ATOM     11  C   UNL     1     136.347 137.088 163.127  1.00  0.00     0.022 C 
ATOM     12  C   UNL     1     137.762 137.585 162.837  1.00  0.00     0.017 C 
ATOM     13  C   UNL     1     137.982 140.003 165.061  1.00  0.00     0.012 C 
ATOM     14  C   UNL     1     136.896 137.928 165.888  1.00  0.00     0.012 C 
ATOM     15  C   UNL     1     137.244 140.680 161.915  1.00  0.00     0.012 C 
ENDROOT
TORSDOF 0
ENDMDL
MODEL 2
REMARK VINA RESULT:    18.146      1.558      2.653
REMARK INTER + INTRA:          18.146
REMARK INTER:                  18.146
REMARK INTRA:                   0.000
REMARK UNBOUND:                 0.000
REMARK SMILES CC1=CC[C@@]2(C)CCCC(C)(C)[C@]23C[C@H]13
REMARK SMILES IDX 1 1 2 2 3 3 4 4 5 5 7 6 8 7 9 8 10 9 13 10 15 11 14 12 11 13
REMARK SMILES IDX 12 14 6 15
REMARK H PARENT
REMARK Flexibility Score: inf
ROOT
ATOM      1  C   UNL     1     138.998 134.883 162.483  1.00  0.00     0.039 C 
ATOM      2  C   UNL     1     137.952 135.876 162.054  1.00  0.00    -0.074 C 
ATOM      3  C   UNL     1     136.744 135.423 161.695  1.00  0.00    -0.027 C 
ATOM      4  C   UNL     1     135.705 136.320 161.107  1.00  0.00     0.034 C 
ATOM      5  C   UNL     1     135.662 137.751 161.727  1.00  0.00    -0.022 C 
ATOM      6  C   UNL     1     134.886 137.676 163.069  1.00  0.00     0.008 C 
ATOM      7  C   UNL     1     134.880 138.999 163.848  1.00  0.00     0.001 C 
ATOM      8  C   UNL     1     136.299 139.488 164.155  1.00  0.00     0.007 C 
ATOM      9  C   UNL     1     137.208 139.662 162.906  1.00  0.00    -0.029 C 
ATOM     10  C   UNL     1     137.099 138.355 162.004  1.00  0.00    -0.012 C 
ATOM     11  C   UNL     1     138.268 137.352 162.143  1.00  0.00     0.022 C 
ATOM     12  C   UNL     1     138.112 138.170 160.862  1.00  0.00     0.017 C 
ATOM     13  C   UNL     1     136.789 140.918 162.099  1.00  0.00     0.012 C 
ATOM     14  C   UNL     1     138.636 139.956 163.451  1.00  0.00     0.012 C 
ATOM     15  C   UNL     1     134.876 138.617 160.705  1.00  0.00     0.012 C 
ENDROOT
TORSDOF 0
ENDMDL
MODEL 3
REMARK VINA RESULT:    18.664      1.333      4.154
REMARK INTER + INTRA:          18.664
REMARK INTER:                  18.664
REMARK INTRA:                   0.000
REMARK UNBOUND:                 0.000
REMARK SMILES CC1=CC[C@@]2(C)CCCC(C)(C)[C@]23C[C@H]13
REMARK SMILES IDX 1 1 2 2 3 3 4 4 5 5 7 6 8 7 9 8 10 9 13 10 15 11 14 12 11 13
REMARK SMILES IDX 12 14 6 15
REMARK H PARENT
REMARK Flexibility Score: inf
ROOT
ATOM      1  C   UNL     1     135.322 142.288 161.596  1.00  0.00     0.039 C 
ATOM      2  C   UNL     1     135.815 141.116 162.401  1.00  0.00    -0.074 C 
ATOM      3  C   UNL     1     135.494 141.047 163.700  1.00  0.00    -0.027 C 
ATOM      4  C   UNL     1     136.071 140.008 164.603  1.00  0.00     0.034 C 
ATOM      5  C   UNL     1     136.251 138.606 163.942  1.00  0.00    -0.022 C 
ATOM      6  C   UNL     1     134.875 137.889 163.941  1.00  0.00     0.008 C 
ATOM      7  C   UNL     1     134.885 136.544 163.202  1.00  0.00     0.001 C 
ATOM      8  C   UNL     1     135.334 136.696 161.745  1.00  0.00     0.007 C 
ATOM      9  C   UNL     1     136.726 137.363 161.563  1.00  0.00    -0.029 C 
ATOM     10  C   UNL     1     136.786 138.680 162.454  1.00  0.00    -0.012 C 
ATOM     11  C   UNL     1     136.563 140.009 161.694  1.00  0.00     0.022 C 
ATOM     12  C   UNL     1     137.950 139.661 162.232  1.00  0.00     0.017 C 
ATOM     13  C   UNL     1     137.857 136.381 161.965  1.00  0.00     0.012 C 
ATOM     14  C   UNL     1     136.890 137.607 160.034  1.00  0.00     0.012 C 
ATOM     15  C   UNL     1     137.247 137.845 164.860  1.00  0.00     0.012 C 
ENDROOT
TORSDOF 0
ENDMDL
MODEL 4
REMARK VINA RESULT:    18.704      1.334      3.234
REMARK INTER + INTRA:          18.704
REMARK INTER:                  18.704
REMARK INTRA:                   0.000
REMARK UNBOUND:                 0.000
REMARK SMILES CC1=CC[C@@]2(C)CCCC(C)(C)[C@]23C[C@H]13
REMARK SMILES IDX 1 1 2 2 3 3 4 4 5 5 7 6 8 7 9 8 10 9 13 10 15 11 14 12 11 13
REMARK SMILES IDX 12 14 6 15
REMARK H PARENT
REMARK Flexibility Score: inf
ROOT
ATOM      1  C   UNL     1     137.679 136.677 160.039  1.00  0.00     0.039 C 
ATOM      2  C   UNL     1     136.967 137.111 161.292  1.00  0.00    -0.074 C 
ATOM      3  C   UNL     1     136.973 136.293 162.352  1.00  0.00    -0.027 C 
ATOM      4  C   UNL     1     136.162 136.574 163.573  1.00  0.00     0.034 C 
ATOM      5  C   UNL     1     136.087 138.082 163.966  1.00  0.00    -0.022 C 
ATOM      6  C   UNL     1     137.397 138.456 164.709  1.00  0.00     0.008 C 
ATOM      7  C   UNL     1     137.508 139.951 165.041  1.00  0.00     0.001 C 
ATOM      8  C   UNL     1     137.417 140.824 163.784  1.00  0.00     0.007 C 
ATOM      9  C   UNL     1     136.133 140.606 162.937  1.00  0.00    -0.029 C 
ATOM     10  C   UNL     1     135.917 139.044 162.720  1.00  0.00    -0.012 C 
ATOM     11  C   UNL     1     136.362 138.496 161.344  1.00  0.00     0.022 C 
ATOM     12  C   UNL     1     134.875 138.587 161.685  1.00  0.00     0.017 C 
ATOM     13  C   UNL     1     134.902 141.234 163.643  1.00  0.00     0.012 C 
ATOM     14  C   UNL     1     136.340 141.420 161.626  1.00  0.00     0.012 C 
ATOM     15  C   UNL     1     134.876 138.195 164.932  1.00  0.00     0.012 C 
ENDROOT
TORSDOF 0
ENDMDL
