MODEL 1
REMARK VINA RESULT:    -3.531      0.000      0.000
REMARK INTER + INTRA:          -5.587
REMARK INTER:                  -5.182
REMARK INTRA:                  -0.405
REMARK UNBOUND:                -0.405
REMARK SMILES O=C([O-])CCCCCCCC(=O)[O-]
REMARK SMILES IDX 7 1 6 2 5 3 4 4 2 5 1 6 3 7 8 8 9 9 10 10 11 11 12 12 13 13
REMARK H PARENT
REMARK Flexibility Score: inf
ROOT
ATOM      1  C   UNL     1      63.139  32.049  60.724  1.00  0.00     0.000 C 
ENDROOT
BRANCH   1   2
ATOM      2  C   UNL     1      64.479  32.791  60.635  1.00  0.00     0.000 C 
BRANCH   2   3
ATOM      3  C   UNL     1      64.312  34.274  61.001  1.00  0.00     0.006 C 
BRANCH   3   4
ATOM      4  C   UNL     1      62.921  34.808  60.638  1.00  0.00     0.053 C 
BRANCH   4   5
ATOM      5  C   UNL     1      62.689  36.180  61.194  1.00  0.00     0.041 C 
ATOM      6  O   UNL     1      61.546  36.703  61.134  1.00  0.00    -0.550 OA
ATOM      7  O   UNL     1      63.745  36.894  61.748  1.00  0.00    -0.550 OA
ENDBRANCH   4   5
ENDBRANCH   3   4
ENDBRANCH   2   3
ENDBRANCH   1   2
BRANCH   1   8
ATOM      8  C   UNL     1      63.350  30.579  61.117  1.00  0.00     0.000 C 
BRANCH   8   9
ATOM      9  C   UNL     1      62.107  29.953  61.774  1.00  0.00     0.006 C 
BRANCH   9  10
ATOM     10  C   UNL     1      60.839  30.816  61.680  1.00  0.00     0.053 C 
BRANCH  10  11
ATOM     11  C   UNL     1      59.892  30.311  60.635  1.00  0.00     0.041 C 
ATOM     12  O   UNL     1      59.186  29.293  60.859  1.00  0.00    -0.550 OA
ATOM     13  O   UNL     1      59.814  30.946  59.401  1.00  0.00    -0.550 OA
ENDBRANCH  10  11
ENDBRANCH   9  10
ENDBRANCH   8   9
ENDBRANCH   1   8
TORSDOF 8
ENDMDL
MODEL 2
REMARK VINA RESULT:    -3.488     12.267     14.527
REMARK INTER + INTRA:          -5.525
REMARK INTER:                  -5.005
REMARK INTRA:                  -0.520
REMARK UNBOUND:                -0.405
REMARK SMILES O=C([O-])CCCCCCCC(=O)[O-]
REMARK SMILES IDX 7 1 6 2 5 3 4 4 2 5 1 6 3 7 8 8 9 9 10 10 11 11 12 12 13 13
REMARK H PARENT
REMARK Flexibility Score: inf
ROOT
ATOM      1  C   UNL     1      55.955  29.257  50.709  1.00  0.00     0.000 C 
ENDROOT
BRANCH   1   2
ATOM      2  C   UNL     1      54.899  28.149  50.591  1.00  0.00     0.000 C 
BRANCH   2   3
ATOM      3  C   UNL     1      55.493  26.782  50.963  1.00  0.00     0.006 C 
BRANCH   3   4
ATOM      4  C   UNL     1      55.346  25.759  49.829  1.00  0.00     0.053 C 
BRANCH   4   5
ATOM      5  C   UNL     1      53.981  25.144  49.808  1.00  0.00     0.041 C 
ATOM      6  O   UNL     1      53.683  24.233  50.624  1.00  0.00    -0.550 OA
ATOM      7  O   UNL     1      53.047  25.553  48.863  1.00  0.00    -0.550 OA
ENDBRANCH   4   5
ENDBRANCH   3   4
ENDBRANCH   2   3
ENDBRANCH   1   2
BRANCH   1   8
ATOM      8  C   UNL     1      57.302  28.685  51.174  1.00  0.00     0.000 C 
BRANCH   8   9
ATOM      9  C   UNL     1      58.500  29.300  50.429  1.00  0.00     0.006 C 
BRANCH   9  10
ATOM     10  C   UNL     1      58.967  28.495  49.205  1.00  0.00     0.053 C 
BRANCH  10  11
ATOM     11  C   UNL     1      59.918  27.401  49.582  1.00  0.00     0.041 C 
ATOM     12  O   UNL     1      59.538  26.201  49.574  1.00  0.00    -0.550 OA
ATOM     13  O   UNL     1      61.215  27.710  49.973  1.00  0.00    -0.550 OA
ENDBRANCH  10  11
ENDBRANCH   9  10
ENDBRANCH   8   9
ENDBRANCH   1   8
TORSDOF 8
ENDMDL
MODEL 3
REMARK VINA RESULT:    -3.456      2.106      6.320
REMARK INTER + INTRA:          -5.478
REMARK INTER:                  -5.117
REMARK INTRA:                  -0.361
REMARK UNBOUND:                -0.405
REMARK SMILES O=C([O-])CCCCCCCC(=O)[O-]
REMARK SMILES IDX 7 1 6 2 5 3 4 4 2 5 1 6 3 7 8 8 9 9 10 10 11 11 12 12 13 13
REMARK H PARENT
REMARK Flexibility Score: inf
ROOT
ATOM      1  C   UNL     1      61.834  33.200  60.283  1.00  0.00     0.000 C 
ENDROOT
BRANCH   1   2
ATOM      2  C   UNL     1      60.666  32.374  59.729  1.00  0.00     0.000 C 
BRANCH   2   3
ATOM      3  C   UNL     1      60.735  30.922  60.225  1.00  0.00     0.006 C 
BRANCH   3   4
ATOM      4  C   UNL     1      61.343  30.817  61.630  1.00  0.00     0.053 C 
BRANCH   4   5
ATOM      5  C   UNL     1      62.504  29.871  61.663  1.00  0.00     0.041 C 
ATOM      6  O   UNL     1      63.681  30.309  61.579  1.00  0.00    -0.550 OA
ATOM      7  O   UNL     1      62.284  28.502  61.753  1.00  0.00    -0.550 OA
ENDBRANCH   4   5
ENDBRANCH   3   4
ENDBRANCH   2   3
ENDBRANCH   1   2
BRANCH   1   8
ATOM      8  C   UNL     1      61.460  34.687  60.379  1.00  0.00     0.000 C 
BRANCH   8   9
ATOM      9  C   UNL     1      62.684  35.600  60.571  1.00  0.00     0.006 C 
BRANCH   9  10
ATOM     10  C   UNL     1      63.909  34.897  61.177  1.00  0.00     0.053 C 
BRANCH  10  11
ATOM     11  C   UNL     1      65.002  35.864  61.513  1.00  0.00     0.041 C 
ATOM     12  O   UNL     1      66.091  35.834  60.881  1.00  0.00    -0.550 OA
ATOM     13  O   UNL     1      64.831  36.777  62.546  1.00  0.00    -0.550 OA
ENDBRANCH  10  11
ENDBRANCH   9  10
ENDBRANCH   8   9
ENDBRANCH   1   8
TORSDOF 8
ENDMDL
MODEL 4
REMARK VINA RESULT:    -3.451     12.520     14.321
REMARK INTER + INTRA:          -5.470
REMARK INTER:                  -4.953
REMARK INTRA:                  -0.517
REMARK UNBOUND:                -0.405
REMARK SMILES O=C([O-])CCCCCCCC(=O)[O-]
REMARK SMILES IDX 7 1 6 2 5 3 4 4 2 5 1 6 3 7 8 8 9 9 10 10 11 11 12 12 13 13
REMARK H PARENT
REMARK Flexibility Score: inf
ROOT
ATOM      1  C   UNL     1      55.737  29.118  51.409  1.00  0.00     0.000 C 
ENDROOT
BRANCH   1   2
ATOM      2  C   UNL     1      54.357  29.369  50.787  1.00  0.00     0.000 C 
BRANCH   2   3
ATOM      3  C   UNL     1      53.823  28.102  50.102  1.00  0.00     0.006 C 
BRANCH   3   4
ATOM      4  C   UNL     1      54.150  26.831  50.897  1.00  0.00     0.053 C 
BRANCH   4   5
ATOM      5  C   UNL     1      54.801  25.790  50.039  1.00  0.00     0.041 C 
ATOM      6  O   UNL     1      56.053  25.663  50.037  1.00  0.00    -0.550 OA
ATOM      7  O   UNL     1      54.026  24.982  49.216  1.00  0.00    -0.550 OA
ENDBRANCH   4   5
ENDBRANCH   3   4
ENDBRANCH   2   3
ENDBRANCH   1   2
BRANCH   1   8
ATOM      8  C   UNL     1      56.854  29.345  50.380  1.00  0.00     0.000 C 
BRANCH   8   9
ATOM      9  C   UNL     1      58.131  28.548  50.700  1.00  0.00     0.006 C 
BRANCH   9  10
ATOM     10  C   UNL     1      59.100  28.402  49.515  1.00  0.00     0.053 C 
BRANCH  10  11
ATOM     11  C   UNL     1      59.967  27.187  49.646  1.00  0.00     0.041 C 
ATOM     12  O   UNL     1      61.214  27.309  49.768  1.00  0.00    -0.550 OA
ATOM     13  O   UNL     1      59.400  25.919  49.598  1.00  0.00    -0.550 OA
ENDBRANCH  10  11
ENDBRANCH   9  10
ENDBRANCH   8   9
ENDBRANCH   1   8
TORSDOF 8
ENDMDL
MODEL 5
REMARK VINA RESULT:    -3.412      2.280      5.600
REMARK INTER + INTRA:          -5.412
REMARK INTER:                  -4.634
REMARK INTRA:                  -0.778
REMARK UNBOUND:                -0.405
REMARK SMILES O=C([O-])CCCCCCCC(=O)[O-]
REMARK SMILES IDX 7 1 6 2 5 3 4 4 2 5 1 6 3 7 8 8 9 9 10 10 11 11 12 12 13 13
REMARK H PARENT
REMARK Flexibility Score: inf
ROOT
ATOM      1  C   UNL     1      60.468  31.616  59.789  1.00  0.00     0.000 C 
ENDROOT
BRANCH   1   2
ATOM      2  C   UNL     1      60.749  31.156  61.225  1.00  0.00     0.000 C 
BRANCH   2   3
ATOM      3  C   UNL     1      61.551  29.846  61.237  1.00  0.00     0.006 C 
BRANCH   3   4
ATOM      4  C   UNL     1      63.012  30.064  61.650  1.00  0.00     0.053 C 
BRANCH   4   5
ATOM      5  C   UNL     1      63.931  30.063  60.467  1.00  0.00     0.041 C 
ATOM      6  O   UNL     1      63.561  29.554  59.377  1.00  0.00    -0.550 OA
ATOM      7  O   UNL     1      65.210  30.595  60.578  1.00  0.00    -0.550 OA
ENDBRANCH   4   5
ENDBRANCH   3   4
ENDBRANCH   2   3
ENDBRANCH   1   2
BRANCH   1   8
ATOM      8  C   UNL     1      61.473  32.692  59.350  1.00  0.00     0.000 C 
BRANCH   8   9
ATOM      9  C   UNL     1      61.990  33.540  60.526  1.00  0.00     0.006 C 
BRANCH   9  10
ATOM     10  C   UNL     1      63.512  33.757  60.529  1.00  0.00     0.053 C 
BRANCH  10  11
ATOM     11  C   UNL     1      63.895  35.035  61.210  1.00  0.00     0.041 C 
ATOM     12  O   UNL     1      65.039  35.163  61.720  1.00  0.00    -0.550 OA
ATOM     13  O   UNL     1      62.977  36.074  61.309  1.00  0.00    -0.550 OA
ENDBRANCH  10  11
ENDBRANCH   9  10
ENDBRANCH   8   9
ENDBRANCH   1   8
TORSDOF 8
ENDMDL
MODEL 6
REMARK VINA RESULT:    -3.399     12.095     13.434
REMARK INTER + INTRA:          -5.394
REMARK INTER:                  -4.819
REMARK INTRA:                  -0.575
REMARK UNBOUND:                -0.405
REMARK SMILES O=C([O-])CCCCCCCC(=O)[O-]
REMARK SMILES IDX 7 1 6 2 5 3 4 4 2 5 1 6 3 7 8 8 9 9 10 10 11 11 12 12 13 13
REMARK H PARENT
REMARK Flexibility Score: inf
ROOT
ATOM      1  C   UNL     1      56.056  29.038  51.863  1.00  0.00     0.000 C 
ENDROOT
BRANCH   1   2
ATOM      2  C   UNL     1      57.527  29.223  51.470  1.00  0.00     0.000 C 
BRANCH   2   3
ATOM      3  C   UNL     1      57.777  28.746  50.031  1.00  0.00     0.006 C 
BRANCH   3   4
ATOM      4  C   UNL     1      59.224  28.987  49.583  1.00  0.00     0.053 C 
BRANCH   4   5
ATOM      5  C   UNL     1      60.023  27.720  49.578  1.00  0.00     0.041 C 
ATOM      6  O   UNL     1      61.281  27.764  49.619  1.00  0.00    -0.550 OA
ATOM      7  O   UNL     1      59.380  26.491  49.495  1.00  0.00    -0.550 OA
ENDBRANCH   4   5
ENDBRANCH   3   4
ENDBRANCH   2   3
ENDBRANCH   1   2
BRANCH   1   8
ATOM      8  C   UNL     1      55.126  29.383  50.690  1.00  0.00     0.000 C 
BRANCH   8   9
ATOM      9  C   UNL     1      54.175  28.230  50.324  1.00  0.00     0.006 C 
BRANCH   9  10
ATOM     10  C   UNL     1      54.456  26.916  51.071  1.00  0.00     0.053 C 
BRANCH  10  11
ATOM     11  C   UNL     1      55.070  25.883  50.177  1.00  0.00     0.041 C 
ATOM     12  O   UNL     1      56.302  25.633  50.251  1.00  0.00    -0.550 OA
ATOM     13  O   UNL     1      54.288  25.220  49.239  1.00  0.00    -0.550 OA
ENDBRANCH  10  11
ENDBRANCH   9  10
ENDBRANCH   8   9
ENDBRANCH   1   8
TORSDOF 8
ENDMDL
MODEL 7
REMARK VINA RESULT:    -3.395      2.578      3.196
REMARK INTER + INTRA:          -5.388
REMARK INTER:                  -4.855
REMARK INTRA:                  -0.533
REMARK UNBOUND:                -0.405
REMARK SMILES O=C([O-])CCCCCCCC(=O)[O-]
REMARK SMILES IDX 7 1 6 2 5 3 4 4 2 5 1 6 3 7 8 8 9 9 10 10 11 11 12 12 13 13
REMARK H PARENT
REMARK Flexibility Score: inf
ROOT
ATOM      1  C   UNL     1      60.963  31.724  60.097  1.00  0.00     0.000 C 
ENDROOT
BRANCH   1   2
ATOM      2  C   UNL     1      61.039  33.256  60.139  1.00  0.00     0.000 C 
BRANCH   2   3
ATOM      3  C   UNL     1      62.455  33.727  60.504  1.00  0.00     0.006 C 
BRANCH   3   4
ATOM      4  C   UNL     1      62.497  35.221  60.852  1.00  0.00     0.053 C 
BRANCH   4   5
ATOM      5  C   UNL     1      63.872  35.659  61.255  1.00  0.00     0.041 C 
ATOM      6  O   UNL     1      64.195  36.874  61.187  1.00  0.00    -0.550 OA
ATOM      7  O   UNL     1      64.808  34.721  61.672  1.00  0.00    -0.550 OA
ENDBRANCH   4   5
ENDBRANCH   3   4
ENDBRANCH   2   3
ENDBRANCH   1   2
BRANCH   1   8
ATOM      8  C   UNL     1      61.036  31.132  61.513  1.00  0.00     0.000 C 
BRANCH   8   9
ATOM      9  C   UNL     1      62.209  30.151  61.689  1.00  0.00     0.006 C 
BRANCH   9  10
ATOM     10  C   UNL     1      62.860  29.700  60.372  1.00  0.00     0.053 C 
BRANCH  10  11
ATOM     11  C   UNL     1      64.328  29.994  60.342  1.00  0.00     0.041 C 
ATOM     12  O   UNL     1      65.135  29.144  59.882  1.00  0.00    -0.550 OA
ATOM     13  O   UNL     1      64.809  31.194  60.852  1.00  0.00    -0.550 OA
ENDBRANCH  10  11
ENDBRANCH   9  10
ENDBRANCH   8   9
ENDBRANCH   1   8
TORSDOF 8
ENDMDL
MODEL 8
REMARK VINA RESULT:    -3.368      0.798      5.302
REMARK INTER + INTRA:          -5.348
REMARK INTER:                  -4.695
REMARK INTRA:                  -0.653
REMARK UNBOUND:                -0.405
REMARK SMILES O=C([O-])CCCCCCCC(=O)[O-]
REMARK SMILES IDX 7 1 6 2 5 3 4 4 2 5 1 6 3 7 8 8 9 9 10 10 11 11 12 12 13 13
REMARK H PARENT
REMARK Flexibility Score: inf
ROOT
ATOM      1  C   UNL     1      63.991  31.775  59.657  1.00  0.00     0.000 C 
ENDROOT
BRANCH   1   2
ATOM      2  C   UNL     1      64.064  31.102  61.034  1.00  0.00     0.000 C 
BRANCH   2   3
ATOM      3  C   UNL     1      62.890  30.132  61.235  1.00  0.00     0.006 C 
BRANCH   3   4
ATOM      4  C   UNL     1      61.645  30.836  61.792  1.00  0.00     0.053 C 
BRANCH   4   5
ATOM      5  C   UNL     1      60.494  30.770  60.835  1.00  0.00     0.041 C 
ATOM      6  O   UNL     1      59.623  29.870  60.952  1.00  0.00    -0.550 OA
ATOM      7  O   UNL     1      60.402  31.685  59.793  1.00  0.00    -0.550 OA
ENDBRANCH   4   5
ENDBRANCH   3   4
ENDBRANCH   2   3
ENDBRANCH   1   2
BRANCH   1   8
ATOM      8  C   UNL     1      64.471  33.232  59.732  1.00  0.00     0.000 C 
BRANCH   8   9
ATOM      9  C   UNL     1      63.866  34.000  60.921  1.00  0.00     0.006 C 
BRANCH   9  10
ATOM     10  C   UNL     1      62.462  34.567  60.660  1.00  0.00     0.053 C 
BRANCH  10  11
ATOM     11  C   UNL     1      62.361  36.013  61.038  1.00  0.00     0.041 C 
ATOM     12  O   UNL     1      63.370  36.624  61.480  1.00  0.00    -0.550 OA
ATOM     13  O   UNL     1      61.145  36.678  60.934  1.00  0.00    -0.550 OA
ENDBRANCH  10  11
ENDBRANCH   9  10
ENDBRANCH   8   9
ENDBRANCH   1   8
TORSDOF 8
ENDMDL
MODEL 9
REMARK VINA RESULT:    -3.314     12.322     13.514
REMARK INTER + INTRA:          -5.268
REMARK INTER:                  -4.754
REMARK INTRA:                  -0.514
REMARK UNBOUND:                -0.405
REMARK SMILES O=C([O-])CCCCCCCC(=O)[O-]
REMARK SMILES IDX 7 1 6 2 5 3 4 4 2 5 1 6 3 7 8 8 9 9 10 10 11 11 12 12 13 13
REMARK H PARENT
REMARK Flexibility Score: inf
ROOT
ATOM      1  C   UNL     1      57.422  29.521  51.225  1.00  0.00     0.000 C 
ENDROOT
BRANCH   1   2
ATOM      2  C   UNL     1      58.884  29.309  50.814  1.00  0.00     0.000 C 
BRANCH   2   3
ATOM      3  C   UNL     1      58.979  28.475  49.527  1.00  0.00     0.006 C 
BRANCH   3   4
ATOM      4  C   UNL     1      60.105  27.436  49.591  1.00  0.00     0.053 C 
BRANCH   4   5
ATOM      5  C   UNL     1      59.584  26.070  49.919  1.00  0.00     0.041 C 
ATOM      6  O   UNL     1      58.345  25.850  49.926  1.00  0.00    -0.550 OA
ATOM      7  O   UNL     1      60.466  25.050  50.252  1.00  0.00    -0.550 OA
ENDBRANCH   4   5
ENDBRANCH   3   4
ENDBRANCH   2   3
ENDBRANCH   1   2
BRANCH   1   8
ATOM      8  C   UNL     1      56.477  28.690  50.343  1.00  0.00     0.000 C 
BRANCH   8   9
ATOM      9  C   UNL     1      55.043  28.629  50.899  1.00  0.00     0.006 C 
BRANCH   9  10
ATOM     10  C   UNL     1      54.140  27.594  50.208  1.00  0.00     0.053 C 
BRANCH  10  11
ATOM     11  C   UNL     1      54.666  26.200  50.360  1.00  0.00     0.041 C 
ATOM     12  O   UNL     1      54.758  25.444  49.357  1.00  0.00    -0.550 OA
ATOM     13  O   UNL     1      55.023  25.723  51.615  1.00  0.00    -0.550 OA
ENDBRANCH  10  11
ENDBRANCH   9  10
ENDBRANCH   8   9
ENDBRANCH   1   8
TORSDOF 8
ENDMDL
