MODEL 1
REMARK VINA RESULT:    -0.357      0.000      0.000
REMARK INTER + INTRA:          -0.843
REMARK INTER:                  -0.545
REMARK INTRA:                  -0.298
REMARK UNBOUND:                -0.298
REMARK SMILES O=C([O-])CCCCCCCCC(=O)[O-]
REMARK SMILES IDX 7 1 6 2 5 3 4 4 2 5 1 6 3 7 8 8 9 9 10 10 11 11 12 12 13 13
REMARK SMILES IDX 14 14
REMARK H PARENT
REMARK Flexibility Score: inf
ROOT
ATOM      1  C   UNL     1       8.282 -29.622 -18.918  1.00  0.00     0.000 C 
ENDROOT
BRANCH   1   2
ATOM      2  C   UNL     1       6.980 -28.866 -18.603  1.00  0.00     0.000 C 
BRANCH   2   3
ATOM      3  C   UNL     1       6.183 -28.488 -19.864  1.00  0.00     0.006 C 
BRANCH   3   4
ATOM      4  C   UNL     1       6.688 -29.167 -21.149  1.00  0.00     0.053 C 
BRANCH   4   5
ATOM      5  C   UNL     1       6.825 -28.206 -22.291  1.00  0.00     0.041 C 
ATOM      6  O   UNL     1       5.889 -28.071 -23.122  1.00  0.00    -0.550 OA
ATOM      7  O   UNL     1       7.973 -27.433 -22.419  1.00  0.00    -0.550 OA
ENDBRANCH   4   5
ENDBRANCH   3   4
ENDBRANCH   2   3
ENDBRANCH   1   2
BRANCH   1   8
ATOM      8  C   UNL     1       9.206 -29.749 -17.695  1.00  0.00     0.000 C 
BRANCH   8   9
ATOM      9  C   UNL     1       8.509 -29.342 -16.385  1.00  0.00     0.000 C 
BRANCH   9  10
ATOM     10  C   UNL     1       8.832 -30.296 -15.225  1.00  0.00     0.006 C 
BRANCH  10  11
ATOM     11  C   UNL     1       9.873 -31.358 -15.604  1.00  0.00     0.053 C 
BRANCH  11  12
ATOM     12  C   UNL     1       9.201 -32.646 -15.956  1.00  0.00     0.041 C 
ATOM     13  O   UNL     1       9.047 -32.972 -17.162  1.00  0.00    -0.550 OA
ATOM     14  O   UNL     1       8.788 -33.512 -14.951  1.00  0.00    -0.550 OA
ENDBRANCH  11  12
ENDBRANCH  10  11
ENDBRANCH   9  10
ENDBRANCH   8   9
ENDBRANCH   1   8
TORSDOF 9
ENDMDL
MODEL 2
REMARK VINA RESULT:    -0.300      0.353      6.782
REMARK INTER + INTRA:          -0.756
REMARK INTER:                  -0.727
REMARK INTRA:                  -0.028
REMARK UNBOUND:                -0.298
REMARK SMILES O=C([O-])CCCCCCCCC(=O)[O-]
REMARK SMILES IDX 7 1 6 2 5 3 4 4 2 5 1 6 3 7 8 8 9 9 10 10 11 11 12 12 13 13
REMARK SMILES IDX 14 14
REMARK H PARENT
REMARK Flexibility Score: inf
ROOT
ATOM      1  C   UNL     1       9.237 -29.941 -17.382  1.00  0.00     0.000 C 
ENDROOT
BRANCH   1   2
ATOM      2  C   UNL     1       8.414 -29.579 -16.134  1.00  0.00     0.000 C 
BRANCH   2   3
ATOM      3  C   UNL     1       8.873 -30.330 -14.871  1.00  0.00     0.006 C 
BRANCH   3   4
ATOM      4  C   UNL     1       9.876 -31.463 -15.148  1.00  0.00     0.053 C 
BRANCH   4   5
ATOM      5  C   UNL     1       9.209 -32.717 -15.625  1.00  0.00     0.041 C 
ATOM      6  O   UNL     1       9.176 -32.989 -16.854  1.00  0.00    -0.550 OA
ATOM      7  O   UNL     1       8.654 -33.605 -14.711  1.00  0.00    -0.550 OA
ENDBRANCH   4   5
ENDBRANCH   3   4
ENDBRANCH   2   3
ENDBRANCH   1   2
BRANCH   1   8
ATOM      8  C   UNL     1       8.507 -29.607 -18.693  1.00  0.00     0.000 C 
BRANCH   8   9
ATOM      9  C   UNL     1       7.164 -28.894 -18.455  1.00  0.00     0.000 C 
BRANCH   9  10
ATOM     10  C   UNL     1       6.623 -28.219 -19.724  1.00  0.00     0.006 C 
BRANCH  10  11
ATOM     11  C   UNL     1       6.592 -29.165 -20.932  1.00  0.00     0.053 C 
BRANCH  11  12
ATOM     12  C   UNL     1       6.724 -28.391 -22.205  1.00  0.00     0.041 C 
ATOM     13  O   UNL     1       5.876 -28.535 -23.124  1.00  0.00    -0.550 OA
ATOM     14  O   UNL     1       7.755 -27.473 -22.357  1.00  0.00    -0.550 OA
ENDBRANCH  11  12
ENDBRANCH  10  11
ENDBRANCH   9  10
ENDBRANCH   8   9
ENDBRANCH   1   8
TORSDOF 9
ENDMDL
MODEL 3
REMARK VINA RESULT:     1.868      0.961      6.284
REMARK INTER + INTRA:           2.554
REMARK INTER:                   1.028
REMARK INTRA:                   1.526
REMARK UNBOUND:                -0.298
REMARK SMILES O=C([O-])CCCCCCCCC(=O)[O-]
REMARK SMILES IDX 7 1 6 2 5 3 4 4 2 5 1 6 3 7 8 8 9 9 10 10 11 11 12 12 13 13
REMARK SMILES IDX 14 14
REMARK H PARENT
REMARK Flexibility Score: inf
ROOT
ATOM      1  C   UNL     1       7.911 -29.146 -16.004  1.00  0.00     0.000 C 
ENDROOT
BRANCH   1   2
ATOM      2  C   UNL     1       8.522 -29.356 -14.608  1.00  0.00     0.000 C 
BRANCH   2   3
ATOM      3  C   UNL     1       8.995 -30.801 -14.368  1.00  0.00     0.006 C 
BRANCH   3   4
ATOM      4  C   UNL     1       9.790 -31.401 -15.541  1.00  0.00     0.053 C 
BRANCH   4   5
ATOM      5  C   UNL     1       9.237 -32.718 -15.996  1.00  0.00     0.041 C 
ATOM      6  O   UNL     1       8.747 -33.522 -15.160  1.00  0.00    -0.550 OA
ATOM      7  O   UNL     1       9.229 -33.043 -17.347  1.00  0.00    -0.550 OA
ENDBRANCH   4   5
ENDBRANCH   3   4
ENDBRANCH   2   3
ENDBRANCH   1   2
BRANCH   1   8
ATOM      8  C   UNL     1       8.906 -29.439 -17.138  1.00  0.00     0.000 C 
BRANCH   8   9
ATOM      9  C   UNL     1       8.224 -29.512 -18.516  1.00  0.00     0.000 C 
BRANCH   9  10
ATOM     10  C   UNL     1       6.974 -28.622 -18.603  1.00  0.00     0.006 C 
BRANCH  10  11
ATOM     11  C   UNL     1       6.197 -28.818 -19.912  1.00  0.00     0.053 C 
BRANCH  11  12
ATOM     12  C   UNL     1       7.136 -28.865 -21.075  1.00  0.00     0.041 C 
ATOM     13  O   UNL     1       6.928 -28.146 -22.087  1.00  0.00    -0.550 OA
ATOM     14  O   UNL     1       8.270 -29.665 -21.021  1.00  0.00    -0.550 OA
ENDBRANCH  11  12
ENDBRANCH  10  11
ENDBRANCH   9  10
ENDBRANCH   8   9
ENDBRANCH   1   8
TORSDOF 9
ENDMDL
