MODEL 1
REMARK VINA RESULT:    -3.350      0.000      0.000
REMARK INTER + INTRA:          -3.350
REMARK INTER:                  -3.350
REMARK INTRA:                   0.000
REMARK UNBOUND:                 0.000
REMARK SMILES CC1=CC[C@@]2(C)CCCC(C)(C)[C@]23C[C@H]13
REMARK SMILES IDX 1 1 2 2 3 3 4 4 5 5 7 6 8 7 9 8 10 9 13 10 15 11 14 12 11 13
REMARK SMILES IDX 12 14 6 15
REMARK H PARENT
REMARK Flexibility Score: inf
ROOT
ATOM      1  C   UNL     1     139.911 155.058 124.572  1.00  0.00     0.039 C 
ATOM      2  C   UNL     1     138.800 154.324 123.880  1.00  0.00    -0.074 C 
ATOM      3  C   UNL     1     138.387 154.719 122.665  1.00  0.00    -0.027 C 
ATOM      4  C   UNL     1     137.219 154.047 122.000  1.00  0.00     0.034 C 
ATOM      5  C   UNL     1     136.087 153.758 123.024  1.00  0.00    -0.022 C 
ATOM      6  C   UNL     1     134.911 153.062 122.281  1.00  0.00     0.008 C 
ATOM      7  C   UNL     1     135.127 151.590 121.899  1.00  0.00     0.001 C 
ATOM      8  C   UNL     1     136.093 150.810 122.801  1.00  0.00     0.007 C 
ATOM      9  C   UNL     1     136.218 151.331 124.253  1.00  0.00    -0.029 C 
ATOM     10  C   UNL     1     136.666 152.847 124.194  1.00  0.00    -0.012 C 
ATOM     11  C   UNL     1     138.150 153.140 124.557  1.00  0.00     0.022 C 
ATOM     12  C   UNL     1     137.043 153.514 125.534  1.00  0.00     0.017 C 
ATOM     13  C   UNL     1     134.875 151.202 125.009  1.00  0.00     0.012 C 
ATOM     14  C   UNL     1     137.220 150.379 124.967  1.00  0.00     0.012 C 
ATOM     15  C   UNL     1     135.515 155.108 123.541  1.00  0.00     0.012 C 
ENDROOT
TORSDOF 0
ENDMDL
MODEL 2
REMARK VINA RESULT:    -3.264     13.856     16.484
REMARK INTER + INTRA:          -3.264
REMARK INTER:                  -3.264
REMARK INTRA:                   0.000
REMARK UNBOUND:                 0.000
REMARK SMILES CC1=CC[C@@]2(C)CCCC(C)(C)[C@]23C[C@H]13
REMARK SMILES IDX 1 1 2 2 3 3 4 4 5 5 7 6 8 7 9 8 10 9 13 10 15 11 14 12 11 13
REMARK SMILES IDX 12 14 6 15
REMARK H PARENT
REMARK Flexibility Score: inf
ROOT
ATOM      1  C   UNL     1     135.728 139.937 124.499  1.00  0.00     0.039 C 
ATOM      2  C   UNL     1     136.443 138.806 123.819  1.00  0.00    -0.074 C 
ATOM      3  C   UNL     1     136.027 138.373 122.618  1.00  0.00    -0.027 C 
ATOM      4  C   UNL     1     136.680 137.186 121.967  1.00  0.00     0.034 C 
ATOM      5  C   UNL     1     136.973 136.072 123.010  1.00  0.00    -0.022 C 
ATOM      6  C   UNL     1     137.648 134.876 122.281  1.00  0.00     0.008 C 
ATOM      7  C   UNL     1     139.117 135.071 121.875  1.00  0.00     0.001 C 
ATOM      8  C   UNL     1     139.918 136.048 122.747  1.00  0.00     0.007 C 
ATOM      9  C   UNL     1     139.418 136.206 124.203  1.00  0.00    -0.029 C 
ATOM     10  C   UNL     1     137.905 136.666 124.155  1.00  0.00    -0.012 C 
ATOM     11  C   UNL     1     137.630 138.159 124.493  1.00  0.00     0.022 C 
ATOM     12  C   UNL     1     137.260 137.075 125.497  1.00  0.00     0.017 C 
ATOM     13  C   UNL     1     139.545 134.877 124.984  1.00  0.00     0.012 C 
ATOM     14  C   UNL     1     140.388 137.213 124.885  1.00  0.00     0.012 C 
ATOM     15  C   UNL     1     135.625 135.523 123.556  1.00  0.00     0.012 C 
ENDROOT
TORSDOF 0
ENDMDL
MODEL 3
REMARK VINA RESULT:    -1.567     13.890     16.461
REMARK INTER + INTRA:          -1.567
REMARK INTER:                  -1.567
REMARK INTRA:                   0.000
REMARK UNBOUND:                 0.000
REMARK SMILES CC1=CC[C@@]2(C)CCCC(C)(C)[C@]23C[C@H]13
REMARK SMILES IDX 1 1 2 2 3 3 4 4 5 5 7 6 8 7 9 8 10 9 13 10 15 11 14 12 11 13
REMARK SMILES IDX 12 14 6 15
REMARK H PARENT
REMARK Flexibility Score: inf
ROOT
ATOM      1  C   UNL     1     139.966 134.875 126.002  1.00  0.00     0.039 C 
ATOM      2  C   UNL     1     138.812 135.687 125.489  1.00  0.00    -0.074 C 
ATOM      3  C   UNL     1     137.583 135.505 125.997  1.00  0.00    -0.027 C 
ATOM      4  C   UNL     1     136.406 136.249 125.432  1.00  0.00     0.034 C 
ATOM      5  C   UNL     1     136.481 136.314 123.881  1.00  0.00    -0.022 C 
ATOM      6  C   UNL     1     135.243 137.095 123.356  1.00  0.00     0.008 C 
ATOM      7  C   UNL     1     135.268 138.618 123.556  1.00  0.00     0.001 C 
ATOM      8  C   UNL     1     136.665 139.253 123.615  1.00  0.00     0.007 C 
ATOM      9  C   UNL     1     137.779 138.483 122.867  1.00  0.00    -0.029 C 
ATOM     10  C   UNL     1     137.845 137.017 123.457  1.00  0.00    -0.012 C 
ATOM     11  C   UNL     1     139.043 136.709 124.400  1.00  0.00     0.022 C 
ATOM     12  C   UNL     1     139.021 136.131 122.992  1.00  0.00     0.017 C 
ATOM     13  C   UNL     1     137.497 138.431 121.346  1.00  0.00     0.012 C 
ATOM     14  C   UNL     1     139.077 139.321 123.047  1.00  0.00     0.012 C 
ATOM     15  C   UNL     1     136.343 134.875 123.307  1.00  0.00     0.012 C 
ENDROOT
TORSDOF 0
ENDMDL
MODEL 4
REMARK VINA RESULT:    -0.554      1.247      3.901
REMARK INTER + INTRA:          -0.554
REMARK INTER:                  -0.554
REMARK INTRA:                   0.000
REMARK UNBOUND:                 0.000
REMARK SMILES CC1=CC[C@@]2(C)CCCC(C)(C)[C@]23C[C@H]13
REMARK SMILES IDX 1 1 2 2 3 3 4 4 5 5 7 6 8 7 9 8 10 9 13 10 15 11 14 12 11 13
REMARK SMILES IDX 12 14 6 15
REMARK H PARENT
REMARK Flexibility Score: inf
ROOT
ATOM      1  C   UNL     1     137.279 149.216 124.875  1.00  0.00     0.039 C 
ATOM      2  C   UNL     1     136.754 150.542 124.405  1.00  0.00    -0.074 C 
ATOM      3  C   UNL     1     135.501 150.640 123.935  1.00  0.00    -0.027 C 
ATOM      4  C   UNL     1     134.993 151.942 123.382  1.00  0.00     0.034 C 
ATOM      5  C   UNL     1     136.081 152.643 122.523  1.00  0.00    -0.022 C 
ATOM      6  C   UNL     1     135.502 153.981 121.982  1.00  0.00     0.008 C 
ATOM      7  C   UNL     1     135.375 155.125 123.000  1.00  0.00     0.001 C 
ATOM      8  C   UNL     1     136.372 155.084 124.166  1.00  0.00     0.007 C 
ATOM      9  C   UNL     1     137.708 154.359 123.876  1.00  0.00    -0.029 C 
ATOM     10  C   UNL     1     137.375 152.881 123.419  1.00  0.00    -0.012 C 
ATOM     11  C   UNL     1     137.643 151.762 124.465  1.00  0.00     0.022 C 
ATOM     12  C   UNL     1     138.570 151.915 123.267  1.00  0.00     0.017 C 
ATOM     13  C   UNL     1     138.511 155.089 122.773  1.00  0.00     0.012 C 
ATOM     14  C   UNL     1     138.549 154.469 125.180  1.00  0.00     0.012 C 
ATOM     15  C   UNL     1     136.372 151.775 121.267  1.00  0.00     0.012 C 
ENDROOT
TORSDOF 0
ENDMDL
MODEL 5
REMARK VINA RESULT:    -0.483     14.231     16.679
REMARK INTER + INTRA:          -0.483
REMARK INTER:                  -0.483
REMARK INTRA:                   0.000
REMARK UNBOUND:                 0.000
REMARK SMILES CC1=CC[C@@]2(C)CCCC(C)(C)[C@]23C[C@H]13
REMARK SMILES IDX 1 1 2 2 3 3 4 4 5 5 7 6 8 7 9 8 10 9 13 10 15 11 14 12 11 13
REMARK SMILES IDX 12 14 6 15
REMARK H PARENT
REMARK Flexibility Score: inf
ROOT
ATOM      1  C   UNL     1     140.886 134.875 122.778  1.00  0.00     0.039 C 
ATOM      2  C   UNL     1     139.843 135.733 123.434  1.00  0.00    -0.074 C 
ATOM      3  C   UNL     1     139.912 135.986 124.750  1.00  0.00    -0.027 C 
ATOM      4  C   UNL     1     138.827 136.771 125.434  1.00  0.00     0.034 C 
ATOM      5  C   UNL     1     137.425 136.354 124.910  1.00  0.00    -0.022 C 
ATOM      6  C   UNL     1     136.348 137.198 125.649  1.00  0.00     0.008 C 
ATOM      7  C   UNL     1     136.224 138.666 125.216  1.00  0.00     0.001 C 
ATOM      8  C   UNL     1     136.637 138.965 123.768  1.00  0.00     0.007 C 
ATOM      9  C   UNL     1     136.506 137.781 122.780  1.00  0.00    -0.029 C 
ATOM     10  C   UNL     1     137.372 136.579 123.335  1.00  0.00    -0.012 C 
ATOM     11  C   UNL     1     138.718 136.308 122.605  1.00  0.00     0.022 C 
ATOM     12  C   UNL     1     137.545 135.358 122.406  1.00  0.00     0.017 C 
ATOM     13  C   UNL     1     135.030 137.345 122.625  1.00  0.00     0.012 C 
ATOM     14  C   UNL     1     136.953 138.326 121.393  1.00  0.00     0.012 C 
ATOM     15  C   UNL     1     137.151 134.878 125.315  1.00  0.00     0.012 C 
ENDROOT
TORSDOF 0
ENDMDL
