MODEL 1
REMARK VINA RESULT:    -4.101      0.000      0.000
REMARK INTER + INTRA:          -5.955
REMARK INTER:                  -5.780
REMARK INTRA:                  -0.175
REMARK UNBOUND:                -0.175
REMARK SMILES CCCCCCCCC(=O)[O-]
REMARK SMILES IDX 6 1 7 2 8 3 9 4 10 5 11 6 5 7 4 8 3 9 2 10 1 11
REMARK H PARENT
REMARK Flexibility Score: inf
ROOT
ATOM      1  C   UNL     1      57.882  33.178  79.028  1.00  0.00     0.000 C 
ENDROOT
BRANCH   1   2
ATOM      2  C   UNL     1      59.123  33.855  79.635  1.00  0.00     0.006 C 
BRANCH   2   3
ATOM      3  C   UNL     1      58.762  34.791  80.797  1.00  0.00     0.053 C 
BRANCH   3   4
ATOM      4  C   UNL     1      58.718  36.224  80.360  1.00  0.00     0.041 C 
ATOM      5  O   UNL     1      59.326  36.588  79.319  1.00  0.00    -0.550 OA
ATOM      6  O   UNL     1      57.977  37.148  81.083  1.00  0.00    -0.550 OA
ENDBRANCH   3   4
ENDBRANCH   2   3
ENDBRANCH   1   2
BRANCH   1   7
ATOM      7  C   UNL     1      57.991  33.002  77.505  1.00  0.00     0.000 C 
BRANCH   7   8
ATOM      8  C   UNL     1      58.233  31.542  77.095  1.00  0.00    -0.000 C 
BRANCH   8   9
ATOM      9  C   UNL     1      57.677  31.267  75.689  1.00  0.00    -0.000 C 
BRANCH   9  10
ATOM     10  C   UNL     1      57.154  29.832  75.530  1.00  0.00    -0.003 C 
ATOM     11  C   UNL     1      56.033  29.722  74.497  1.00  0.00     0.004 C 
ENDBRANCH   9  10
ENDBRANCH   8   9
ENDBRANCH   7   8
ENDBRANCH   1   7
TORSDOF 7
ENDMDL
MODEL 2
REMARK VINA RESULT:    -4.071      2.147      3.372
REMARK INTER + INTRA:          -5.912
REMARK INTER:                  -5.311
REMARK INTRA:                  -0.601
REMARK UNBOUND:                -0.175
REMARK SMILES CCCCCCCCC(=O)[O-]
REMARK SMILES IDX 6 1 7 2 8 3 9 4 10 5 11 6 5 7 4 8 3 9 2 10 1 11
REMARK H PARENT
REMARK Flexibility Score: inf
ROOT
ATOM      1  C   UNL     1      57.864  33.243  78.982  1.00  0.00     0.000 C 
ENDROOT
BRANCH   1   2
ATOM      2  C   UNL     1      59.126  33.851  79.618  1.00  0.00     0.006 C 
BRANCH   2   3
ATOM      3  C   UNL     1      58.793  34.754  80.813  1.00  0.00     0.053 C 
BRANCH   3   4
ATOM      4  C   UNL     1      58.790  36.203  80.428  1.00  0.00     0.041 C 
ATOM      5  O   UNL     1      59.421  36.590  79.410  1.00  0.00    -0.550 OA
ATOM      6  O   UNL     1      58.060  37.118  81.174  1.00  0.00    -0.550 OA
ENDBRANCH   3   4
ENDBRANCH   2   3
ENDBRANCH   1   2
BRANCH   1   7
ATOM      7  C   UNL     1      57.922  33.236  77.445  1.00  0.00     0.000 C 
BRANCH   7   8
ATOM      8  C   UNL     1      58.024  34.649  76.852  1.00  0.00    -0.000 C 
BRANCH   8   9
ATOM      9  C   UNL     1      56.858  34.926  75.890  1.00  0.00    -0.000 C 
BRANCH   9  10
ATOM     10  C   UNL     1      56.104  36.220  76.234  1.00  0.00    -0.003 C 
ATOM     11  C   UNL     1      56.357  36.689  77.667  1.00  0.00     0.004 C 
ENDBRANCH   9  10
ENDBRANCH   8   9
ENDBRANCH   7   8
ENDBRANCH   1   7
TORSDOF 7
ENDMDL
MODEL 3
REMARK VINA RESULT:    -4.033      3.174      5.794
REMARK INTER + INTRA:          -5.858
REMARK INTER:                  -5.118
REMARK INTRA:                  -0.740
REMARK UNBOUND:                -0.175
REMARK SMILES CCCCCCCCC(=O)[O-]
REMARK SMILES IDX 6 1 7 2 8 3 9 4 10 5 11 6 5 7 4 8 3 9 2 10 1 11
REMARK H PARENT
REMARK Flexibility Score: inf
ROOT
ATOM      1  C   UNL     1      59.127  33.900  79.650  1.00  0.00     0.000 C 
ENDROOT
BRANCH   1   2
ATOM      2  C   UNL     1      57.905  33.268  78.961  1.00  0.00     0.006 C 
BRANCH   2   3
ATOM      3  C   UNL     1      57.879  33.555  77.454  1.00  0.00     0.053 C 
BRANCH   3   4
ATOM      4  C   UNL     1      57.965  32.295  76.648  1.00  0.00     0.041 C 
ATOM      5  O   UNL     1      58.399  31.235  77.174  1.00  0.00    -0.550 OA
ATOM      6  O   UNL     1      57.533  32.282  75.329  1.00  0.00    -0.550 OA
ENDBRANCH   3   4
ENDBRANCH   2   3
ENDBRANCH   1   2
BRANCH   1   7
ATOM      7  C   UNL     1      58.735  34.924  80.727  1.00  0.00     0.000 C 
BRANCH   7   8
ATOM      8  C   UNL     1      58.679  36.360  80.184  1.00  0.00    -0.000 C 
BRANCH   8   9
ATOM      9  C   UNL     1      57.226  36.850  80.077  1.00  0.00    -0.000 C 
BRANCH   9  10
ATOM     10  C   UNL     1      56.758  36.995  78.621  1.00  0.00    -0.003 C 
ATOM     11  C   UNL     1      57.906  37.301  77.658  1.00  0.00     0.004 C 
ENDBRANCH   9  10
ENDBRANCH   8   9
ENDBRANCH   7   8
ENDBRANCH   1   7
TORSDOF 7
ENDMDL
MODEL 4
REMARK VINA RESULT:    -4.020      3.296      5.866
REMARK INTER + INTRA:          -5.841
REMARK INTER:                  -5.175
REMARK INTRA:                  -0.665
REMARK UNBOUND:                -0.175
REMARK SMILES CCCCCCCCC(=O)[O-]
REMARK SMILES IDX 6 1 7 2 8 3 9 4 10 5 11 6 5 7 4 8 3 9 2 10 1 11
REMARK H PARENT
REMARK Flexibility Score: inf
ROOT
ATOM      1  C   UNL     1      59.031  33.790  79.388  1.00  0.00     0.000 C 
ENDROOT
BRANCH   1   2
ATOM      2  C   UNL     1      57.936  33.034  78.615  1.00  0.00     0.006 C 
BRANCH   2   3
ATOM      3  C   UNL     1      57.926  33.395  77.124  1.00  0.00     0.053 C 
BRANCH   3   4
ATOM      4  C   UNL     1      57.879  32.173  76.259  1.00  0.00     0.041 C 
ATOM      5  O   UNL     1      57.465  32.252  75.072  1.00  0.00    -0.550 OA
ATOM      6  O   UNL     1      58.326  30.954  76.752  1.00  0.00    -0.550 OA
ENDBRANCH   3   4
ENDBRANCH   2   3
ENDBRANCH   1   2
BRANCH   1   7
ATOM      7  C   UNL     1      58.558  34.260  80.774  1.00  0.00     0.000 C 
BRANCH   7   8
ATOM      8  C   UNL     1      58.839  35.750  81.020  1.00  0.00    -0.000 C 
BRANCH   8   9
ATOM      9  C   UNL     1      58.786  36.542  79.704  1.00  0.00    -0.000 C 
BRANCH   9  10
ATOM     10  C   UNL     1      57.432  37.233  79.485  1.00  0.00    -0.003 C 
ATOM     11  C   UNL     1      56.745  36.792  78.192  1.00  0.00     0.004 C 
ENDBRANCH   9  10
ENDBRANCH   8   9
ENDBRANCH   7   8
ENDBRANCH   1   7
TORSDOF 7
ENDMDL
MODEL 5
REMARK VINA RESULT:    -3.927      2.892      4.828
REMARK INTER + INTRA:          -5.709
REMARK INTER:                  -4.932
REMARK INTRA:                  -0.777
REMARK UNBOUND:                -0.175
REMARK SMILES CCCCCCCCC(=O)[O-]
REMARK SMILES IDX 6 1 7 2 8 3 9 4 10 5 11 6 5 7 4 8 3 9 2 10 1 11
REMARK H PARENT
REMARK Flexibility Score: inf
ROOT
ATOM      1  C   UNL     1      57.248  36.955  80.089  1.00  0.00     0.000 C 
ENDROOT
BRANCH   1   2
ATOM      2  C   UNL     1      56.900  37.552  78.713  1.00  0.00     0.006 C 
BRANCH   2   3
ATOM      3  C   UNL     1      56.538  36.469  77.688  1.00  0.00     0.053 C 
BRANCH   3   4
ATOM      4  C   UNL     1      57.477  36.476  76.520  1.00  0.00     0.041 C 
ATOM      5  O   UNL     1      57.038  36.659  75.354  1.00  0.00    -0.550 OA
ATOM      6  O   UNL     1      58.841  36.315  76.724  1.00  0.00    -0.550 OA
ENDBRANCH   3   4
ENDBRANCH   2   3
ENDBRANCH   1   2
BRANCH   1   7
ATOM      7  C   UNL     1      58.722  36.530  80.192  1.00  0.00     0.000 C 
BRANCH   7   8
ATOM      8  C   UNL     1      58.934  35.371  81.179  1.00  0.00    -0.000 C 
BRANCH   8   9
ATOM      9  C   UNL     1      58.346  34.064  80.624  1.00  0.00    -0.000 C 
BRANCH   9  10
ATOM     10  C   UNL     1      58.954  33.671  79.270  1.00  0.00    -0.003 C 
ATOM     11  C   UNL     1      57.921  33.093  78.302  1.00  0.00     0.004 C 
ENDBRANCH   9  10
ENDBRANCH   8   9
ENDBRANCH   7   8
ENDBRANCH   1   7
TORSDOF 7
ENDMDL
MODEL 6
REMARK VINA RESULT:    -3.924      2.430      3.936
REMARK INTER + INTRA:          -5.704
REMARK INTER:                  -5.007
REMARK INTRA:                  -0.697
REMARK UNBOUND:                -0.175
REMARK SMILES CCCCCCCCC(=O)[O-]
REMARK SMILES IDX 6 1 7 2 8 3 9 4 10 5 11 6 5 7 4 8 3 9 2 10 1 11
REMARK H PARENT
REMARK Flexibility Score: inf
ROOT
ATOM      1  C   UNL     1      58.196  36.211  77.042  1.00  0.00     0.000 C 
ENDROOT
BRANCH   1   2
ATOM      2  C   UNL     1      58.111  37.286  78.139  1.00  0.00     0.006 C 
BRANCH   2   3
ATOM      3  C   UNL     1      56.729  37.325  78.805  1.00  0.00     0.053 C 
BRANCH   3   4
ATOM      4  C   UNL     1      56.835  37.435  80.295  1.00  0.00     0.041 C 
ATOM      5  O   UNL     1      57.954  37.313  80.862  1.00  0.00    -0.550 OA
ATOM      6  O   UNL     1      55.705  37.707  81.054  1.00  0.00    -0.550 OA
ENDBRANCH   3   4
ENDBRANCH   2   3
ENDBRANCH   1   2
BRANCH   1   7
ATOM      7  C   UNL     1      57.262  35.019  77.309  1.00  0.00     0.000 C 
BRANCH   7   8
ATOM      8  C   UNL     1      57.910  33.671  76.957  1.00  0.00    -0.000 C 
BRANCH   8   9
ATOM      9  C   UNL     1      58.364  32.933  78.225  1.00  0.00    -0.000 C 
BRANCH   9  10
ATOM     10  C   UNL     1      57.851  33.597  79.512  1.00  0.00    -0.003 C 
ATOM     11  C   UNL     1      58.981  34.118  80.400  1.00  0.00     0.004 C 
ENDBRANCH   9  10
ENDBRANCH   8   9
ENDBRANCH   7   8
ENDBRANCH   1   7
TORSDOF 7
ENDMDL
MODEL 7
REMARK VINA RESULT:    -3.905      3.041      5.935
REMARK INTER + INTRA:          -5.678
REMARK INTER:                  -5.147
REMARK INTRA:                  -0.531
REMARK UNBOUND:                -0.175
REMARK SMILES CCCCCCCCC(=O)[O-]
REMARK SMILES IDX 6 1 7 2 8 3 9 4 10 5 11 6 5 7 4 8 3 9 2 10 1 11
REMARK H PARENT
REMARK Flexibility Score: inf
ROOT
ATOM      1  C   UNL     1      58.877  35.782  80.768  1.00  0.00     0.000 C 
ENDROOT
BRANCH   1   2
ATOM      2  C   UNL     1      58.048  34.587  80.267  1.00  0.00     0.006 C 
BRANCH   2   3
ATOM      3  C   UNL     1      58.862  33.661  79.353  1.00  0.00     0.053 C 
BRANCH   3   4
ATOM      4  C   UNL     1      58.086  33.263  78.135  1.00  0.00     0.041 C 
ATOM      5  O   UNL     1      57.465  34.131  77.467  1.00  0.00    -0.550 OA
ATOM      6  O   UNL     1      58.079  31.939  77.718  1.00  0.00    -0.550 OA
ENDBRANCH   3   4
ENDBRANCH   2   3
ENDBRANCH   1   2
BRANCH   1   7
ATOM      7  C   UNL     1      58.166  37.128  80.549  1.00  0.00     0.000 C 
BRANCH   7   8
ATOM      8  C   UNL     1      56.818  36.973  79.829  1.00  0.00    -0.000 C 
BRANCH   8   9
ATOM      9  C   UNL     1      56.898  37.516  78.394  1.00  0.00    -0.000 C 
BRANCH   9  10
ATOM     10  C   UNL     1      58.120  38.418  78.170  1.00  0.00    -0.003 C 
ATOM     11  C   UNL     1      57.771  39.722  77.451  1.00  0.00     0.004 C 
ENDBRANCH   9  10
ENDBRANCH   8   9
ENDBRANCH   7   8
ENDBRANCH   1   7
TORSDOF 7
ENDMDL
MODEL 8
REMARK VINA RESULT:    -3.807      1.364      2.210
REMARK INTER + INTRA:          -5.540
REMARK INTER:                  -5.255
REMARK INTRA:                  -0.285
REMARK UNBOUND:                -0.175
REMARK SMILES CCCCCCCCC(=O)[O-]
REMARK SMILES IDX 6 1 7 2 8 3 9 4 10 5 11 6 5 7 4 8 3 9 2 10 1 11
REMARK H PARENT
REMARK Flexibility Score: inf
ROOT
ATOM      1  C   UNL     1      58.174  32.319  76.676  1.00  0.00     0.000 C 
ENDROOT
BRANCH   1   2
ATOM      2  C   UNL     1      57.967  32.834  78.111  1.00  0.00     0.006 C 
BRANCH   2   3
ATOM      3  C   UNL     1      58.052  34.364  78.194  1.00  0.00     0.053 C 
BRANCH   3   4
ATOM      4  C   UNL     1      58.082  34.841  79.615  1.00  0.00     0.041 C 
ATOM      5  O   UNL     1      58.714  34.190  80.489  1.00  0.00    -0.550 OA
ATOM      6  O   UNL     1      57.443  36.022  79.965  1.00  0.00    -0.550 OA
ENDBRANCH   3   4
ENDBRANCH   2   3
ENDBRANCH   1   2
BRANCH   1   7
ATOM      7  C   UNL     1      58.312  30.789  76.612  1.00  0.00     0.000 C 
BRANCH   7   8
ATOM      8  C   UNL     1      58.073  30.234  75.200  1.00  0.00    -0.000 C 
BRANCH   8   9
ATOM      9  C   UNL     1      56.924  29.214  75.198  1.00  0.00    -0.000 C 
BRANCH   9  10
ATOM     10  C   UNL     1      55.746  29.653  74.316  1.00  0.00    -0.003 C 
ATOM     11  C   UNL     1      56.062  30.894  73.481  1.00  0.00     0.004 C 
ENDBRANCH   9  10
ENDBRANCH   8   9
ENDBRANCH   7   8
ENDBRANCH   1   7
TORSDOF 7
ENDMDL
MODEL 9
REMARK VINA RESULT:    -3.764      3.714      5.905
REMARK INTER + INTRA:          -5.479
REMARK INTER:                  -4.848
REMARK INTRA:                  -0.631
REMARK UNBOUND:                -0.175
REMARK SMILES CCCCCCCCC(=O)[O-]
REMARK SMILES IDX 6 1 7 2 8 3 9 4 10 5 11 6 5 7 4 8 3 9 2 10 1 11
REMARK H PARENT
REMARK Flexibility Score: inf
ROOT
ATOM      1  C   UNL     1      57.271  38.291  78.123  1.00  0.00     0.000 C 
ENDROOT
BRANCH   1   2
ATOM      2  C   UNL     1      57.254  37.513  76.795  1.00  0.00     0.006 C 
BRANCH   2   3
ATOM      3  C   UNL     1      56.145  36.454  76.759  1.00  0.00     0.053 C 
BRANCH   3   4
ATOM      4  C   UNL     1      56.530  35.277  75.916  1.00  0.00     0.041 C 
ATOM      5  O   UNL     1      57.276  34.377  76.386  1.00  0.00    -0.550 OA
ATOM      6  O   UNL     1      56.037  35.157  74.624  1.00  0.00    -0.550 OA
ENDBRANCH   3   4
ENDBRANCH   2   3
ENDBRANCH   1   2
BRANCH   1   7
ATOM      7  C   UNL     1      56.438  37.606  79.219  1.00  0.00     0.000 C 
BRANCH   7   8
ATOM      8  C   UNL     1      57.271  37.254  80.460  1.00  0.00    -0.000 C 
BRANCH   8   9
ATOM      9  C   UNL     1      58.408  36.285  80.102  1.00  0.00    -0.000 C 
BRANCH   9  10
ATOM     10  C   UNL     1      57.895  34.887  79.725  1.00  0.00    -0.003 C 
ATOM     11  C   UNL     1      59.013  33.846  79.654  1.00  0.00     0.004 C 
ENDBRANCH   9  10
ENDBRANCH   8   9
ENDBRANCH   7   8
ENDBRANCH   1   7
TORSDOF 7
ENDMDL
