MODEL 1
REMARK VINA RESULT:    -3.890      0.000      0.000
REMARK INTER + INTRA:          -6.233
REMARK INTER:                  -5.709
REMARK INTRA:                  -0.524
REMARK UNBOUND:                -0.524
REMARK SMILES O=C([O-])CCCCCCCC(=O)[O-]
REMARK SMILES IDX 7 1 6 2 5 3 4 4 2 5 1 6 3 7 8 8 9 9 10 10 11 11 12 12 13 13
REMARK H PARENT
REMARK Flexibility Score: inf
ROOT
ATOM      1  C   UNL     1      27.645  29.871 -13.249  1.00  0.00     0.000 C 
ENDROOT
BRANCH   1   2
ATOM      2  C   UNL     1      29.025  30.327 -12.759  1.00  0.00     0.000 C 
BRANCH   2   3
ATOM      3  C   UNL     1      29.217  30.000 -11.273  1.00  0.00     0.006 C 
BRANCH   3   4
ATOM      4  C   UNL     1      27.982  30.396 -10.459  1.00  0.00     0.053 C 
BRANCH   4   5
ATOM      5  C   UNL     1      27.449  29.218  -9.708  1.00  0.00     0.041 C 
ATOM      6  O   UNL     1      27.048  28.199 -10.330  1.00  0.00    -0.550 OA
ATOM      7  O   UNL     1      27.441  29.225  -8.318  1.00  0.00    -0.550 OA
ENDBRANCH   4   5
ENDBRANCH   3   4
ENDBRANCH   2   3
ENDBRANCH   1   2
BRANCH   1   8
ATOM      8  C   UNL     1      27.261  30.584 -14.551  1.00  0.00     0.000 C 
BRANCH   8   9
ATOM      9  C   UNL     1      25.954  31.373 -14.382  1.00  0.00     0.006 C 
BRANCH   9  10
ATOM     10  C   UNL     1      24.967  30.667 -13.443  1.00  0.00     0.053 C 
BRANCH  10  11
ATOM     11  C   UNL     1      24.540  31.554 -12.314  1.00  0.00     0.041 C 
ATOM     12  O   UNL     1      24.563  31.126 -11.130  1.00  0.00    -0.550 OA
ATOM     13  O   UNL     1      24.149  32.862 -12.566  1.00  0.00    -0.550 OA
ENDBRANCH  10  11
ENDBRANCH   9  10
ENDBRANCH   8   9
ENDBRANCH   1   8
TORSDOF 8
ENDMDL
MODEL 2
REMARK VINA RESULT:    -3.795      0.577      4.542
REMARK INTER + INTRA:          -6.094
REMARK INTER:                  -5.530
REMARK INTRA:                  -0.564
REMARK UNBOUND:                -0.524
REMARK SMILES O=C([O-])CCCCCCCC(=O)[O-]
REMARK SMILES IDX 7 1 6 2 5 3 4 4 2 5 1 6 3 7 8 8 9 9 10 10 11 11 12 12 13 13
REMARK H PARENT
REMARK Flexibility Score: inf
ROOT
ATOM      1  C   UNL     1      27.582  29.776 -13.413  1.00  0.00     0.000 C 
ENDROOT
BRANCH   1   2
ATOM      2  C   UNL     1      26.978  30.678 -14.496  1.00  0.00     0.000 C 
BRANCH   2   3
ATOM      3  C   UNL     1      25.485  30.386 -14.685  1.00  0.00     0.006 C 
BRANCH   3   4
ATOM      4  C   UNL     1      24.749  30.390 -13.343  1.00  0.00     0.053 C 
BRANCH   4   5
ATOM      5  C   UNL     1      24.652  31.781 -12.801  1.00  0.00     0.041 C 
ATOM      6  O   UNL     1      25.006  32.026 -11.618  1.00  0.00    -0.550 OA
ATOM      7  O   UNL     1      24.218  32.816 -13.619  1.00  0.00    -0.550 OA
ENDBRANCH   4   5
ENDBRANCH   3   4
ENDBRANCH   2   3
ENDBRANCH   1   2
BRANCH   1   8
ATOM      8  C   UNL     1      28.917  30.339 -12.910  1.00  0.00     0.000 C 
BRANCH   8   9
ATOM      9  C   UNL     1      29.158  29.955 -11.442  1.00  0.00     0.006 C 
BRANCH   9  10
ATOM     10  C   UNL     1      28.023  30.429 -10.524  1.00  0.00     0.053 C 
BRANCH  10  11
ATOM     11  C   UNL     1      27.458  29.305  -9.711  1.00  0.00     0.041 C 
ATOM     12  O   UNL     1      27.030  28.266 -10.278  1.00  0.00    -0.550 OA
ATOM     13  O   UNL     1      27.435  29.392  -8.325  1.00  0.00    -0.550 OA
ENDBRANCH  10  11
ENDBRANCH   9  10
ENDBRANCH   8   9
ENDBRANCH   1   8
TORSDOF 8
ENDMDL
MODEL 3
REMARK VINA RESULT:    -3.734      2.477      4.894
REMARK INTER + INTRA:          -6.004
REMARK INTER:                  -5.654
REMARK INTRA:                  -0.350
REMARK UNBOUND:                -0.524
REMARK SMILES O=C([O-])CCCCCCCC(=O)[O-]
REMARK SMILES IDX 7 1 6 2 5 3 4 4 2 5 1 6 3 7 8 8 9 9 10 10 11 11 12 12 13 13
REMARK H PARENT
REMARK Flexibility Score: inf
ROOT
ATOM      1  C   UNL     1      27.494  30.386 -13.105  1.00  0.00     0.000 C 
ENDROOT
BRANCH   1   2
ATOM      2  C   UNL     1      27.280  30.541 -14.615  1.00  0.00     0.000 C 
BRANCH   2   3
ATOM      3  C   UNL     1      25.984  29.853 -15.061  1.00  0.00     0.006 C 
BRANCH   3   4
ATOM      4  C   UNL     1      26.280  28.663 -15.978  1.00  0.00     0.053 C 
BRANCH   4   5
ATOM      5  C   UNL     1      25.732  27.401 -15.392  1.00  0.00     0.041 C 
ATOM      6  O   UNL     1      24.534  27.073 -15.602  1.00  0.00    -0.550 OA
ATOM      7  O   UNL     1      26.557  26.561 -14.655  1.00  0.00    -0.550 OA
ENDBRANCH   4   5
ENDBRANCH   3   4
ENDBRANCH   2   3
ENDBRANCH   1   2
BRANCH   1   8
ATOM      8  C   UNL     1      28.977  30.170 -12.780  1.00  0.00     0.000 C 
BRANCH   8   9
ATOM      9  C   UNL     1      29.206  30.123 -11.261  1.00  0.00     0.006 C 
BRANCH   9  10
ATOM     10  C   UNL     1      27.915  30.382 -10.472  1.00  0.00     0.053 C 
BRANCH  10  11
ATOM     11  C   UNL     1      27.450  29.156  -9.748  1.00  0.00     0.041 C 
ATOM     12  O   UNL     1      27.459  29.122  -8.490  1.00  0.00    -0.550 OA
ATOM     13  O   UNL     1      26.978  28.062 -10.463  1.00  0.00    -0.550 OA
ENDBRANCH  10  11
ENDBRANCH   9  10
ENDBRANCH   8   9
ENDBRANCH   1   8
TORSDOF 8
ENDMDL
MODEL 4
REMARK VINA RESULT:    -3.657      2.003      2.958
REMARK INTER + INTRA:          -5.892
REMARK INTER:                  -5.096
REMARK INTRA:                  -0.796
REMARK UNBOUND:                -0.524
REMARK SMILES O=C([O-])CCCCCCCC(=O)[O-]
REMARK SMILES IDX 7 1 6 2 5 3 4 4 2 5 1 6 3 7 8 8 9 9 10 10 11 11 12 12 13 13
REMARK H PARENT
REMARK Flexibility Score: inf
ROOT
ATOM      1  C   UNL     1      25.530  28.828 -14.465  1.00  0.00     0.000 C 
ENDROOT
BRANCH   1   2
ATOM      2  C   UNL     1      26.566  29.604 -15.287  1.00  0.00     0.000 C 
BRANCH   2   3
ATOM      3  C   UNL     1      27.376  30.553 -14.396  1.00  0.00     0.006 C 
BRANCH   3   4
ATOM      4  C   UNL     1      27.226  30.183 -12.917  1.00  0.00     0.053 C 
BRANCH   4   5
ATOM      5  C   UNL     1      28.568  30.049 -12.271  1.00  0.00     0.041 C 
ATOM      6  O   UNL     1      29.616  30.261 -12.936  1.00  0.00    -0.550 OA
ATOM      7  O   UNL     1      28.660  29.739 -10.919  1.00  0.00    -0.550 OA
ENDBRANCH   4   5
ENDBRANCH   3   4
ENDBRANCH   2   3
ENDBRANCH   1   2
BRANCH   1   8
ATOM      8  C   UNL     1      24.103  29.252 -14.837  1.00  0.00     0.000 C 
BRANCH   8   9
ATOM      9  C   UNL     1      23.476  30.106 -13.725  1.00  0.00     0.006 C 
BRANCH   9  10
ATOM     10  C   UNL     1      23.165  31.533 -14.195  1.00  0.00     0.053 C 
BRANCH  10  11
ATOM     11  C   UNL     1      24.275  32.482 -13.862  1.00  0.00     0.041 C 
ATOM     12  O   UNL     1      24.554  32.735 -12.661  1.00  0.00    -0.550 OA
ATOM     13  O   UNL     1      25.022  33.063 -14.879  1.00  0.00    -0.550 OA
ENDBRANCH  10  11
ENDBRANCH   9  10
ENDBRANCH   8   9
ENDBRANCH   1   8
TORSDOF 8
ENDMDL
MODEL 5
REMARK VINA RESULT:    -3.631      2.885      5.415
REMARK INTER + INTRA:          -5.853
REMARK INTER:                  -5.048
REMARK INTRA:                  -0.805
REMARK UNBOUND:                -0.524
REMARK SMILES O=C([O-])CCCCCCCC(=O)[O-]
REMARK SMILES IDX 7 1 6 2 5 3 4 4 2 5 1 6 3 7 8 8 9 9 10 10 11 11 12 12 13 13
REMARK H PARENT
REMARK Flexibility Score: inf
ROOT
ATOM      1  C   UNL     1      24.775  31.535 -11.757  1.00  0.00     0.000 C 
ENDROOT
BRANCH   1   2
ATOM      2  C   UNL     1      23.984  32.394 -12.750  1.00  0.00     0.000 C 
BRANCH   2   3
ATOM      3  C   UNL     1      24.752  32.560 -14.067  1.00  0.00     0.006 C 
BRANCH   3   4
ATOM      4  C   UNL     1      23.828  32.361 -15.272  1.00  0.00     0.053 C 
BRANCH   4   5
ATOM      5  C   UNL     1      23.520  30.910 -15.463  1.00  0.00     0.041 C 
ATOM      6  O   UNL     1      24.446  30.091 -15.700  1.00  0.00    -0.550 OA
ATOM      7  O   UNL     1      22.214  30.454 -15.329  1.00  0.00    -0.550 OA
ENDBRANCH   4   5
ENDBRANCH   3   4
ENDBRANCH   2   3
ENDBRANCH   1   2
BRANCH   1   8
ATOM      8  C   UNL     1      24.608  30.042 -12.066  1.00  0.00     0.000 C 
BRANCH   8   9
ATOM      9  C   UNL     1      25.971  29.376 -12.311  1.00  0.00     0.006 C 
BRANCH   9  10
ATOM     10  C   UNL     1      27.140  30.341 -12.071  1.00  0.00     0.053 C 
BRANCH  10  11
ATOM     11  C   UNL     1      28.057  30.408 -13.253  1.00  0.00     0.041 C 
ATOM     12  O   UNL     1      29.305  30.392 -13.087  1.00  0.00    -0.550 OA
ATOM     13  O   UNL     1      27.534  30.455 -14.538  1.00  0.00    -0.550 OA
ENDBRANCH  10  11
ENDBRANCH   9  10
ENDBRANCH   8   9
ENDBRANCH   1   8
TORSDOF 8
ENDMDL
MODEL 6
REMARK VINA RESULT:    -3.620      1.498      4.283
REMARK INTER + INTRA:          -5.837
REMARK INTER:                  -5.151
REMARK INTRA:                  -0.686
REMARK UNBOUND:                -0.524
REMARK SMILES O=C([O-])CCCCCCCC(=O)[O-]
REMARK SMILES IDX 7 1 6 2 5 3 4 4 2 5 1 6 3 7 8 8 9 9 10 10 11 11 12 12 13 13
REMARK H PARENT
REMARK Flexibility Score: inf
ROOT
ATOM      1  C   UNL     1      29.079  30.047 -11.665  1.00  0.00     0.000 C 
ENDROOT
BRANCH   1   2
ATOM      2  C   UNL     1      28.733  30.431 -13.109  1.00  0.00     0.000 C 
BRANCH   2   3
ATOM      3  C   UNL     1      27.348  29.904 -13.502  1.00  0.00     0.006 C 
BRANCH   3   4
ATOM      4  C   UNL     1      26.679  30.825 -14.526  1.00  0.00     0.053 C 
BRANCH   4   5
ATOM      5  C   UNL     1      25.583  31.615 -13.884  1.00  0.00     0.041 C 
ATOM      6  O   UNL     1      25.194  31.329 -12.721  1.00  0.00    -0.550 OA
ATOM      7  O   UNL     1      25.026  32.699 -14.551  1.00  0.00    -0.550 OA
ENDBRANCH   4   5
ENDBRANCH   3   4
ENDBRANCH   2   3
ENDBRANCH   1   2
BRANCH   1   8
ATOM      8  C   UNL     1      27.992  30.523 -10.694  1.00  0.00     0.000 C 
BRANCH   8   9
ATOM      9  C   UNL     1      27.610  29.409  -9.707  1.00  0.00     0.006 C 
BRANCH   9  10
ATOM     10  C   UNL     1      26.872  28.252 -10.395  1.00  0.00     0.053 C 
BRANCH  10  11
ATOM     11  C   UNL     1      25.418  28.556 -10.588  1.00  0.00     0.041 C 
ATOM     12  O   UNL     1      24.790  29.220  -9.722  1.00  0.00    -0.550 OA
ATOM     13  O   UNL     1      24.765  28.135 -11.739  1.00  0.00    -0.550 OA
ENDBRANCH  10  11
ENDBRANCH   9  10
ENDBRANCH   8   9
ENDBRANCH   1   8
TORSDOF 8
ENDMDL
MODEL 7
REMARK VINA RESULT:    -3.601      1.376      4.453
REMARK INTER + INTRA:          -5.809
REMARK INTER:                  -5.158
REMARK INTRA:                  -0.651
REMARK UNBOUND:                -0.524
REMARK SMILES O=C([O-])CCCCCCCC(=O)[O-]
REMARK SMILES IDX 7 1 6 2 5 3 4 4 2 5 1 6 3 7 8 8 9 9 10 10 11 11 12 12 13 13
REMARK H PARENT
REMARK Flexibility Score: inf
ROOT
ATOM      1  C   UNL     1      26.502  29.698 -14.517  1.00  0.00     0.000 C 
ENDROOT
BRANCH   1   2
ATOM      2  C   UNL     1      25.245  30.496 -14.881  1.00  0.00     0.000 C 
BRANCH   2   3
ATOM      3  C   UNL     1      25.342  31.939 -14.371  1.00  0.00     0.006 C 
BRANCH   3   4
ATOM      4  C   UNL     1      24.025  32.387 -13.733  1.00  0.00     0.053 C 
BRANCH   4   5
ATOM      5  C   UNL     1      23.991  32.017 -12.284  1.00  0.00     0.041 C 
ATOM      6  O   UNL     1      25.062  31.924 -11.629  1.00  0.00    -0.550 OA
ATOM      7  O   UNL     1      22.773  31.823 -11.644  1.00  0.00    -0.550 OA
ENDBRANCH   4   5
ENDBRANCH   3   4
ENDBRANCH   2   3
ENDBRANCH   1   2
BRANCH   1   8
ATOM      8  C   UNL     1      27.548  30.595 -13.844  1.00  0.00     0.000 C 
BRANCH   8   9
ATOM      9  C   UNL     1      28.295  29.835 -12.737  1.00  0.00     0.006 C 
BRANCH   9  10
ATOM     10  C   UNL     1      27.357  29.384 -11.608  1.00  0.00     0.053 C 
BRANCH  10  11
ATOM     11  C   UNL     1      27.800  29.904 -10.276  1.00  0.00     0.041 C 
ATOM     12  O   UNL     1      28.386  31.015 -10.193  1.00  0.00    -0.550 OA
ATOM     13  O   UNL     1      27.538  29.177  -9.122  1.00  0.00    -0.550 OA
ENDBRANCH  10  11
ENDBRANCH   9  10
ENDBRANCH   8   9
ENDBRANCH   1   8
TORSDOF 8
ENDMDL
MODEL 8
REMARK VINA RESULT:    -3.575      1.404      2.214
REMARK INTER + INTRA:          -5.771
REMARK INTER:                  -5.272
REMARK INTRA:                  -0.499
REMARK UNBOUND:                -0.524
REMARK SMILES O=C([O-])CCCCCCCC(=O)[O-]
REMARK SMILES IDX 7 1 6 2 5 3 4 4 2 5 1 6 3 7 8 8 9 9 10 10 11 11 12 12 13 13
REMARK H PARENT
REMARK Flexibility Score: inf
ROOT
ATOM      1  C   UNL     1      25.891  30.603 -14.173  1.00  0.00     0.000 C 
ENDROOT
BRANCH   1   2
ATOM      2  C   UNL     1      27.376  30.465 -14.529  1.00  0.00     0.000 C 
BRANCH   2   3
ATOM      3  C   UNL     1      28.249  30.488 -13.269  1.00  0.00     0.006 C 
BRANCH   3   4
ATOM      4  C   UNL     1      27.872  29.349 -12.318  1.00  0.00     0.053 C 
BRANCH   4   5
ATOM      5  C   UNL     1      27.966  29.800 -10.895  1.00  0.00     0.041 C 
ATOM      6  O   UNL     1      27.334  29.190  -9.993  1.00  0.00    -0.550 OA
ATOM      7  O   UNL     1      28.793  30.865 -10.557  1.00  0.00    -0.550 OA
ENDBRANCH   4   5
ENDBRANCH   3   4
ENDBRANCH   2   3
ENDBRANCH   1   2
BRANCH   1   8
ATOM      8  C   UNL     1      25.391  32.028 -14.443  1.00  0.00     0.000 C 
BRANCH   8   9
ATOM      9  C   UNL     1      24.070  32.296 -13.705  1.00  0.00     0.006 C 
BRANCH   9  10
ATOM     10  C   UNL     1      24.294  32.689 -12.239  1.00  0.00     0.053 C 
BRANCH  10  11
ATOM     11  C   UNL     1      23.690  31.693 -11.297  1.00  0.00     0.041 C 
ATOM     12  O   UNL     1      22.578  31.927 -10.757  1.00  0.00    -0.550 OA
ATOM     13  O   UNL     1      24.341  30.493 -11.042  1.00  0.00    -0.550 OA
ENDBRANCH  10  11
ENDBRANCH   9  10
ENDBRANCH   8   9
ENDBRANCH   1   8
TORSDOF 8
ENDMDL
MODEL 9
REMARK VINA RESULT:    -3.551      2.284      2.994
REMARK INTER + INTRA:          -5.736
REMARK INTER:                  -5.215
REMARK INTRA:                  -0.521
REMARK UNBOUND:                -0.524
REMARK SMILES O=C([O-])CCCCCCCC(=O)[O-]
REMARK SMILES IDX 7 1 6 2 5 3 4 4 2 5 1 6 3 7 8 8 9 9 10 10 11 11 12 12 13 13
REMARK H PARENT
REMARK Flexibility Score: inf
ROOT
ATOM      1  C   UNL     1      25.416  31.311 -12.457  1.00  0.00     0.000 C 
ENDROOT
BRANCH   1   2
ATOM      2  C   UNL     1      26.196  30.462 -13.467  1.00  0.00     0.000 C 
BRANCH   2   3
ATOM      3  C   UNL     1      27.698  30.478 -13.156  1.00  0.00     0.006 C 
BRANCH   3   4
ATOM      4  C   UNL     1      28.088  29.293 -12.267  1.00  0.00     0.053 C 
BRANCH   4   5
ATOM      5  C   UNL     1      28.193  29.722 -10.838  1.00  0.00     0.041 C 
ATOM      6  O   UNL     1      27.829  28.946  -9.916  1.00  0.00    -0.550 OA
ATOM      7  O   UNL     1      28.741  30.959 -10.522  1.00  0.00    -0.550 OA
ENDBRANCH   4   5
ENDBRANCH   3   4
ENDBRANCH   2   3
ENDBRANCH   1   2
BRANCH   1   8
ATOM      8  C   UNL     1      24.479  32.293 -13.172  1.00  0.00     0.000 C 
BRANCH   8   9
ATOM      9  C   UNL     1      24.875  32.455 -14.648  1.00  0.00     0.006 C 
BRANCH   9  10
ATOM     10  C   UNL     1      23.669  32.327 -15.589  1.00  0.00     0.053 C 
BRANCH  10  11
ATOM     11  C   UNL     1      22.865  31.097 -15.301  1.00  0.00     0.041 C 
ATOM     12  O   UNL     1      21.681  31.198 -14.887  1.00  0.00    -0.550 OA
ATOM     13  O   UNL     1      23.414  29.840 -15.519  1.00  0.00    -0.550 OA
ENDBRANCH  10  11
ENDBRANCH   9  10
ENDBRANCH   8   9
ENDBRANCH   1   8
TORSDOF 8
ENDMDL
