MODEL 1
REMARK VINA RESULT:    -3.221      0.000      0.000
REMARK INTER + INTRA:         -11.869
REMARK INTER:                  -7.364
REMARK INTRA:                  -4.505
REMARK UNBOUND:                -4.505
REMARK SMILES CCCCCCCCCCCCCCCCCCCCCCCC(=O)[O-]
REMARK SMILES IDX 13 1 14 2 15 3 16 4 17 5 18 6 19 7 20 8 21 9 22 10 23 11
REMARK SMILES IDX 24 12 25 13 26 14 12 15 11 16 10 17 9 18 8 19 7 20 6 21 5 22
REMARK SMILES IDX 4 23 3 24 2 25 1 26
REMARK H PARENT
REMARK Flexibility Score: inf
ROOT
ATOM      1  C   UNL     1     -43.148 -21.202  25.434  1.00  0.00     0.000 C 
ENDROOT
BRANCH   1   2
ATOM      2  C   UNL     1     -42.446 -22.249  26.320  1.00  0.00     0.000 C 
BRANCH   2   3
ATOM      3  C   UNL     1     -42.498 -21.963  27.833  1.00  0.00     0.000 C 
BRANCH   3   4
ATOM      4  C   UNL     1     -41.164 -22.149  28.583  1.00  0.00     0.000 C 
BRANCH   4   5
ATOM      5  C   UNL     1     -40.603 -20.845  29.192  1.00  0.00     0.000 C 
BRANCH   5   6
ATOM      6  C   UNL     1     -39.371 -20.325  28.431  1.00  0.00     0.000 C 
BRANCH   6   7
ATOM      7  C   UNL     1     -39.744 -19.355  27.298  1.00  0.00     0.000 C 
BRANCH   7   8
ATOM      8  C   UNL     1     -39.413 -19.919  25.907  1.00  0.00     0.000 C 
BRANCH   8   9
ATOM      9  C   UNL     1     -38.247 -20.922  25.931  1.00  0.00     0.000 C 
BRANCH   9  10
ATOM     10  C   UNL     1     -38.542 -22.231  25.166  1.00  0.00     0.006 C 
BRANCH  10  11
ATOM     11  C   UNL     1     -38.897 -23.390  26.107  1.00  0.00     0.053 C 
BRANCH  11  12
ATOM     12  C   UNL     1     -37.687 -23.826  26.874  1.00  0.00     0.041 C 
ATOM     13  O   UNL     1     -37.773 -24.076  28.104  1.00  0.00    -0.550 OA
ATOM     14  O   UNL     1     -36.452 -23.900  26.241  1.00  0.00    -0.550 OA
ENDBRANCH  11  12
ENDBRANCH  10  11
ENDBRANCH   9  10
ENDBRANCH   8   9
ENDBRANCH   7   8
ENDBRANCH   6   7
ENDBRANCH   5   6
ENDBRANCH   4   5
ENDBRANCH   3   4
ENDBRANCH   2   3
ENDBRANCH   1   2
BRANCH   1  15
ATOM     15  C   UNL     1     -43.103 -19.787  26.034  1.00  0.00     0.000 C 
BRANCH  15  16
ATOM     16  C   UNL     1     -44.474 -19.089  25.999  1.00  0.00     0.000 C 
BRANCH  16  17
ATOM     17  C   UNL     1     -45.331 -19.521  24.799  1.00  0.00     0.000 C 
BRANCH  17  18
ATOM     18  C   UNL     1     -46.825 -19.491  25.154  1.00  0.00    -0.000 C 
BRANCH  18  19
ATOM     19  C   UNL     1     -47.079 -19.213  26.645  1.00  0.00    -0.000 C 
BRANCH  19  20
ATOM     20  C   UNL     1     -48.084 -20.198  27.266  1.00  0.00    -0.000 C 
BRANCH  20  21
ATOM     21  C   UNL     1     -47.454 -21.073  28.362  1.00  0.00    -0.000 C 
BRANCH  21  22
ATOM     22  C   UNL     1     -46.177 -21.787  27.893  1.00  0.00    -0.000 C 
BRANCH  22  23
ATOM     23  C   UNL     1     -46.514 -23.124  27.217  1.00  0.00    -0.000 C 
BRANCH  23  24
ATOM     24  C   UNL     1     -46.144 -23.155  25.724  1.00  0.00    -0.000 C 
BRANCH  24  25
ATOM     25  C   UNL     1     -47.342 -23.101  24.760  1.00  0.00    -0.003 C 
ATOM     26  C   UNL     1     -48.680 -23.360  25.451  1.00  0.00     0.004 C 
ENDBRANCH  24  25
ENDBRANCH  23  24
ENDBRANCH  22  23
ENDBRANCH  21  22
ENDBRANCH  20  21
ENDBRANCH  19  20
ENDBRANCH  18  19
ENDBRANCH  17  18
ENDBRANCH  16  17
ENDBRANCH  15  16
ENDBRANCH   1  15
TORSDOF 22
ENDMDL
MODEL 2
REMARK VINA RESULT:    -3.211      3.465      7.737
REMARK INTER + INTRA:         -11.845
REMARK INTER:                  -7.830
REMARK INTRA:                  -4.014
REMARK UNBOUND:                -4.505
REMARK SMILES CCCCCCCCCCCCCCCCCCCCCCCC(=O)[O-]
REMARK SMILES IDX 13 1 14 2 15 3 16 4 17 5 18 6 19 7 20 8 21 9 22 10 23 11
REMARK SMILES IDX 24 12 25 13 26 14 12 15 11 16 10 17 9 18 8 19 7 20 6 21 5 22
REMARK SMILES IDX 4 23 3 24 2 25 1 26
REMARK H PARENT
REMARK Flexibility Score: inf
ROOT
ATOM      1  C   UNL     1     -41.199 -23.703  28.903  1.00  0.00     0.000 C 
ENDROOT
BRANCH   1   2
ATOM      2  C   UNL     1     -41.922 -24.468  27.778  1.00  0.00     0.000 C 
BRANCH   2   3
ATOM      3  C   UNL     1     -43.247 -23.839  27.309  1.00  0.00     0.000 C 
BRANCH   3   4
ATOM      4  C   UNL     1     -44.509 -24.678  27.594  1.00  0.00     0.000 C 
BRANCH   4   5
ATOM      5  C   UNL     1     -45.684 -23.861  28.174  1.00  0.00     0.000 C 
BRANCH   5   6
ATOM      6  C   UNL     1     -45.306 -22.393  28.439  1.00  0.00     0.000 C 
BRANCH   6   7
ATOM      7  C   UNL     1     -46.220 -21.405  27.697  1.00  0.00     0.000 C 
BRANCH   7   8
ATOM      8  C   UNL     1     -45.862 -21.276  26.207  1.00  0.00     0.000 C 
BRANCH   8   9
ATOM      9  C   UNL     1     -44.405 -20.839  25.979  1.00  0.00     0.000 C 
BRANCH   9  10
ATOM     10  C   UNL     1     -44.183 -19.320  26.147  1.00  0.00     0.006 C 
BRANCH  10  11
ATOM     11  C   UNL     1     -45.304 -18.491  25.507  1.00  0.00     0.053 C 
BRANCH  11  12
ATOM     12  C   UNL     1     -45.867 -17.521  26.500  1.00  0.00     0.041 C 
ATOM     13  O   UNL     1     -47.014 -17.703  26.985  1.00  0.00    -0.550 OA
ATOM     14  O   UNL     1     -45.146 -16.385  26.847  1.00  0.00    -0.550 OA
ENDBRANCH  11  12
ENDBRANCH  10  11
ENDBRANCH   9  10
ENDBRANCH   8   9
ENDBRANCH   7   8
ENDBRANCH   6   7
ENDBRANCH   5   6
ENDBRANCH   4   5
ENDBRANCH   3   4
ENDBRANCH   2   3
ENDBRANCH   1   2
BRANCH   1  15
ATOM     15  C   UNL     1     -41.773 -22.294  29.130  1.00  0.00     0.000 C 
BRANCH  15  16
ATOM     16  C   UNL     1     -41.016 -21.216  28.336  1.00  0.00     0.000 C 
BRANCH  16  17
ATOM     17  C   UNL     1     -39.944 -20.502  29.174  1.00  0.00     0.000 C 
BRANCH  17  18
ATOM     18  C   UNL     1     -38.584 -20.527  28.459  1.00  0.00    -0.000 C 
BRANCH  18  19
ATOM     19  C   UNL     1     -37.999 -21.944  28.336  1.00  0.00    -0.000 C 
BRANCH  19  20
ATOM     20  C   UNL     1     -37.623 -22.302  26.888  1.00  0.00    -0.000 C 
BRANCH  20  21
ATOM     21  C   UNL     1     -38.823 -22.812  26.074  1.00  0.00    -0.000 C 
BRANCH  21  22
ATOM     22  C   UNL     1     -39.315 -21.789  25.038  1.00  0.00    -0.000 C 
BRANCH  22  23
ATOM     23  C   UNL     1     -38.238 -20.730  24.759  1.00  0.00    -0.000 C 
BRANCH  23  24
ATOM     24  C   UNL     1     -38.756 -19.289  24.919  1.00  0.00    -0.000 C 
BRANCH  24  25
ATOM     25  C   UNL     1     -40.214 -19.176  25.401  1.00  0.00    -0.003 C 
ATOM     26  C   UNL     1     -40.437 -18.020  26.375  1.00  0.00     0.004 C 
ENDBRANCH  24  25
ENDBRANCH  23  24
ENDBRANCH  22  23
ENDBRANCH  21  22
ENDBRANCH  20  21
ENDBRANCH  19  20
ENDBRANCH  18  19
ENDBRANCH  17  18
ENDBRANCH  16  17
ENDBRANCH  15  16
ENDBRANCH   1  15
TORSDOF 22
ENDMDL
MODEL 3
REMARK VINA RESULT:    -3.175      3.680      7.707
REMARK INTER + INTRA:         -11.763
REMARK INTER:                  -7.826
REMARK INTRA:                  -3.937
REMARK UNBOUND:                -4.505
REMARK SMILES CCCCCCCCCCCCCCCCCCCCCCCC(=O)[O-]
REMARK SMILES IDX 13 1 14 2 15 3 16 4 17 5 18 6 19 7 20 8 21 9 22 10 23 11
REMARK SMILES IDX 24 12 25 13 26 14 12 15 11 16 10 17 9 18 8 19 7 20 6 21 5 22
REMARK SMILES IDX 4 23 3 24 2 25 1 26
REMARK H PARENT
REMARK Flexibility Score: inf
ROOT
ATOM      1  C   UNL     1     -43.881 -22.828  26.394  1.00  0.00     0.000 C 
ENDROOT
BRANCH   1   2
ATOM      2  C   UNL     1     -42.876 -22.025  25.547  1.00  0.00     0.000 C 
BRANCH   2   3
ATOM      3  C   UNL     1     -43.418 -20.704  24.970  1.00  0.00     0.000 C 
BRANCH   3   4
ATOM      4  C   UNL     1     -43.067 -19.439  25.779  1.00  0.00     0.000 C 
BRANCH   4   5
ATOM      5  C   UNL     1     -42.779 -18.199  24.906  1.00  0.00     0.000 C 
BRANCH   5   6
ATOM      6  C   UNL     1     -43.269 -16.894  25.558  1.00  0.00     0.000 C 
BRANCH   6   7
ATOM      7  C   UNL     1     -44.796 -16.733  25.478  1.00  0.00     0.000 C 
BRANCH   7   8
ATOM      8  C   UNL     1     -45.456 -16.665  26.865  1.00  0.00     0.000 C 
BRANCH   8   9
ATOM      9  C   UNL     1     -46.756 -17.481  26.948  1.00  0.00     0.000 C 
BRANCH   9  10
ATOM     10  C   UNL     1     -46.761 -18.730  26.038  1.00  0.00     0.006 C 
BRANCH  10  11
ATOM     11  C   UNL     1     -46.609 -20.032  26.834  1.00  0.00     0.053 C 
BRANCH  11  12
ATOM     12  C   UNL     1     -47.941 -20.490  27.343  1.00  0.00     0.041 C 
ATOM     13  O   UNL     1     -48.204 -20.435  28.572  1.00  0.00    -0.550 OA
ATOM     14  O   UNL     1     -48.871 -21.033  26.464  1.00  0.00    -0.550 OA
ENDBRANCH  11  12
ENDBRANCH  10  11
ENDBRANCH   9  10
ENDBRANCH   8   9
ENDBRANCH   7   8
ENDBRANCH   6   7
ENDBRANCH   5   6
ENDBRANCH   4   5
ENDBRANCH   3   4
ENDBRANCH   2   3
ENDBRANCH   1   2
BRANCH   1  15
ATOM     15  C   UNL     1     -43.744 -22.554  27.901  1.00  0.00     0.000 C 
BRANCH  15  16
ATOM     16  C   UNL     1     -42.461 -23.160  28.495  1.00  0.00     0.000 C 
BRANCH  16  17
ATOM     17  C   UNL     1     -41.611 -22.129  29.253  1.00  0.00     0.000 C 
BRANCH  17  18
ATOM     18  C   UNL     1     -40.927 -21.159  28.278  1.00  0.00    -0.000 C 
BRANCH  18  19
ATOM     19  C   UNL     1     -39.417 -21.416  28.141  1.00  0.00    -0.000 C 
BRANCH  19  20
ATOM     20  C   UNL     1     -38.633 -20.145  27.775  1.00  0.00    -0.000 C 
BRANCH  20  21
ATOM     21  C   UNL     1     -39.549 -18.985  27.355  1.00  0.00    -0.000 C 
BRANCH  21  22
ATOM     22  C   UNL     1     -39.346 -18.566  25.890  1.00  0.00    -0.000 C 
BRANCH  22  23
ATOM     23  C   UNL     1     -38.611 -19.662  25.105  1.00  0.00    -0.000 C 
BRANCH  23  24
ATOM     24  C   UNL     1     -39.556 -20.532  24.257  1.00  0.00    -0.000 C 
BRANCH  24  25
ATOM     25  C   UNL     1     -39.387 -22.050  24.454  1.00  0.00    -0.003 C 
ATOM     26  C   UNL     1     -37.957 -22.453  24.809  1.00  0.00     0.004 C 
ENDBRANCH  24  25
ENDBRANCH  23  24
ENDBRANCH  22  23
ENDBRANCH  21  22
ENDBRANCH  20  21
ENDBRANCH  19  20
ENDBRANCH  18  19
ENDBRANCH  17  18
ENDBRANCH  16  17
ENDBRANCH  15  16
ENDBRANCH   1  15
TORSDOF 22
ENDMDL
MODEL 4
REMARK VINA RESULT:    -3.107      2.682      7.332
REMARK INTER + INTRA:         -11.607
REMARK INTER:                  -7.792
REMARK INTRA:                  -3.815
REMARK UNBOUND:                -4.505
REMARK SMILES CCCCCCCCCCCCCCCCCCCCCCCC(=O)[O-]
REMARK SMILES IDX 13 1 14 2 15 3 16 4 17 5 18 6 19 7 20 8 21 9 22 10 23 11
REMARK SMILES IDX 24 12 25 13 26 14 12 15 11 16 10 17 9 18 8 19 7 20 6 21 5 22
REMARK SMILES IDX 4 23 3 24 2 25 1 26
REMARK H PARENT
REMARK Flexibility Score: inf
ROOT
ATOM      1  C   UNL     1     -42.958 -19.682  24.588  1.00  0.00     0.000 C 
ENDROOT
BRANCH   1   2
ATOM      2  C   UNL     1     -42.837 -18.161  24.374  1.00  0.00     0.000 C 
BRANCH   2   3
ATOM      3  C   UNL     1     -43.092 -17.304  25.628  1.00  0.00     0.000 C 
BRANCH   3   4
ATOM      4  C   UNL     1     -44.371 -16.444  25.588  1.00  0.00     0.000 C 
BRANCH   4   5
ATOM      5  C   UNL     1     -45.430 -16.849  26.637  1.00  0.00     0.000 C 
BRANCH   5   6
ATOM      6  C   UNL     1     -46.615 -17.607  26.014  1.00  0.00     0.000 C 
BRANCH   6   7
ATOM      7  C   UNL     1     -46.555 -19.119  26.286  1.00  0.00     0.000 C 
BRANCH   7   8
ATOM      8  C   UNL     1     -47.493 -19.551  27.424  1.00  0.00     0.000 C 
BRANCH   8   9
ATOM      9  C   UNL     1     -47.354 -21.041  27.780  1.00  0.00     0.000 C 
BRANCH   9  10
ATOM     10  C   UNL     1     -45.916 -21.583  27.619  1.00  0.00     0.006 C 
BRANCH  10  11
ATOM     11  C   UNL     1     -45.632 -22.769  28.550  1.00  0.00     0.053 C 
BRANCH  11  12
ATOM     12  C   UNL     1     -45.465 -24.027  27.754  1.00  0.00     0.041 C 
ATOM     13  O   UNL     1     -46.375 -24.409  26.974  1.00  0.00    -0.550 OA
ATOM     14  O   UNL     1     -44.326 -24.807  27.918  1.00  0.00    -0.550 OA
ENDBRANCH  11  12
ENDBRANCH  10  11
ENDBRANCH   9  10
ENDBRANCH   8   9
ENDBRANCH   7   8
ENDBRANCH   6   7
ENDBRANCH   5   6
ENDBRANCH   4   5
ENDBRANCH   3   4
ENDBRANCH   2   3
ENDBRANCH   1   2
BRANCH   1  15
ATOM     15  C   UNL     1     -42.914 -20.080  26.073  1.00  0.00     0.000 C 
BRANCH  15  16
ATOM     16  C   UNL     1     -42.323 -21.484  26.288  1.00  0.00     0.000 C 
BRANCH  16  17
ATOM     17  C   UNL     1     -42.129 -21.826  27.774  1.00  0.00     0.000 C 
BRANCH  17  18
ATOM     18  C   UNL     1     -40.636 -21.921  28.124  1.00  0.00    -0.000 C 
BRANCH  18  19
ATOM     19  C   UNL     1     -40.109 -20.663  28.833  1.00  0.00    -0.000 C 
BRANCH  19  20
ATOM     20  C   UNL     1     -39.119 -19.868  27.965  1.00  0.00    -0.000 C 
BRANCH  20  21
ATOM     21  C   UNL     1     -39.767 -18.645  27.297  1.00  0.00    -0.000 C 
BRANCH  21  22
ATOM     22  C   UNL     1     -39.430 -18.536  25.801  1.00  0.00    -0.000 C 
BRANCH  22  23
ATOM     23  C   UNL     1     -38.756 -19.821  25.297  1.00  0.00    -0.000 C 
BRANCH  23  24
ATOM     24  C   UNL     1     -38.283 -19.718  23.835  1.00  0.00    -0.000 C 
BRANCH  24  25
ATOM     25  C   UNL     1     -38.868 -20.784  22.891  1.00  0.00    -0.003 C 
ATOM     26  C   UNL     1     -39.875 -21.707  23.578  1.00  0.00     0.004 C 
ENDBRANCH  24  25
ENDBRANCH  23  24
ENDBRANCH  22  23
ENDBRANCH  21  22
ENDBRANCH  20  21
ENDBRANCH  19  20
ENDBRANCH  18  19
ENDBRANCH  17  18
ENDBRANCH  16  17
ENDBRANCH  15  16
ENDBRANCH   1  15
TORSDOF 22
ENDMDL
MODEL 5
REMARK VINA RESULT:    -3.105      2.928      7.449
REMARK INTER + INTRA:         -11.603
REMARK INTER:                  -8.094
REMARK INTRA:                  -3.509
REMARK UNBOUND:                -4.505
REMARK SMILES CCCCCCCCCCCCCCCCCCCCCCCC(=O)[O-]
REMARK SMILES IDX 13 1 14 2 15 3 16 4 17 5 18 6 19 7 20 8 21 9 22 10 23 11
REMARK SMILES IDX 24 12 25 13 26 14 12 15 11 16 10 17 9 18 8 19 7 20 6 21 5 22
REMARK SMILES IDX 4 23 3 24 2 25 1 26
REMARK H PARENT
REMARK Flexibility Score: inf
ROOT
ATOM      1  C   UNL     1     -42.905 -21.989  27.813  1.00  0.00     0.000 C 
ENDROOT
BRANCH   1   2
ATOM      2  C   UNL     1     -44.363 -22.285  28.215  1.00  0.00     0.000 C 
BRANCH   2   3
ATOM      3  C   UNL     1     -45.432 -21.663  27.296  1.00  0.00     0.000 C 
BRANCH   3   4
ATOM      4  C   UNL     1     -46.869 -21.685  27.852  1.00  0.00     0.000 C 
BRANCH   4   5
ATOM      5  C   UNL     1     -47.580 -20.316  27.801  1.00  0.00     0.000 C 
BRANCH   5   6
ATOM      6  C   UNL     1     -47.144 -19.471  26.591  1.00  0.00     0.000 C 
BRANCH   6   7
ATOM      7  C   UNL     1     -46.817 -18.018  26.974  1.00  0.00     0.000 C 
BRANCH   7   8
ATOM      8  C   UNL     1     -45.725 -17.405  26.082  1.00  0.00     0.000 C 
BRANCH   8   9
ATOM      9  C   UNL     1     -44.955 -18.460  25.270  1.00  0.00     0.000 C 
BRANCH   9  10
ATOM     10  C   UNL     1     -43.579 -18.820  25.874  1.00  0.00     0.006 C 
BRANCH  10  11
ATOM     11  C   UNL     1     -42.414 -18.333  25.002  1.00  0.00     0.053 C 
BRANCH  11  12
ATOM     12  C   UNL     1     -42.059 -16.920  25.349  1.00  0.00     0.041 C 
ATOM     13  O   UNL     1     -41.194 -16.682  26.231  1.00  0.00    -0.550 OA
ATOM     14  O   UNL     1     -42.727 -15.866  24.738  1.00  0.00    -0.550 OA
ENDBRANCH  11  12
ENDBRANCH  10  11
ENDBRANCH   9  10
ENDBRANCH   8   9
ENDBRANCH   7   8
ENDBRANCH   6   7
ENDBRANCH   5   6
ENDBRANCH   4   5
ENDBRANCH   3   4
ENDBRANCH   2   3
ENDBRANCH   1   2
BRANCH   1  15
ATOM     15  C   UNL     1     -42.427 -22.847  26.629  1.00  0.00     0.000 C 
BRANCH  15  16
ATOM     16  C   UNL     1     -40.928 -23.179  26.711  1.00  0.00     0.000 C 
BRANCH  16  17
ATOM     17  C   UNL     1     -40.390 -23.156  28.150  1.00  0.00     0.000 C 
BRANCH  17  18
ATOM     18  C   UNL     1     -38.866 -22.962  28.163  1.00  0.00    -0.000 C 
BRANCH  18  19
ATOM     19  C   UNL     1     -38.452 -21.498  28.388  1.00  0.00    -0.000 C 
BRANCH  19  20
ATOM     20  C   UNL     1     -39.633 -20.612  28.822  1.00  0.00    -0.000 C 
BRANCH  20  21
ATOM     21  C   UNL     1     -40.079 -19.639  27.720  1.00  0.00    -0.000 C 
BRANCH  21  22
ATOM     22  C   UNL     1     -38.993 -19.405  26.658  1.00  0.00    -0.000 C 
BRANCH  22  23
ATOM     23  C   UNL     1     -39.401 -20.023  25.312  1.00  0.00    -0.000 C 
BRANCH  23  24
ATOM     24  C   UNL     1     -38.342 -19.825  24.213  1.00  0.00    -0.000 C 
BRANCH  24  25
ATOM     25  C   UNL     1     -37.520 -21.081  23.875  1.00  0.00    -0.003 C 
ATOM     26  C   UNL     1     -38.059 -22.348  24.539  1.00  0.00     0.004 C 
ENDBRANCH  24  25
ENDBRANCH  23  24
ENDBRANCH  22  23
ENDBRANCH  21  22
ENDBRANCH  20  21
ENDBRANCH  19  20
ENDBRANCH  18  19
ENDBRANCH  17  18
ENDBRANCH  16  17
ENDBRANCH  15  16
ENDBRANCH   1  15
TORSDOF 22
ENDMDL
MODEL 6
REMARK VINA RESULT:    -3.095      2.629      6.813
REMARK INTER + INTRA:         -11.581
REMARK INTER:                  -8.087
REMARK INTRA:                  -3.494
REMARK UNBOUND:                -4.505
REMARK SMILES CCCCCCCCCCCCCCCCCCCCCCCC(=O)[O-]
REMARK SMILES IDX 13 1 14 2 15 3 16 4 17 5 18 6 19 7 20 8 21 9 22 10 23 11
REMARK SMILES IDX 24 12 25 13 26 14 12 15 11 16 10 17 9 18 8 19 7 20 6 21 5 22
REMARK SMILES IDX 4 23 3 24 2 25 1 26
REMARK H PARENT
REMARK Flexibility Score: inf
ROOT
ATOM      1  C   UNL     1     -46.437 -23.440  26.752  1.00  0.00     0.000 C 
ENDROOT
BRANCH   1   2
ATOM      2  C   UNL     1     -46.525 -22.111  25.977  1.00  0.00     0.000 C 
BRANCH   2   3
ATOM      3  C   UNL     1     -47.935 -21.495  25.896  1.00  0.00     0.000 C 
BRANCH   3   4
ATOM      4  C   UNL     1     -48.296 -20.527  27.040  1.00  0.00     0.000 C 
BRANCH   4   5
ATOM      5  C   UNL     1     -47.149 -19.572  27.437  1.00  0.00     0.000 C 
BRANCH   5   6
ATOM      6  C   UNL     1     -46.810 -18.567  26.322  1.00  0.00     0.000 C 
BRANCH   6   7
ATOM      7  C   UNL     1     -45.323 -18.176  26.314  1.00  0.00     0.000 C 
BRANCH   7   8
ATOM      8  C   UNL     1     -44.478 -19.089  25.412  1.00  0.00     0.000 C 
BRANCH   8   9
ATOM      9  C   UNL     1     -43.375 -19.835  26.182  1.00  0.00     0.000 C 
BRANCH   9  10
ATOM     10  C   UNL     1     -41.954 -19.570  25.636  1.00  0.00     0.006 C 
BRANCH  10  11
ATOM     11  C   UNL     1     -41.846 -18.215  24.923  1.00  0.00     0.053 C 
BRANCH  11  12
ATOM     12  C   UNL     1     -41.239 -17.194  25.836  1.00  0.00     0.041 C 
ATOM     13  O   UNL     1     -41.493 -15.972  25.677  1.00  0.00    -0.550 OA
ATOM     14  O   UNL     1     -40.347 -17.589  26.825  1.00  0.00    -0.550 OA
ENDBRANCH  11  12
ENDBRANCH  10  11
ENDBRANCH   9  10
ENDBRANCH   8   9
ENDBRANCH   7   8
ENDBRANCH   6   7
ENDBRANCH   5   6
ENDBRANCH   4   5
ENDBRANCH   3   4
ENDBRANCH   2   3
ENDBRANCH   1   2
BRANCH   1  15
ATOM     15  C   UNL     1     -46.071 -23.244  28.232  1.00  0.00     0.000 C 
BRANCH  15  16
ATOM     16  C   UNL     1     -44.892 -22.275  28.423  1.00  0.00     0.000 C 
BRANCH  16  17
ATOM     17  C   UNL     1     -43.531 -22.932  28.145  1.00  0.00     0.000 C 
BRANCH  17  18
ATOM     18  C   UNL     1     -42.452 -22.377  29.087  1.00  0.00    -0.000 C 
BRANCH  18  19
ATOM     19  C   UNL     1     -41.150 -22.014  28.355  1.00  0.00    -0.000 C 
BRANCH  19  20
ATOM     20  C   UNL     1     -40.437 -20.804  28.985  1.00  0.00    -0.000 C 
BRANCH  20  21
ATOM     21  C   UNL     1     -39.083 -20.504  28.322  1.00  0.00    -0.000 C 
BRANCH  21  22
ATOM     22  C   UNL     1     -38.108 -21.690  28.397  1.00  0.00    -0.000 C 
BRANCH  22  23
ATOM     23  C   UNL     1     -37.511 -21.996  27.015  1.00  0.00    -0.000 C 
BRANCH  23  24
ATOM     24  C   UNL     1     -38.372 -22.969  26.190  1.00  0.00    -0.000 C 
BRANCH  24  25
ATOM     25  C   UNL     1     -39.206 -22.309  25.077  1.00  0.00    -0.003 C 
ATOM     26  C   UNL     1     -40.560 -22.984  24.860  1.00  0.00     0.004 C 
ENDBRANCH  24  25
ENDBRANCH  23  24
ENDBRANCH  22  23
ENDBRANCH  21  22
ENDBRANCH  20  21
ENDBRANCH  19  20
ENDBRANCH  18  19
ENDBRANCH  17  18
ENDBRANCH  16  17
ENDBRANCH  15  16
ENDBRANCH   1  15
TORSDOF 22
ENDMDL
MODEL 7
REMARK VINA RESULT:    -3.079      3.964      7.345
REMARK INTER + INTRA:         -11.544
REMARK INTER:                  -8.054
REMARK INTRA:                  -3.490
REMARK UNBOUND:                -4.505
REMARK SMILES CCCCCCCCCCCCCCCCCCCCCCCC(=O)[O-]
REMARK SMILES IDX 13 1 14 2 15 3 16 4 17 5 18 6 19 7 20 8 21 9 22 10 23 11
REMARK SMILES IDX 24 12 25 13 26 14 12 15 11 16 10 17 9 18 8 19 7 20 6 21 5 22
REMARK SMILES IDX 4 23 3 24 2 25 1 26
REMARK H PARENT
REMARK Flexibility Score: inf
ROOT
ATOM      1  C   UNL     1     -46.378 -22.360  27.895  1.00  0.00     0.000 C 
ENDROOT
BRANCH   1   2
ATOM      2  C   UNL     1     -47.247 -21.131  28.226  1.00  0.00     0.000 C 
BRANCH   2   3
ATOM      3  C   UNL     1     -48.066 -20.576  27.045  1.00  0.00     0.000 C 
BRANCH   3   4
ATOM      4  C   UNL     1     -47.276 -19.700  26.052  1.00  0.00     0.000 C 
BRANCH   4   5
ATOM      5  C   UNL     1     -46.585 -18.483  26.704  1.00  0.00     0.000 C 
BRANCH   5   6
ATOM      6  C   UNL     1     -46.627 -17.233  25.808  1.00  0.00     0.000 C 
BRANCH   6   7
ATOM      7  C   UNL     1     -45.458 -16.272  26.083  1.00  0.00     0.000 C 
BRANCH   7   8
ATOM      8  C   UNL     1     -44.439 -16.241  24.933  1.00  0.00     0.000 C 
BRANCH   8   9
ATOM      9  C   UNL     1     -43.325 -15.202  25.151  1.00  0.00     0.000 C 
BRANCH   9  10
ATOM     10  C   UNL     1     -41.949 -15.830  25.468  1.00  0.00     0.006 C 
BRANCH  10  11
ATOM     11  C   UNL     1     -40.825 -15.235  24.609  1.00  0.00     0.053 C 
BRANCH  11  12
ATOM     12  C   UNL     1     -40.699 -13.764  24.863  1.00  0.00     0.041 C 
ATOM     13  O   UNL     1     -40.698 -12.953  23.901  1.00  0.00    -0.550 OA
ATOM     14  O   UNL     1     -40.525 -13.295  26.159  1.00  0.00    -0.550 OA
ENDBRANCH  11  12
ENDBRANCH  10  11
ENDBRANCH   9  10
ENDBRANCH   8   9
ENDBRANCH   7   8
ENDBRANCH   6   7
ENDBRANCH   5   6
ENDBRANCH   4   5
ENDBRANCH   3   4
ENDBRANCH   2   3
ENDBRANCH   1   2
BRANCH   1  15
ATOM     15  C   UNL     1     -44.874 -22.038  27.876  1.00  0.00     0.000 C 
BRANCH  15  16
ATOM     16  C   UNL     1     -44.138 -22.733  26.718  1.00  0.00     0.000 C 
BRANCH  16  17
ATOM     17  C   UNL     1     -43.461 -21.740  25.761  1.00  0.00     0.000 C 
BRANCH  17  18
ATOM     18  C   UNL     1     -43.603 -20.299  26.277  1.00  0.00    -0.000 C 
BRANCH  18  19
ATOM     19  C   UNL     1     -42.562 -19.343  25.671  1.00  0.00    -0.000 C 
BRANCH  19  20
ATOM     20  C   UNL     1     -41.188 -20.009  25.485  1.00  0.00    -0.000 C 
BRANCH  20  21
ATOM     21  C   UNL     1     -40.026 -19.010  25.596  1.00  0.00    -0.000 C 
BRANCH  21  22
ATOM     22  C   UNL     1     -39.587 -18.766  27.048  1.00  0.00    -0.000 C 
BRANCH  22  23
ATOM     23  C   UNL     1     -39.097 -20.069  27.698  1.00  0.00    -0.000 C 
BRANCH  23  24
ATOM     24  C   UNL     1     -39.844 -20.409  29.001  1.00  0.00    -0.000 C 
BRANCH  24  25
ATOM     25  C   UNL     1     -40.925 -21.496  28.860  1.00  0.00    -0.003 C 
ATOM     26  C   UNL     1     -40.514 -22.635  27.928  1.00  0.00     0.004 C 
ENDBRANCH  24  25
ENDBRANCH  23  24
ENDBRANCH  22  23
ENDBRANCH  21  22
ENDBRANCH  20  21
ENDBRANCH  19  20
ENDBRANCH  18  19
ENDBRANCH  17  18
ENDBRANCH  16  17
ENDBRANCH  15  16
ENDBRANCH   1  15
TORSDOF 22
ENDMDL
MODEL 8
REMARK VINA RESULT:    -3.075      2.087      7.577
REMARK INTER + INTRA:         -11.535
REMARK INTER:                  -7.986
REMARK INTRA:                  -3.550
REMARK UNBOUND:                -4.505
REMARK SMILES CCCCCCCCCCCCCCCCCCCCCCCC(=O)[O-]
REMARK SMILES IDX 13 1 14 2 15 3 16 4 17 5 18 6 19 7 20 8 21 9 22 10 23 11
REMARK SMILES IDX 24 12 25 13 26 14 12 15 11 16 10 17 9 18 8 19 7 20 6 21 5 22
REMARK SMILES IDX 4 23 3 24 2 25 1 26
REMARK H PARENT
REMARK Flexibility Score: inf
ROOT
ATOM      1  C   UNL     1     -41.950 -19.947  26.405  1.00  0.00     0.000 C 
ENDROOT
BRANCH   1   2
ATOM      2  C   UNL     1     -42.743 -20.322  25.138  1.00  0.00     0.000 C 
BRANCH   2   3
ATOM      3  C   UNL     1     -43.990 -19.459  24.870  1.00  0.00     0.000 C 
BRANCH   3   4
ATOM      4  C   UNL     1     -44.865 -19.167  26.105  1.00  0.00     0.000 C 
BRANCH   4   5
ATOM      5  C   UNL     1     -46.337 -19.606  25.946  1.00  0.00     0.000 C 
BRANCH   5   6
ATOM      6  C   UNL     1     -47.168 -19.349  27.216  1.00  0.00     0.000 C 
BRANCH   6   7
ATOM      7  C   UNL     1     -47.709 -20.646  27.838  1.00  0.00     0.000 C 
BRANCH   7   8
ATOM      8  C   UNL     1     -46.930 -21.890  27.381  1.00  0.00     0.000 C 
BRANCH   8   9
ATOM      9  C   UNL     1     -45.849 -22.321  28.387  1.00  0.00     0.000 C 
BRANCH   9  10
ATOM     10  C   UNL     1     -44.500 -22.681  27.727  1.00  0.00     0.006 C 
BRANCH  10  11
ATOM     11  C   UNL     1     -43.308 -22.429  28.660  1.00  0.00     0.053 C 
BRANCH  11  12
ATOM     12  C   UNL     1     -42.108 -23.190  28.188  1.00  0.00     0.041 C 
ATOM     13  O   UNL     1     -41.918 -23.375  26.957  1.00  0.00    -0.550 OA
ATOM     14  O   UNL     1     -41.229 -23.745  29.110  1.00  0.00    -0.550 OA
ENDBRANCH  11  12
ENDBRANCH  10  11
ENDBRANCH   9  10
ENDBRANCH   8   9
ENDBRANCH   7   8
ENDBRANCH   6   7
ENDBRANCH   5   6
ENDBRANCH   4   5
ENDBRANCH   3   4
ENDBRANCH   2   3
ENDBRANCH   1   2
BRANCH   1  15
ATOM     15  C   UNL     1     -40.991 -18.766  26.179  1.00  0.00     0.000 C 
BRANCH  15  16
ATOM     16  C   UNL     1     -39.764 -18.818  27.105  1.00  0.00     0.000 C 
BRANCH  16  17
ATOM     17  C   UNL     1     -39.814 -19.994  28.093  1.00  0.00     0.000 C 
BRANCH  17  18
ATOM     18  C   UNL     1     -38.481 -20.758  28.103  1.00  0.00    -0.000 C 
BRANCH  18  19
ATOM     19  C   UNL     1     -38.563 -22.113  27.380  1.00  0.00    -0.000 C 
BRANCH  19  20
ATOM     20  C   UNL     1     -37.989 -22.056  25.954  1.00  0.00    -0.000 C 
BRANCH  20  21
ATOM     21  C   UNL     1     -39.065 -22.252  24.874  1.00  0.00    -0.000 C 
BRANCH  21  22
ATOM     22  C   UNL     1     -39.191 -21.042  23.935  1.00  0.00    -0.000 C 
BRANCH  22  23
ATOM     23  C   UNL     1     -37.857 -20.289  23.829  1.00  0.00    -0.000 C 
BRANCH  23  24
ATOM     24  C   UNL     1     -38.015 -18.763  23.963  1.00  0.00    -0.000 C 
BRANCH  24  25
ATOM     25  C   UNL     1     -37.206 -17.939  22.946  1.00  0.00    -0.003 C 
ATOM     26  C   UNL     1     -36.793 -16.567  23.478  1.00  0.00     0.004 C 
ENDBRANCH  24  25
ENDBRANCH  23  24
ENDBRANCH  22  23
ENDBRANCH  21  22
ENDBRANCH  20  21
ENDBRANCH  19  20
ENDBRANCH  18  19
ENDBRANCH  17  18
ENDBRANCH  16  17
ENDBRANCH  15  16
ENDBRANCH   1  15
TORSDOF 22
ENDMDL
MODEL 9
REMARK VINA RESULT:    -3.036      3.668      7.880
REMARK INTER + INTRA:         -11.446
REMARK INTER:                  -7.589
REMARK INTRA:                  -3.856
REMARK UNBOUND:                -4.505
REMARK SMILES CCCCCCCCCCCCCCCCCCCCCCCC(=O)[O-]
REMARK SMILES IDX 13 1 14 2 15 3 16 4 17 5 18 6 19 7 20 8 21 9 22 10 23 11
REMARK SMILES IDX 24 12 25 13 26 14 12 15 11 16 10 17 9 18 8 19 7 20 6 21 5 22
REMARK SMILES IDX 4 23 3 24 2 25 1 26
REMARK H PARENT
REMARK Flexibility Score: inf
ROOT
ATOM      1  C   UNL     1     -42.205 -20.831  25.622  1.00  0.00     0.000 C 
ENDROOT
BRANCH   1   2
ATOM      2  C   UNL     1     -43.459 -20.726  26.510  1.00  0.00     0.000 C 
BRANCH   2   3
ATOM      3  C   UNL     1     -44.219 -22.048  26.726  1.00  0.00     0.000 C 
BRANCH   3   4
ATOM      4  C   UNL     1     -44.856 -22.221  28.119  1.00  0.00     0.000 C 
BRANCH   4   5
ATOM      5  C   UNL     1     -46.390 -22.394  28.087  1.00  0.00     0.000 C 
BRANCH   5   6
ATOM      6  C   UNL     1     -47.062 -21.496  27.033  1.00  0.00     0.000 C 
BRANCH   6   7
ATOM      7  C   UNL     1     -47.875 -20.354  27.665  1.00  0.00     0.000 C 
BRANCH   7   8
ATOM      8  C   UNL     1     -47.346 -18.966  27.272  1.00  0.00     0.000 C 
BRANCH   8   9
ATOM      9  C   UNL     1     -46.273 -19.025  26.171  1.00  0.00     0.000 C 
BRANCH   9  10
ATOM     10  C   UNL     1     -46.733 -18.416  24.828  1.00  0.00     0.006 C 
BRANCH  10  11
ATOM     11  C   UNL     1     -45.809 -17.287  24.352  1.00  0.00     0.053 C 
BRANCH  11  12
ATOM     12  C   UNL     1     -45.947 -16.092  25.245  1.00  0.00     0.041 C 
ATOM     13  O   UNL     1     -46.913 -15.300  25.100  1.00  0.00    -0.550 OA
ATOM     14  O   UNL     1     -44.974 -15.823  26.201  1.00  0.00    -0.550 OA
ENDBRANCH  11  12
ENDBRANCH  10  11
ENDBRANCH   9  10
ENDBRANCH   8   9
ENDBRANCH   7   8
ENDBRANCH   6   7
ENDBRANCH   5   6
ENDBRANCH   4   5
ENDBRANCH   3   4
ENDBRANCH   2   3
ENDBRANCH   1   2
BRANCH   1  15
ATOM     15  C   UNL     1     -41.896 -22.276  25.196  1.00  0.00     0.000 C 
BRANCH  15  16
ATOM     16  C   UNL     1     -40.398 -22.610  25.288  1.00  0.00     0.000 C 
BRANCH  16  17
ATOM     17  C   UNL     1     -40.124 -23.912  26.056  1.00  0.00     0.000 C 
BRANCH  17  18
ATOM     18  C   UNL     1     -41.119 -24.085  27.214  1.00  0.00    -0.000 C 
BRANCH  18  19
ATOM     19  C   UNL     1     -40.584 -23.536  28.547  1.00  0.00    -0.000 C 
BRANCH  19  20
ATOM     20  C   UNL     1     -41.341 -22.280  29.013  1.00  0.00    -0.000 C 
BRANCH  20  21
ATOM     21  C   UNL     1     -40.479 -21.010  28.943  1.00  0.00    -0.000 C 
BRANCH  21  22
ATOM     22  C   UNL     1     -39.020 -21.301  28.557  1.00  0.00    -0.000 C 
BRANCH  22  23
ATOM     23  C   UNL     1     -38.529 -20.314  27.487  1.00  0.00    -0.000 C 
BRANCH  23  24
ATOM     24  C   UNL     1     -39.439 -19.081  27.343  1.00  0.00    -0.000 C 
BRANCH  24  25
ATOM     25  C   UNL     1     -39.455 -18.451  25.938  1.00  0.00    -0.003 C 
ATOM     26  C   UNL     1     -40.600 -17.459  25.739  1.00  0.00     0.004 C 
ENDBRANCH  24  25
ENDBRANCH  23  24
ENDBRANCH  22  23
ENDBRANCH  21  22
ENDBRANCH  20  21
ENDBRANCH  19  20
ENDBRANCH  18  19
ENDBRANCH  17  18
ENDBRANCH  16  17
ENDBRANCH  15  16
ENDBRANCH   1  15
TORSDOF 22
ENDMDL
