MODEL 1
REMARK VINA RESULT:    -4.948      0.000      0.000
REMARK INTER + INTRA:          -6.210
REMARK INTER:                  -6.106
REMARK INTRA:                  -0.104
REMARK UNBOUND:                -0.104
REMARK SMILES CCCCCC(=O)[O-]
REMARK SMILES IDX 4 1 5 2 6 3 7 4 8 5 3 6 2 7 1 8
REMARK H PARENT
REMARK Flexibility Score: inf
ROOT
ATOM      1  C   UNL     1       2.961  -3.036  -1.298  1.00  0.00     0.006 C 
ENDROOT
BRANCH   1   2
ATOM      2  C   UNL     1       2.055  -1.871  -0.879  1.00  0.00     0.053 C 
BRANCH   2   3
ATOM      3  C   UNL     1       0.801  -2.385  -0.246  1.00  0.00     0.041 C 
ATOM      4  O   UNL     1       0.779  -3.532   0.275  1.00  0.00    -0.550 OA
ATOM      5  O   UNL     1      -0.358  -1.620  -0.275  1.00  0.00    -0.550 OA
ENDBRANCH   2   3
ENDBRANCH   1   2
BRANCH   1   6
ATOM      6  C   UNL     1       3.923  -2.666  -2.441  1.00  0.00     0.000 C 
BRANCH   6   7
ATOM      7  C   UNL     1       3.779  -1.225  -2.965  1.00  0.00    -0.003 C 
ATOM      8  C   UNL     1       4.121  -1.090  -4.448  1.00  0.00     0.004 C 
ENDBRANCH   6   7
ENDBRANCH   1   6
TORSDOF 4
ENDMDL
MODEL 2
REMARK VINA RESULT:    -4.899      1.018      1.061
REMARK INTER + INTRA:          -6.149
REMARK INTER:                  -6.143
REMARK INTRA:                  -0.006
REMARK UNBOUND:                -0.104
REMARK SMILES CCCCCC(=O)[O-]
REMARK SMILES IDX 4 1 5 2 6 3 7 4 8 5 3 6 2 7 1 8
REMARK H PARENT
REMARK Flexibility Score: inf
ROOT
ATOM      1  C   UNL     1       2.762  -3.004  -1.048  1.00  0.00     0.006 C 
ENDROOT
BRANCH   1   2
ATOM      2  C   UNL     1       1.745  -2.611   0.031  1.00  0.00     0.053 C 
BRANCH   2   3
ATOM      3  C   UNL     1       0.405  -2.353  -0.582  1.00  0.00     0.041 C 
ATOM      4  O   UNL     1       0.005  -3.055  -1.548  1.00  0.00    -0.550 OA
ATOM      5  O   UNL     1      -0.382  -1.305  -0.120  1.00  0.00    -0.550 OA
ENDBRANCH   2   3
ENDBRANCH   1   2
BRANCH   1   6
ATOM      6  C   UNL     1       3.036  -1.872  -2.054  1.00  0.00     0.000 C 
BRANCH   6   7
ATOM      7  C   UNL     1       3.867  -2.287  -3.282  1.00  0.00    -0.003 C 
ATOM      8  C   UNL     1       4.232  -1.109  -4.184  1.00  0.00     0.004 C 
ENDBRANCH   6   7
ENDBRANCH   1   6
TORSDOF 4
ENDMDL
MODEL 3
REMARK VINA RESULT:    -4.384      2.988      4.232
REMARK INTER + INTRA:          -5.513
REMARK INTER:                  -5.487
REMARK INTRA:                  -0.026
REMARK UNBOUND:                -0.104
REMARK SMILES CCCCCC(=O)[O-]
REMARK SMILES IDX 4 1 5 2 6 3 7 4 8 5 3 6 2 7 1 8
REMARK H PARENT
REMARK Flexibility Score: inf
ROOT
ATOM      1  C   UNL     1       3.006  -2.991  -1.645  1.00  0.00     0.006 C 
ENDROOT
BRANCH   1   2
ATOM      2  C   UNL     1       3.350  -1.611  -2.221  1.00  0.00     0.053 C 
BRANCH   2   3
ATOM      3  C   UNL     1       3.715  -1.724  -3.667  1.00  0.00     0.041 C 
ATOM      4  O   UNL     1       4.110  -2.824  -4.137  1.00  0.00    -0.550 OA
ATOM      5  O   UNL     1       3.669  -0.603  -4.486  1.00  0.00    -0.550 OA
ENDBRANCH   2   3
ENDBRANCH   1   2
BRANCH   1   6
ATOM      6  C   UNL     1       2.483  -2.923  -0.199  1.00  0.00     0.000 C 
BRANCH   6   7
ATOM      7  C   UNL     1       1.046  -2.389  -0.057  1.00  0.00    -0.003 C 
ATOM      8  C   UNL     1       0.164  -2.715  -1.261  1.00  0.00     0.004 C 
ENDBRANCH   6   7
ENDBRANCH   1   6
TORSDOF 4
ENDMDL
MODEL 4
REMARK VINA RESULT:    -3.772     10.697     11.688
REMARK INTER + INTRA:          -4.758
REMARK INTER:                  -4.682
REMARK INTRA:                  -0.076
REMARK UNBOUND:                -0.104
REMARK SMILES CCCCCC(=O)[O-]
REMARK SMILES IDX 4 1 5 2 6 3 7 4 8 5 3 6 2 7 1 8
REMARK H PARENT
REMARK Flexibility Score: inf
ROOT
ATOM      1  C   UNL     1       1.109   8.270  -6.823  1.00  0.00     0.006 C 
ENDROOT
BRANCH   1   2
ATOM      2  C   UNL     1      -0.256   8.963  -6.722  1.00  0.00     0.053 C 
BRANCH   2   3
ATOM      3  C   UNL     1      -1.121   8.269  -5.718  1.00  0.00     0.041 C 
ATOM      4  O   UNL     1      -0.769   8.211  -4.510  1.00  0.00    -0.550 OA
ATOM      5  O   UNL     1      -2.293   7.642  -6.125  1.00  0.00    -0.550 OA
ENDBRANCH   2   3
ENDBRANCH   1   2
BRANCH   1   6
ATOM      6  C   UNL     1       1.835   8.567  -8.148  1.00  0.00     0.000 C 
BRANCH   6   7
ATOM      7  C   UNL     1       3.056   7.672  -8.430  1.00  0.00    -0.003 C 
ATOM      8  C   UNL     1       3.173   6.497  -7.461  1.00  0.00     0.004 C 
ENDBRANCH   6   7
ENDBRANCH   1   6
TORSDOF 4
ENDMDL
MODEL 5
REMARK VINA RESULT:    -3.673     12.451     13.259
REMARK INTER + INTRA:          -4.636
REMARK INTER:                  -4.432
REMARK INTRA:                  -0.205
REMARK UNBOUND:                -0.104
REMARK SMILES CCCCCC(=O)[O-]
REMARK SMILES IDX 4 1 5 2 6 3 7 4 8 5 3 6 2 7 1 8
REMARK H PARENT
REMARK Flexibility Score: inf
ROOT
ATOM      1  C   UNL     1      -3.035   9.057  -3.290  1.00  0.00     0.006 C 
ENDROOT
BRANCH   1   2
ATOM      2  C   UNL     1      -1.904   9.522  -4.215  1.00  0.00     0.053 C 
BRANCH   2   3
ATOM      3  C   UNL     1      -1.426   8.389  -5.067  1.00  0.00     0.041 C 
ATOM      4  O   UNL     1      -2.234   7.768  -5.807  1.00  0.00    -0.550 OA
ATOM      5  O   UNL     1      -0.097   7.985  -5.006  1.00  0.00    -0.550 OA
ENDBRANCH   2   3
ENDBRANCH   1   2
BRANCH   1   6
ATOM      6  C   UNL     1      -4.200  10.060  -3.217  1.00  0.00     0.000 C 
BRANCH   6   7
ATOM      7  C   UNL     1      -5.078  10.124  -4.481  1.00  0.00    -0.003 C 
ATOM      8  C   UNL     1      -5.650   8.765  -4.881  1.00  0.00     0.004 C 
ENDBRANCH   6   7
ENDBRANCH   1   6
TORSDOF 4
ENDMDL
MODEL 6
REMARK VINA RESULT:    -3.489      9.338     10.940
REMARK INTER + INTRA:          -4.409
REMARK INTER:                  -4.343
REMARK INTRA:                  -0.067
REMARK UNBOUND:                -0.104
REMARK SMILES CCCCCC(=O)[O-]
REMARK SMILES IDX 4 1 5 2 6 3 7 4 8 5 3 6 2 7 1 8
REMARK H PARENT
REMARK Flexibility Score: inf
ROOT
ATOM      1  C   UNL     1      -1.695  -7.873   7.082  1.00  0.00     0.006 C 
ENDROOT
BRANCH   1   2
ATOM      2  C   UNL     1      -2.660  -7.411   5.982  1.00  0.00     0.053 C 
BRANCH   2   3
ATOM      3  C   UNL     1      -2.042  -7.597   4.633  1.00  0.00     0.041 C 
ATOM      4  O   UNL     1      -1.423  -8.659   4.360  1.00  0.00    -0.550 OA
ATOM      5  O   UNL     1      -2.105  -6.576   3.692  1.00  0.00    -0.550 OA
ENDBRANCH   2   3
ENDBRANCH   1   2
BRANCH   1   6
ATOM      6  C   UNL     1      -1.927  -7.154   8.423  1.00  0.00     0.000 C 
BRANCH   6   7
ATOM      7  C   UNL     1      -0.669  -6.514   9.038  1.00  0.00    -0.003 C 
ATOM      8  C   UNL     1      -0.812  -5.010   9.264  1.00  0.00     0.004 C 
ENDBRANCH   6   7
ENDBRANCH   1   6
TORSDOF 4
ENDMDL
MODEL 7
REMARK VINA RESULT:    -3.461      9.291     10.999
REMARK INTER + INTRA:          -4.374
REMARK INTER:                  -4.315
REMARK INTRA:                  -0.059
REMARK UNBOUND:                -0.104
REMARK SMILES CCCCCC(=O)[O-]
REMARK SMILES IDX 4 1 5 2 6 3 7 4 8 5 3 6 2 7 1 8
REMARK H PARENT
REMARK Flexibility Score: inf
ROOT
ATOM      1  C   UNL     1      -1.710  -7.870   7.017  1.00  0.00     0.006 C 
ENDROOT
BRANCH   1   2
ATOM      2  C   UNL     1      -2.698  -7.431   5.929  1.00  0.00     0.053 C 
BRANCH   2   3
ATOM      3  C   UNL     1      -2.059  -7.509   4.579  1.00  0.00     0.041 C 
ATOM      4  O   UNL     1      -2.230  -6.583   3.743  1.00  0.00    -0.550 OA
ATOM      5  O   UNL     1      -1.315  -8.629   4.225  1.00  0.00    -0.550 OA
ENDBRANCH   2   3
ENDBRANCH   1   2
BRANCH   1   6
ATOM      6  C   UNL     1      -1.944  -7.157   8.362  1.00  0.00     0.000 C 
BRANCH   6   7
ATOM      7  C   UNL     1      -0.672  -6.601   9.028  1.00  0.00    -0.003 C 
ATOM      8  C   UNL     1      -0.778  -5.118   9.377  1.00  0.00     0.004 C 
ENDBRANCH   6   7
ENDBRANCH   1   6
TORSDOF 4
ENDMDL
MODEL 8
REMARK VINA RESULT:    -3.411     12.868     13.545
REMARK INTER + INTRA:          -4.313
REMARK INTER:                  -4.208
REMARK INTRA:                  -0.105
REMARK UNBOUND:                -0.104
REMARK SMILES CCCCCC(=O)[O-]
REMARK SMILES IDX 4 1 5 2 6 3 7 4 8 5 3 6 2 7 1 8
REMARK H PARENT
REMARK Flexibility Score: inf
ROOT
ATOM      1  C   UNL     1      -5.251   8.863  -5.062  1.00  0.00     0.006 C 
ENDROOT
BRANCH   1   2
ATOM      2  C   UNL     1      -6.624   8.190  -4.937  1.00  0.00     0.053 C 
BRANCH   2   3
ATOM      3  C   UNL     1      -6.510   6.719  -5.184  1.00  0.00     0.041 C 
ATOM      4  O   UNL     1      -5.376   6.176  -5.260  1.00  0.00    -0.550 OA
ATOM      5  O   UNL     1      -7.654   5.956  -5.382  1.00  0.00    -0.550 OA
ENDBRANCH   2   3
ENDBRANCH   1   2
BRANCH   1   6
ATOM      6  C   UNL     1      -5.121  10.125  -4.190  1.00  0.00     0.000 C 
BRANCH   6   7
ATOM      7  C   UNL     1      -4.096  10.016  -3.047  1.00  0.00    -0.003 C 
ATOM      8  C   UNL     1      -2.928   9.087  -3.375  1.00  0.00     0.004 C 
ENDBRANCH   6   7
ENDBRANCH   1   6
TORSDOF 4
ENDMDL
MODEL 9
REMARK VINA RESULT:    -3.159     12.843     13.614
REMARK INTER + INTRA:          -4.001
REMARK INTER:                  -3.821
REMARK INTRA:                  -0.181
REMARK UNBOUND:                -0.104
REMARK SMILES CCCCCC(=O)[O-]
REMARK SMILES IDX 4 1 5 2 6 3 7 4 8 5 3 6 2 7 1 8
REMARK H PARENT
REMARK Flexibility Score: inf
ROOT
ATOM      1  C   UNL     1      -5.707   9.066  -5.248  1.00  0.00     0.006 C 
ENDROOT
BRANCH   1   2
ATOM      2  C   UNL     1      -4.897   9.645  -4.081  1.00  0.00     0.053 C 
BRANCH   2   3
ATOM      3  C   UNL     1      -3.489   9.144  -4.121  1.00  0.00     0.041 C 
ATOM      4  O   UNL     1      -2.860   8.935  -3.050  1.00  0.00    -0.550 OA
ATOM      5  O   UNL     1      -2.852   8.955  -5.342  1.00  0.00    -0.550 OA
ENDBRANCH   2   3
ENDBRANCH   1   2
BRANCH   1   6
ATOM      6  C   UNL     1      -6.869   8.169  -4.784  1.00  0.00     0.000 C 
BRANCH   6   7
ATOM      7  C   UNL     1      -6.748   6.690  -5.198  1.00  0.00    -0.003 C 
ATOM      8  C   UNL     1      -5.367   6.333  -5.746  1.00  0.00     0.004 C 
ENDBRANCH   6   7
ENDBRANCH   1   6
TORSDOF 4
ENDMDL
