MODEL 1
REMARK VINA RESULT:    -5.799      0.000      0.000
REMARK INTER + INTRA:          -5.968
REMARK INTER:                  -5.968
REMARK INTRA:                   0.000
REMARK UNBOUND:                 0.000
REMARK SMILES O=c1ccc2cc(O)ccc2o1
REMARK SMILES IDX 9 1 10 2 11 3 5 4 4 5 3 6 2 7 1 8 12 9 6 10 7 11 8 12
REMARK H PARENT 8 13
REMARK Flexibility Score: inf
ROOT
ATOM      1  C   UNL     1     -12.532 -20.780  -5.278  1.00  0.00     0.050 A 
ATOM      2  C   UNL     1     -11.138 -20.876  -5.349  1.00  0.00     0.052 A 
ATOM      3  C   UNL     1     -10.413 -19.974  -6.135  1.00  0.00     0.138 A 
ATOM      4  C   UNL     1     -11.093 -18.968  -6.855  1.00  0.00     0.021 A 
ATOM      5  C   UNL     1     -10.342 -18.080  -7.633  1.00  0.00     0.019 A 
ATOM      6  C   UNL     1      -8.954 -18.213  -7.673  1.00  0.00     0.094 A 
ATOM      7  C   UNL     1      -8.349 -19.234  -6.933  1.00  0.00     0.336 A 
ATOM      8  O   UNL     1      -7.098 -19.370  -6.956  1.00  0.00    -0.246 OA
ATOM      9  O   UNL     1      -9.087 -20.065  -6.201  1.00  0.00    -0.423 OA
ATOM     10  C   UNL     1     -12.491 -18.876  -6.781  1.00  0.00     0.058 A 
ATOM     11  C   UNL     1     -13.210 -19.784  -5.990  1.00  0.00     0.116 A 
ENDROOT
BRANCH  11  12
ATOM     12  O   UNL     1     -14.598 -19.707  -5.906  1.00  0.00    -0.508 OA
ATOM     13  H   UNL     1     -15.194 -20.055  -6.649  1.00  0.00     0.293 HD
ENDBRANCH  11  12
TORSDOF 1
ENDMDL
MODEL 2
REMARK VINA RESULT:    -5.737     13.742     14.509
REMARK INTER + INTRA:          -5.905
REMARK INTER:                  -5.905
REMARK INTRA:                   0.000
REMARK UNBOUND:                 0.000
REMARK SMILES O=c1ccc2cc(O)ccc2o1
REMARK SMILES IDX 9 1 10 2 11 3 5 4 4 5 3 6 2 7 1 8 12 9 6 10 7 11 8 12
REMARK H PARENT 8 13
REMARK Flexibility Score: inf
ROOT
ATOM      1  C   UNL     1     -13.460  -9.037 -15.261  1.00  0.00     0.050 A 
ATOM      2  C   UNL     1     -14.095  -9.827 -16.226  1.00  0.00     0.052 A 
ATOM      3  C   UNL     1     -15.405 -10.271 -16.016  1.00  0.00     0.138 A 
ATOM      4  C   UNL     1     -16.083  -9.920 -14.828  1.00  0.00     0.021 A 
ATOM      5  C   UNL     1     -17.392 -10.379 -14.646  1.00  0.00     0.019 A 
ATOM      6  C   UNL     1     -17.985 -11.163 -15.635  1.00  0.00     0.094 A 
ATOM      7  C   UNL     1     -17.253 -11.471 -16.786  1.00  0.00     0.336 A 
ATOM      8  O   UNL     1     -17.771 -12.177 -17.691  1.00  0.00    -0.246 OA
ATOM      9  O   UNL     1     -16.009 -11.022 -16.935  1.00  0.00    -0.423 OA
ATOM     10  C   UNL     1     -15.442  -9.129 -13.864  1.00  0.00     0.058 A 
ATOM     11  C   UNL     1     -14.129  -8.687 -14.082  1.00  0.00     0.116 A 
ENDROOT
BRANCH  11  12
ATOM     12  O   UNL     1     -13.478  -7.900 -13.134  1.00  0.00    -0.508 OA
ATOM     13  H   UNL     1     -13.984  -7.463 -12.372  1.00  0.00     0.293 HD
ENDBRANCH  11  12
TORSDOF 1
ENDMDL
MODEL 3
REMARK VINA RESULT:    -5.663     13.605     13.862
REMARK INTER + INTRA:          -5.828
REMARK INTER:                  -5.828
REMARK INTRA:                   0.000
REMARK UNBOUND:                 0.000
REMARK SMILES O=c1ccc2cc(O)ccc2o1
REMARK SMILES IDX 9 1 10 2 11 3 5 4 4 5 3 6 2 7 1 8 12 9 6 10 7 11 8 12
REMARK H PARENT 8 13
REMARK Flexibility Score: inf
ROOT
ATOM      1  C   UNL     1     -17.657 -11.327 -16.270  1.00  0.00     0.050 A 
ATOM      2  C   UNL     1     -16.340 -11.169 -16.715  1.00  0.00     0.052 A 
ATOM      3  C   UNL     1     -15.425 -10.437 -15.951  1.00  0.00     0.138 A 
ATOM      4  C   UNL     1     -15.835  -9.861 -14.729  1.00  0.00     0.021 A 
ATOM      5  C   UNL     1     -14.898  -9.134 -13.986  1.00  0.00     0.019 A 
ATOM      6  C   UNL     1     -13.597  -9.003 -14.469  1.00  0.00     0.094 A 
ATOM      7  C   UNL     1     -13.262  -9.602 -15.688  1.00  0.00     0.336 A 
ATOM      8  O   UNL     1     -12.092  -9.495 -16.140  1.00  0.00    -0.246 OA
ATOM      9  O   UNL     1     -14.172 -10.288 -16.375  1.00  0.00    -0.423 OA
ATOM     10  C   UNL     1     -17.156 -10.022 -14.287  1.00  0.00     0.058 A 
ATOM     11  C   UNL     1     -18.067 -10.757 -15.059  1.00  0.00     0.116 A 
ENDROOT
BRANCH  11  12
ATOM     12  O   UNL     1     -19.383 -10.927 -14.634  1.00  0.00    -0.508 OA
ATOM     13  H   UNL     1     -20.079 -10.202 -14.765  1.00  0.00     0.293 HD
ENDBRANCH  11  12
TORSDOF 1
ENDMDL
MODEL 4
REMARK VINA RESULT:    -5.511      1.064      2.074
REMARK INTER + INTRA:          -5.672
REMARK INTER:                  -5.672
REMARK INTRA:                   0.000
REMARK UNBOUND:                 0.000
REMARK SMILES O=c1ccc2cc(O)ccc2o1
REMARK SMILES IDX 9 1 10 2 11 3 5 4 4 5 3 6 2 7 1 8 12 9 6 10 7 11 8 12
REMARK H PARENT 8 13
REMARK Flexibility Score: inf
ROOT
ATOM      1  C   UNL     1     -12.746 -18.884  -6.852  1.00  0.00     0.050 A 
ATOM      2  C   UNL     1     -11.573 -18.459  -7.485  1.00  0.00     0.052 A 
ATOM      3  C   UNL     1     -10.345 -19.035  -7.144  1.00  0.00     0.138 A 
ATOM      4  C   UNL     1     -10.294 -20.047  -6.161  1.00  0.00     0.021 A 
ATOM      5  C   UNL     1      -9.052 -20.605  -5.842  1.00  0.00     0.019 A 
ATOM      6  C   UNL     1      -7.909 -20.149  -6.498  1.00  0.00     0.094 A 
ATOM      7  C   UNL     1      -8.036 -19.143  -7.461  1.00  0.00     0.336 A 
ATOM      8  O   UNL     1      -7.016 -18.719  -8.065  1.00  0.00    -0.246 OA
ATOM      9  O   UNL     1      -9.230 -18.630  -7.747  1.00  0.00    -0.423 OA
ATOM     10  C   UNL     1     -11.473 -20.470  -5.530  1.00  0.00     0.058 A 
ATOM     11  C   UNL     1     -12.701 -19.887  -5.878  1.00  0.00     0.116 A 
ENDROOT
BRANCH  11  12
ATOM     12  O   UNL     1     -13.880 -20.297  -5.260  1.00  0.00    -0.508 OA
ATOM     13  H   UNL     1     -14.328 -21.173  -5.502  1.00  0.00     0.293 HD
ENDBRANCH  11  12
TORSDOF 1
ENDMDL
MODEL 5
REMARK VINA RESULT:    -5.447     13.611     14.029
REMARK INTER + INTRA:          -5.607
REMARK INTER:                  -5.607
REMARK INTRA:                   0.000
REMARK UNBOUND:                 0.000
REMARK SMILES O=c1ccc2cc(O)ccc2o1
REMARK SMILES IDX 9 1 10 2 11 3 5 4 4 5 3 6 2 7 1 8 12 9 6 10 7 11 8 12
REMARK H PARENT 8 13
REMARK Flexibility Score: inf
ROOT
ATOM      1  C   UNL     1     -18.098 -11.052 -15.512  1.00  0.00     0.050 A 
ATOM      2  C   UNL     1     -17.337 -10.311 -14.601  1.00  0.00     0.052 A 
ATOM      3  C   UNL     1     -16.006  -9.996 -14.893  1.00  0.00     0.138 A 
ATOM      4  C   UNL     1     -15.434 -10.427 -16.110  1.00  0.00     0.021 A 
ATOM      5  C   UNL     1     -14.101 -10.097 -16.374  1.00  0.00     0.019 A 
ATOM      6  C   UNL     1     -13.381  -9.356 -15.437  1.00  0.00     0.094 A 
ATOM      7  C   UNL     1     -14.014  -8.963 -14.253  1.00  0.00     0.336 A 
ATOM      8  O   UNL     1     -13.381  -8.294 -13.395  1.00  0.00    -0.246 OA
ATOM      9  O   UNL     1     -15.284  -9.291 -14.026  1.00  0.00    -0.423 OA
ATOM     10  C   UNL     1     -16.200 -11.170 -17.020  1.00  0.00     0.058 A 
ATOM     11  C   UNL     1     -17.535 -11.482 -16.720  1.00  0.00     0.116 A 
ENDROOT
BRANCH  11  12
ATOM     12  O   UNL     1     -18.309 -12.218 -17.613  1.00  0.00    -0.508 OA
ATOM     13  H   UNL     1     -19.321 -12.171 -17.601  1.00  0.00     0.293 HD
ENDBRANCH  11  12
TORSDOF 1
ENDMDL
MODEL 6
REMARK VINA RESULT:    -5.420      1.479      2.278
REMARK INTER + INTRA:          -5.578
REMARK INTER:                  -5.578
REMARK INTRA:                   0.000
REMARK UNBOUND:                 0.000
REMARK SMILES O=c1ccc2cc(O)ccc2o1
REMARK SMILES IDX 9 1 10 2 11 3 5 4 4 5 3 6 2 7 1 8 12 9 6 10 7 11 8 12
REMARK H PARENT 8 13
REMARK Flexibility Score: inf
ROOT
ATOM      1  C   UNL     1     -13.632 -20.056  -8.261  1.00  0.00     0.050 A 
ATOM      2  C   UNL     1     -12.270 -20.119  -8.576  1.00  0.00     0.052 A 
ATOM      3  C   UNL     1     -11.319 -20.220  -7.555  1.00  0.00     0.138 A 
ATOM      4  C   UNL     1     -11.738 -20.259  -6.208  1.00  0.00     0.021 A 
ATOM      5  C   UNL     1     -10.764 -20.361  -5.209  1.00  0.00     0.019 A 
ATOM      6  C   UNL     1      -9.418 -20.421  -5.570  1.00  0.00     0.094 A 
ATOM      7  C   UNL     1      -9.077 -20.378  -6.926  1.00  0.00     0.336 A 
ATOM      8  O   UNL     1      -7.868 -20.431  -7.272  1.00  0.00    -0.246 OA
ATOM      9  O   UNL     1     -10.024 -20.281  -7.857  1.00  0.00    -0.423 OA
ATOM     10  C   UNL     1     -13.104 -20.195  -5.897  1.00  0.00     0.058 A 
ATOM     11  C   UNL     1     -14.052 -20.094  -6.926  1.00  0.00     0.116 A 
ENDROOT
BRANCH  11  12
ATOM     12  O   UNL     1     -15.412 -20.030  -6.633  1.00  0.00    -0.508 OA
ATOM     13  H   UNL     1     -15.892 -20.796  -6.174  1.00  0.00     0.293 HD
ENDBRANCH  11  12
TORSDOF 1
ENDMDL
MODEL 7
REMARK VINA RESULT:    -5.266      8.712      8.937
REMARK INTER + INTRA:          -5.420
REMARK INTER:                  -5.420
REMARK INTRA:                   0.000
REMARK UNBOUND:                 0.000
REMARK SMILES O=c1ccc2cc(O)ccc2o1
REMARK SMILES IDX 9 1 10 2 11 3 5 4 4 5 3 6 2 7 1 8 12 9 6 10 7 11 8 12
REMARK H PARENT 8 13
REMARK Flexibility Score: inf
ROOT
ATOM      1  C   UNL     1     -11.923 -23.494 -13.270  1.00  0.00     0.050 A 
ATOM      2  C   UNL     1     -10.780 -23.577 -12.467  1.00  0.00     0.052 A 
ATOM      3  C   UNL     1     -10.066 -24.777 -12.387  1.00  0.00     0.138 A 
ATOM      4  C   UNL     1     -10.502 -25.902 -13.120  1.00  0.00     0.021 A 
ATOM      5  C   UNL     1      -9.768 -27.088 -13.021  1.00  0.00     0.019 A 
ATOM      6  C   UNL     1      -8.634 -27.125 -12.209  1.00  0.00     0.094 A 
ATOM      7  C   UNL     1      -8.262 -25.970 -11.513  1.00  0.00     0.336 A 
ATOM      8  O   UNL     1      -7.242 -25.983 -10.775  1.00  0.00    -0.246 OA
ATOM      9  O   UNL     1      -8.978 -24.854 -11.624  1.00  0.00    -0.423 OA
ATOM     10  C   UNL     1     -11.649 -25.814 -13.923  1.00  0.00     0.058 A 
ATOM     11  C   UNL     1     -12.359 -24.607 -13.997  1.00  0.00     0.116 A 
ENDROOT
BRANCH  11  12
ATOM     12  O   UNL     1     -13.500 -24.503 -14.790  1.00  0.00    -0.508 OA
ATOM     13  H   UNL     1     -14.085 -25.308 -14.985  1.00  0.00     0.293 HD
ENDBRANCH  11  12
TORSDOF 1
ENDMDL
MODEL 8
REMARK VINA RESULT:    -5.200      1.567      2.165
REMARK INTER + INTRA:          -5.352
REMARK INTER:                  -5.352
REMARK INTRA:                   0.000
REMARK UNBOUND:                 0.000
REMARK SMILES O=c1ccc2cc(O)ccc2o1
REMARK SMILES IDX 9 1 10 2 11 3 5 4 4 5 3 6 2 7 1 8 12 9 6 10 7 11 8 12
REMARK H PARENT 8 13
REMARK Flexibility Score: inf
ROOT
ATOM      1  C   UNL     1     -11.523 -19.617  -6.012  1.00  0.00     0.050 A 
ATOM      2  C   UNL     1     -10.400 -20.397  -5.716  1.00  0.00     0.052 A 
ATOM      3  C   UNL     1      -9.159 -20.082  -6.281  1.00  0.00     0.138 A 
ATOM      4  C   UNL     1      -9.045 -18.974  -7.149  1.00  0.00     0.021 A 
ATOM      5  C   UNL     1      -7.792 -18.683  -7.698  1.00  0.00     0.019 A 
ATOM      6  C   UNL     1      -6.700 -19.488  -7.374  1.00  0.00     0.094 A 
ATOM      7  C   UNL     1      -6.888 -20.569  -6.506  1.00  0.00     0.336 A 
ATOM      8  O   UNL     1      -5.915 -21.307  -6.202  1.00  0.00    -0.246 OA
ATOM      9  O   UNL     1      -8.091 -20.824  -5.997  1.00  0.00    -0.423 OA
ATOM     10  C   UNL     1     -10.174 -18.196  -7.443  1.00  0.00     0.058 A 
ATOM     11  C   UNL     1     -11.414 -18.518  -6.872  1.00  0.00     0.116 A 
ENDROOT
BRANCH  11  12
ATOM     12  O   UNL     1     -12.544 -17.755  -7.154  1.00  0.00    -0.508 OA
ATOM     13  H   UNL     1     -13.109 -17.352  -6.416  1.00  0.00     0.293 HD
ENDBRANCH  11  12
TORSDOF 1
ENDMDL
MODEL 9
REMARK VINA RESULT:    -5.161      1.151      4.381
REMARK INTER + INTRA:          -5.311
REMARK INTER:                  -5.311
REMARK INTRA:                   0.000
REMARK UNBOUND:                 0.000
REMARK SMILES O=c1ccc2cc(O)ccc2o1
REMARK SMILES IDX 9 1 10 2 11 3 5 4 4 5 3 6 2 7 1 8 12 9 6 10 7 11 8 12
REMARK H PARENT 8 13
REMARK Flexibility Score: inf
ROOT
ATOM      1  C   UNL     1      -7.749 -20.375  -6.284  1.00  0.00     0.050 A 
ATOM      2  C   UNL     1      -9.020 -20.729  -5.818  1.00  0.00     0.052 A 
ATOM      3  C   UNL     1     -10.138 -19.976  -6.193  1.00  0.00     0.138 A 
ATOM      4  C   UNL     1      -9.978 -18.859  -7.042  1.00  0.00     0.021 A 
ATOM      5  C   UNL     1     -11.114 -18.125  -7.399  1.00  0.00     0.019 A 
ATOM      6  C   UNL     1     -12.361 -18.514  -6.911  1.00  0.00     0.094 A 
ATOM      7  C   UNL     1     -12.443 -19.632  -6.075  1.00  0.00     0.336 A 
ATOM      8  O   UNL     1     -13.559 -20.000  -5.625  1.00  0.00    -0.246 OA
ATOM      9  O   UNL     1     -11.346 -20.314  -5.750  1.00  0.00    -0.423 OA
ATOM     10  C   UNL     1      -8.701 -18.508  -7.505  1.00  0.00     0.058 A 
ATOM     11  C   UNL     1      -7.586 -19.269  -7.125  1.00  0.00     0.116 A 
ENDROOT
BRANCH  11  12
ATOM     12  O   UNL     1      -6.312 -18.933  -7.577  1.00  0.00    -0.508 OA
ATOM     13  H   UNL     1      -5.622 -18.519  -6.959  1.00  0.00     0.293 HD
ENDBRANCH  11  12
TORSDOF 1
ENDMDL
