MODEL 1
REMARK VINA RESULT:    -2.367      0.000      0.000
REMARK INTER + INTRA:          -5.623
REMARK INTER:                  -4.581
REMARK INTRA:                  -1.042
REMARK UNBOUND:                -1.042
REMARK SMILES CCCCCCCCCCCCCCCCCC(=O)[O-]
REMARK SMILES IDX 10 1 11 2 12 3 13 4 14 5 15 6 16 7 17 8 18 9 19 10 20 11
REMARK SMILES IDX 9 12 8 13 7 14 6 15 5 16 4 17 3 18 2 19 1 20
REMARK H PARENT
REMARK Flexibility Score: inf
ROOT
ATOM      1  C   UNL     1      41.268  14.084 -35.997  1.00  0.00     0.000 C 
ENDROOT
BRANCH   1   2
ATOM      2  C   UNL     1      39.759  14.196 -35.737  1.00  0.00     0.000 C 
BRANCH   2   3
ATOM      3  C   UNL     1      38.956  13.585 -36.896  1.00  0.00     0.000 C 
BRANCH   3   4
ATOM      4  C   UNL     1      37.741  12.777 -36.414  1.00  0.00     0.000 C 
BRANCH   4   5
ATOM      5  C   UNL     1      36.954  13.494 -35.306  1.00  0.00     0.000 C 
BRANCH   5   6
ATOM      6  C   UNL     1      36.875  12.628 -34.043  1.00  0.00     0.000 C 
BRANCH   6   7
ATOM      7  C   UNL     1      37.494  13.347 -32.839  1.00  0.00     0.006 C 
BRANCH   7   8
ATOM      8  C   UNL     1      36.969  12.763 -31.523  1.00  0.00     0.053 C 
BRANCH   8   9
ATOM      9  C   UNL     1      36.997  13.794 -30.439  1.00  0.00     0.041 C 
ATOM     10  O   UNL     1      36.925  13.447 -29.232  1.00  0.00    -0.550 OA
ATOM     11  O   UNL     1      37.060  15.143 -30.765  1.00  0.00    -0.550 OA
ENDBRANCH   8   9
ENDBRANCH   7   8
ENDBRANCH   6   7
ENDBRANCH   5   6
ENDBRANCH   4   5
ENDBRANCH   3   4
ENDBRANCH   2   3
ENDBRANCH   1   2
BRANCH   1  12
ATOM     12  C   UNL     1      41.777  12.634 -35.934  1.00  0.00     0.000 C 
BRANCH  12  13
ATOM     13  C   UNL     1      43.257  12.506 -36.330  1.00  0.00    -0.000 C 
BRANCH  13  14
ATOM     14  C   UNL     1      44.077  11.714 -35.287  1.00  0.00    -0.000 C 
BRANCH  14  15
ATOM     15  C   UNL     1      43.676  12.009 -33.830  1.00  0.00    -0.000 C 
BRANCH  15  16
ATOM     16  C   UNL     1      44.622  12.961 -33.075  1.00  0.00    -0.000 C 
BRANCH  16  17
ATOM     17  C   UNL     1      46.071  12.460 -32.932  1.00  0.00    -0.000 C 
BRANCH  17  18
ATOM     18  C   UNL     1      46.269  11.539 -31.720  1.00  0.00    -0.000 C 
BRANCH  18  19
ATOM     19  C   UNL     1      45.864  12.246 -30.421  1.00  0.00    -0.003 C 
ATOM     20  C   UNL     1      46.275  11.430 -29.198  1.00  0.00     0.004 C 
ENDBRANCH  18  19
ENDBRANCH  17  18
ENDBRANCH  16  17
ENDBRANCH  15  16
ENDBRANCH  14  15
ENDBRANCH  13  14
ENDBRANCH  12  13
ENDBRANCH   1  12
TORSDOF 16
ENDMDL
MODEL 2
REMARK VINA RESULT:    -1.711      0.954      1.382
REMARK INTER + INTRA:          -4.353
REMARK INTER:                  -3.681
REMARK INTRA:                  -0.672
REMARK UNBOUND:                -1.042
REMARK SMILES CCCCCCCCCCCCCCCCCC(=O)[O-]
REMARK SMILES IDX 10 1 11 2 12 3 13 4 14 5 15 6 16 7 17 8 18 9 19 10 20 11
REMARK SMILES IDX 9 12 8 13 7 14 6 15 5 16 4 17 3 18 2 19 1 20
REMARK H PARENT
REMARK Flexibility Score: inf
ROOT
ATOM      1  C   UNL     1      42.050  12.602 -36.482  1.00  0.00     0.000 C 
ENDROOT
BRANCH   1   2
ATOM      2  C   UNL     1      40.996  13.597 -35.971  1.00  0.00     0.000 C 
BRANCH   2   3
ATOM      3  C   UNL     1      39.607  12.943 -35.916  1.00  0.00     0.000 C 
BRANCH   3   4
ATOM      4  C   UNL     1      38.466  13.969 -36.009  1.00  0.00     0.000 C 
BRANCH   4   5
ATOM      5  C   UNL     1      37.077  13.313 -35.992  1.00  0.00     0.000 C 
BRANCH   5   6
ATOM      6  C   UNL     1      36.897  12.445 -34.741  1.00  0.00     0.000 C 
BRANCH   6   7
ATOM      7  C   UNL     1      37.154  13.253 -33.464  1.00  0.00     0.006 C 
BRANCH   7   8
ATOM      8  C   UNL     1      36.877  12.409 -32.216  1.00  0.00     0.053 C 
BRANCH   8   9
ATOM      9  C   UNL     1      37.275  13.148 -30.979  1.00  0.00     0.041 C 
ATOM     10  O   UNL     1      37.270  12.566 -29.863  1.00  0.00    -0.550 OA
ATOM     11  O   UNL     1      37.613  14.494 -31.051  1.00  0.00    -0.550 OA
ENDBRANCH   8   9
ENDBRANCH   7   8
ENDBRANCH   6   7
ENDBRANCH   5   6
ENDBRANCH   4   5
ENDBRANCH   3   4
ENDBRANCH   2   3
ENDBRANCH   1   2
BRANCH   1  12
ATOM     12  C   UNL     1      42.533  11.634 -35.389  1.00  0.00     0.000 C 
BRANCH  12  13
ATOM     13  C   UNL     1      44.065  11.589 -35.270  1.00  0.00    -0.000 C 
BRANCH  13  14
ATOM     14  C   UNL     1      44.615  12.706 -34.357  1.00  0.00    -0.000 C 
BRANCH  14  15
ATOM     15  C   UNL     1      45.104  12.201 -32.986  1.00  0.00    -0.000 C 
BRANCH  15  16
ATOM     16  C   UNL     1      45.297  13.296 -31.920  1.00  0.00    -0.000 C 
BRANCH  16  17
ATOM     17  C   UNL     1      45.950  12.820 -30.609  1.00  0.00    -0.000 C 
BRANCH  17  18
ATOM     18  C   UNL     1      46.092  11.293 -30.531  1.00  0.00    -0.000 C 
BRANCH  18  19
ATOM     19  C   UNL     1      46.817  10.875 -29.247  1.00  0.00    -0.003 C 
ATOM     20  C   UNL     1      45.889  10.961 -28.037  1.00  0.00     0.004 C 
ENDBRANCH  18  19
ENDBRANCH  17  18
ENDBRANCH  16  17
ENDBRANCH  15  16
ENDBRANCH  14  15
ENDBRANCH  13  14
ENDBRANCH  12  13
ENDBRANCH   1  12
TORSDOF 16
ENDMDL
MODEL 3
REMARK VINA RESULT:    -1.493      3.131      7.573
REMARK INTER + INTRA:          -3.931
REMARK INTER:                  -3.401
REMARK INTRA:                  -0.530
REMARK UNBOUND:                -1.042
REMARK SMILES CCCCCCCCCCCCCCCCCC(=O)[O-]
REMARK SMILES IDX 10 1 11 2 12 3 13 4 14 5 15 6 16 7 17 8 18 9 19 10 20 11
REMARK SMILES IDX 9 12 8 13 7 14 6 15 5 16 4 17 3 18 2 19 1 20
REMARK H PARENT
REMARK Flexibility Score: inf
ROOT
ATOM      1  C   UNL     1      40.182  13.486 -35.753  1.00  0.00     0.000 C 
ENDROOT
BRANCH   1   2
ATOM      2  C   UNL     1      41.699  13.349 -35.953  1.00  0.00     0.000 C 
BRANCH   2   3
ATOM      3  C   UNL     1      42.204  12.006 -35.403  1.00  0.00     0.000 C 
BRANCH   3   4
ATOM      4  C   UNL     1      43.647  11.695 -35.833  1.00  0.00     0.000 C 
BRANCH   4   5
ATOM      5  C   UNL     1      44.690  12.463 -35.007  1.00  0.00     0.000 C 
BRANCH   5   6
ATOM      6  C   UNL     1      44.763  11.920 -33.576  1.00  0.00     0.000 C 
BRANCH   6   7
ATOM      7  C   UNL     1      45.538  12.874 -32.660  1.00  0.00     0.006 C 
BRANCH   7   8
ATOM      8  C   UNL     1      46.642  12.130 -31.901  1.00  0.00     0.053 C 
BRANCH   8   9
ATOM      9  C   UNL     1      46.339  12.084 -30.438  1.00  0.00     0.041 C 
ATOM     10  O   UNL     1      46.795  11.153 -29.725  1.00  0.00    -0.550 OA
ATOM     11  O   UNL     1      45.518  13.049 -29.867  1.00  0.00    -0.550 OA
ENDBRANCH   8   9
ENDBRANCH   7   8
ENDBRANCH   6   7
ENDBRANCH   5   6
ENDBRANCH   4   5
ENDBRANCH   3   4
ENDBRANCH   2   3
ENDBRANCH   1   2
BRANCH   1  12
ATOM     12  C   UNL     1      39.414  13.583 -37.082  1.00  0.00     0.000 C 
BRANCH  12  13
ATOM     13  C   UNL     1      37.960  14.047 -36.895  1.00  0.00    -0.000 C 
BRANCH  13  14
ATOM     14  C   UNL     1      37.319  13.467 -35.616  1.00  0.00    -0.000 C 
BRANCH  14  15
ATOM     15  C   UNL     1      37.407  14.406 -34.398  1.00  0.00    -0.000 C 
BRANCH  15  16
ATOM     16  C   UNL     1      36.890  13.808 -33.077  1.00  0.00    -0.000 C 
BRANCH  16  17
ATOM     17  C   UNL     1      36.875  14.782 -31.883  1.00  0.00    -0.000 C 
BRANCH  17  18
ATOM     18  C   UNL     1      36.932  14.067 -30.526  1.00  0.00    -0.000 C 
BRANCH  18  19
ATOM     19  C   UNL     1      37.621  12.704 -30.653  1.00  0.00    -0.003 C 
ATOM     20  C   UNL     1      36.876  11.632 -29.861  1.00  0.00     0.004 C 
ENDBRANCH  18  19
ENDBRANCH  17  18
ENDBRANCH  16  17
ENDBRANCH  15  16
ENDBRANCH  14  15
ENDBRANCH  13  14
ENDBRANCH  12  13
ENDBRANCH   1  12
TORSDOF 16
ENDMDL
MODEL 4
REMARK VINA RESULT:    -1.103     20.091     22.697
REMARK INTER + INTRA:          -3.176
REMARK INTER:                  -2.893
REMARK INTRA:                  -0.284
REMARK UNBOUND:                -1.042
REMARK SMILES CCCCCCCCCCCCCCCCCC(=O)[O-]
REMARK SMILES IDX 10 1 11 2 12 3 13 4 14 5 15 6 16 7 17 8 18 9 19 10 20 11
REMARK SMILES IDX 9 12 8 13 7 14 6 15 5 16 4 17 3 18 2 19 1 20
REMARK H PARENT
REMARK Flexibility Score: inf
ROOT
ATOM      1  C   UNL     1      56.481  27.969 -33.571  1.00  0.00     0.000 C 
ENDROOT
BRANCH   1   2
ATOM      2  C   UNL     1      57.088  29.076 -34.446  1.00  0.00     0.000 C 
BRANCH   2   3
ATOM      3  C   UNL     1      56.045  30.158 -34.762  1.00  0.00     0.000 C 
BRANCH   3   4
ATOM      4  C   UNL     1      55.770  31.083 -33.566  1.00  0.00     0.000 C 
BRANCH   4   5
ATOM      5  C   UNL     1      56.892  31.043 -32.516  1.00  0.00     0.000 C 
BRANCH   5   6
ATOM      6  C   UNL     1      56.382  30.464 -31.192  1.00  0.00     0.000 C 
BRANCH   6   7
ATOM      7  C   UNL     1      57.124  31.074 -29.998  1.00  0.00     0.006 C 
BRANCH   7   8
ATOM      8  C   UNL     1      56.807  30.311 -28.707  1.00  0.00     0.053 C 
BRANCH   8   9
ATOM      9  C   UNL     1      56.340  28.924 -29.014  1.00  0.00     0.041 C 
ATOM     10  O   UNL     1      55.257  28.499 -28.532  1.00  0.00    -0.550 OA
ATOM     11  O   UNL     1      57.120  28.085 -29.799  1.00  0.00    -0.550 OA
ENDBRANCH   8   9
ENDBRANCH   7   8
ENDBRANCH   6   7
ENDBRANCH   5   6
ENDBRANCH   4   5
ENDBRANCH   3   4
ENDBRANCH   2   3
ENDBRANCH   1   2
BRANCH   1  12
ATOM     12  C   UNL     1      56.572  26.579 -34.222  1.00  0.00     0.000 C 
BRANCH  12  13
ATOM     13  C   UNL     1      55.265  26.158 -34.913  1.00  0.00    -0.000 C 
BRANCH  13  14
ATOM     14  C   UNL     1      54.974  26.997 -36.177  1.00  0.00    -0.000 C 
BRANCH  14  15
ATOM     15  C   UNL     1      55.299  26.267 -37.493  1.00  0.00    -0.000 C 
BRANCH  15  16
ATOM     16  C   UNL     1      54.397  26.642 -38.684  1.00  0.00    -0.000 C 
BRANCH  16  17
ATOM     17  C   UNL     1      54.077  28.143 -38.811  1.00  0.00    -0.000 C 
BRANCH  17  18
ATOM     18  C   UNL     1      55.309  29.037 -38.613  1.00  0.00    -0.000 C 
BRANCH  18  19
ATOM     19  C   UNL     1      54.920  30.519 -38.628  1.00  0.00    -0.003 C 
ATOM     20  C   UNL     1      53.607  30.753 -37.883  1.00  0.00     0.004 C 
ENDBRANCH  18  19
ENDBRANCH  17  18
ENDBRANCH  16  17
ENDBRANCH  15  16
ENDBRANCH  14  15
ENDBRANCH  13  14
ENDBRANCH  12  13
ENDBRANCH   1  12
TORSDOF 16
ENDMDL
MODEL 5
REMARK VINA RESULT:    -1.041      3.717      7.494
REMARK INTER + INTRA:          -3.057
REMARK INTER:                  -2.346
REMARK INTRA:                  -0.712
REMARK UNBOUND:                -1.042
REMARK SMILES CCCCCCCCCCCCCCCCCC(=O)[O-]
REMARK SMILES IDX 10 1 11 2 12 3 13 4 14 5 15 6 16 7 17 8 18 9 19 10 20 11
REMARK SMILES IDX 9 12 8 13 7 14 6 15 5 16 4 17 3 18 2 19 1 20
REMARK H PARENT
REMARK Flexibility Score: inf
ROOT
ATOM      1  C   UNL     1      45.831  12.573 -30.388  1.00  0.00     0.000 C 
ENDROOT
BRANCH   1   2
ATOM      2  C   UNL     1      45.103  12.720 -31.732  1.00  0.00     0.000 C 
BRANCH   2   3
ATOM      3  C   UNL     1      46.105  12.787 -32.894  1.00  0.00     0.000 C 
BRANCH   3   4
ATOM      4  C   UNL     1      45.498  12.325 -34.228  1.00  0.00     0.000 C 
BRANCH   4   5
ATOM      5  C   UNL     1      43.971  12.165 -34.160  1.00  0.00     0.000 C 
BRANCH   5   6
ATOM      6  C   UNL     1      43.404  11.737 -35.518  1.00  0.00     0.000 C 
BRANCH   6   7
ATOM      7  C   UNL     1      41.909  12.058 -35.621  1.00  0.00     0.006 C 
BRANCH   7   8
ATOM      8  C   UNL     1      41.671  13.284 -36.509  1.00  0.00     0.053 C 
BRANCH   8   9
ATOM      9  C   UNL     1      40.834  14.298 -35.796  1.00  0.00     0.041 C 
ATOM     10  O   UNL     1      41.365  15.332 -35.313  1.00  0.00    -0.550 OA
ATOM     11  O   UNL     1      39.472  14.081 -35.628  1.00  0.00    -0.550 OA
ENDBRANCH   8   9
ENDBRANCH   7   8
ENDBRANCH   6   7
ENDBRANCH   5   6
ENDBRANCH   4   5
ENDBRANCH   3   4
ENDBRANCH   2   3
ENDBRANCH   1   2
BRANCH   1  12
ATOM     12  C   UNL     1      46.089  11.105 -30.009  1.00  0.00     0.000 C 
BRANCH  12  13
ATOM     13  C   UNL     1      46.286  10.908 -28.497  1.00  0.00    -0.000 C 
BRANCH  13  14
ATOM     14  C   UNL     1      45.174  11.585 -27.667  1.00  0.00    -0.000 C 
BRANCH  14  15
ATOM     15  C   UNL     1      45.105  11.097 -26.208  1.00  0.00    -0.000 C 
BRANCH  15  16
ATOM     16  C   UNL     1      44.277  11.987 -25.262  1.00  0.00    -0.000 C 
BRANCH  16  17
ATOM     17  C   UNL     1      45.101  12.788 -24.236  1.00  0.00    -0.000 C 
BRANCH  17  18
ATOM     18  C   UNL     1      45.440  11.976 -22.977  1.00  0.00    -0.000 C 
BRANCH  18  19
ATOM     19  C   UNL     1      46.905  11.526 -22.994  1.00  0.00    -0.003 C 
ATOM     20  C   UNL     1      47.301  10.886 -21.666  1.00  0.00     0.004 C 
ENDBRANCH  18  19
ENDBRANCH  17  18
ENDBRANCH  16  17
ENDBRANCH  15  16
ENDBRANCH  14  15
ENDBRANCH  13  14
ENDBRANCH  12  13
ENDBRANCH   1  12
TORSDOF 16
ENDMDL
MODEL 6
REMARK VINA RESULT:    -0.886      2.856      5.990
REMARK INTER + INTRA:          -2.757
REMARK INTER:                  -2.169
REMARK INTRA:                  -0.589
REMARK UNBOUND:                -1.042
REMARK SMILES CCCCCCCCCCCCCCCCCC(=O)[O-]
REMARK SMILES IDX 10 1 11 2 12 3 13 4 14 5 15 6 16 7 17 8 18 9 19 10 20 11
REMARK SMILES IDX 9 12 8 13 7 14 6 15 5 16 4 17 3 18 2 19 1 20
REMARK H PARENT
REMARK Flexibility Score: inf
ROOT
ATOM      1  C   UNL     1      45.367  12.697 -32.131  1.00  0.00     0.000 C 
ENDROOT
BRANCH   1   2
ATOM      2  C   UNL     1      45.146  12.495 -33.637  1.00  0.00     0.000 C 
BRANCH   2   3
ATOM      3  C   UNL     1      43.649  12.353 -33.956  1.00  0.00     0.000 C 
BRANCH   3   4
ATOM      4  C   UNL     1      43.393  11.890 -35.399  1.00  0.00     0.000 C 
BRANCH   4   5
ATOM      5  C   UNL     1      41.909  11.962 -35.790  1.00  0.00     0.000 C 
BRANCH   5   6
ATOM      6  C   UNL     1      41.550  13.354 -36.321  1.00  0.00     0.000 C 
BRANCH   6   7
ATOM      7  C   UNL     1      40.035  13.504 -36.502  1.00  0.00     0.006 C 
BRANCH   7   8
ATOM      8  C   UNL     1      39.421  14.302 -35.346  1.00  0.00     0.053 C 
BRANCH   8   9
ATOM      9  C   UNL     1      37.942  14.088 -35.284  1.00  0.00     0.041 C 
ATOM     10  O   UNL     1      37.315  13.698 -36.303  1.00  0.00    -0.550 OA
ATOM     11  O   UNL     1      37.249  14.359 -34.111  1.00  0.00    -0.550 OA
ENDBRANCH   8   9
ENDBRANCH   7   8
ENDBRANCH   6   7
ENDBRANCH   5   6
ENDBRANCH   4   5
ENDBRANCH   3   4
ENDBRANCH   2   3
ENDBRANCH   1   2
BRANCH   1  12
ATOM     12  C   UNL     1      46.429  11.747 -31.553  1.00  0.00     0.000 C 
BRANCH  12  13
ATOM     13  C   UNL     1      45.987  11.093 -30.234  1.00  0.00    -0.000 C 
BRANCH  13  14
ATOM     14  C   UNL     1      47.008  11.315 -29.097  1.00  0.00    -0.000 C 
BRANCH  14  15
ATOM     15  C   UNL     1      46.499  10.878 -27.711  1.00  0.00    -0.000 C 
BRANCH  15  16
ATOM     16  C   UNL     1      45.147  11.484 -27.294  1.00  0.00    -0.000 C 
BRANCH  16  17
ATOM     17  C   UNL     1      44.775  11.287 -25.812  1.00  0.00    -0.000 C 
BRANCH  17  18
ATOM     18  C   UNL     1      43.901  12.421 -25.258  1.00  0.00    -0.000 C 
BRANCH  18  19
ATOM     19  C   UNL     1      44.466  12.953 -23.936  1.00  0.00    -0.003 C 
ATOM     20  C   UNL     1      45.695  12.158 -23.502  1.00  0.00     0.004 C 
ENDBRANCH  18  19
ENDBRANCH  17  18
ENDBRANCH  16  17
ENDBRANCH  15  16
ENDBRANCH  14  15
ENDBRANCH  13  14
ENDBRANCH  12  13
ENDBRANCH   1  12
TORSDOF 16
ENDMDL
MODEL 7
REMARK VINA RESULT:    -0.492     19.937     22.763
REMARK INTER + INTRA:          -1.993
REMARK INTER:                  -3.019
REMARK INTRA:                   1.025
REMARK UNBOUND:                -1.042
REMARK SMILES CCCCCCCCCCCCCCCCCC(=O)[O-]
REMARK SMILES IDX 10 1 11 2 12 3 13 4 14 5 15 6 16 7 17 8 18 9 19 10 20 11
REMARK SMILES IDX 9 12 8 13 7 14 6 15 5 16 4 17 3 18 2 19 1 20
REMARK H PARENT
REMARK Flexibility Score: inf
ROOT
ATOM      1  C   UNL     1      55.977  30.851 -31.961  1.00  0.00     0.000 C 
ENDROOT
BRANCH   1   2
ATOM      2  C   UNL     1      56.525  30.518 -30.565  1.00  0.00     0.000 C 
BRANCH   2   3
ATOM      3  C   UNL     1      55.565  29.586 -29.809  1.00  0.00     0.000 C 
BRANCH   3   4
ATOM      4  C   UNL     1      55.951  28.104 -29.942  1.00  0.00     0.000 C 
BRANCH   4   5
ATOM      5  C   UNL     1      57.075  27.874 -30.964  1.00  0.00     0.000 C 
BRANCH   5   6
ATOM      6  C   UNL     1      56.567  28.092 -32.394  1.00  0.00     0.000 C 
BRANCH   6   7
ATOM      7  C   UNL     1      56.286  26.757 -33.091  1.00  0.00     0.006 C 
BRANCH   7   8
ATOM      8  C   UNL     1      55.550  26.975 -34.417  1.00  0.00     0.053 C 
BRANCH   8   9
ATOM      9  C   UNL     1      55.508  25.709 -35.213  1.00  0.00     0.041 C 
ATOM     10  O   UNL     1      55.907  24.628 -34.706  1.00  0.00    -0.550 OA
ATOM     11  O   UNL     1      55.065  25.729 -36.530  1.00  0.00    -0.550 OA
ENDBRANCH   8   9
ENDBRANCH   7   8
ENDBRANCH   6   7
ENDBRANCH   5   6
ENDBRANCH   4   5
ENDBRANCH   3   4
ENDBRANCH   2   3
ENDBRANCH   1   2
BRANCH   1  12
ATOM     12  C   UNL     1      57.089  31.039 -33.007  1.00  0.00     0.000 C 
BRANCH  12  13
ATOM     13  C   UNL     1      56.547  31.125 -34.443  1.00  0.00    -0.000 C 
BRANCH  13  14
ATOM     14  C   UNL     1      57.053  29.968 -35.331  1.00  0.00    -0.000 C 
BRANCH  14  15
ATOM     15  C   UNL     1      56.340  29.873 -36.692  1.00  0.00    -0.000 C 
BRANCH  15  16
ATOM     16  C   UNL     1      55.150  30.833 -36.872  1.00  0.00    -0.000 C 
BRANCH  16  17
ATOM     17  C   UNL     1      54.603  30.930 -38.309  1.00  0.00    -0.000 C 
BRANCH  17  18
ATOM     18  C   UNL     1      54.821  29.645 -39.120  1.00  0.00    -0.000 C 
BRANCH  18  19
ATOM     19  C   UNL     1      53.795  28.573 -38.736  1.00  0.00    -0.003 C 
ATOM     20  C   UNL     1      54.457  27.206 -38.580  1.00  0.00     0.004 C 
ENDBRANCH  18  19
ENDBRANCH  17  18
ENDBRANCH  16  17
ENDBRANCH  15  16
ENDBRANCH  14  15
ENDBRANCH  13  14
ENDBRANCH  12  13
ENDBRANCH   1  12
TORSDOF 16
ENDMDL
MODEL 8
REMARK VINA RESULT:    -0.385      3.389      8.449
REMARK INTER + INTRA:          -1.786
REMARK INTER:                  -1.158
REMARK INTRA:                  -0.628
REMARK UNBOUND:                -1.042
REMARK SMILES CCCCCCCCCCCCCCCCCC(=O)[O-]
REMARK SMILES IDX 10 1 11 2 12 3 13 4 14 5 15 6 16 7 17 8 18 9 19 10 20 11
REMARK SMILES IDX 9 12 8 13 7 14 6 15 5 16 4 17 3 18 2 19 1 20
REMARK H PARENT
REMARK Flexibility Score: inf
ROOT
ATOM      1  C   UNL     1      45.400  13.092 -32.828  1.00  0.00     0.000 C 
ENDROOT
BRANCH   1   2
ATOM      2  C   UNL     1      45.854  12.737 -31.405  1.00  0.00     0.000 C 
BRANCH   2   3
ATOM      3  C   UNL     1      46.179  11.239 -31.291  1.00  0.00     0.000 C 
BRANCH   3   4
ATOM      4  C   UNL     1      46.830  10.875 -29.946  1.00  0.00     0.000 C 
BRANCH   4   5
ATOM      5  C   UNL     1      46.332  11.756 -28.790  1.00  0.00     0.000 C 
BRANCH   5   6
ATOM      6  C   UNL     1      45.812  10.897 -27.632  1.00  0.00     0.000 C 
BRANCH   6   7
ATOM      7  C   UNL     1      44.698  11.617 -26.865  1.00  0.00     0.006 C 
BRANCH   7   8
ATOM      8  C   UNL     1      44.750  11.275 -25.372  1.00  0.00     0.053 C 
BRANCH   8   9
ATOM      9  C   UNL     1      44.509  12.495 -24.541  1.00  0.00     0.041 C 
ATOM     10  O   UNL     1      45.344  12.841 -23.665  1.00  0.00    -0.550 OA
ATOM     11  O   UNL     1      43.341  13.228 -24.706  1.00  0.00    -0.550 OA
ENDBRANCH   8   9
ENDBRANCH   7   8
ENDBRANCH   6   7
ENDBRANCH   5   6
ENDBRANCH   4   5
ENDBRANCH   3   4
ENDBRANCH   2   3
ENDBRANCH   1   2
BRANCH   1  12
ATOM     12  C   UNL     1      44.230  12.220 -33.314  1.00  0.00     0.000 C 
BRANCH  12  13
ATOM     13  C   UNL     1      43.954  12.379 -34.818  1.00  0.00    -0.000 C 
BRANCH  13  14
ATOM     14  C   UNL     1      42.513  11.973 -35.196  1.00  0.00    -0.000 C 
BRANCH  14  15
ATOM     15  C   UNL     1      41.835  12.941 -36.183  1.00  0.00    -0.000 C 
BRANCH  15  16
ATOM     16  C   UNL     1      40.460  13.471 -35.733  1.00  0.00    -0.000 C 
BRANCH  16  17
ATOM     17  C   UNL     1      39.376  13.478 -36.827  1.00  0.00    -0.000 C 
BRANCH  17  18
ATOM     18  C   UNL     1      38.018  13.985 -36.320  1.00  0.00    -0.000 C 
BRANCH  18  19
ATOM     19  C   UNL     1      38.076  14.304 -34.822  1.00  0.00    -0.003 C 
ATOM     20  C   UNL     1      37.283  13.283 -34.009  1.00  0.00     0.004 C 
ENDBRANCH  18  19
ENDBRANCH  17  18
ENDBRANCH  16  17
ENDBRANCH  15  16
ENDBRANCH  14  15
ENDBRANCH  13  14
ENDBRANCH  12  13
ENDBRANCH   1  12
TORSDOF 16
ENDMDL
MODEL 9
REMARK VINA RESULT:    -0.212      1.539      2.816
REMARK INTER + INTRA:          -1.453
REMARK INTER:                  -2.094
REMARK INTRA:                   0.641
REMARK UNBOUND:                -1.042
REMARK SMILES CCCCCCCCCCCCCCCCCC(=O)[O-]
REMARK SMILES IDX 10 1 11 2 12 3 13 4 14 5 15 6 16 7 17 8 18 9 19 10 20 11
REMARK SMILES IDX 9 12 8 13 7 14 6 15 5 16 4 17 3 18 2 19 1 20
REMARK H PARENT
REMARK Flexibility Score: inf
ROOT
ATOM      1  C   UNL     1      43.997  12.518 -36.338  1.00  0.00     0.000 C 
ENDROOT
BRANCH   1   2
ATOM      2  C   UNL     1      42.991  11.778 -35.444  1.00  0.00     0.000 C 
BRANCH   2   3
ATOM      3  C   UNL     1      41.762  12.655 -35.160  1.00  0.00     0.000 C 
BRANCH   3   4
ATOM      4  C   UNL     1      41.068  13.136 -36.444  1.00  0.00     0.000 C 
BRANCH   4   5
ATOM      5  C   UNL     1      39.562  13.376 -36.250  1.00  0.00     0.000 C 
BRANCH   5   6
ATOM      6  C   UNL     1      39.314  14.611 -35.377  1.00  0.00     0.000 C 
BRANCH   6   7
ATOM      7  C   UNL     1      37.831  14.743 -35.013  1.00  0.00     0.006 C 
BRANCH   7   8
ATOM      8  C   UNL     1      37.298  13.442 -34.403  1.00  0.00     0.053 C 
BRANCH   8   9
ATOM      9  C   UNL     1      37.030  13.614 -32.942  1.00  0.00     0.041 C 
ATOM     10  O   UNL     1      36.876  14.766 -32.458  1.00  0.00    -0.550 OA
ATOM     11  O   UNL     1      36.990  12.505 -32.106  1.00  0.00    -0.550 OA
ENDBRANCH   8   9
ENDBRANCH   7   8
ENDBRANCH   6   7
ENDBRANCH   5   6
ENDBRANCH   4   5
ENDBRANCH   3   4
ENDBRANCH   2   3
ENDBRANCH   1   2
BRANCH   1  12
ATOM     12  C   UNL     1      44.991  11.568 -37.027  1.00  0.00     0.000 C 
BRANCH  12  13
ATOM     13  C   UNL     1      46.427  12.117 -37.038  1.00  0.00    -0.000 C 
BRANCH  13  14
ATOM     14  C   UNL     1      46.932  12.470 -35.622  1.00  0.00    -0.000 C 
BRANCH  14  15
ATOM     15  C   UNL     1      45.807  12.608 -34.580  1.00  0.00    -0.000 C 
BRANCH  15  16
ATOM     16  C   UNL     1      46.245  12.402 -33.118  1.00  0.00    -0.000 C 
BRANCH  16  17
ATOM     17  C   UNL     1      45.317  13.037 -32.065  1.00  0.00    -0.000 C 
BRANCH  17  18
ATOM     18  C   UNL     1      45.428  12.368 -30.688  1.00  0.00    -0.000 C 
BRANCH  18  19
ATOM     19  C   UNL     1      46.393  11.178 -30.733  1.00  0.00    -0.003 C 
ATOM     20  C   UNL     1      46.962  10.875 -29.349  1.00  0.00     0.004 C 
ENDBRANCH  18  19
ENDBRANCH  17  18
ENDBRANCH  16  17
ENDBRANCH  15  16
ENDBRANCH  14  15
ENDBRANCH  13  14
ENDBRANCH  12  13
ENDBRANCH   1  12
TORSDOF 16
ENDMDL
