MODEL 1
REMARK VINA RESULT:    -4.656      0.000      0.000
REMARK INTER + INTRA:          -4.792
REMARK INTER:                  -4.792
REMARK INTRA:                   0.000
REMARK UNBOUND:                 0.000
REMARK SMILES Cc1ccccc1O
REMARK SMILES IDX 1 1 2 2 3 3 4 4 5 5 6 6 7 7 8 8
REMARK H PARENT 8 9
REMARK Flexibility Score: inf
ROOT
ATOM      1  C   UNL     1      -7.391 -29.046 -23.168  1.00  0.00     0.048 C 
ATOM      2  C   UNL     1      -5.980 -29.496 -23.425  1.00  0.00    -0.009 A 
ATOM      3  C   UNL     1      -5.677 -30.261 -24.563  1.00  0.00     0.007 A 
ATOM      4  C   UNL     1      -4.365 -30.680 -24.802  1.00  0.00     0.001 A 
ATOM      5  C   UNL     1      -3.347 -30.339 -23.909  1.00  0.00     0.004 A 
ATOM      6  C   UNL     1      -3.638 -29.578 -22.774  1.00  0.00     0.046 A 
ATOM      7  C   UNL     1      -4.951 -29.153 -22.526  1.00  0.00     0.118 A 
ENDROOT
BRANCH   7   8
ATOM      8  O   UNL     1      -5.238 -28.394 -21.392  1.00  0.00    -0.508 OA
ATOM      9  H   UNL     1      -6.033 -28.604 -20.799  1.00  0.00     0.293 HD
ENDBRANCH   7   8
TORSDOF 1
ENDMDL
MODEL 2
REMARK VINA RESULT:    -4.603     13.860     15.035
REMARK INTER + INTRA:          -4.738
REMARK INTER:                  -4.738
REMARK INTRA:                   0.000
REMARK UNBOUND:                 0.000
REMARK SMILES Cc1ccccc1O
REMARK SMILES IDX 1 1 2 2 3 3 4 4 5 5 6 6 7 7 8 8
REMARK H PARENT 8 9
REMARK Flexibility Score: inf
ROOT
ATOM      1  C   UNL     1     -17.273 -26.041 -32.008  1.00  0.00     0.048 C 
ATOM      2  C   UNL     1     -16.199 -26.802 -32.734  1.00  0.00    -0.009 A 
ATOM      3  C   UNL     1     -15.125 -27.364 -32.024  1.00  0.00     0.007 A 
ATOM      4  C   UNL     1     -14.126 -28.072 -32.698  1.00  0.00     0.001 A 
ATOM      5  C   UNL     1     -14.191 -28.225 -34.084  1.00  0.00     0.004 A 
ATOM      6  C   UNL     1     -15.255 -27.671 -34.801  1.00  0.00     0.046 A 
ATOM      7  C   UNL     1     -16.262 -26.959 -34.132  1.00  0.00     0.118 A 
ENDROOT
BRANCH   7   8
ATOM      8  O   UNL     1     -17.323 -26.407 -34.850  1.00  0.00    -0.508 OA
ATOM      9  H   UNL     1     -17.186 -25.995 -35.766  1.00  0.00     0.293 HD
ENDBRANCH   7   8
TORSDOF 1
ENDMDL
MODEL 3
REMARK VINA RESULT:    -4.586     13.671     14.701
REMARK INTER + INTRA:          -4.720
REMARK INTER:                  -4.720
REMARK INTRA:                   0.000
REMARK UNBOUND:                 0.000
REMARK SMILES Cc1ccccc1O
REMARK SMILES IDX 1 1 2 2 3 3 4 4 5 5 6 6 7 7 8 8
REMARK H PARENT 8 9
REMARK Flexibility Score: inf
ROOT
ATOM      1  C   UNL     1     -17.112 -27.091 -35.013  1.00  0.00     0.048 C 
ATOM      2  C   UNL     1     -15.838 -27.538 -34.353  1.00  0.00    -0.009 A 
ATOM      3  C   UNL     1     -14.682 -27.759 -35.120  1.00  0.00     0.007 A 
ATOM      4  C   UNL     1     -13.497 -28.175 -34.507  1.00  0.00     0.001 A 
ATOM      5  C   UNL     1     -13.455 -28.374 -33.125  1.00  0.00     0.004 A 
ATOM      6  C   UNL     1     -14.599 -28.157 -32.353  1.00  0.00     0.046 A 
ATOM      7  C   UNL     1     -15.793 -27.739 -32.960  1.00  0.00     0.118 A 
ENDROOT
BRANCH   7   8
ATOM      8  O   UNL     1     -16.933 -27.524 -32.185  1.00  0.00    -0.508 OA
ATOM      9  H   UNL     1     -17.358 -26.607 -32.110  1.00  0.00     0.293 HD
ENDBRANCH   7   8
TORSDOF 1
ENDMDL
MODEL 4
REMARK VINA RESULT:    -4.468      1.966      2.839
REMARK INTER + INTRA:          -4.599
REMARK INTER:                  -4.599
REMARK INTRA:                   0.000
REMARK UNBOUND:                 0.000
REMARK SMILES Cc1ccccc1O
REMARK SMILES IDX 1 1 2 2 3 3 4 4 5 5 6 6 7 7 8 8
REMARK H PARENT 8 9
REMARK Flexibility Score: inf
ROOT
ATOM      1  C   UNL     1      -4.798 -27.767 -22.021  1.00  0.00     0.048 C 
ATOM      2  C   UNL     1      -5.667 -28.925 -22.425  1.00  0.00    -0.009 A 
ATOM      3  C   UNL     1      -6.919 -28.699 -23.019  1.00  0.00     0.007 A 
ATOM      4  C   UNL     1      -7.727 -29.776 -23.394  1.00  0.00     0.001 A 
ATOM      5  C   UNL     1      -7.293 -31.086 -23.180  1.00  0.00     0.004 A 
ATOM      6  C   UNL     1      -6.048 -31.322 -22.590  1.00  0.00     0.046 A 
ATOM      7  C   UNL     1      -5.231 -30.248 -22.211  1.00  0.00     0.118 A 
ENDROOT
BRANCH   7   8
ATOM      8  O   UNL     1      -3.989 -30.488 -21.622  1.00  0.00    -0.508 OA
ATOM      9  H   UNL     1      -3.394 -29.729 -21.311  1.00  0.00     0.293 HD
ENDBRANCH   7   8
TORSDOF 1
ENDMDL
MODEL 5
REMARK VINA RESULT:    -4.463     14.086     15.157
REMARK INTER + INTRA:          -4.593
REMARK INTER:                  -4.593
REMARK INTRA:                   0.000
REMARK UNBOUND:                 0.000
REMARK SMILES Cc1ccccc1O
REMARK SMILES IDX 1 1 2 2 3 3 4 4 5 5 6 6 7 7 8 8
REMARK H PARENT 8 9
REMARK Flexibility Score: inf
ROOT
ATOM      1  C   UNL     1     -17.012 -26.154 -31.921  1.00  0.00     0.048 C 
ATOM      2  C   UNL     1     -16.354 -26.722 -33.147  1.00  0.00    -0.009 A 
ATOM      3  C   UNL     1     -17.006 -26.671 -34.390  1.00  0.00     0.007 A 
ATOM      4  C   UNL     1     -16.395 -27.200 -35.531  1.00  0.00     0.001 A 
ATOM      5  C   UNL     1     -15.130 -27.783 -35.441  1.00  0.00     0.004 A 
ATOM      6  C   UNL     1     -14.471 -27.839 -34.209  1.00  0.00     0.046 A 
ATOM      7  C   UNL     1     -15.077 -27.311 -33.060  1.00  0.00     0.118 A 
ENDROOT
BRANCH   7   8
ATOM      8  O   UNL     1     -14.417 -27.369 -31.832  1.00  0.00    -0.508 OA
ATOM      9  H   UNL     1     -13.808 -28.142 -31.593  1.00  0.00     0.293 HD
ENDBRANCH   7   8
TORSDOF 1
ENDMDL
MODEL 6
REMARK VINA RESULT:    -4.366      2.271      2.702
REMARK INTER + INTRA:          -4.493
REMARK INTER:                  -4.493
REMARK INTRA:                   0.000
REMARK UNBOUND:                 0.000
REMARK SMILES Cc1ccccc1O
REMARK SMILES IDX 1 1 2 2 3 3 4 4 5 5 6 6 7 7 8 8
REMARK H PARENT 8 9
REMARK Flexibility Score: inf
ROOT
ATOM      1  C   UNL     1      -8.601 -29.371 -23.633  1.00  0.00     0.048 C 
ATOM      2  C   UNL     1      -7.207 -29.623 -23.130  1.00  0.00    -0.009 A 
ATOM      3  C   UNL     1      -6.339 -28.548 -22.879  1.00  0.00     0.007 A 
ATOM      4  C   UNL     1      -5.043 -28.782 -22.411  1.00  0.00     0.001 A 
ATOM      5  C   UNL     1      -4.603 -30.089 -22.191  1.00  0.00     0.004 A 
ATOM      6  C   UNL     1      -5.459 -31.166 -22.437  1.00  0.00     0.046 A 
ATOM      7  C   UNL     1      -6.761 -30.940 -22.906  1.00  0.00     0.118 A 
ENDROOT
BRANCH   7   8
ATOM      8  O   UNL     1      -7.613 -32.017 -23.151  1.00  0.00    -0.508 OA
ATOM      9  H   UNL     1      -8.610 -31.956 -22.979  1.00  0.00     0.293 HD
ENDBRANCH   7   8
TORSDOF 1
ENDMDL
MODEL 7
REMARK VINA RESULT:    -4.362     13.759     14.988
REMARK INTER + INTRA:          -4.490
REMARK INTER:                  -4.490
REMARK INTRA:                   0.000
REMARK UNBOUND:                 0.000
REMARK SMILES Cc1ccccc1O
REMARK SMILES IDX 1 1 2 2 3 3 4 4 5 5 6 6 7 7 8 8
REMARK H PARENT 8 9
REMARK Flexibility Score: inf
ROOT
ATOM      1  C   UNL     1     -12.908 -28.223 -35.705  1.00  0.00     0.048 C 
ATOM      2  C   UNL     1     -13.921 -28.039 -34.610  1.00  0.00    -0.009 A 
ATOM      3  C   UNL     1     -13.583 -28.325 -33.277  1.00  0.00     0.007 A 
ATOM      4  C   UNL     1     -14.525 -28.154 -32.258  1.00  0.00     0.001 A 
ATOM      5  C   UNL     1     -15.809 -27.697 -32.560  1.00  0.00     0.004 A 
ATOM      6  C   UNL     1     -16.155 -27.409 -33.883  1.00  0.00     0.046 A 
ATOM      7  C   UNL     1     -15.217 -27.578 -34.911  1.00  0.00     0.118 A 
ENDROOT
BRANCH   7   8
ATOM      8  O   UNL     1     -15.567 -27.290 -36.231  1.00  0.00    -0.508 OA
ATOM      9  H   UNL     1     -16.527 -27.345 -36.549  1.00  0.00     0.293 HD
ENDBRANCH   7   8
TORSDOF 1
ENDMDL
MODEL 8
REMARK VINA RESULT:    -4.353     13.834     14.891
REMARK INTER + INTRA:          -4.480
REMARK INTER:                  -4.480
REMARK INTRA:                   0.000
REMARK UNBOUND:                 0.000
REMARK SMILES Cc1ccccc1O
REMARK SMILES IDX 1 1 2 2 3 3 4 4 5 5 6 6 7 7 8 8
REMARK H PARENT 8 9
REMARK Flexibility Score: inf
ROOT
ATOM      1  C   UNL     1     -17.028 -27.118 -34.770  1.00  0.00     0.048 C 
ATOM      2  C   UNL     1     -15.710 -27.584 -34.219  1.00  0.00    -0.009 A 
ATOM      3  C   UNL     1     -15.562 -27.828 -32.844  1.00  0.00     0.007 A 
ATOM      4  C   UNL     1     -14.336 -28.262 -32.331  1.00  0.00     0.001 A 
ATOM      5  C   UNL     1     -13.249 -28.455 -33.185  1.00  0.00     0.004 A 
ATOM      6  C   UNL     1     -13.384 -28.215 -34.555  1.00  0.00     0.046 A 
ATOM      7  C   UNL     1     -14.611 -27.780 -35.078  1.00  0.00     0.118 A 
ENDROOT
BRANCH   7   8
ATOM      8  O   UNL     1     -14.742 -27.542 -36.446  1.00  0.00    -0.508 OA
ATOM      9  H   UNL     1     -15.165 -28.224 -37.065  1.00  0.00     0.293 HD
ENDBRANCH   7   8
TORSDOF 1
ENDMDL
MODEL 9
REMARK VINA RESULT:    -4.319      1.527      2.866
REMARK INTER + INTRA:          -4.445
REMARK INTER:                  -4.445
REMARK INTRA:                   0.000
REMARK UNBOUND:                 0.000
REMARK SMILES Cc1ccccc1O
REMARK SMILES IDX 1 1 2 2 3 3 4 4 5 5 6 6 7 7 8 8
REMARK H PARENT 8 9
REMARK Flexibility Score: inf
ROOT
ATOM      1  C   UNL     1      -2.014 -30.022 -23.278  1.00  0.00     0.048 C 
ATOM      2  C   UNL     1      -3.483 -30.198 -23.544  1.00  0.00    -0.009 A 
ATOM      3  C   UNL     1      -4.007 -29.947 -24.822  1.00  0.00     0.007 A 
ATOM      4  C   UNL     1      -5.373 -30.110 -25.069  1.00  0.00     0.001 A 
ATOM      5  C   UNL     1      -6.226 -30.525 -24.045  1.00  0.00     0.004 A 
ATOM      6  C   UNL     1      -5.714 -30.778 -22.769  1.00  0.00     0.046 A 
ATOM      7  C   UNL     1      -4.345 -30.617 -22.512  1.00  0.00     0.118 A 
ENDROOT
BRANCH   7   8
ATOM      8  O   UNL     1      -3.838 -30.871 -21.237  1.00  0.00    -0.508 OA
ATOM      9  H   UNL     1      -3.419 -30.137 -20.677  1.00  0.00     0.293 HD
ENDBRANCH   7   8
TORSDOF 1
ENDMDL
