MODEL 1
REMARK VINA RESULT:    24.865      0.000      0.000
REMARK INTER + INTRA:          28.960
REMARK INTER:                  29.226
REMARK INTRA:                  -0.267
REMARK UNBOUND:                -0.267
REMARK SMILES O=c1cc(-c2ccc(O)c(O)c2)oc2cc(O)cc(O)c12
REMARK SMILES IDX 4 1 3 2 2 3 1 4 21 5 19 6 18 7 16 8 15 9 14 10 13 11 5 12
REMARK SMILES IDX 6 13 7 14 8 15 12 16 10 17 9 18 11 20 20 22 17 24
REMARK H PARENT 9 19 11 21 20 23 17 25
REMARK Flexibility Score: inf
ROOT
ATOM      1  C   UNL     1      -5.624   3.920  14.847  1.00  0.00     0.138 A 
ATOM      2  C   UNL     1      -6.840   3.685  14.190  1.00  0.00     0.100 A 
ATOM      3  C   UNL     1      -7.762   4.723  14.052  1.00  0.00     0.197 A 
ATOM      4  O   UNL     1      -8.870   4.465  13.513  1.00  0.00    -0.289 OA
ATOM      5  C   UNL     1      -7.451   6.011  14.549  1.00  0.00     0.107 A 
ATOM      6  C   UNL     1      -8.298   7.153  14.429  1.00  0.00     0.134 A 
ATOM      7  C   UNL     1      -7.935   8.349  15.061  1.00  0.00     0.093 A 
ATOM      8  C   UNL     1      -6.732   8.461  15.757  1.00  0.00     0.123 A 
ATOM      9  C   UNL     1      -5.872   7.365  15.834  1.00  0.00     0.094 A 
ATOM     10  C   UNL     1      -6.220   6.149  15.244  1.00  0.00     0.146 A 
ATOM     11  O   UNL     1      -5.381   5.124  15.353  1.00  0.00    -0.456 OA
ENDROOT
BRANCH   1  12
ATOM     12  C   UNL     1      -4.607   2.852  15.021  1.00  0.00     0.021 A 
ATOM     13  C   UNL     1      -3.723   2.498  13.984  1.00  0.00     0.016 A 
ATOM     14  C   UNL     1      -2.768   1.497  14.179  1.00  0.00     0.051 A 
ATOM     15  C   UNL     1      -2.675   0.839  15.411  1.00  0.00     0.157 A 
ATOM     16  C   UNL     1      -4.498   2.196  16.261  1.00  0.00     0.062 A 
ATOM     17  C   UNL     1      -3.539   1.190  16.454  1.00  0.00     0.158 A 
BRANCH  15  18
ATOM     18  O   UNL     1      -1.725  -0.162  15.608  1.00  0.00    -0.504 OA
ATOM     19  H   UNL     1      -1.752  -1.029  15.084  1.00  0.00     0.293 HD
ENDBRANCH  15  18
BRANCH  17  20
ATOM     20  O   UNL     1      -3.442   0.536  17.681  1.00  0.00    -0.504 OA
ATOM     21  H   UNL     1      -4.265   0.229  18.185  1.00  0.00     0.293 HD
ENDBRANCH  17  20
ENDBRANCH   1  12
BRANCH   6  22
ATOM     22  O   UNL     1      -9.481   7.175  13.686  1.00  0.00    -0.507 OA
ATOM     23  H   UNL     1      -9.746   7.906  13.043  1.00  0.00     0.293 HD
ENDBRANCH   6  22
BRANCH   8  24
ATOM     24  O   UNL     1      -6.398   9.671  16.362  1.00  0.00    -0.508 OA
ATOM     25  H   UNL     1      -5.436   9.985  16.421  1.00  0.00     0.293 HD
ENDBRANCH   8  24
TORSDOF 5
ENDMDL
MODEL 2
REMARK VINA RESULT:    24.881      1.564      7.168
REMARK INTER + INTRA:          28.978
REMARK INTER:                  29.244
REMARK INTRA:                  -0.267
REMARK UNBOUND:                -0.267
REMARK SMILES O=c1cc(-c2ccc(O)c(O)c2)oc2cc(O)cc(O)c12
REMARK SMILES IDX 4 1 3 2 2 3 1 4 21 5 19 6 18 7 16 8 15 9 14 10 13 11 5 12
REMARK SMILES IDX 6 13 7 14 8 15 12 16 10 17 9 18 11 20 20 22 17 24
REMARK H PARENT 9 19 11 21 20 23 17 25
REMARK Flexibility Score: inf
ROOT
ATOM      1  C   UNL     1      -6.249   5.260  15.454  1.00  0.00     0.138 A 
ATOM      2  C   UNL     1      -6.513   4.561  16.640  1.00  0.00     0.100 A 
ATOM      3  C   UNL     1      -5.874   3.345  16.882  1.00  0.00     0.197 A 
ATOM      4  O   UNL     1      -6.178   2.711  17.926  1.00  0.00    -0.289 OA
ATOM      5  C   UNL     1      -4.942   2.841  15.944  1.00  0.00     0.107 A 
ATOM      6  C   UNL     1      -4.201   1.632  16.104  1.00  0.00     0.134 A 
ATOM      7  C   UNL     1      -3.392   1.175  15.055  1.00  0.00     0.093 A 
ATOM      8  C   UNL     1      -3.252   1.911  13.879  1.00  0.00     0.123 A 
ATOM      9  C   UNL     1      -3.930   3.121  13.735  1.00  0.00     0.094 A 
ATOM     10  C   UNL     1      -4.771   3.588  14.748  1.00  0.00     0.146 A 
ATOM     11  O   UNL     1      -5.411   4.738  14.564  1.00  0.00    -0.456 OA
ENDROOT
BRANCH   1  12
ATOM     12  C   UNL     1      -6.900   6.558  15.147  1.00  0.00     0.021 A 
ATOM     13  C   UNL     1      -6.438   7.767  15.702  1.00  0.00     0.016 A 
ATOM     14  C   UNL     1      -7.063   8.976  15.387  1.00  0.00     0.051 A 
ATOM     15  C   UNL     1      -8.153   9.000  14.509  1.00  0.00     0.157 A 
ATOM     16  C   UNL     1      -7.988   6.593  14.255  1.00  0.00     0.062 A 
ATOM     17  C   UNL     1      -8.615   7.808  13.940  1.00  0.00     0.158 A 
BRANCH  15  18
ATOM     18  O   UNL     1      -8.781  10.204  14.194  1.00  0.00    -0.504 OA
ATOM     19  H   UNL     1      -9.124  10.394  13.260  1.00  0.00     0.293 HD
ENDBRANCH  15  18
BRANCH  17  20
ATOM     20  O   UNL     1      -9.699   7.835  13.064  1.00  0.00    -0.504 OA
ATOM     21  H   UNL     1      -9.581   7.678  12.070  1.00  0.00     0.293 HD
ENDBRANCH  17  20
ENDBRANCH   1  12
BRANCH   6  22
ATOM     22  O   UNL     1      -4.202   0.863  17.271  1.00  0.00    -0.507 OA
ATOM     23  H   UNL     1      -5.029   0.537  17.746  1.00  0.00     0.293 HD
ENDBRANCH   6  22
BRANCH   8  24
ATOM     24  O   UNL     1      -2.428   1.432  12.863  1.00  0.00    -0.508 OA
ATOM     25  H   UNL     1      -2.671   1.545  11.886  1.00  0.00     0.293 HD
ENDBRANCH   8  24
TORSDOF 5
ENDMDL
MODEL 3
REMARK VINA RESULT:    25.215      2.538      4.343
REMARK INTER + INTRA:          29.370
REMARK INTER:                  29.640
REMARK INTRA:                  -0.270
REMARK UNBOUND:                -0.267
REMARK SMILES O=c1cc(-c2ccc(O)c(O)c2)oc2cc(O)cc(O)c12
REMARK SMILES IDX 4 1 3 2 2 3 1 4 21 5 19 6 18 7 16 8 15 9 14 10 13 11 5 12
REMARK SMILES IDX 6 13 7 14 8 15 12 16 10 17 9 18 11 20 20 22 17 24
REMARK H PARENT 9 19 11 21 20 23 17 25
REMARK Flexibility Score: inf
ROOT
ATOM      1  C   UNL     1      -3.807   2.609  13.896  1.00  0.00     0.138 A 
ATOM      2  C   UNL     1      -3.820   2.139  15.216  1.00  0.00     0.100 A 
ATOM      3  C   UNL     1      -4.887   2.462  16.054  1.00  0.00     0.197 A 
ATOM      4  O   UNL     1      -4.841   2.077  17.251  1.00  0.00    -0.289 OA
ATOM      5  C   UNL     1      -5.962   3.237  15.557  1.00  0.00     0.107 A 
ATOM      6  C   UNL     1      -7.121   3.595  16.308  1.00  0.00     0.134 A 
ATOM      7  C   UNL     1      -8.066   4.463  15.747  1.00  0.00     0.093 A 
ATOM      8  C   UNL     1      -7.924   4.939  14.444  1.00  0.00     0.123 A 
ATOM      9  C   UNL     1      -6.821   4.552  13.682  1.00  0.00     0.094 A 
ATOM     10  C   UNL     1      -5.844   3.714  14.224  1.00  0.00     0.146 A 
ATOM     11  O   UNL     1      -4.801   3.382  13.471  1.00  0.00    -0.456 OA
ENDROOT
BRANCH   1  12
ATOM     12  C   UNL     1      -2.697   2.294  12.962  1.00  0.00     0.021 A 
ATOM     13  C   UNL     1      -1.985   3.307  12.290  1.00  0.00     0.016 A 
ATOM     14  C   UNL     1      -0.938   2.982  11.425  1.00  0.00     0.051 A 
ATOM     15  C   UNL     1      -0.578   1.645  11.221  1.00  0.00     0.157 A 
ATOM     16  C   UNL     1      -2.320   0.953  12.761  1.00  0.00     0.062 A 
ATOM     17  C   UNL     1      -1.268   0.629  11.891  1.00  0.00     0.158 A 
BRANCH  15  18
ATOM     18  O   UNL     1       0.465   1.317  10.356  1.00  0.00    -0.504 OA
ATOM     19  H   UNL     1       0.820   1.981   9.678  1.00  0.00     0.293 HD
ENDBRANCH  15  18
BRANCH  17  20
ATOM     20  O   UNL     1      -0.907  -0.702  11.689  1.00  0.00    -0.504 OA
ATOM     21  H   UNL     1      -1.078  -1.411  12.392  1.00  0.00     0.293 HD
ENDBRANCH  17  20
ENDBRANCH   1  12
BRANCH   6  22
ATOM     22  O   UNL     1      -7.404   3.109  17.588  1.00  0.00    -0.507 OA
ATOM     23  H   UNL     1      -7.894   3.621  18.305  1.00  0.00     0.293 HD
ENDBRANCH   6  22
BRANCH   8  24
ATOM     24  O   UNL     1      -8.891   5.789  13.914  1.00  0.00    -0.508 OA
ATOM     25  H   UNL     1      -8.919   6.008  12.924  1.00  0.00     0.293 HD
ENDBRANCH   8  24
TORSDOF 5
ENDMDL
