MODEL 1
REMARK VINA RESULT:    -6.292      0.000      0.000
REMARK INTER + INTRA:          -6.958
REMARK INTER:                  -6.843
REMARK INTRA:                  -0.115
REMARK UNBOUND:                -0.115
REMARK SMILES Cc1ccc(C(C)C)cc1O
REMARK SMILES IDX 1 1 2 2 10 3 9 4 5 5 4 6 3 7 11 8 6 10 7 11 8 12
REMARK H PARENT 11 9
REMARK Flexibility Score: inf
ROOT
ATOM      1  C   UNL     1     -38.529  74.582 -19.734  1.00  0.00     0.048 C 
ATOM      2  C   UNL     1     -37.788  73.324 -19.381  1.00  0.00    -0.009 A 
ATOM      3  C   UNL     1     -38.345  72.067 -19.675  1.00  0.00     0.118 A 
ATOM      4  C   UNL     1     -37.648  70.897 -19.342  1.00  0.00     0.050 A 
ATOM      5  C   UNL     1     -36.391  70.963 -18.716  1.00  0.00    -0.042 A 
ATOM      6  C   UNL     1     -35.842  72.225 -18.425  1.00  0.00     0.004 A 
ATOM      7  C   UNL     1     -36.534  73.392 -18.755  1.00  0.00     0.007 A 
ENDROOT
BRANCH   3   8
ATOM      8  O   UNL     1     -39.591  71.985 -20.297  1.00  0.00    -0.508 OA
ATOM      9  H   UNL     1     -40.119  71.120 -20.317  1.00  0.00     0.293 HD
ENDBRANCH   3   8
BRANCH   5  10
ATOM     10  C   UNL     1     -35.650  69.687 -18.363  1.00  0.00     0.013 C 
ATOM     11  C   UNL     1     -34.338  69.575 -19.148  1.00  0.00     0.012 C 
ATOM     12  C   UNL     1     -36.535  68.454 -18.589  1.00  0.00     0.012 C 
ENDBRANCH   5  10
TORSDOF 2
ENDMDL
MODEL 2
REMARK VINA RESULT:    -5.763      2.279      4.762
REMARK INTER + INTRA:          -6.383
REMARK INTER:                  -6.257
REMARK INTRA:                  -0.126
REMARK UNBOUND:                -0.115
REMARK SMILES Cc1ccc(C(C)C)cc1O
REMARK SMILES IDX 1 1 2 2 10 3 9 4 5 5 4 6 3 7 11 8 6 10 7 11 8 12
REMARK H PARENT 11 9
REMARK Flexibility Score: inf
ROOT
ATOM      1  C   UNL     1     -34.973  67.580 -18.425  1.00  0.00     0.048 C 
ATOM      2  C   UNL     1     -35.497  68.974 -18.623  1.00  0.00    -0.009 A 
ATOM      3  C   UNL     1     -34.608  70.039 -18.855  1.00  0.00     0.118 A 
ATOM      4  C   UNL     1     -35.104  71.337 -19.038  1.00  0.00     0.050 A 
ATOM      5  C   UNL     1     -36.486  71.591 -18.993  1.00  0.00    -0.042 A 
ATOM      6  C   UNL     1     -37.367  70.520 -18.760  1.00  0.00     0.004 A 
ATOM      7  C   UNL     1     -36.876  69.225 -18.577  1.00  0.00     0.007 A 
ENDROOT
BRANCH   3   8
ATOM      8  O   UNL     1     -33.234  69.803 -18.902  1.00  0.00    -0.508 OA
ATOM      9  H   UNL     1     -32.604  70.425 -19.396  1.00  0.00     0.293 HD
ENDBRANCH   3   8
BRANCH   5  10
ATOM     10  C   UNL     1     -37.005  73.002 -19.194  1.00  0.00     0.013 C 
ATOM     11  C   UNL     1     -36.952  73.802 -17.887  1.00  0.00     0.012 C 
ATOM     12  C   UNL     1     -38.424  72.992 -19.777  1.00  0.00     0.012 C 
ENDBRANCH   5  10
TORSDOF 2
ENDMDL
MODEL 3
REMARK VINA RESULT:    -5.651      1.796      4.377
REMARK INTER + INTRA:          -6.261
REMARK INTER:                  -6.136
REMARK INTRA:                  -0.126
REMARK UNBOUND:                -0.115
REMARK SMILES Cc1ccc(C(C)C)cc1O
REMARK SMILES IDX 1 1 2 2 10 3 9 4 5 5 4 6 3 7 11 8 6 10 7 11 8 12
REMARK H PARENT 11 9
REMARK Flexibility Score: inf
ROOT
ATOM      1  C   UNL     1     -33.818  68.551 -19.031  1.00  0.00     0.048 C 
ATOM      2  C   UNL     1     -34.780  69.700 -18.928  1.00  0.00    -0.009 A 
ATOM      3  C   UNL     1     -36.158  69.460 -18.775  1.00  0.00     0.118 A 
ATOM      4  C   UNL     1     -37.050  70.537 -18.680  1.00  0.00     0.050 A 
ATOM      5  C   UNL     1     -36.584  71.862 -18.736  1.00  0.00    -0.042 A 
ATOM      6  C   UNL     1     -35.205  72.093 -18.890  1.00  0.00     0.004 A 
ATOM      7  C   UNL     1     -34.314  71.022 -18.985  1.00  0.00     0.007 A 
ENDROOT
BRANCH   3   8
ATOM      8  O   UNL     1     -36.635  68.150 -18.717  1.00  0.00    -0.508 OA
ATOM      9  H   UNL     1     -37.548  67.934 -18.336  1.00  0.00     0.293 HD
ENDBRANCH   3   8
BRANCH   5  10
ATOM     10  C   UNL     1     -37.564  73.016 -18.631  1.00  0.00     0.013 C 
ATOM     11  C   UNL     1     -38.039  73.466 -20.017  1.00  0.00     0.012 C 
ATOM     12  C   UNL     1     -36.957  74.187 -17.848  1.00  0.00     0.012 C 
ENDBRANCH   5  10
TORSDOF 2
ENDMDL
MODEL 4
REMARK VINA RESULT:    -4.986      8.896      9.368
REMARK INTER + INTRA:          -5.538
REMARK INTER:                  -5.413
REMARK INTRA:                  -0.126
REMARK UNBOUND:                -0.115
REMARK SMILES Cc1ccc(C(C)C)cc1O
REMARK SMILES IDX 1 1 2 2 10 3 9 4 5 5 4 6 3 7 11 8 6 10 7 11 8 12
REMARK H PARENT 11 9
REMARK Flexibility Score: inf
ROOT
ATOM      1  C   UNL     1     -37.894  76.723 -12.313  1.00  0.00     0.048 C 
ATOM      2  C   UNL     1     -38.385  75.483 -11.622  1.00  0.00    -0.009 A 
ATOM      3  C   UNL     1     -37.650  74.924 -10.561  1.00  0.00     0.118 A 
ATOM      4  C   UNL     1     -38.115  73.767  -9.921  1.00  0.00     0.050 A 
ATOM      5  C   UNL     1     -39.313  73.153 -10.327  1.00  0.00    -0.042 A 
ATOM      6  C   UNL     1     -40.040  73.719 -11.389  1.00  0.00     0.004 A 
ATOM      7  C   UNL     1     -39.581  74.872 -12.029  1.00  0.00     0.007 A 
ENDROOT
BRANCH   3   8
ATOM      8  O   UNL     1     -36.460  75.522 -10.146  1.00  0.00    -0.508 OA
ATOM      9  H   UNL     1     -36.304  76.519 -10.243  1.00  0.00     0.293 HD
ENDBRANCH   3   8
BRANCH   5  10
ATOM     10  C   UNL     1     -39.801  71.901  -9.622  1.00  0.00     0.013 C 
ATOM     11  C   UNL     1     -39.127  70.648 -10.192  1.00  0.00     0.012 C 
ATOM     12  C   UNL     1     -41.328  71.787  -9.693  1.00  0.00     0.012 C 
ENDBRANCH   5  10
TORSDOF 2
ENDMDL
MODEL 5
REMARK VINA RESULT:    -4.772      9.100     10.106
REMARK INTER + INTRA:          -5.305
REMARK INTER:                  -5.197
REMARK INTRA:                  -0.108
REMARK UNBOUND:                -0.115
REMARK SMILES Cc1ccc(C(C)C)cc1O
REMARK SMILES IDX 1 1 2 2 10 3 9 4 5 5 4 6 3 7 11 8 6 10 7 11 8 12
REMARK H PARENT 11 9
REMARK Flexibility Score: inf
ROOT
ATOM      1  C   UNL     1     -40.060  70.421 -10.000  1.00  0.00     0.048 C 
ATOM      2  C   UNL     1     -39.521  71.823 -10.003  1.00  0.00    -0.009 A 
ATOM      3  C   UNL     1     -39.701  72.651 -11.125  1.00  0.00     0.118 A 
ATOM      4  C   UNL     1     -39.195  73.958 -11.121  1.00  0.00     0.050 A 
ATOM      5  C   UNL     1     -38.504  74.456 -10.002  1.00  0.00    -0.042 A 
ATOM      6  C   UNL     1     -38.328  73.621  -8.884  1.00  0.00     0.004 A 
ATOM      7  C   UNL     1     -38.831  72.319  -8.886  1.00  0.00     0.007 A 
ENDROOT
BRANCH   3   8
ATOM      8  O   UNL     1     -40.385  72.170 -12.243  1.00  0.00    -0.508 OA
ATOM      9  H   UNL     1     -41.229  71.616 -12.151  1.00  0.00     0.293 HD
ENDBRANCH   3   8
BRANCH   5  10
ATOM     10  C   UNL     1     -37.963  75.874 -10.014  1.00  0.00     0.013 C 
ATOM     11  C   UNL     1     -38.877  76.821  -9.230  1.00  0.00     0.012 C 
ATOM     12  C   UNL     1     -37.752  76.372 -11.449  1.00  0.00     0.012 C 
ENDBRANCH   5  10
TORSDOF 2
ENDMDL
MODEL 6
REMARK VINA RESULT:    -4.640      8.179      8.805
REMARK INTER + INTRA:          -5.161
REMARK INTER:                  -5.035
REMARK INTRA:                  -0.126
REMARK UNBOUND:                -0.115
REMARK SMILES Cc1ccc(C(C)C)cc1O
REMARK SMILES IDX 1 1 2 2 10 3 9 4 5 5 4 6 3 7 11 8 6 10 7 11 8 12
REMARK H PARENT 11 9
REMARK Flexibility Score: inf
ROOT
ATOM      1  C   UNL     1     -39.812  75.832 -25.479  1.00  0.00     0.048 C 
ATOM      2  C   UNL     1     -38.503  75.432 -26.098  1.00  0.00    -0.009 A 
ATOM      3  C   UNL     1     -38.472  74.493 -27.146  1.00  0.00     0.118 A 
ATOM      4  C   UNL     1     -37.247  74.124 -27.719  1.00  0.00     0.050 A 
ATOM      5  C   UNL     1     -36.042  74.682 -27.259  1.00  0.00    -0.042 A 
ATOM      6  C   UNL     1     -36.082  75.619 -26.211  1.00  0.00     0.004 A 
ATOM      7  C   UNL     1     -37.301  75.989 -25.638  1.00  0.00     0.007 A 
ENDROOT
BRANCH   3   8
ATOM      8  O   UNL     1     -39.661  73.931 -27.613  1.00  0.00    -0.508 OA
ATOM      9  H   UNL     1     -39.876  73.891 -28.602  1.00  0.00     0.293 HD
ENDBRANCH   3   8
BRANCH   5  10
ATOM     10  C   UNL     1     -34.725  74.271 -27.891  1.00  0.00     0.013 C 
ATOM     11  C   UNL     1     -33.617  74.158 -26.838  1.00  0.00     0.012 C 
ATOM     12  C   UNL     1     -34.325  75.238 -29.012  1.00  0.00     0.012 C 
ENDBRANCH   5  10
TORSDOF 2
ENDMDL
MODEL 7
REMARK VINA RESULT:    -4.611      1.343      4.614
REMARK INTER + INTRA:          -5.130
REMARK INTER:                  -5.009
REMARK INTRA:                  -0.121
REMARK UNBOUND:                -0.115
REMARK SMILES Cc1ccc(C(C)C)cc1O
REMARK SMILES IDX 1 1 2 2 10 3 9 4 5 5 4 6 3 7 11 8 6 10 7 11 8 12
REMARK H PARENT 11 9
REMARK Flexibility Score: inf
ROOT
ATOM      1  C   UNL     1     -37.123  70.029 -18.725  1.00  0.00     0.048 C 
ATOM      2  C   UNL     1     -37.506  71.449 -19.031  1.00  0.00    -0.009 A 
ATOM      3  C   UNL     1     -38.630  71.724 -19.831  1.00  0.00     0.118 A 
ATOM      4  C   UNL     1     -38.980  73.052 -20.113  1.00  0.00     0.050 A 
ATOM      5  C   UNL     1     -38.220  74.119 -19.605  1.00  0.00    -0.042 A 
ATOM      6  C   UNL     1     -37.098  73.835 -18.806  1.00  0.00     0.004 A 
ATOM      7  C   UNL     1     -36.745  72.513 -18.523  1.00  0.00     0.007 A 
ENDROOT
BRANCH   3   8
ATOM      8  O   UNL     1     -39.394  70.675 -20.343  1.00  0.00    -0.508 OA
ATOM      9  H   UNL     1     -38.972  69.798 -20.625  1.00  0.00     0.293 HD
ENDBRANCH   3   8
BRANCH   5  10
ATOM     10  C   UNL     1     -38.615  75.550 -19.920  1.00  0.00     0.013 C 
ATOM     11  C   UNL     1     -38.706  76.392 -18.642  1.00  0.00     0.012 C 
ATOM     12  C   UNL     1     -39.928  75.599 -20.710  1.00  0.00     0.012 C 
ENDBRANCH   5  10
TORSDOF 2
ENDMDL
MODEL 8
REMARK VINA RESULT:    -4.583      8.502      9.975
REMARK INTER + INTRA:          -5.100
REMARK INTER:                  -5.000
REMARK INTRA:                  -0.100
REMARK UNBOUND:                -0.115
REMARK SMILES Cc1ccc(C(C)C)cc1O
REMARK SMILES IDX 1 1 2 2 10 3 9 4 5 5 4 6 3 7 11 8 6 10 7 11 8 12
REMARK H PARENT 11 9
REMARK Flexibility Score: inf
ROOT
ATOM      1  C   UNL     1     -34.843  73.838 -28.982  1.00  0.00     0.048 C 
ATOM      2  C   UNL     1     -36.172  74.337 -28.493  1.00  0.00    -0.009 A 
ATOM      3  C   UNL     1     -36.803  73.717 -27.399  1.00  0.00     0.118 A 
ATOM      4  C   UNL     1     -38.044  74.188 -26.947  1.00  0.00     0.050 A 
ATOM      5  C   UNL     1     -38.670  75.278 -27.576  1.00  0.00    -0.042 A 
ATOM      6  C   UNL     1     -38.032  75.892 -28.669  1.00  0.00     0.004 A 
ATOM      7  C   UNL     1     -36.796  75.425 -29.121  1.00  0.00     0.007 A 
ENDROOT
BRANCH   3   8
ATOM      8  O   UNL     1     -36.194  72.634 -26.765  1.00  0.00    -0.508 OA
ATOM      9  H   UNL     1     -36.296  72.474 -25.769  1.00  0.00     0.293 HD
ENDBRANCH   3   8
BRANCH   5  10
ATOM     10  C   UNL     1     -40.013  75.775 -27.074  1.00  0.00     0.013 C 
ATOM     11  C   UNL     1     -39.909  76.285 -25.631  1.00  0.00     0.012 C 
ATOM     12  C   UNL     1     -41.087  74.687 -27.198  1.00  0.00     0.012 C 
ENDBRANCH   5  10
TORSDOF 2
ENDMDL
MODEL 9
REMARK VINA RESULT:    -4.398      8.640      8.923
REMARK INTER + INTRA:          -4.899
REMARK INTER:                  -4.774
REMARK INTRA:                  -0.124
REMARK UNBOUND:                -0.115
REMARK SMILES Cc1ccc(C(C)C)cc1O
REMARK SMILES IDX 1 1 2 2 10 3 9 4 5 5 4 6 3 7 11 8 6 10 7 11 8 12
REMARK H PARENT 11 9
REMARK Flexibility Score: inf
ROOT
ATOM      1  C   UNL     1     -43.271  74.649 -13.054  1.00  0.00     0.048 C 
ATOM      2  C   UNL     1     -42.195  74.026 -12.212  1.00  0.00    -0.009 A 
ATOM      3  C   UNL     1     -41.885  72.661 -12.354  1.00  0.00     0.118 A 
ATOM      4  C   UNL     1     -40.879  72.086 -11.564  1.00  0.00     0.050 A 
ATOM      5  C   UNL     1     -40.172  72.859 -10.627  1.00  0.00    -0.042 A 
ATOM      6  C   UNL     1     -40.489  74.222 -10.492  1.00  0.00     0.004 A 
ATOM      7  C   UNL     1     -41.490  74.798 -11.277  1.00  0.00     0.007 A 
ENDROOT
BRANCH   3   8
ATOM      8  O   UNL     1     -42.578  71.881 -13.280  1.00  0.00    -0.508 OA
ATOM      9  H   UNL     1     -42.389  71.943 -14.274  1.00  0.00     0.293 HD
ENDBRANCH   3   8
BRANCH   5  10
ATOM     10  C   UNL     1     -39.086  72.219  -9.782  1.00  0.00     0.013 C 
ATOM     11  C   UNL     1     -37.888  73.162  -9.615  1.00  0.00     0.012 C 
ATOM     12  C   UNL     1     -38.650  70.871 -10.369  1.00  0.00     0.012 C 
ENDBRANCH   5  10
TORSDOF 2
ENDMDL
