MODEL 1
REMARK VINA RESULT:    -4.115      0.000      0.000
REMARK INTER + INTRA:          -4.476
REMARK INTER:                  -4.476
REMARK INTRA:                   0.000
REMARK UNBOUND:                 0.000
REMARK SMILES Cc1cc(O)c2c(c1)C(=O)c1cc(O)cc(O)c1C2=O
REMARK SMILES IDX 1 1 2 2 8 3 7 4 6 5 4 6 3 7 19 8 20 9 18 10 11 11 9 12 10 13
REMARK SMILES IDX 12 14 13 15 15 16 16 17 5 18 17 20 14 22
REMARK H PARENT 5 19 17 21 14 23
REMARK Flexibility Score: inf
ROOT
ATOM      1  C   UNL     1      30.520  30.194  40.810  1.00  0.00     0.044 C 
ATOM      2  C   UNL     1      29.325  30.997  40.390  1.00  0.00    -0.047 A 
ATOM      3  C   UNL     1      29.109  32.272  40.925  1.00  0.00     0.016 A 
ATOM      4  C   UNL     1      28.008  33.043  40.517  1.00  0.00     0.038 A 
ATOM      5  C   UNL     1      27.108  32.530  39.557  1.00  0.00     0.076 A 
ATOM      6  C   UNL     1      27.379  31.274  38.957  1.00  0.00     0.127 A 
ATOM      7  C   UNL     1      28.468  30.515  39.394  1.00  0.00     0.050 A 
ATOM      8  C   UNL     1      25.877  33.309  39.261  1.00  0.00     0.201 C 
ATOM      9  O   UNL     1      24.826  32.711  38.908  1.00  0.00    -0.288 OA
ATOM     10  C   UNL     1      25.835  34.764  39.561  1.00  0.00     0.076 A 
ATOM     11  C   UNL     1      26.739  35.274  40.521  1.00  0.00     0.041 A 
ATOM     12  C   UNL     1      27.792  34.396  41.084  1.00  0.00     0.194 C 
ATOM     13  O   UNL     1      28.519  34.808  42.029  1.00  0.00    -0.289 OA
ATOM     14  C   UNL     1      26.640  36.614  40.932  1.00  0.00     0.059 A 
ATOM     15  C   UNL     1      25.664  37.451  40.391  1.00  0.00     0.120 A 
ATOM     16  C   UNL     1      24.794  36.963  39.413  1.00  0.00     0.093 A 
ATOM     17  C   UNL     1      24.886  35.639  38.971  1.00  0.00     0.131 A 
ENDROOT
BRANCH   6  18
ATOM     18  O   UNL     1      26.617  30.761  37.903  1.00  0.00    -0.507 OA
ATOM     19  H   UNL     1      26.453  29.774  37.761  1.00  0.00     0.293 HD
ENDBRANCH   6  18
BRANCH  17  20
ATOM     20  O   UNL     1      24.045  35.248  37.928  1.00  0.00    -0.507 OA
ATOM     21  H   UNL     1      23.413  35.878  37.453  1.00  0.00     0.293 HD
ENDBRANCH  17  20
BRANCH  15  22
ATOM     22  O   UNL     1      25.577  38.772  40.823  1.00  0.00    -0.508 OA
ATOM     23  H   UNL     1      25.941  39.537  40.268  1.00  0.00     0.293 HD
ENDBRANCH  15  22
TORSDOF 3
ENDMDL
MODEL 2
REMARK VINA RESULT:    -4.114     16.646     17.710
REMARK INTER + INTRA:          -4.475
REMARK INTER:                  -4.475
REMARK INTRA:                   0.000
REMARK UNBOUND:                 0.000
REMARK SMILES Cc1cc(O)c2c(c1)C(=O)c1cc(O)cc(O)c1C2=O
REMARK SMILES IDX 1 1 2 2 8 3 7 4 6 5 4 6 3 7 19 8 20 9 18 10 11 11 9 12 10 13
REMARK SMILES IDX 12 14 13 15 15 16 16 17 5 18 17 20 14 22
REMARK H PARENT 5 19 17 21 14 23
REMARK Flexibility Score: inf
ROOT
ATOM      1  C   UNL     1      14.906  34.026  56.486  1.00  0.00     0.044 C 
ATOM      2  C   UNL     1      15.797  32.914  56.019  1.00  0.00    -0.047 A 
ATOM      3  C   UNL     1      16.784  33.158  55.058  1.00  0.00     0.016 A 
ATOM      4  C   UNL     1      17.642  32.130  54.634  1.00  0.00     0.038 A 
ATOM      5  C   UNL     1      17.512  30.835  55.183  1.00  0.00     0.076 A 
ATOM      6  C   UNL     1      16.567  30.614  56.218  1.00  0.00     0.127 A 
ATOM      7  C   UNL     1      15.710  31.647  56.608  1.00  0.00     0.050 A 
ATOM      8  C   UNL     1      18.335  29.740  54.605  1.00  0.00     0.201 C 
ATOM      9  O   UNL     1      17.900  28.557  54.613  1.00  0.00    -0.288 OA
ATOM     10  C   UNL     1      19.577  30.067  53.857  1.00  0.00     0.076 A 
ATOM     11  C   UNL     1      19.705  31.365  53.311  1.00  0.00     0.041 A 
ATOM     12  C   UNL     1      18.689  32.400  53.619  1.00  0.00     0.194 C 
ATOM     13  O   UNL     1      18.730  33.518  53.037  1.00  0.00    -0.289 OA
ATOM     14  C   UNL     1      20.798  31.670  52.483  1.00  0.00     0.059 A 
ATOM     15  C   UNL     1      21.768  30.707  52.206  1.00  0.00     0.120 A 
ATOM     16  C   UNL     1      21.667  29.435  52.775  1.00  0.00     0.093 A 
ATOM     17  C   UNL     1      20.600  29.113  53.620  1.00  0.00     0.131 A 
ENDROOT
BRANCH   6  18
ATOM     18  O   UNL     1      16.471  29.402  56.907  1.00  0.00    -0.507 OA
ATOM     19  H   UNL     1      16.321  29.336  57.904  1.00  0.00     0.293 HD
ENDBRANCH   6  18
BRANCH  17  20
ATOM     20  O   UNL     1      20.614  27.854  54.224  1.00  0.00    -0.507 OA
ATOM     21  H   UNL     1      21.437  27.271  54.282  1.00  0.00     0.293 HD
ENDBRANCH  17  20
BRANCH  15  22
ATOM     22  O   UNL     1      22.836  31.029  51.372  1.00  0.00    -0.508 OA
ATOM     23  H   UNL     1      23.594  31.624  51.686  1.00  0.00     0.293 HD
ENDBRANCH  15  22
TORSDOF 3
ENDMDL
MODEL 3
REMARK VINA RESULT:    -4.010     17.033     17.552
REMARK INTER + INTRA:          -4.362
REMARK INTER:                  -4.362
REMARK INTRA:                   0.000
REMARK UNBOUND:                 0.000
REMARK SMILES Cc1cc(O)c2c(c1)C(=O)c1cc(O)cc(O)c1C2=O
REMARK SMILES IDX 1 1 2 2 8 3 7 4 6 5 4 6 3 7 19 8 20 9 18 10 11 11 9 12 10 13
REMARK SMILES IDX 12 14 13 15 15 16 16 17 5 18 17 20 14 22
REMARK H PARENT 5 19 17 21 14 23
REMARK Flexibility Score: inf
ROOT
ATOM      1  C   UNL     1      20.813  27.674  53.398  1.00  0.00     0.044 C 
ATOM      2  C   UNL     1      20.119  29.002  53.466  1.00  0.00    -0.047 A 
ATOM      3  C   UNL     1      19.131  29.233  54.429  1.00  0.00     0.016 A 
ATOM      4  C   UNL     1      18.496  30.482  54.519  1.00  0.00     0.038 A 
ATOM      5  C   UNL     1      18.857  31.520  53.631  1.00  0.00     0.076 A 
ATOM      6  C   UNL     1      19.918  31.307  52.714  1.00  0.00     0.127 A 
ATOM      7  C   UNL     1      20.520  30.049  52.628  1.00  0.00     0.050 A 
ATOM      8  C   UNL     1      18.062  32.776  53.658  1.00  0.00     0.201 C 
ATOM      9  O   UNL     1      17.929  33.457  52.606  1.00  0.00    -0.288 OA
ATOM     10  C   UNL     1      17.277  33.127  54.870  1.00  0.00     0.076 A 
ATOM     11  C   UNL     1      16.919  32.086  55.757  1.00  0.00     0.041 A 
ATOM     12  C   UNL     1      17.454  30.719  55.547  1.00  0.00     0.194 C 
ATOM     13  O   UNL     1      17.040  29.763  56.259  1.00  0.00    -0.289 OA
ATOM     14  C   UNL     1      16.063  32.353  56.839  1.00  0.00     0.059 A 
ATOM     15  C   UNL     1      15.573  33.641  57.053  1.00  0.00     0.120 A 
ATOM     16  C   UNL     1      15.955  34.681  56.202  1.00  0.00     0.093 A 
ATOM     17  C   UNL     1      16.823  34.445  55.131  1.00  0.00     0.131 A 
ENDROOT
BRANCH   6  18
ATOM     18  O   UNL     1      20.427  32.323  51.900  1.00  0.00    -0.507 OA
ATOM     19  H   UNL     1      21.412  32.457  51.724  1.00  0.00     0.293 HD
ENDBRANCH   6  18
BRANCH  17  20
ATOM     20  O   UNL     1      17.232  35.548  54.380  1.00  0.00    -0.507 OA
ATOM     21  H   UNL     1      17.714  36.345  54.772  1.00  0.00     0.293 HD
ENDBRANCH  17  20
BRANCH  15  22
ATOM     22  O   UNL     1      14.715  33.879  58.125  1.00  0.00    -0.508 OA
ATOM     23  H   UNL     1      14.000  33.211  58.390  1.00  0.00     0.293 HD
ENDBRANCH  15  22
TORSDOF 3
ENDMDL
MODEL 4
REMARK VINA RESULT:    -3.935      1.561      5.576
REMARK INTER + INTRA:          -4.280
REMARK INTER:                  -4.280
REMARK INTRA:                   0.000
REMARK UNBOUND:                 0.000
REMARK SMILES Cc1cc(O)c2c(c1)C(=O)c1cc(O)cc(O)c1C2=O
REMARK SMILES IDX 1 1 2 2 8 3 7 4 6 5 4 6 3 7 19 8 20 9 18 10 11 11 9 12 10 13
REMARK SMILES IDX 12 14 13 15 15 16 16 17 5 18 17 20 14 22
REMARK H PARENT 5 19 17 21 14 23
REMARK Flexibility Score: inf
ROOT
ATOM      1  C   UNL     1      24.930  37.523  40.414  1.00  0.00     0.044 C 
ATOM      2  C   UNL     1      25.415  36.148  40.061  1.00  0.00    -0.047 A 
ATOM      3  C   UNL     1      26.547  35.617  40.690  1.00  0.00     0.016 A 
ATOM      4  C   UNL     1      26.992  34.320  40.387  1.00  0.00     0.038 A 
ATOM      5  C   UNL     1      26.294  33.540  39.439  1.00  0.00     0.076 A 
ATOM      6  C   UNL     1      25.100  34.051  38.868  1.00  0.00     0.127 A 
ATOM      7  C   UNL     1      24.688  35.353  39.169  1.00  0.00     0.050 A 
ATOM      8  C   UNL     1      26.879  32.235  39.035  1.00  0.00     0.201 C 
ATOM      9  O   UNL     1      26.673  31.787  37.875  1.00  0.00    -0.288 OA
ATOM     10  C   UNL     1      27.851  31.554  39.929  1.00  0.00     0.076 A 
ATOM     11  C   UNL     1      28.547  32.337  40.878  1.00  0.00     0.041 A 
ATOM     12  C   UNL     1      28.189  33.763  41.064  1.00  0.00     0.194 C 
ATOM     13  O   UNL     1      28.887  34.497  41.816  1.00  0.00    -0.289 OA
ATOM     14  C   UNL     1      29.572  31.758  41.646  1.00  0.00     0.059 A 
ATOM     15  C   UNL     1      29.900  30.412  41.490  1.00  0.00     0.120 A 
ATOM     16  C   UNL     1      29.188  29.624  40.582  1.00  0.00     0.093 A 
ATOM     17  C   UNL     1      28.150  30.171  39.821  1.00  0.00     0.131 A 
ENDROOT
BRANCH   6  18
ATOM     18  O   UNL     1      24.279  33.292  38.031  1.00  0.00    -0.507 OA
ATOM     19  H   UNL     1      23.684  32.544  38.359  1.00  0.00     0.293 HD
ENDBRANCH   6  18
BRANCH  17  20
ATOM     20  O   UNL     1      27.425  29.303  39.002  1.00  0.00    -0.507 OA
ATOM     21  H   UNL     1      26.422  29.348  38.888  1.00  0.00     0.293 HD
ENDBRANCH  17  20
BRANCH  15  22
ATOM     22  O   UNL     1      30.928  29.863  42.253  1.00  0.00    -0.508 OA
ATOM     23  H   UNL     1      30.873  29.822  43.264  1.00  0.00     0.293 HD
ENDBRANCH  15  22
TORSDOF 3
ENDMDL
MODEL 5
REMARK VINA RESULT:    -3.922      3.021      6.275
REMARK INTER + INTRA:          -4.266
REMARK INTER:                  -4.266
REMARK INTRA:                   0.000
REMARK UNBOUND:                 0.000
REMARK SMILES Cc1cc(O)c2c(c1)C(=O)c1cc(O)cc(O)c1C2=O
REMARK SMILES IDX 1 1 2 2 8 3 7 4 6 5 4 6 3 7 19 8 20 9 18 10 11 11 9 12 10 13
REMARK SMILES IDX 12 14 13 15 15 16 16 17 5 18 17 20 14 22
REMARK H PARENT 5 19 17 21 14 23
REMARK Flexibility Score: inf
ROOT
ATOM      1  C   UNL     1      19.856  33.152  41.126  1.00  0.00     0.044 C 
ATOM      2  C   UNL     1      21.272  33.104  40.635  1.00  0.00    -0.047 A 
ATOM      3  C   UNL     1      22.191  32.225  41.220  1.00  0.00     0.016 A 
ATOM      4  C   UNL     1      23.512  32.152  40.748  1.00  0.00     0.038 A 
ATOM      5  C   UNL     1      23.921  32.971  39.673  1.00  0.00     0.076 A 
ATOM      6  C   UNL     1      22.964  33.797  39.029  1.00  0.00     0.127 A 
ATOM      7  C   UNL     1      21.661  33.869  39.529  1.00  0.00     0.050 A 
ATOM      8  C   UNL     1      25.360  32.975  39.300  1.00  0.00     0.201 C 
ATOM      9  O   UNL     1      25.878  34.012  38.806  1.00  0.00    -0.288 OA
ATOM     10  C   UNL     1      26.224  31.827  39.680  1.00  0.00     0.076 A 
ATOM     11  C   UNL     1      25.811  31.008  40.756  1.00  0.00     0.041 A 
ATOM     12  C   UNL     1      24.477  31.214  41.371  1.00  0.00     0.194 C 
ATOM     13  O   UNL     1      24.155  30.572  42.408  1.00  0.00    -0.289 OA
ATOM     14  C   UNL     1      26.663  29.999  41.235  1.00  0.00     0.059 A 
ATOM     15  C   UNL     1      27.910  29.788  40.648  1.00  0.00     0.120 A 
ATOM     16  C   UNL     1      28.307  30.568  39.558  1.00  0.00     0.093 A 
ATOM     17  C   UNL     1      27.468  31.565  39.050  1.00  0.00     0.131 A 
ENDROOT
BRANCH   6  18
ATOM     18  O   UNL     1      23.253  34.530  37.875  1.00  0.00    -0.507 OA
ATOM     19  H   UNL     1      23.680  34.130  37.051  1.00  0.00     0.293 HD
ENDBRANCH   6  18
BRANCH  17  20
ATOM     20  O   UNL     1      27.892  32.242  37.905  1.00  0.00    -0.507 OA
ATOM     21  H   UNL     1      28.451  31.816  37.178  1.00  0.00     0.293 HD
ENDBRANCH  17  20
BRANCH  15  22
ATOM     22  O   UNL     1      28.744  28.790  41.147  1.00  0.00    -0.508 OA
ATOM     23  H   UNL     1      28.402  27.852  41.322  1.00  0.00     0.293 HD
ENDBRANCH  15  22
TORSDOF 3
ENDMDL
MODEL 6
REMARK VINA RESULT:    -3.892      2.288      5.283
REMARK INTER + INTRA:          -4.233
REMARK INTER:                  -4.233
REMARK INTRA:                   0.000
REMARK UNBOUND:                 0.000
REMARK SMILES Cc1cc(O)c2c(c1)C(=O)c1cc(O)cc(O)c1C2=O
REMARK SMILES IDX 1 1 2 2 8 3 7 4 6 5 4 6 3 7 19 8 20 9 18 10 11 11 9 12 10 13
REMARK SMILES IDX 12 14 13 15 15 16 16 17 5 18 17 20 14 22
REMARK H PARENT 5 19 17 21 14 23
REMARK Flexibility Score: inf
ROOT
ATOM      1  C   UNL     1      29.122  38.964  41.696  1.00  0.00     0.044 C 
ATOM      2  C   UNL     1      28.043  38.064  41.171  1.00  0.00    -0.047 A 
ATOM      3  C   UNL     1      28.116  36.682  41.377  1.00  0.00     0.016 A 
ATOM      4  C   UNL     1      27.096  35.834  40.915  1.00  0.00     0.038 A 
ATOM      5  C   UNL     1      25.984  36.378  40.234  1.00  0.00     0.076 A 
ATOM      6  C   UNL     1      25.875  37.786  40.103  1.00  0.00     0.127 A 
ATOM      7  C   UNL     1      26.912  38.608  40.553  1.00  0.00     0.050 A 
ATOM      8  C   UNL     1      25.002  35.439  39.630  1.00  0.00     0.201 C 
ATOM      9  O   UNL     1      24.368  35.776  38.595  1.00  0.00    -0.288 OA
ATOM     10  C   UNL     1      24.907  34.045  40.136  1.00  0.00     0.076 A 
ATOM     11  C   UNL     1      26.021  33.505  40.818  1.00  0.00     0.041 A 
ATOM     12  C   UNL     1      27.179  34.371  41.144  1.00  0.00     0.194 C 
ATOM     13  O   UNL     1      28.225  33.868  41.639  1.00  0.00    -0.289 OA
ATOM     14  C   UNL     1      26.024  32.150  41.189  1.00  0.00     0.059 A 
ATOM     15  C   UNL     1      24.930  31.334  40.903  1.00  0.00     0.120 A 
ATOM     16  C   UNL     1      23.809  31.873  40.265  1.00  0.00     0.093 A 
ATOM     17  C   UNL     1      23.773  33.224  39.904  1.00  0.00     0.131 A 
ENDROOT
BRANCH   6  18
ATOM     18  O   UNL     1      24.743  38.408  39.569  1.00  0.00    -0.507 OA
ATOM     19  H   UNL     1      24.629  38.613  38.586  1.00  0.00     0.293 HD
ENDBRANCH   6  18
BRANCH  17  20
ATOM     20  O   UNL     1      22.587  33.712  39.352  1.00  0.00    -0.507 OA
ATOM     21  H   UNL     1      21.692  33.662  39.819  1.00  0.00     0.293 HD
ENDBRANCH  17  20
BRANCH  15  22
ATOM     22  O   UNL     1      24.960  29.991  41.270  1.00  0.00    -0.508 OA
ATOM     23  H   UNL     1      25.580  29.331  40.814  1.00  0.00     0.293 HD
ENDBRANCH  15  22
TORSDOF 3
ENDMDL
MODEL 7
REMARK VINA RESULT:    -3.840      3.345      6.790
REMARK INTER + INTRA:          -4.176
REMARK INTER:                  -4.176
REMARK INTRA:                   0.000
REMARK UNBOUND:                 0.000
REMARK SMILES Cc1cc(O)c2c(c1)C(=O)c1cc(O)cc(O)c1C2=O
REMARK SMILES IDX 1 1 2 2 8 3 7 4 6 5 4 6 3 7 19 8 20 9 18 10 11 11 9 12 10 13
REMARK SMILES IDX 12 14 13 15 15 16 16 17 5 18 17 20 14 22
REMARK H PARENT 5 19 17 21 14 23
REMARK Flexibility Score: inf
ROOT
ATOM      1  C   UNL     1      24.734  35.641  39.019  1.00  0.00     0.044 C 
ATOM      2  C   UNL     1      25.237  34.235  39.153  1.00  0.00    -0.047 A 
ATOM      3  C   UNL     1      24.436  33.254  39.748  1.00  0.00     0.016 A 
ATOM      4  C   UNL     1      24.887  31.927  39.853  1.00  0.00     0.038 A 
ATOM      5  C   UNL     1      26.160  31.576  39.352  1.00  0.00     0.076 A 
ATOM      6  C   UNL     1      26.931  32.555  38.674  1.00  0.00     0.127 A 
ATOM      7  C   UNL     1      26.471  33.873  38.601  1.00  0.00     0.050 A 
ATOM      8  C   UNL     1      26.663  30.202  39.613  1.00  0.00     0.201 C 
ATOM      9  O   UNL     1      27.901  29.998  39.725  1.00  0.00    -0.288 OA
ATOM     10  C   UNL     1      25.703  29.111  39.925  1.00  0.00     0.076 A 
ATOM     11  C   UNL     1      24.429  29.467  40.424  1.00  0.00     0.041 A 
ATOM     12  C   UNL     1      24.029  30.893  40.480  1.00  0.00     0.194 C 
ATOM     13  O   UNL     1      22.947  31.224  41.038  1.00  0.00    -0.289 OA
ATOM     14  C   UNL     1      23.544  28.466  40.860  1.00  0.00     0.059 A 
ATOM     15  C   UNL     1      23.907  27.121  40.792  1.00  0.00     0.120 A 
ATOM     16  C   UNL     1      25.149  26.762  40.262  1.00  0.00     0.093 A 
ATOM     17  C   UNL     1      26.039  27.738  39.802  1.00  0.00     0.131 A 
ENDROOT
BRANCH   6  18
ATOM     18  O   UNL     1      28.135  32.255  38.031  1.00  0.00    -0.507 OA
ATOM     19  H   UNL     1      28.618  32.899  37.420  1.00  0.00     0.293 HD
ENDBRANCH   6  18
BRANCH  17  20
ATOM     20  O   UNL     1      27.222  27.301  39.203  1.00  0.00    -0.507 OA
ATOM     21  H   UNL     1      27.318  27.134  38.211  1.00  0.00     0.293 HD
ENDBRANCH  17  20
BRANCH  15  22
ATOM     22  O   UNL     1      23.019  26.147  41.242  1.00  0.00    -0.508 OA
ATOM     23  H   UNL     1      23.035  25.203  40.873  1.00  0.00     0.293 HD
ENDBRANCH  15  22
TORSDOF 3
ENDMDL
MODEL 8
REMARK VINA RESULT:    -3.828      3.304      6.111
REMARK INTER + INTRA:          -4.163
REMARK INTER:                  -4.163
REMARK INTRA:                   0.000
REMARK UNBOUND:                 0.000
REMARK SMILES Cc1cc(O)c2c(c1)C(=O)c1cc(O)cc(O)c1C2=O
REMARK SMILES IDX 1 1 2 2 8 3 7 4 6 5 4 6 3 7 19 8 20 9 18 10 11 11 9 12 10 13
REMARK SMILES IDX 12 14 13 15 15 16 16 17 5 18 17 20 14 22
REMARK H PARENT 5 19 17 21 14 23
REMARK Flexibility Score: inf
ROOT
ATOM      1  C   UNL     1      20.044  33.947  41.225  1.00  0.00     0.044 C 
ATOM      2  C   UNL     1      21.249  33.072  41.040  1.00  0.00    -0.047 A 
ATOM      3  C   UNL     1      22.312  33.497  40.236  1.00  0.00     0.016 A 
ATOM      4  C   UNL     1      23.456  32.698  40.080  1.00  0.00     0.038 A 
ATOM      5  C   UNL     1      23.539  31.452  40.741  1.00  0.00     0.076 A 
ATOM      6  C   UNL     1      22.496  31.066  41.621  1.00  0.00     0.127 A 
ATOM      7  C   UNL     1      21.358  31.868  41.744  1.00  0.00     0.050 A 
ATOM      8  C   UNL     1      24.695  30.570  40.435  1.00  0.00     0.201 C 
ATOM      9  O   UNL     1      24.564  29.318  40.502  1.00  0.00    -0.288 OA
ATOM     10  C   UNL     1      25.941  31.154  39.873  1.00  0.00     0.076 A 
ATOM     11  C   UNL     1      25.855  32.402  39.214  1.00  0.00     0.041 A 
ATOM     12  C   UNL     1      24.581  33.159  39.230  1.00  0.00     0.194 C 
ATOM     13  O   UNL     1      24.462  34.209  38.542  1.00  0.00    -0.289 OA
ATOM     14  C   UNL     1      26.979  32.922  38.552  1.00  0.00     0.059 A 
ATOM     15  C   UNL     1      28.186  32.223  38.550  1.00  0.00     0.120 A 
ATOM     16  C   UNL     1      28.288  31.009  39.233  1.00  0.00     0.093 A 
ATOM     17  C   UNL     1      27.189  30.480  39.918  1.00  0.00     0.131 A 
ENDROOT
BRANCH   6  18
ATOM     18  O   UNL     1      22.565  29.918  42.416  1.00  0.00    -0.507 OA
ATOM     19  H   UNL     1      23.318  29.246  42.363  1.00  0.00     0.293 HD
ENDBRANCH   6  18
BRANCH  17  20
ATOM     20  O   UNL     1      27.390  29.310  40.653  1.00  0.00    -0.507 OA
ATOM     21  H   UNL     1      27.180  29.225  41.638  1.00  0.00     0.293 HD
ENDBRANCH  17  20
BRANCH  15  22
ATOM     22  O   UNL     1      29.284  32.752  37.875  1.00  0.00    -0.508 OA
ATOM     23  H   UNL     1      30.227  32.649  38.233  1.00  0.00     0.293 HD
ENDBRANCH  15  22
TORSDOF 3
ENDMDL
MODEL 9
REMARK VINA RESULT:    -3.773     20.646     21.299
REMARK INTER + INTRA:          -4.104
REMARK INTER:                  -4.104
REMARK INTRA:                   0.000
REMARK UNBOUND:                 0.000
REMARK SMILES Cc1cc(O)c2c(c1)C(=O)c1cc(O)cc(O)c1C2=O
REMARK SMILES IDX 1 1 2 2 8 3 7 4 6 5 4 6 3 7 19 8 20 9 18 10 11 11 9 12 10 13
REMARK SMILES IDX 12 14 13 15 15 16 16 17 5 18 17 20 14 22
REMARK H PARENT 5 19 17 21 14 23
REMARK Flexibility Score: inf
ROOT
ATOM      1  C   UNL     1      13.862  26.998  56.150  1.00  0.00     0.044 C 
ATOM      2  C   UNL     1      14.380  28.399  56.282  1.00  0.00    -0.047 A 
ATOM      3  C   UNL     1      13.489  29.466  56.446  1.00  0.00     0.016 A 
ATOM      4  C   UNL     1      13.965  30.779  56.599  1.00  0.00     0.038 A 
ATOM      5  C   UNL     1      15.356  31.029  56.589  1.00  0.00     0.076 A 
ATOM      6  C   UNL     1      16.254  29.934  56.508  1.00  0.00     0.127 A 
ATOM      7  C   UNL     1      15.757  28.639  56.335  1.00  0.00     0.050 A 
ATOM      8  C   UNL     1      15.816  32.442  56.603  1.00  0.00     0.201 C 
ATOM      9  O   UNL     1      16.902  32.754  56.044  1.00  0.00    -0.288 OA
ATOM     10  C   UNL     1      14.912  33.507  57.110  1.00  0.00     0.076 A 
ATOM     11  C   UNL     1      13.521  33.253  57.120  1.00  0.00     0.041 A 
ATOM     12  C   UNL     1      13.015  31.903  56.778  1.00  0.00     0.194 C 
ATOM     13  O   UNL     1      11.774  31.705  56.664  1.00  0.00    -0.289 OA
ATOM     14  C   UNL     1      12.626  34.281  57.461  1.00  0.00     0.059 A 
ATOM     15  C   UNL     1      13.097  35.548  57.803  1.00  0.00     0.120 A 
ATOM     16  C   UNL     1      14.473  35.792  57.833  1.00  0.00     0.093 A 
ATOM     17  C   UNL     1      15.386  34.781  57.519  1.00  0.00     0.131 A 
ENDROOT
BRANCH   6  18
ATOM     18  O   UNL     1      17.638  30.083  56.631  1.00  0.00    -0.507 OA
ATOM     19  H   UNL     1      18.220  29.468  57.182  1.00  0.00     0.293 HD
ENDBRANCH   6  18
BRANCH  17  20
ATOM     20  O   UNL     1      16.744  35.073  57.658  1.00  0.00    -0.507 OA
ATOM     21  H   UNL     1      17.467  34.367  57.696  1.00  0.00     0.293 HD
ENDBRANCH  17  20
BRANCH  15  22
ATOM     22  O   UNL     1      12.190  36.554  58.124  1.00  0.00    -0.508 OA
ATOM     23  H   UNL     1      11.769  36.615  59.044  1.00  0.00     0.293 HD
ENDBRANCH  15  22
TORSDOF 3
ENDMDL
