MODEL 1
REMARK VINA RESULT:    -2.643      0.000      0.000
REMARK INTER + INTRA:          -3.737
REMARK INTER:                  -3.569
REMARK INTRA:                  -0.167
REMARK UNBOUND:                -0.167
REMARK SMILES CCCCCCCC(=O)[O-]
REMARK SMILES IDX 5 1 6 2 7 3 8 4 9 5 10 6 4 7 3 8 2 9 1 10
REMARK H PARENT
REMARK Flexibility Score: inf
ROOT
ATOM      1  C   UNL     1      -8.294  52.083  -5.585  1.00  0.00     0.000 C 
ENDROOT
BRANCH   1   2
ATOM      2  C   UNL     1      -7.065  52.125  -6.505  1.00  0.00     0.006 C 
BRANCH   2   3
ATOM      3  C   UNL     1      -7.408  51.752  -7.953  1.00  0.00     0.053 C 
BRANCH   3   4
ATOM      4  C   UNL     1      -6.177  51.509  -8.773  1.00  0.00     0.041 C 
ATOM      5  O   UNL     1      -6.185  51.742 -10.010  1.00  0.00    -0.550 OA
ATOM      6  O   UNL     1      -5.035  50.993  -8.176  1.00  0.00    -0.550 OA
ENDBRANCH   3   4
ENDBRANCH   2   3
ENDBRANCH   1   2
BRANCH   1   7
ATOM      7  C   UNL     1      -7.934  51.490  -4.215  1.00  0.00     0.000 C 
BRANCH   7   8
ATOM      8  C   UNL     1      -8.793  50.268  -3.855  1.00  0.00    -0.000 C 
BRANCH   8   9
ATOM      9  C   UNL     1      -8.754  49.938  -2.356  1.00  0.00    -0.003 C 
ATOM     10  C   UNL     1      -8.297  51.145  -1.540  1.00  0.00     0.004 C 
ENDBRANCH   8   9
ENDBRANCH   7   8
ENDBRANCH   1   7
TORSDOF 6
ENDMDL
MODEL 2
REMARK VINA RESULT:    -2.616      4.659      5.799
REMARK INTER + INTRA:          -3.702
REMARK INTER:                  -3.521
REMARK INTRA:                  -0.180
REMARK UNBOUND:                -0.167
REMARK SMILES CCCCCCCC(=O)[O-]
REMARK SMILES IDX 5 1 6 2 7 3 8 4 9 5 10 6 4 7 3 8 2 9 1 10
REMARK H PARENT
REMARK Flexibility Score: inf
ROOT
ATOM      1  C   UNL     1      -4.464  51.435  -8.965  1.00  0.00     0.000 C 
ENDROOT
BRANCH   1   2
ATOM      2  C   UNL     1      -5.445  50.923 -10.031  1.00  0.00     0.006 C 
BRANCH   2   3
ATOM      3  C   UNL     1      -6.708  51.789 -10.124  1.00  0.00     0.053 C 
BRANCH   3   4
ATOM      4  C   UNL     1      -7.860  51.174  -9.390  1.00  0.00     0.041 C 
ATOM      5  O   UNL     1      -9.014  51.188  -9.897  1.00  0.00    -0.550 OA
ATOM      6  O   UNL     1      -7.667  50.616  -8.133  1.00  0.00    -0.550 OA
ENDBRANCH   3   4
ENDBRANCH   2   3
ENDBRANCH   1   2
BRANCH   1   7
ATOM      7  C   UNL     1      -3.257  52.125  -9.617  1.00  0.00     0.000 C 
BRANCH   7   8
ATOM      8  C   UNL     1      -2.005  52.093  -8.727  1.00  0.00    -0.000 C 
BRANCH   8   9
ATOM      9  C   UNL     1      -2.335  51.808  -7.254  1.00  0.00    -0.003 C 
ATOM     10  C   UNL     1      -1.087  51.914  -6.381  1.00  0.00     0.004 C 
ENDBRANCH   8   9
ENDBRANCH   7   8
ENDBRANCH   1   7
TORSDOF 6
ENDMDL
MODEL 3
REMARK VINA RESULT:    -2.219     23.698     24.885
REMARK INTER + INTRA:          -3.165
REMARK INTER:                  -2.758
REMARK INTRA:                  -0.407
REMARK UNBOUND:                -0.167
REMARK SMILES CCCCCCCC(=O)[O-]
REMARK SMILES IDX 5 1 6 2 7 3 8 4 9 5 10 6 4 7 3 8 2 9 1 10
REMARK H PARENT
REMARK Flexibility Score: inf
ROOT
ATOM      1  C   UNL     1       8.635  33.297  -7.119  1.00  0.00     0.000 C 
ENDROOT
BRANCH   1   2
ATOM      2  C   UNL     1       7.587  32.220  -7.437  1.00  0.00     0.006 C 
BRANCH   2   3
ATOM      3  C   UNL     1       7.542  31.875  -8.931  1.00  0.00     0.053 C 
BRANCH   3   4
ATOM      4  C   UNL     1       6.744  32.876  -9.710  1.00  0.00     0.041 C 
ATOM      5  O   UNL     1       7.226  34.011  -9.963  1.00  0.00    -0.550 OA
ATOM      6  O   UNL     1       5.455  32.567 -10.124  1.00  0.00    -0.550 OA
ENDBRANCH   3   4
ENDBRANCH   2   3
ENDBRANCH   1   2
BRANCH   1   7
ATOM      7  C   UNL     1       9.939  32.662  -6.614  1.00  0.00     0.000 C 
BRANCH   7   8
ATOM      8  C   UNL     1      11.107  32.849  -7.594  1.00  0.00    -0.000 C 
BRANCH   8   9
ATOM      9  C   UNL     1      10.706  33.641  -8.848  1.00  0.00    -0.003 C 
ATOM     10  C   UNL     1      10.855  32.789 -10.106  1.00  0.00     0.004 C 
ENDBRANCH   8   9
ENDBRANCH   7   8
ENDBRANCH   1   7
TORSDOF 6
ENDMDL
MODEL 4
REMARK VINA RESULT:    -2.084      3.220      5.696
REMARK INTER + INTRA:          -2.983
REMARK INTER:                  -2.771
REMARK INTRA:                  -0.212
REMARK UNBOUND:                -0.167
REMARK SMILES CCCCCCCC(=O)[O-]
REMARK SMILES IDX 5 1 6 2 7 3 8 4 9 5 10 6 4 7 3 8 2 9 1 10
REMARK H PARENT
REMARK Flexibility Score: inf
ROOT
ATOM      1  C   UNL     1      -6.435  51.845  -6.158  1.00  0.00     0.000 C 
ENDROOT
BRANCH   1   2
ATOM      2  C   UNL     1      -7.829  52.125  -5.576  1.00  0.00     0.006 C 
BRANCH   2   3
ATOM      3  C   UNL     1      -7.829  52.125  -4.041  1.00  0.00     0.053 C 
BRANCH   3   4
ATOM      4  C   UNL     1      -8.387  50.851  -3.485  1.00  0.00     0.041 C 
ATOM      5  O   UNL     1      -8.656  50.760  -2.258  1.00  0.00    -0.550 OA
ATOM      6  O   UNL     1      -8.577  49.753  -4.314  1.00  0.00    -0.550 OA
ENDBRANCH   3   4
ENDBRANCH   2   3
ENDBRANCH   1   2
BRANCH   1   7
ATOM      7  C   UNL     1      -6.413  52.099  -7.673  1.00  0.00     0.000 C 
BRANCH   7   8
ATOM      8  C   UNL     1      -5.024  51.876  -8.290  1.00  0.00    -0.000 C 
BRANCH   8   9
ATOM      9  C   UNL     1      -3.935  51.652  -7.229  1.00  0.00    -0.003 C 
ATOM     10  C   UNL     1      -2.543  51.865  -7.818  1.00  0.00     0.004 C 
ENDBRANCH   8   9
ENDBRANCH   7   8
ENDBRANCH   1   7
TORSDOF 6
ENDMDL
MODEL 5
REMARK VINA RESULT:    -2.080      3.257      4.980
REMARK INTER + INTRA:          -2.978
REMARK INTER:                  -2.799
REMARK INTRA:                  -0.178
REMARK UNBOUND:                -0.167
REMARK SMILES CCCCCCCC(=O)[O-]
REMARK SMILES IDX 5 1 6 2 7 3 8 4 9 5 10 6 4 7 3 8 2 9 1 10
REMARK H PARENT
REMARK Flexibility Score: inf
ROOT
ATOM      1  C   UNL     1      -7.995  51.044  -1.005  1.00  0.00     0.000 C 
ENDROOT
BRANCH   1   2
ATOM      2  C   UNL     1      -8.974  51.571  -2.065  1.00  0.00     0.006 C 
BRANCH   2   3
ATOM      3  C   UNL     1      -8.252  52.104  -3.309  1.00  0.00     0.053 C 
BRANCH   3   4
ATOM      4  C   UNL     1      -8.306  51.129  -4.445  1.00  0.00     0.041 C 
ATOM      5  O   UNL     1      -8.374  49.892  -4.215  1.00  0.00    -0.550 OA
ATOM      6  O   UNL     1      -8.247  51.583  -5.756  1.00  0.00    -0.550 OA
ENDBRANCH   3   4
ENDBRANCH   2   3
ENDBRANCH   1   2
BRANCH   1   7
ATOM      7  C   UNL     1      -6.959  52.115  -0.633  1.00  0.00     0.000 C 
BRANCH   7   8
ATOM      8  C   UNL     1      -5.883  51.589   0.330  1.00  0.00    -0.000 C 
BRANCH   8   9
ATOM      9  C   UNL     1      -4.482  52.125  -0.001  1.00  0.00    -0.003 C 
ATOM     10  C   UNL     1      -3.404  51.111   0.373  1.00  0.00     0.004 C 
ENDBRANCH   8   9
ENDBRANCH   7   8
ENDBRANCH   1   7
TORSDOF 6
ENDMDL
MODEL 6
REMARK VINA RESULT:    -1.906      3.915      6.077
REMARK INTER + INTRA:          -2.742
REMARK INTER:                  -2.563
REMARK INTRA:                  -0.180
REMARK UNBOUND:                -0.167
REMARK SMILES CCCCCCCC(=O)[O-]
REMARK SMILES IDX 5 1 6 2 7 3 8 4 9 5 10 6 4 7 3 8 2 9 1 10
REMARK H PARENT
REMARK Flexibility Score: inf
ROOT
ATOM      1  C   UNL     1      -8.052  50.889  -5.041  1.00  0.00     0.000 C 
ENDROOT
BRANCH   1   2
ATOM      2  C   UNL     1      -8.976  51.306  -3.887  1.00  0.00     0.006 C 
BRANCH   2   3
ATOM      3  C   UNL     1      -8.240  52.125  -2.819  1.00  0.00     0.053 C 
BRANCH   3   4
ATOM      4  C   UNL     1      -8.128  51.379  -1.525  1.00  0.00     0.041 C 
ATOM      5  O   UNL     1      -8.791  50.324  -1.343  1.00  0.00    -0.550 OA
ATOM      6  O   UNL     1      -7.320  51.868  -0.507  1.00  0.00    -0.550 OA
ENDBRANCH   3   4
ENDBRANCH   2   3
ENDBRANCH   1   2
BRANCH   1   7
ATOM      7  C   UNL     1      -7.451  52.120  -5.735  1.00  0.00     0.000 C 
BRANCH   7   8
ATOM      8  C   UNL     1      -7.626  52.083  -7.262  1.00  0.00    -0.000 C 
BRANCH   8   9
ATOM      9  C   UNL     1      -6.296  51.881  -8.004  1.00  0.00    -0.003 C 
ATOM     10  C   UNL     1      -6.498  51.069  -9.281  1.00  0.00     0.004 C 
ENDBRANCH   8   9
ENDBRANCH   7   8
ENDBRANCH   1   7
TORSDOF 6
ENDMDL
MODEL 7
REMARK VINA RESULT:    -1.693      2.274      3.547
REMARK INTER + INTRA:          -2.454
REMARK INTER:                  -2.103
REMARK INTRA:                  -0.351
REMARK UNBOUND:                -0.167
REMARK SMILES CCCCCCCC(=O)[O-]
REMARK SMILES IDX 5 1 6 2 7 3 8 4 9 5 10 6 4 7 3 8 2 9 1 10
REMARK H PARENT
REMARK Flexibility Score: inf
ROOT
ATOM      1  C   UNL     1      -8.305  50.112  -2.472  1.00  0.00     0.000 C 
ENDROOT
BRANCH   1   2
ATOM      2  C   UNL     1      -9.124  50.223  -3.767  1.00  0.00     0.006 C 
BRANCH   2   3
ATOM      3  C   UNL     1      -8.950  51.586  -4.451  1.00  0.00     0.053 C 
BRANCH   3   4
ATOM      4  C   UNL     1      -7.837  51.567  -5.454  1.00  0.00     0.041 C 
ATOM      5  O   UNL     1      -8.062  51.219  -6.643  1.00  0.00    -0.550 OA
ATOM      6  O   UNL     1      -6.546  51.901  -5.067  1.00  0.00    -0.550 OA
ENDBRANCH   3   4
ENDBRANCH   2   3
ENDBRANCH   1   2
BRANCH   1   7
ATOM      7  C   UNL     1      -9.055  50.750  -1.293  1.00  0.00     0.000 C 
BRANCH   7   8
ATOM      8  C   UNL     1      -8.465  52.108  -0.882  1.00  0.00    -0.000 C 
BRANCH   8   9
ATOM      9  C   UNL     1      -6.930  52.125  -0.933  1.00  0.00    -0.003 C 
ATOM     10  C   UNL     1      -6.331  51.607   0.371  1.00  0.00     0.004 C 
ENDBRANCH   8   9
ENDBRANCH   7   8
ENDBRANCH   1   7
TORSDOF 6
ENDMDL
MODEL 8
REMARK VINA RESULT:     0.164     23.806     25.083
REMARK INTER + INTRA:           0.055
REMARK INTER:                   0.336
REMARK INTRA:                  -0.282
REMARK UNBOUND:                -0.167
REMARK SMILES CCCCCCCC(=O)[O-]
REMARK SMILES IDX 5 1 6 2 7 3 8 4 9 5 10 6 4 7 3 8 2 9 1 10
REMARK H PARENT
REMARK Flexibility Score: inf
ROOT
ATOM      1  C   UNL     1       7.282  33.882  -7.930  1.00  0.00     0.000 C 
ENDROOT
BRANCH   1   2
ATOM      2  C   UNL     1       8.092  33.401  -6.717  1.00  0.00     0.006 C 
BRANCH   2   3
ATOM      3  C   UNL     1       8.789  32.059  -6.978  1.00  0.00     0.053 C 
BRANCH   3   4
ATOM      4  C   UNL     1      10.280  32.182  -6.901  1.00  0.00     0.041 C 
ATOM      5  O   UNL     1      10.829  32.570  -5.836  1.00  0.00    -0.550 OA
ATOM      6  O   UNL     1      11.061  31.901  -8.015  1.00  0.00    -0.550 OA
ENDBRANCH   3   4
ENDBRANCH   2   3
ENDBRANCH   1   2
BRANCH   1   7
ATOM      7  C   UNL     1       7.232  32.802  -9.020  1.00  0.00     0.000 C 
BRANCH   7   8
ATOM      8  C   UNL     1       8.277  33.029 -10.125  1.00  0.00    -0.000 C 
BRANCH   8   9
ATOM      9  C   UNL     1       8.841  34.457 -10.121  1.00  0.00    -0.003 C 
ATOM     10  C   UNL     1      10.343  34.453  -9.848  1.00  0.00     0.004 C 
ENDBRANCH   8   9
ENDBRANCH   7   8
ENDBRANCH   1   7
TORSDOF 6
ENDMDL
