MODEL 1
REMARK VINA RESULT:    -4.629      0.000      0.000
REMARK INTER + INTRA:         -10.400
REMARK INTER:                  -8.417
REMARK INTRA:                  -1.983
REMARK UNBOUND:                -1.983
REMARK SMILES CCCCCCCCCCCCCCCC(=O)[O-]
REMARK SMILES IDX 9 1 10 2 11 3 12 4 13 5 14 6 15 7 16 8 17 9 18 10 8 11 7 12
REMARK SMILES IDX 6 13 5 14 4 15 3 16 2 17 1 18
REMARK H PARENT
REMARK Flexibility Score: inf
ROOT
ATOM      1  C   UNL     1      11.559  30.032  59.680  1.00  0.00     0.000 C 
ENDROOT
BRANCH   1   2
ATOM      2  C   UNL     1      11.855  28.561  59.994  1.00  0.00     0.000 C 
BRANCH   2   3
ATOM      3  C   UNL     1      12.505  28.413  61.375  1.00  0.00     0.000 C 
BRANCH   3   4
ATOM      4  C   UNL     1      12.628  29.774  62.075  1.00  0.00     0.000 C 
BRANCH   4   5
ATOM      5  C   UNL     1      14.099  30.165  62.341  1.00  0.00     0.000 C 
BRANCH   5   6
ATOM      6  C   UNL     1      15.100  29.037  62.029  1.00  0.00     0.006 C 
BRANCH   6   7
ATOM      7  C   UNL     1      16.169  28.833  63.113  1.00  0.00     0.053 C 
BRANCH   7   8
ATOM      8  C   UNL     1      15.920  27.594  63.917  1.00  0.00     0.041 C 
ATOM      9  O   UNL     1      16.882  26.985  64.456  1.00  0.00    -0.550 OA
ATOM     10  O   UNL     1      14.626  27.120  64.090  1.00  0.00    -0.550 OA
ENDBRANCH   7   8
ENDBRANCH   6   7
ENDBRANCH   5   6
ENDBRANCH   4   5
ENDBRANCH   3   4
ENDBRANCH   2   3
ENDBRANCH   1   2
BRANCH   1  11
ATOM     11  C   UNL     1      12.342  30.501  58.449  1.00  0.00     0.000 C 
BRANCH  11  12
ATOM     12  C   UNL     1      13.545  31.361  58.855  1.00  0.00    -0.000 C 
BRANCH  12  13
ATOM     13  C   UNL     1      14.860  30.590  58.669  1.00  0.00    -0.000 C 
BRANCH  13  14
ATOM     14  C   UNL     1      16.018  31.491  58.210  1.00  0.00    -0.000 C 
BRANCH  14  15
ATOM     15  C   UNL     1      16.187  31.501  56.680  1.00  0.00    -0.000 C 
BRANCH  15  16
ATOM     16  C   UNL     1      15.617  30.239  56.007  1.00  0.00    -0.000 C 
BRANCH  16  17
ATOM     17  C   UNL     1      14.670  30.504  54.823  1.00  0.00    -0.003 C 
ATOM     18  C   UNL     1      13.648  31.604  55.109  1.00  0.00     0.004 C 
ENDBRANCH  16  17
ENDBRANCH  15  16
ENDBRANCH  14  15
ENDBRANCH  13  14
ENDBRANCH  12  13
ENDBRANCH  11  12
ENDBRANCH   1  11
TORSDOF 14
ENDMDL
MODEL 2
REMARK VINA RESULT:    -4.543      3.087      4.421
REMARK INTER + INTRA:         -10.244
REMARK INTER:                  -8.244
REMARK INTRA:                  -2.000
REMARK UNBOUND:                -1.983
REMARK SMILES CCCCCCCCCCCCCCCC(=O)[O-]
REMARK SMILES IDX 9 1 10 2 11 3 12 4 13 5 14 6 15 7 16 8 17 9 18 10 8 11 7 12
REMARK SMILES IDX 6 13 5 14 4 15 3 16 2 17 1 18
REMARK H PARENT
REMARK Flexibility Score: inf
ROOT
ATOM      1  C   UNL     1      14.161  30.972  59.549  1.00  0.00     0.000 C 
ENDROOT
BRANCH   1   2
ATOM      2  C   UNL     1      15.333  30.091  59.997  1.00  0.00     0.000 C 
BRANCH   2   3
ATOM      3  C   UNL     1      15.201  29.711  61.477  1.00  0.00     0.000 C 
BRANCH   3   4
ATOM      4  C   UNL     1      13.734  29.753  61.928  1.00  0.00     0.000 C 
BRANCH   4   5
ATOM      5  C   UNL     1      13.071  28.357  61.894  1.00  0.00     0.000 C 
BRANCH   5   6
ATOM      6  C   UNL     1      12.015  28.206  60.785  1.00  0.00     0.006 C 
BRANCH   6   7
ATOM      7  C   UNL     1      11.075  29.413  60.646  1.00  0.00     0.053 C 
BRANCH   7   8
ATOM      8  C   UNL     1       9.791  29.047  59.967  1.00  0.00     0.041 C 
ATOM      9  O   UNL     1       9.750  28.930  58.713  1.00  0.00    -0.550 OA
ATOM     10  O   UNL     1       8.645  28.814  60.715  1.00  0.00    -0.550 OA
ENDBRANCH   7   8
ENDBRANCH   6   7
ENDBRANCH   5   6
ENDBRANCH   4   5
ENDBRANCH   3   4
ENDBRANCH   2   3
ENDBRANCH   1   2
BRANCH   1  11
ATOM     11  C   UNL     1      13.660  30.557  58.160  1.00  0.00     0.000 C 
BRANCH  11  12
ATOM     12  C   UNL     1      14.780  29.904  57.342  1.00  0.00    -0.000 C 
BRANCH  12  13
ATOM     13  C   UNL     1      14.592  30.172  55.841  1.00  0.00    -0.000 C 
BRANCH  13  14
ATOM     14  C   UNL     1      13.438  31.145  55.551  1.00  0.00    -0.000 C 
BRANCH  14  15
ATOM     15  C   UNL     1      13.895  32.383  54.760  1.00  0.00    -0.000 C 
BRANCH  15  16
ATOM     16  C   UNL     1      15.187  33.007  55.319  1.00  0.00    -0.000 C 
BRANCH  16  17
ATOM     17  C   UNL     1      15.026  33.741  56.663  1.00  0.00    -0.003 C 
ATOM     18  C   UNL     1      16.133  33.408  57.663  1.00  0.00     0.004 C 
ENDBRANCH  16  17
ENDBRANCH  15  16
ENDBRANCH  14  15
ENDBRANCH  13  14
ENDBRANCH  12  13
ENDBRANCH  11  12
ENDBRANCH   1  11
TORSDOF 14
ENDMDL
MODEL 3
REMARK VINA RESULT:    -4.461      1.361      2.746
REMARK INTER + INTRA:         -10.095
REMARK INTER:                  -7.904
REMARK INTRA:                  -2.191
REMARK UNBOUND:                -1.983
REMARK SMILES CCCCCCCCCCCCCCCC(=O)[O-]
REMARK SMILES IDX 9 1 10 2 11 3 12 4 13 5 14 6 15 7 16 8 17 9 18 10 8 11 7 12
REMARK SMILES IDX 6 13 5 14 4 15 3 16 2 17 1 18
REMARK H PARENT
REMARK Flexibility Score: inf
ROOT
ATOM      1  C   UNL     1      13.533  31.608  58.857  1.00  0.00     0.000 C 
ENDROOT
BRANCH   1   2
ATOM      2  C   UNL     1      12.434  30.658  58.367  1.00  0.00     0.000 C 
BRANCH   2   3
ATOM      3  C   UNL     1      11.630  30.093  59.544  1.00  0.00     0.000 C 
BRANCH   3   4
ATOM      4  C   UNL     1      12.404  28.973  60.254  1.00  0.00     0.000 C 
BRANCH   4   5
ATOM      5  C   UNL     1      12.479  29.190  61.782  1.00  0.00     0.000 C 
BRANCH   5   6
ATOM      6  C   UNL     1      13.677  30.052  62.221  1.00  0.00     0.006 C 
BRANCH   6   7
ATOM      7  C   UNL     1      15.032  29.551  61.701  1.00  0.00     0.053 C 
BRANCH   7   8
ATOM      8  C   UNL     1      15.813  28.844  62.766  1.00  0.00     0.041 C 
ATOM      9  O   UNL     1      15.375  28.798  63.946  1.00  0.00    -0.550 OA
ATOM     10  O   UNL     1      17.014  28.220  62.456  1.00  0.00    -0.550 OA
ENDBRANCH   7   8
ENDBRANCH   6   7
ENDBRANCH   5   6
ENDBRANCH   4   5
ENDBRANCH   3   4
ENDBRANCH   2   3
ENDBRANCH   1   2
BRANCH   1  11
ATOM     11  C   UNL     1      14.924  31.074  58.494  1.00  0.00     0.000 C 
BRANCH  11  12
ATOM     12  C   UNL     1      14.824  29.866  57.556  1.00  0.00    -0.000 C 
BRANCH  12  13
ATOM     13  C   UNL     1      15.460  30.174  56.192  1.00  0.00    -0.000 C 
BRANCH  13  14
ATOM     14  C   UNL     1      14.492  30.886  55.233  1.00  0.00    -0.000 C 
BRANCH  14  15
ATOM     15  C   UNL     1      14.975  32.296  54.846  1.00  0.00    -0.000 C 
BRANCH  15  16
ATOM     16  C   UNL     1      14.304  33.406  55.675  1.00  0.00    -0.000 C 
BRANCH  16  17
ATOM     17  C   UNL     1      15.270  34.279  56.497  1.00  0.00    -0.003 C 
ATOM     18  C   UNL     1      16.683  33.702  56.569  1.00  0.00     0.004 C 
ENDBRANCH  16  17
ENDBRANCH  15  16
ENDBRANCH  14  15
ENDBRANCH  13  14
ENDBRANCH  12  13
ENDBRANCH  11  12
ENDBRANCH   1  11
TORSDOF 14
ENDMDL
MODEL 4
REMARK VINA RESULT:    -4.435      1.267      2.135
REMARK INTER + INTRA:         -10.048
REMARK INTER:                  -8.868
REMARK INTRA:                  -1.180
REMARK UNBOUND:                -1.983
REMARK SMILES CCCCCCCCCCCCCCCC(=O)[O-]
REMARK SMILES IDX 9 1 10 2 11 3 12 4 13 5 14 6 15 7 16 8 17 9 18 10 8 11 7 12
REMARK SMILES IDX 6 13 5 14 4 15 3 16 2 17 1 18
REMARK H PARENT
REMARK Flexibility Score: inf
ROOT
ATOM      1  C   UNL     1      11.127  29.553  60.077  1.00  0.00     0.000 C 
ENDROOT
BRANCH   1   2
ATOM      2  C   UNL     1      12.276  28.562  60.297  1.00  0.00     0.000 C 
BRANCH   2   3
ATOM      3  C   UNL     1      12.728  28.561  61.763  1.00  0.00     0.000 C 
BRANCH   3   4
ATOM      4  C   UNL     1      13.644  29.757  62.060  1.00  0.00     0.000 C 
BRANCH   4   5
ATOM      5  C   UNL     1      15.003  29.649  61.333  1.00  0.00     0.000 C 
BRANCH   5   6
ATOM      6  C   UNL     1      16.204  29.536  62.290  1.00  0.00     0.006 C 
BRANCH   6   7
ATOM      7  C   UNL     1      15.820  29.196  63.738  1.00  0.00     0.053 C 
BRANCH   7   8
ATOM      8  C   UNL     1      15.869  27.721  63.997  1.00  0.00     0.041 C 
ATOM      9  O   UNL     1      16.978  27.128  64.068  1.00  0.00    -0.550 OA
ATOM     10  O   UNL     1      14.694  27.003  64.178  1.00  0.00    -0.550 OA
ENDBRANCH   7   8
ENDBRANCH   6   7
ENDBRANCH   5   6
ENDBRANCH   4   5
ENDBRANCH   3   4
ENDBRANCH   2   3
ENDBRANCH   1   2
BRANCH   1  11
ATOM     11  C   UNL     1      11.369  30.408  58.828  1.00  0.00     0.000 C 
BRANCH  11  12
ATOM     12  C   UNL     1      12.842  30.822  58.719  1.00  0.00    -0.000 C 
BRANCH  12  13
ATOM     13  C   UNL     1      13.233  31.082  57.256  1.00  0.00    -0.000 C 
BRANCH  13  14
ATOM     14  C   UNL     1      14.682  31.573  57.108  1.00  0.00    -0.000 C 
BRANCH  14  15
ATOM     15  C   UNL     1      14.837  33.065  57.452  1.00  0.00    -0.000 C 
BRANCH  15  16
ATOM     16  C   UNL     1      16.302  33.473  57.699  1.00  0.00    -0.000 C 
BRANCH  16  17
ATOM     17  C   UNL     1      17.239  32.320  58.101  1.00  0.00    -0.003 C 
ATOM     18  C   UNL     1      18.361  32.081  57.091  1.00  0.00     0.004 C 
ENDBRANCH  16  17
ENDBRANCH  15  16
ENDBRANCH  14  15
ENDBRANCH  13  14
ENDBRANCH  12  13
ENDBRANCH  11  12
ENDBRANCH   1  11
TORSDOF 14
ENDMDL
MODEL 5
REMARK VINA RESULT:    -4.395      3.242      6.715
REMARK INTER + INTRA:          -9.976
REMARK INTER:                  -8.679
REMARK INTRA:                  -1.297
REMARK UNBOUND:                -1.983
REMARK SMILES CCCCCCCCCCCCCCCC(=O)[O-]
REMARK SMILES IDX 9 1 10 2 11 3 12 4 13 5 14 6 15 7 16 8 17 9 18 10 8 11 7 12
REMARK SMILES IDX 6 13 5 14 4 15 3 16 2 17 1 18
REMARK H PARENT
REMARK Flexibility Score: inf
ROOT
ATOM      1  C   UNL     1      16.107  30.356  59.775  1.00  0.00     0.000 C 
ENDROOT
BRANCH   1   2
ATOM      2  C   UNL     1      14.927  29.999  58.864  1.00  0.00     0.000 C 
BRANCH   2   3
ATOM      3  C   UNL     1      13.783  31.009  59.026  1.00  0.00     0.000 C 
BRANCH   3   4
ATOM      4  C   UNL     1      12.423  30.297  59.082  1.00  0.00     0.000 C 
BRANCH   4   5
ATOM      5  C   UNL     1      12.348  29.269  60.233  1.00  0.00     0.000 C 
BRANCH   5   6
ATOM      6  C   UNL     1      11.074  29.397  61.088  1.00  0.00     0.006 C 
BRANCH   6   7
ATOM      7  C   UNL     1       9.781  29.524  60.269  1.00  0.00     0.053 C 
BRANCH   7   8
ATOM      8  C   UNL     1       8.589  29.771  61.143  1.00  0.00     0.041 C 
ATOM      9  O   UNL     1       7.561  30.324  60.669  1.00  0.00    -0.550 OA
ATOM     10  O   UNL     1       8.602  29.374  62.474  1.00  0.00    -0.550 OA
ENDBRANCH   7   8
ENDBRANCH   6   7
ENDBRANCH   5   6
ENDBRANCH   4   5
ENDBRANCH   3   4
ENDBRANCH   2   3
ENDBRANCH   1   2
BRANCH   1  11
ATOM     11  C   UNL     1      16.148  29.441  61.006  1.00  0.00     0.000 C 
BRANCH  11  12
ATOM     12  C   UNL     1      15.511  30.125  62.222  1.00  0.00    -0.000 C 
BRANCH  12  13
ATOM     13  C   UNL     1      14.978  29.085  63.220  1.00  0.00    -0.000 C 
BRANCH  13  14
ATOM     14  C   UNL     1      16.072  28.543  64.153  1.00  0.00    -0.000 C 
BRANCH  14  15
ATOM     15  C   UNL     1      16.198  27.010  64.087  1.00  0.00    -0.000 C 
BRANCH  15  16
ATOM     16  C   UNL     1      17.651  26.537  63.897  1.00  0.00    -0.000 C 
BRANCH  16  17
ATOM     17  C   UNL     1      18.347  27.066  62.630  1.00  0.00    -0.003 C 
ATOM     18  C   UNL     1      19.293  26.046  61.997  1.00  0.00     0.004 C 
ENDBRANCH  16  17
ENDBRANCH  15  16
ENDBRANCH  14  15
ENDBRANCH  13  14
ENDBRANCH  12  13
ENDBRANCH  11  12
ENDBRANCH   1  11
TORSDOF 14
ENDMDL
MODEL 6
REMARK VINA RESULT:    -4.383      2.034      3.605
REMARK INTER + INTRA:          -9.953
REMARK INTER:                  -7.960
REMARK INTRA:                  -1.992
REMARK UNBOUND:                -1.983
REMARK SMILES CCCCCCCCCCCCCCCC(=O)[O-]
REMARK SMILES IDX 9 1 10 2 11 3 12 4 13 5 14 6 15 7 16 8 17 9 18 10 8 11 7 12
REMARK SMILES IDX 6 13 5 14 4 15 3 16 2 17 1 18
REMARK H PARENT
REMARK Flexibility Score: inf
ROOT
ATOM      1  C   UNL     1      16.263  30.408  60.272  1.00  0.00     0.000 C 
ENDROOT
BRANCH   1   2
ATOM      2  C   UNL     1      16.533  29.396  61.391  1.00  0.00     0.000 C 
BRANCH   2   3
ATOM      3  C   UNL     1      16.553  30.085  62.762  1.00  0.00     0.000 C 
BRANCH   3   4
ATOM      4  C   UNL     1      15.953  29.176  63.845  1.00  0.00     0.000 C 
BRANCH   4   5
ATOM      5  C   UNL     1      15.353  27.880  63.255  1.00  0.00     0.000 C 
BRANCH   5   6
ATOM      6  C   UNL     1      13.816  27.826  63.329  1.00  0.00     0.006 C 
BRANCH   6   7
ATOM      7  C   UNL     1      13.118  27.982  61.970  1.00  0.00     0.053 C 
BRANCH   7   8
ATOM      8  C   UNL     1      12.547  29.355  61.790  1.00  0.00     0.041 C 
ATOM      9  O   UNL     1      13.008  30.324  62.451  1.00  0.00    -0.550 OA
ATOM     10  O   UNL     1      11.519  29.572  60.881  1.00  0.00    -0.550 OA
ENDBRANCH   7   8
ENDBRANCH   6   7
ENDBRANCH   5   6
ENDBRANCH   4   5
ENDBRANCH   3   4
ENDBRANCH   2   3
ENDBRANCH   1   2
BRANCH   1  11
ATOM     11  C   UNL     1      15.083  29.963  59.400  1.00  0.00     0.000 C 
BRANCH  11  12
ATOM     12  C   UNL     1      14.237  31.164  58.961  1.00  0.00    -0.000 C 
BRANCH  12  13
ATOM     13  C   UNL     1      13.239  30.762  57.864  1.00  0.00    -0.000 C 
BRANCH  13  14
ATOM     14  C   UNL     1      13.607  31.338  56.487  1.00  0.00    -0.000 C 
BRANCH  14  15
ATOM     15  C   UNL     1      14.400  30.341  55.623  1.00  0.00    -0.000 C 
BRANCH  15  16
ATOM     16  C   UNL     1      15.921  30.438  55.842  1.00  0.00    -0.000 C 
BRANCH  16  17
ATOM     17  C   UNL     1      16.474  31.871  55.937  1.00  0.00    -0.003 C 
ATOM     18  C   UNL     1      17.458  32.057  57.092  1.00  0.00     0.004 C 
ENDBRANCH  16  17
ENDBRANCH  15  16
ENDBRANCH  14  15
ENDBRANCH  13  14
ENDBRANCH  12  13
ENDBRANCH  11  12
ENDBRANCH   1  11
TORSDOF 14
ENDMDL
MODEL 7
REMARK VINA RESULT:    -4.355      5.120      7.788
REMARK INTER + INTRA:          -9.903
REMARK INTER:                  -9.054
REMARK INTRA:                  -0.849
REMARK UNBOUND:                -1.983
REMARK SMILES CCCCCCCCCCCCCCCC(=O)[O-]
REMARK SMILES IDX 9 1 10 2 11 3 12 4 13 5 14 6 15 7 16 8 17 9 18 10 8 11 7 12
REMARK SMILES IDX 6 13 5 14 4 15 3 16 2 17 1 18
REMARK H PARENT
REMARK Flexibility Score: inf
ROOT
ATOM      1  C   UNL     1      11.755  29.510  59.889  1.00  0.00     0.000 C 
ENDROOT
BRANCH   1   2
ATOM      2  C   UNL     1      10.270  29.417  59.518  1.00  0.00     0.000 C 
BRANCH   2   3
ATOM      3  C   UNL     1       9.430  28.974  60.722  1.00  0.00     0.000 C 
BRANCH   3   4
ATOM      4  C   UNL     1       7.938  29.256  60.488  1.00  0.00     0.000 C 
BRANCH   4   5
ATOM      5  C   UNL     1       7.382  30.315  61.465  1.00  0.00     0.000 C 
BRANCH   5   6
ATOM      6  C   UNL     1       6.395  31.299  60.808  1.00  0.00     0.006 C 
BRANCH   6   7
ATOM      7  C   UNL     1       6.968  32.039  59.591  1.00  0.00     0.053 C 
BRANCH   7   8
ATOM      8  C   UNL     1       6.244  33.325  59.328  1.00  0.00     0.041 C 
ATOM      9  O   UNL     1       6.892  34.380  59.099  1.00  0.00    -0.550 OA
ATOM     10  O   UNL     1       4.856  33.356  59.316  1.00  0.00    -0.550 OA
ENDBRANCH   7   8
ENDBRANCH   6   7
ENDBRANCH   5   6
ENDBRANCH   4   5
ENDBRANCH   3   4
ENDBRANCH   2   3
ENDBRANCH   1   2
BRANCH   1  11
ATOM     11  C   UNL     1      11.960  29.307  61.395  1.00  0.00     0.000 C 
BRANCH  11  12
ATOM     12  C   UNL     1      13.434  29.040  61.719  1.00  0.00    -0.000 C 
BRANCH  12  13
ATOM     13  C   UNL     1      14.339  30.107  61.084  1.00  0.00    -0.000 C 
BRANCH  13  14
ATOM     14  C   UNL     1      15.819  29.692  61.058  1.00  0.00    -0.000 C 
BRANCH  14  15
ATOM     15  C   UNL     1      16.415  29.547  62.470  1.00  0.00    -0.000 C 
BRANCH  15  16
ATOM     16  C   UNL     1      17.052  28.166  62.711  1.00  0.00    -0.000 C 
BRANCH  16  17
ATOM     17  C   UNL     1      16.610  27.464  64.008  1.00  0.00    -0.003 C 
ATOM     18  C   UNL     1      15.093  27.320  64.123  1.00  0.00     0.004 C 
ENDBRANCH  16  17
ENDBRANCH  15  16
ENDBRANCH  14  15
ENDBRANCH  13  14
ENDBRANCH  12  13
ENDBRANCH  11  12
ENDBRANCH   1  11
TORSDOF 14
ENDMDL
MODEL 8
REMARK VINA RESULT:    -4.275      2.368      4.358
REMARK INTER + INTRA:          -9.757
REMARK INTER:                  -7.319
REMARK INTRA:                  -2.438
REMARK UNBOUND:                -1.983
REMARK SMILES CCCCCCCCCCCCCCCC(=O)[O-]
REMARK SMILES IDX 9 1 10 2 11 3 12 4 13 5 14 6 15 7 16 8 17 9 18 10 8 11 7 12
REMARK SMILES IDX 6 13 5 14 4 15 3 16 2 17 1 18
REMARK H PARENT
REMARK Flexibility Score: inf
ROOT
ATOM      1  C   UNL     1      14.709  30.455  55.237  1.00  0.00     0.000 C 
ENDROOT
BRANCH   1   2
ATOM      2  C   UNL     1      13.507  31.144  55.892  1.00  0.00     0.000 C 
BRANCH   2   3
ATOM      3  C   UNL     1      13.506  30.922  57.410  1.00  0.00     0.000 C 
BRANCH   3   4
ATOM      4  C   UNL     1      14.589  29.913  57.820  1.00  0.00     0.000 C 
BRANCH   4   5
ATOM      5  C   UNL     1      15.031  30.095  59.290  1.00  0.00     0.000 C 
BRANCH   5   6
ATOM      6  C   UNL     1      13.889  30.533  60.225  1.00  0.00     0.006 C 
BRANCH   6   7
ATOM      7  C   UNL     1      13.706  29.630  61.454  1.00  0.00     0.053 C 
BRANCH   7   8
ATOM      8  C   UNL     1      12.356  28.981  61.474  1.00  0.00     0.041 C 
ATOM      9  O   UNL     1      11.349  29.628  61.868  1.00  0.00    -0.550 OA
ATOM     10  O   UNL     1      12.203  27.670  61.042  1.00  0.00    -0.550 OA
ENDBRANCH   7   8
ENDBRANCH   6   7
ENDBRANCH   5   6
ENDBRANCH   4   5
ENDBRANCH   3   4
ENDBRANCH   2   3
ENDBRANCH   1   2
BRANCH   1  11
ATOM     11  C   UNL     1      15.269  31.302  54.087  1.00  0.00     0.000 C 
BRANCH  11  12
ATOM     12  C   UNL     1      16.797  31.398  54.166  1.00  0.00    -0.000 C 
BRANCH  12  13
ATOM     13  C   UNL     1      17.307  30.934  55.540  1.00  0.00    -0.000 C 
BRANCH  13  14
ATOM     14  C   UNL     1      18.071  32.035  56.293  1.00  0.00    -0.000 C 
BRANCH  14  15
ATOM     15  C   UNL     1      17.541  32.250  57.721  1.00  0.00    -0.000 C 
BRANCH  15  16
ATOM     16  C   UNL     1      16.352  33.228  57.777  1.00  0.00    -0.000 C 
BRANCH  16  17
ATOM     17  C   UNL     1      16.390  34.359  56.733  1.00  0.00    -0.003 C 
ATOM     18  C   UNL     1      15.062  34.541  56.000  1.00  0.00     0.004 C 
ENDBRANCH  16  17
ENDBRANCH  15  16
ENDBRANCH  14  15
ENDBRANCH  13  14
ENDBRANCH  12  13
ENDBRANCH  11  12
ENDBRANCH   1  11
TORSDOF 14
ENDMDL
MODEL 9
REMARK VINA RESULT:    -4.226      1.937      3.613
REMARK INTER + INTRA:          -9.667
REMARK INTER:                  -7.204
REMARK INTRA:                  -2.463
REMARK UNBOUND:                -1.983
REMARK SMILES CCCCCCCCCCCCCCCC(=O)[O-]
REMARK SMILES IDX 9 1 10 2 11 3 12 4 13 5 14 6 15 7 16 8 17 9 18 10 8 11 7 12
REMARK SMILES IDX 6 13 5 14 4 15 3 16 2 17 1 18
REMARK H PARENT
REMARK Flexibility Score: inf
ROOT
ATOM      1  C   UNL     1      14.613  30.276  55.808  1.00  0.00     0.000 C 
ENDROOT
BRANCH   1   2
ATOM      2  C   UNL     1      13.416  31.025  56.405  1.00  0.00     0.000 C 
BRANCH   2   3
ATOM      3  C   UNL     1      13.325  30.797  57.919  1.00  0.00     0.000 C 
BRANCH   3   4
ATOM      4  C   UNL     1      14.522  29.981  58.428  1.00  0.00     0.000 C 
BRANCH   4   5
ATOM      5  C   UNL     1      14.717  30.115  59.954  1.00  0.00     0.000 C 
BRANCH   5   6
ATOM      6  C   UNL     1      16.192  30.066  60.392  1.00  0.00     0.006 C 
BRANCH   6   7
ATOM      7  C   UNL     1      16.392  30.048  61.915  1.00  0.00     0.053 C 
BRANCH   7   8
ATOM      8  C   UNL     1      16.449  28.651  62.454  1.00  0.00     0.041 C 
ATOM      9  O   UNL     1      15.446  28.156  63.033  1.00  0.00    -0.550 OA
ATOM     10  O   UNL     1      17.599  27.888  62.302  1.00  0.00    -0.550 OA
ENDBRANCH   7   8
ENDBRANCH   6   7
ENDBRANCH   5   6
ENDBRANCH   4   5
ENDBRANCH   3   4
ENDBRANCH   2   3
ENDBRANCH   1   2
BRANCH   1  11
ATOM     11  C   UNL     1      15.103  30.956  54.524  1.00  0.00     0.000 C 
BRANCH  11  12
ATOM     12  C   UNL     1      16.634  30.998  54.471  1.00  0.00    -0.000 C 
BRANCH  12  13
ATOM     13  C   UNL     1      17.236  30.882  55.880  1.00  0.00    -0.000 C 
BRANCH  13  14
ATOM     14  C   UNL     1      17.723  32.232  56.431  1.00  0.00    -0.000 C 
BRANCH  14  15
ATOM     15  C   UNL     1      17.112  32.564  57.804  1.00  0.00    -0.000 C 
BRANCH  15  16
ATOM     16  C   UNL     1      15.861  33.456  57.703  1.00  0.00    -0.000 C 
BRANCH  16  17
ATOM     17  C   UNL     1      15.884  34.479  56.553  1.00  0.00    -0.003 C 
ATOM     18  C   UNL     1      14.619  34.443  55.696  1.00  0.00     0.004 C 
ENDBRANCH  16  17
ENDBRANCH  15  16
ENDBRANCH  14  15
ENDBRANCH  13  14
ENDBRANCH  12  13
ENDBRANCH  11  12
ENDBRANCH   1  11
TORSDOF 14
ENDMDL
