MODEL 1
REMARK VINA RESULT:    -4.119      0.000      0.000
REMARK INTER + INTRA:          -4.501
REMARK INTER:                  -4.480
REMARK INTRA:                  -0.021
REMARK UNBOUND:                -0.021
REMARK SMILES OCc1ccco1
REMARK SMILES IDX 2 1 3 2 5 3 6 4 4 5 7 6 1 7
REMARK H PARENT 1 8
REMARK Flexibility Score: inf
ROOT
ATOM      1  C   UNL     1     -48.051  25.280 -17.392  1.00  0.00     0.231 C 
ENDROOT
BRANCH   1   2
ATOM      2  C   UNL     1     -46.763  25.771 -17.974  1.00  0.00     0.129 A 
ATOM      3  C   UNL     1     -45.038  27.025 -18.495  1.00  0.00     0.042 A 
ATOM      4  C   UNL     1     -44.906  25.754 -19.018  1.00  0.00     0.195 A 
ATOM      5  C   UNL     1     -46.238  27.037 -17.817  1.00  0.00     0.048 A 
ATOM      6  O   UNL     1     -45.949  25.029 -18.688  1.00  0.00    -0.467 OA
ENDBRANCH   1   2
BRANCH   1   7
ATOM      7  O   UNL     1     -48.081  23.881 -17.406  1.00  0.00    -0.388 OA
ATOM      8  H   UNL     1     -47.188  23.575 -17.097  1.00  0.00     0.211 HD
ENDBRANCH   1   7
TORSDOF 2
ENDMDL
MODEL 2
REMARK VINA RESULT:    -4.092      3.553      5.685
REMARK INTER + INTRA:          -4.472
REMARK INTER:                  -4.455
REMARK INTRA:                  -0.018
REMARK UNBOUND:                -0.021
REMARK SMILES OCc1ccco1
REMARK SMILES IDX 2 1 3 2 5 3 6 4 4 5 7 6 1 7
REMARK H PARENT 1 8
REMARK Flexibility Score: inf
ROOT
ATOM      1  C   UNL     1     -48.520  24.540 -15.836  1.00  0.00     0.231 C 
ENDROOT
BRANCH   1   2
ATOM      2  C   UNL     1     -49.928  24.462 -15.336  1.00  0.00     0.129 A 
ATOM      3  C   UNL     1     -51.956  24.993 -14.683  1.00  0.00     0.042 A 
ATOM      4  C   UNL     1     -51.780  23.624 -14.697  1.00  0.00     0.195 A 
ATOM      5  C   UNL     1     -50.760  25.537 -15.099  1.00  0.00     0.048 A 
ATOM      6  O   UNL     1     -50.562  23.339 -15.094  1.00  0.00    -0.467 OA
ENDBRANCH   1   2
BRANCH   1   7
ATOM      7  O   UNL     1     -48.383  23.778 -17.003  1.00  0.00    -0.388 OA
ATOM      8  H   UNL     1     -48.732  24.334 -17.748  1.00  0.00     0.211 HD
ENDBRANCH   1   7
TORSDOF 2
ENDMDL
MODEL 3
REMARK VINA RESULT:    -3.850      3.047      3.576
REMARK INTER + INTRA:          -4.209
REMARK INTER:                  -4.191
REMARK INTRA:                  -0.018
REMARK UNBOUND:                -0.021
REMARK SMILES OCc1ccco1
REMARK SMILES IDX 2 1 3 2 5 3 6 4 4 5 7 6 1 7
REMARK H PARENT 1 8
REMARK Flexibility Score: inf
ROOT
ATOM      1  C   UNL     1     -48.814  24.314 -15.816  1.00  0.00     0.231 C 
ENDROOT
BRANCH   1   2
ATOM      2  C   UNL     1     -47.815  25.232 -15.186  1.00  0.00     0.129 A 
ATOM      3  C   UNL     1     -46.433  26.173 -13.762  1.00  0.00     0.042 A 
ATOM      4  C   UNL     1     -46.390  26.804 -14.989  1.00  0.00     0.195 A 
ATOM      5  C   UNL     1     -47.353  25.153 -13.889  1.00  0.00     0.048 A 
ATOM      6  O   UNL     1     -47.223  26.219 -15.818  1.00  0.00    -0.467 OA
ENDBRANCH   1   2
BRANCH   1   7
ATOM      7  O   UNL     1     -48.308  23.807 -17.019  1.00  0.00    -0.388 OA
ATOM      8  H   UNL     1     -49.005  23.964 -17.709  1.00  0.00     0.211 HD
ENDBRANCH   1   7
TORSDOF 2
ENDMDL
MODEL 4
REMARK VINA RESULT:    -3.799      2.416      3.674
REMARK INTER + INTRA:          -4.153
REMARK INTER:                  -4.139
REMARK INTRA:                  -0.014
REMARK UNBOUND:                -0.021
REMARK SMILES OCc1ccco1
REMARK SMILES IDX 2 1 3 2 5 3 6 4 4 5 7 6 1 7
REMARK H PARENT 1 8
REMARK Flexibility Score: inf
ROOT
ATOM      1  C   UNL     1     -47.899  25.134 -17.568  1.00  0.00     0.231 C 
ENDROOT
BRANCH   1   2
ATOM      2  C   UNL     1     -48.192  25.944 -16.345  1.00  0.00     0.129 A 
ATOM      3  C   UNL     1     -49.214  27.150 -14.821  1.00  0.00     0.042 A 
ATOM      4  C   UNL     1     -47.915  26.874 -14.447  1.00  0.00     0.195 A 
ATOM      5  C   UNL     1     -49.397  26.547 -16.047  1.00  0.00     0.048 A 
ATOM      6  O   UNL     1     -47.332  26.150 -15.375  1.00  0.00    -0.467 OA
ENDBRANCH   1   2
BRANCH   1   7
ATOM      7  O   UNL     1     -48.183  23.784 -17.328  1.00  0.00    -0.388 OA
ATOM      8  H   UNL     1     -47.322  23.295 -17.402  1.00  0.00     0.211 HD
ENDBRANCH   1   7
TORSDOF 2
ENDMDL
MODEL 5
REMARK VINA RESULT:    -3.797      2.567      2.808
REMARK INTER + INTRA:          -4.151
REMARK INTER:                  -4.138
REMARK INTRA:                  -0.013
REMARK UNBOUND:                -0.021
REMARK SMILES OCc1ccco1
REMARK SMILES IDX 2 1 3 2 5 3 6 4 4 5 7 6 1 7
REMARK H PARENT 1 8
REMARK Flexibility Score: inf
ROOT
ATOM      1  C   UNL     1     -48.642  24.721 -16.107  1.00  0.00     0.231 C 
ENDROOT
BRANCH   1   2
ATOM      2  C   UNL     1     -48.315  26.072 -16.660  1.00  0.00     0.129 A 
ATOM      3  C   UNL     1     -48.218  27.843 -17.955  1.00  0.00     0.042 A 
ATOM      4  C   UNL     1     -47.538  28.053 -16.773  1.00  0.00     0.195 A 
ATOM      5  C   UNL     1     -48.725  26.562 -17.883  1.00  0.00     0.048 A 
ATOM      6  O   UNL     1     -47.616  26.980 -16.020  1.00  0.00    -0.467 OA
ENDBRANCH   1   2
BRANCH   1   7
ATOM      7  O   UNL     1     -48.289  23.727 -17.028  1.00  0.00    -0.388 OA
ATOM      8  H   UNL     1     -47.975  24.196 -17.845  1.00  0.00     0.211 HD
ENDBRANCH   1   7
TORSDOF 2
ENDMDL
MODEL 6
REMARK VINA RESULT:    -3.744      2.271      3.711
REMARK INTER + INTRA:          -4.093
REMARK INTER:                  -4.076
REMARK INTRA:                  -0.018
REMARK UNBOUND:                -0.021
REMARK SMILES OCc1ccco1
REMARK SMILES IDX 2 1 3 2 5 3 6 4 4 5 7 6 1 7
REMARK H PARENT 1 8
REMARK Flexibility Score: inf
ROOT
ATOM      1  C   UNL     1     -47.689  25.135 -17.739  1.00  0.00     0.231 C 
ENDROOT
BRANCH   1   2
ATOM      2  C   UNL     1     -48.623  26.174 -17.205  1.00  0.00     0.129 A 
ATOM      3  C   UNL     1     -50.050  27.836 -17.054  1.00  0.00     0.042 A 
ATOM      4  C   UNL     1     -49.809  27.273 -15.817  1.00  0.00     0.195 A 
ATOM      5  C   UNL     1     -49.286  27.124 -17.954  1.00  0.00     0.048 A 
ATOM      6  O   UNL     1     -48.956  26.283 -15.940  1.00  0.00    -0.467 OA
ENDBRANCH   1   2
BRANCH   1   7
ATOM      7  O   UNL     1     -48.126  23.859 -17.364  1.00  0.00    -0.388 OA
ATOM      8  H   UNL     1     -48.697  23.525 -18.105  1.00  0.00     0.211 HD
ENDBRANCH   1   7
TORSDOF 2
ENDMDL
MODEL 7
REMARK VINA RESULT:    -3.645      4.699      5.783
REMARK INTER + INTRA:          -3.986
REMARK INTER:                  -3.970
REMARK INTRA:                  -0.016
REMARK UNBOUND:                -0.021
REMARK SMILES OCc1ccco1
REMARK SMILES IDX 2 1 3 2 5 3 6 4 4 5 7 6 1 7
REMARK H PARENT 1 8
REMARK Flexibility Score: inf
ROOT
ATOM      1  C   UNL     1     -51.729  23.033 -14.496  1.00  0.00     0.231 C 
ENDROOT
BRANCH   1   2
ATOM      2  C   UNL     1     -51.222  24.394 -14.856  1.00  0.00     0.129 A 
ATOM      3  C   UNL     1     -51.094  26.551 -15.248  1.00  0.00     0.042 A 
ATOM      4  C   UNL     1     -49.860  25.947 -15.379  1.00  0.00     0.195 A 
ATOM      5  C   UNL     1     -51.977  25.548 -14.906  1.00  0.00     0.048 A 
ATOM      6  O   UNL     1     -49.968  24.661 -15.137  1.00  0.00    -0.467 OA
ENDBRANCH   1   2
BRANCH   1   7
ATOM      7  O   UNL     1     -51.436  22.127 -15.522  1.00  0.00    -0.388 OA
ATOM      8  H   UNL     1     -52.143  21.430 -15.496  1.00  0.00     0.211 HD
ENDBRANCH   1   7
TORSDOF 2
ENDMDL
MODEL 8
REMARK VINA RESULT:    -3.587     14.357     15.451
REMARK INTER + INTRA:          -3.923
REMARK INTER:                  -3.906
REMARK INTRA:                  -0.017
REMARK UNBOUND:                -0.021
REMARK SMILES OCc1ccco1
REMARK SMILES IDX 2 1 3 2 5 3 6 4 4 5 7 6 1 7
REMARK H PARENT 1 8
REMARK Flexibility Score: inf
ROOT
ATOM      1  C   UNL     1     -45.460  12.249 -14.278  1.00  0.00     0.231 C 
ENDROOT
BRANCH   1   2
ATOM      2  C   UNL     1     -46.524  11.198 -14.244  1.00  0.00     0.129 A 
ATOM      3  C   UNL     1     -47.616   9.327 -13.885  1.00  0.00     0.042 A 
ATOM      4  C   UNL     1     -48.431  10.274 -14.473  1.00  0.00     0.195 A 
ATOM      5  C   UNL     1     -46.383   9.924 -13.733  1.00  0.00     0.048 A 
ATOM      6  O   UNL     1     -47.751  11.380 -14.672  1.00  0.00    -0.467 OA
ENDBRANCH   1   2
BRANCH   1   7
ATOM      7  O   UNL     1     -45.891  13.389 -13.590  1.00  0.00    -0.388 OA
ATOM      8  H   UNL     1     -45.419  14.162 -13.997  1.00  0.00     0.211 HD
ENDBRANCH   1   7
TORSDOF 2
ENDMDL
MODEL 9
REMARK VINA RESULT:    -3.573      1.126      2.669
REMARK INTER + INTRA:          -3.907
REMARK INTER:                  -3.886
REMARK INTRA:                  -0.021
REMARK UNBOUND:                -0.021
REMARK SMILES OCc1ccco1
REMARK SMILES IDX 2 1 3 2 5 3 6 4 4 5 7 6 1 7
REMARK H PARENT 1 8
REMARK Flexibility Score: inf
ROOT
ATOM      1  C   UNL     1     -45.101  25.496 -18.852  1.00  0.00     0.231 C 
ENDROOT
BRANCH   1   2
ATOM      2  C   UNL     1     -46.390  26.005 -18.291  1.00  0.00     0.129 A 
ATOM      3  C   UNL     1     -48.008  27.325 -17.612  1.00  0.00     0.042 A 
ATOM      4  C   UNL     1     -48.368  25.998 -17.499  1.00  0.00     0.195 A 
ATOM      5  C   UNL     1     -46.729  27.333 -18.127  1.00  0.00     0.048 A 
ATOM      6  O   UNL     1     -47.384  25.235 -17.915  1.00  0.00    -0.467 OA
ENDBRANCH   1   2
BRANCH   1   7
ATOM      7  O   UNL     1     -45.246  24.162 -19.252  1.00  0.00    -0.388 OA
ATOM      8  H   UNL     1     -46.086  23.831 -18.839  1.00  0.00     0.211 HD
ENDBRANCH   1   7
TORSDOF 2
ENDMDL
