MODEL 1
REMARK VINA RESULT:    -4.119      0.000      0.000
REMARK INTER + INTRA:          -9.559
REMARK INTER:                  -7.491
REMARK INTRA:                  -2.068
REMARK UNBOUND:                -2.068
REMARK SMILES CCCCCCCCCCCCCCCC(=O)[O-]
REMARK SMILES IDX 9 1 10 2 11 3 12 4 13 5 14 6 15 7 16 8 17 9 18 10 8 11 7 12
REMARK SMILES IDX 6 13 5 14 4 15 3 16 2 17 1 18
REMARK H PARENT
REMARK Flexibility Score: inf
ROOT
ATOM      1  C   UNL     1      31.502  78.146   9.922  1.00  0.00     0.000 C 
ENDROOT
BRANCH   1   2
ATOM      2  C   UNL     1      32.490  78.624  10.997  1.00  0.00     0.000 C 
BRANCH   2   3
ATOM      3  C   UNL     1      31.882  78.622  12.410  1.00  0.00     0.000 C 
BRANCH   3   4
ATOM      4  C   UNL     1      32.813  78.090  13.520  1.00  0.00     0.000 C 
BRANCH   4   5
ATOM      5  C   UNL     1      33.025  79.041  14.713  1.00  0.00     0.000 C 
BRANCH   5   6
ATOM      6  C   UNL     1      31.736  79.615  15.333  1.00  0.00     0.006 C 
BRANCH   6   7
ATOM      7  C   UNL     1      31.657  81.152  15.297  1.00  0.00     0.053 C 
BRANCH   7   8
ATOM      8  C   UNL     1      32.409  81.790  16.424  1.00  0.00     0.041 C 
ATOM      9  O   UNL     1      33.147  82.788  16.211  1.00  0.00    -0.550 OA
ATOM     10  O   UNL     1      32.326  81.261  17.706  1.00  0.00    -0.550 OA
ENDBRANCH   7   8
ENDBRANCH   6   7
ENDBRANCH   5   6
ENDBRANCH   4   5
ENDBRANCH   3   4
ENDBRANCH   2   3
ENDBRANCH   1   2
BRANCH   1  11
ATOM     11  C   UNL     1      32.223  77.349   8.828  1.00  0.00     0.000 C 
BRANCH  11  12
ATOM     12  C   UNL     1      33.691  77.787   8.703  1.00  0.00    -0.000 C 
BRANCH  12  13
ATOM     13  C   UNL     1      34.660  76.586   8.707  1.00  0.00    -0.000 C 
BRANCH  13  14
ATOM     14  C   UNL     1      34.173  75.403   9.562  1.00  0.00    -0.000 C 
BRANCH  14  15
ATOM     15  C   UNL     1      34.604  75.511  11.031  1.00  0.00    -0.000 C 
BRANCH  15  16
ATOM     16  C   UNL     1      33.668  74.705  11.940  1.00  0.00    -0.000 C 
BRANCH  16  17
ATOM     17  C   UNL     1      32.328  74.435  11.246  1.00  0.00    -0.003 C 
ATOM     18  C   UNL     1      31.166  75.013  12.050  1.00  0.00     0.004 C 
ENDBRANCH  16  17
ENDBRANCH  15  16
ENDBRANCH  14  15
ENDBRANCH  13  14
ENDBRANCH  12  13
ENDBRANCH  11  12
ENDBRANCH   1  11
TORSDOF 14
ENDMDL
MODEL 2
REMARK VINA RESULT:    -4.098      1.804      3.170
REMARK INTER + INTRA:          -9.519
REMARK INTER:                  -7.318
REMARK INTRA:                  -2.201
REMARK UNBOUND:                -2.068
REMARK SMILES CCCCCCCCCCCCCCCC(=O)[O-]
REMARK SMILES IDX 9 1 10 2 11 3 12 4 13 5 14 6 15 7 16 8 17 9 18 10 8 11 7 12
REMARK SMILES IDX 6 13 5 14 4 15 3 16 2 17 1 18
REMARK H PARENT
REMARK Flexibility Score: inf
ROOT
ATOM      1  C   UNL     1      35.847  75.725  10.297  1.00  0.00     0.000 C 
ENDROOT
BRANCH   1   2
ATOM      2  C   UNL     1      36.268  77.052  10.946  1.00  0.00     0.000 C 
BRANCH   2   3
ATOM      3  C   UNL     1      35.097  77.782  11.626  1.00  0.00     0.000 C 
BRANCH   3   4
ATOM      4  C   UNL     1      33.950  78.200  10.682  1.00  0.00     0.000 C 
BRANCH   4   5
ATOM      5  C   UNL     1      32.574  78.368  11.352  1.00  0.00     0.000 C 
BRANCH   5   6
ATOM      6  C   UNL     1      32.549  78.116  12.872  1.00  0.00     0.006 C 
BRANCH   6   7
ATOM      7  C   UNL     1      32.054  79.318  13.696  1.00  0.00     0.053 C 
BRANCH   7   8
ATOM      8  C   UNL     1      32.512  79.263  15.122  1.00  0.00     0.041 C 
ATOM      9  O   UNL     1      33.625  78.751  15.413  1.00  0.00    -0.550 OA
ATOM     10  O   UNL     1      31.693  79.744  16.136  1.00  0.00    -0.550 OA
ENDBRANCH   7   8
ENDBRANCH   6   7
ENDBRANCH   5   6
ENDBRANCH   4   5
ENDBRANCH   3   4
ENDBRANCH   2   3
ENDBRANCH   1   2
BRANCH   1  11
ATOM     11  C   UNL     1      36.544  75.528   8.946  1.00  0.00     0.000 C 
BRANCH  11  12
ATOM     12  C   UNL     1      35.529  75.188   7.844  1.00  0.00    -0.000 C 
BRANCH  12  13
ATOM     13  C   UNL     1      34.458  76.287   7.679  1.00  0.00    -0.000 C 
BRANCH  13  14
ATOM     14  C   UNL     1      33.024  75.740   7.573  1.00  0.00    -0.000 C 
BRANCH  14  15
ATOM     15  C   UNL     1      32.790  74.502   8.448  1.00  0.00    -0.000 C 
BRANCH  15  16
ATOM     16  C   UNL     1      32.348  74.902   9.860  1.00  0.00    -0.000 C 
BRANCH  16  17
ATOM     17  C   UNL     1      32.767  73.844  10.888  1.00  0.00    -0.003 C 
ATOM     18  C   UNL     1      32.972  74.465  12.267  1.00  0.00     0.004 C 
ENDBRANCH  16  17
ENDBRANCH  15  16
ENDBRANCH  14  15
ENDBRANCH  13  14
ENDBRANCH  12  13
ENDBRANCH  11  12
ENDBRANCH   1  11
TORSDOF 14
ENDMDL
MODEL 3
REMARK VINA RESULT:    -4.045      1.518      2.406
REMARK INTER + INTRA:          -9.424
REMARK INTER:                  -8.192
REMARK INTRA:                  -1.232
REMARK UNBOUND:                -2.068
REMARK SMILES CCCCCCCCCCCCCCCC(=O)[O-]
REMARK SMILES IDX 9 1 10 2 11 3 12 4 13 5 14 6 15 7 16 8 17 9 18 10 8 11 7 12
REMARK SMILES IDX 6 13 5 14 4 15 3 16 2 17 1 18
REMARK H PARENT
REMARK Flexibility Score: inf
ROOT
ATOM      1  C   UNL     1      31.633  78.429  10.109  1.00  0.00     0.000 C 
ENDROOT
BRANCH   1   2
ATOM      2  C   UNL     1      32.570  78.889  11.236  1.00  0.00     0.000 C 
BRANCH   2   3
ATOM      3  C   UNL     1      32.919  77.760  12.221  1.00  0.00     0.000 C 
BRANCH   3   4
ATOM      4  C   UNL     1      32.314  77.914  13.632  1.00  0.00     0.000 C 
BRANCH   4   5
ATOM      5  C   UNL     1      31.556  79.231  13.883  1.00  0.00     0.000 C 
BRANCH   5   6
ATOM      6  C   UNL     1      31.627  79.765  15.327  1.00  0.00     0.006 C 
BRANCH   6   7
ATOM      7  C   UNL     1      31.456  81.291  15.438  1.00  0.00     0.053 C 
BRANCH   7   8
ATOM      8  C   UNL     1      32.317  81.888  16.508  1.00  0.00     0.041 C 
ATOM      9  O   UNL     1      32.264  81.447  17.686  1.00  0.00    -0.550 OA
ATOM     10  O   UNL     1      33.154  82.958  16.213  1.00  0.00    -0.550 OA
ENDBRANCH   7   8
ENDBRANCH   6   7
ENDBRANCH   5   6
ENDBRANCH   4   5
ENDBRANCH   3   4
ENDBRANCH   2   3
ENDBRANCH   1   2
BRANCH   1  11
ATOM     11  C   UNL     1      32.424  77.775   8.970  1.00  0.00     0.000 C 
BRANCH  11  12
ATOM     12  C   UNL     1      32.050  76.292   8.818  1.00  0.00    -0.000 C 
BRANCH  12  13
ATOM     13  C   UNL     1      33.275  75.411   8.496  1.00  0.00    -0.000 C 
BRANCH  13  14
ATOM     14  C   UNL     1      34.564  76.214   8.249  1.00  0.00    -0.000 C 
BRANCH  14  15
ATOM     15  C   UNL     1      35.835  75.365   8.397  1.00  0.00    -0.000 C 
BRANCH  15  16
ATOM     16  C   UNL     1      36.703  75.872   9.553  1.00  0.00    -0.000 C 
BRANCH  16  17
ATOM     17  C   UNL     1      35.836  76.430  10.688  1.00  0.00    -0.003 C 
ATOM     18  C   UNL     1      36.501  77.636  11.348  1.00  0.00     0.004 C 
ENDBRANCH  16  17
ENDBRANCH  15  16
ENDBRANCH  14  15
ENDBRANCH  13  14
ENDBRANCH  12  13
ENDBRANCH  11  12
ENDBRANCH   1  11
TORSDOF 14
ENDMDL
MODEL 4
REMARK VINA RESULT:    -3.969      1.613      2.480
REMARK INTER + INTRA:          -9.285
REMARK INTER:                  -7.203
REMARK INTRA:                  -2.083
REMARK UNBOUND:                -2.068
REMARK SMILES CCCCCCCCCCCCCCCC(=O)[O-]
REMARK SMILES IDX 9 1 10 2 11 3 12 4 13 5 14 6 15 7 16 8 17 9 18 10 8 11 7 12
REMARK SMILES IDX 6 13 5 14 4 15 3 16 2 17 1 18
REMARK H PARENT
REMARK Flexibility Score: inf
ROOT
ATOM      1  C   UNL     1      32.376  78.960  11.588  1.00  0.00     0.000 C 
ENDROOT
BRANCH   1   2
ATOM      2  C   UNL     1      33.208  78.233  12.654  1.00  0.00     0.000 C 
BRANCH   2   3
ATOM      3  C   UNL     1      32.344  77.426  13.639  1.00  0.00     0.000 C 
BRANCH   3   4
ATOM      4  C   UNL     1      32.544  77.782  15.127  1.00  0.00     0.000 C 
BRANCH   4   5
ATOM      5  C   UNL     1      33.287  79.104  15.393  1.00  0.00     0.000 C 
BRANCH   5   6
ATOM      6  C   UNL     1      32.408  80.259  15.912  1.00  0.00     0.006 C 
BRANCH   6   7
ATOM      7  C   UNL     1      31.477  80.863  14.844  1.00  0.00     0.053 C 
BRANCH   7   8
ATOM      8  C   UNL     1      30.049  80.448  15.028  1.00  0.00     0.041 C 
ATOM      9  O   UNL     1      29.361  80.935  15.963  1.00  0.00    -0.550 OA
ATOM     10  O   UNL     1      29.487  79.495  14.188  1.00  0.00    -0.550 OA
ENDBRANCH   7   8
ENDBRANCH   6   7
ENDBRANCH   5   6
ENDBRANCH   4   5
ENDBRANCH   3   4
ENDBRANCH   2   3
ENDBRANCH   1   2
BRANCH   1  11
ATOM     11  C   UNL     1      31.412  77.994  10.890  1.00  0.00     0.000 C 
BRANCH  11  12
ATOM     12  C   UNL     1      31.400  78.227   9.371  1.00  0.00    -0.000 C 
BRANCH  12  13
ATOM     13  C   UNL     1      32.294  77.219   8.619  1.00  0.00    -0.000 C 
BRANCH  13  14
ATOM     14  C   UNL     1      33.776  77.629   8.563  1.00  0.00    -0.000 C 
BRANCH  14  15
ATOM     15  C   UNL     1      34.718  76.542   9.097  1.00  0.00    -0.000 C 
BRANCH  15  16
ATOM     16  C   UNL     1      33.931  75.420   9.783  1.00  0.00    -0.000 C 
BRANCH  16  17
ATOM     17  C   UNL     1      34.464  75.160  11.197  1.00  0.00    -0.003 C 
ATOM     18  C   UNL     1      33.495  74.299  12.002  1.00  0.00     0.004 C 
ENDBRANCH  16  17
ENDBRANCH  15  16
ENDBRANCH  14  15
ENDBRANCH  13  14
ENDBRANCH  12  13
ENDBRANCH  11  12
ENDBRANCH   1  11
TORSDOF 14
ENDMDL
MODEL 5
REMARK VINA RESULT:    -3.958      1.694      3.676
REMARK INTER + INTRA:          -9.266
REMARK INTER:                  -7.118
REMARK INTRA:                  -2.148
REMARK UNBOUND:                -2.068
REMARK SMILES CCCCCCCCCCCCCCCC(=O)[O-]
REMARK SMILES IDX 9 1 10 2 11 3 12 4 13 5 14 6 15 7 16 8 17 9 18 10 8 11 7 12
REMARK SMILES IDX 6 13 5 14 4 15 3 16 2 17 1 18
REMARK H PARENT
REMARK Flexibility Score: inf
ROOT
ATOM      1  C   UNL     1      31.825  74.634  10.372  1.00  0.00     0.000 C 
ENDROOT
BRANCH   1   2
ATOM      2  C   UNL     1      31.136  75.905   9.851  1.00  0.00     0.000 C 
BRANCH   2   3
ATOM      3  C   UNL     1      31.039  77.011  10.916  1.00  0.00     0.000 C 
BRANCH   3   4
ATOM      4  C   UNL     1      31.596  78.383  10.485  1.00  0.00     0.000 C 
BRANCH   4   5
ATOM      5  C   UNL     1      32.506  79.077  11.516  1.00  0.00     0.000 C 
BRANCH   5   6
ATOM      6  C   UNL     1      32.424  78.514  12.948  1.00  0.00     0.006 C 
BRANCH   6   7
ATOM      7  C   UNL     1      31.804  79.487  13.967  1.00  0.00     0.053 C 
BRANCH   7   8
ATOM      8  C   UNL     1      32.423  79.365  15.326  1.00  0.00     0.041 C 
ATOM      9  O   UNL     1      33.580  78.885  15.457  1.00  0.00    -0.550 OA
ATOM     10  O   UNL     1      31.709  79.748  16.455  1.00  0.00    -0.550 OA
ENDBRANCH   7   8
ENDBRANCH   6   7
ENDBRANCH   5   6
ENDBRANCH   4   5
ENDBRANCH   3   4
ENDBRANCH   2   3
ENDBRANCH   1   2
BRANCH   1  11
ATOM     11  C   UNL     1      32.560  74.909  11.689  1.00  0.00     0.000 C 
BRANCH  11  12
ATOM     12  C   UNL     1      34.082  74.801  11.504  1.00  0.00    -0.000 C 
BRANCH  12  13
ATOM     13  C   UNL     1      34.756  76.185  11.393  1.00  0.00    -0.000 C 
BRANCH  13  14
ATOM     14  C   UNL     1      35.497  76.404  10.062  1.00  0.00    -0.000 C 
BRANCH  14  15
ATOM     15  C   UNL     1      34.559  76.800   8.913  1.00  0.00    -0.000 C 
BRANCH  15  16
ATOM     16  C   UNL     1      34.835  75.957   7.663  1.00  0.00    -0.000 C 
BRANCH  16  17
ATOM     17  C   UNL     1      36.123  75.141   7.824  1.00  0.00    -0.003 C 
ATOM     18  C   UNL     1      36.439  74.353   6.555  1.00  0.00     0.004 C 
ENDBRANCH  16  17
ENDBRANCH  15  16
ENDBRANCH  14  15
ENDBRANCH  13  14
ENDBRANCH  12  13
ENDBRANCH  11  12
ENDBRANCH   1  11
TORSDOF 14
ENDMDL
MODEL 6
REMARK VINA RESULT:    -3.904      1.432      2.847
REMARK INTER + INTRA:          -9.167
REMARK INTER:                  -7.266
REMARK INTRA:                  -1.901
REMARK UNBOUND:                -2.068
REMARK SMILES CCCCCCCCCCCCCCCC(=O)[O-]
REMARK SMILES IDX 9 1 10 2 11 3 12 4 13 5 14 6 15 7 16 8 17 9 18 10 8 11 7 12
REMARK SMILES IDX 6 13 5 14 4 15 3 16 2 17 1 18
REMARK H PARENT
REMARK Flexibility Score: inf
ROOT
ATOM      1  C   UNL     1      32.916  74.322  11.076  1.00  0.00     0.000 C 
ENDROOT
BRANCH   1   2
ATOM      2  C   UNL     1      32.732  75.313  12.234  1.00  0.00     0.000 C 
BRANCH   2   3
ATOM      3  C   UNL     1      31.826  76.501  11.867  1.00  0.00     0.000 C 
BRANCH   3   4
ATOM      4  C   UNL     1      32.392  77.890  12.228  1.00  0.00     0.000 C 
BRANCH   4   5
ATOM      5  C   UNL     1      32.689  78.112  13.723  1.00  0.00     0.000 C 
BRANCH   5   6
ATOM      6  C   UNL     1      32.011  79.345  14.352  1.00  0.00     0.006 C 
BRANCH   6   7
ATOM      7  C   UNL     1      32.667  79.817  15.662  1.00  0.00     0.053 C 
BRANCH   7   8
ATOM      8  C   UNL     1      32.079  81.099  16.167  1.00  0.00     0.041 C 
ATOM      9  O   UNL     1      32.734  82.171  16.096  1.00  0.00    -0.550 OA
ATOM     10  O   UNL     1      30.818  81.104  16.752  1.00  0.00    -0.550 OA
ENDBRANCH   7   8
ENDBRANCH   6   7
ENDBRANCH   5   6
ENDBRANCH   4   5
ENDBRANCH   3   4
ENDBRANCH   2   3
ENDBRANCH   1   2
BRANCH   1  11
ATOM     11  C   UNL     1      31.962  74.646   9.920  1.00  0.00     0.000 C 
BRANCH  11  12
ATOM     12  C   UNL     1      32.733  74.838   8.605  1.00  0.00    -0.000 C 
BRANCH  12  13
ATOM     13  C   UNL     1      32.881  76.327   8.228  1.00  0.00    -0.000 C 
BRANCH  13  14
ATOM     14  C   UNL     1      34.280  76.900   8.516  1.00  0.00    -0.000 C 
BRANCH  14  15
ATOM     15  C   UNL     1      35.360  75.814   8.624  1.00  0.00    -0.000 C 
BRANCH  15  16
ATOM     16  C   UNL     1      36.139  75.942   9.937  1.00  0.00    -0.000 C 
BRANCH  16  17
ATOM     17  C   UNL     1      35.566  77.065  10.809  1.00  0.00    -0.003 C 
ATOM     18  C   UNL     1      36.657  77.720  11.652  1.00  0.00     0.004 C 
ENDBRANCH  16  17
ENDBRANCH  15  16
ENDBRANCH  14  15
ENDBRANCH  13  14
ENDBRANCH  12  13
ENDBRANCH  11  12
ENDBRANCH   1  11
TORSDOF 14
ENDMDL
MODEL 7
REMARK VINA RESULT:    -3.866      0.965      2.600
REMARK INTER + INTRA:          -9.097
REMARK INTER:                  -6.929
REMARK INTRA:                  -2.169
REMARK UNBOUND:                -2.068
REMARK SMILES CCCCCCCCCCCCCCCC(=O)[O-]
REMARK SMILES IDX 9 1 10 2 11 3 12 4 13 5 14 6 15 7 16 8 17 9 18 10 8 11 7 12
REMARK SMILES IDX 6 13 5 14 4 15 3 16 2 17 1 18
REMARK H PARENT
REMARK Flexibility Score: inf
ROOT
ATOM      1  C   UNL     1      31.198  75.856  12.241  1.00  0.00     0.000 C 
ENDROOT
BRANCH   1   2
ATOM      2  C   UNL     1      31.030  77.329  11.841  1.00  0.00     0.000 C 
BRANCH   2   3
ATOM      3  C   UNL     1      31.670  78.298  12.851  1.00  0.00     0.000 C 
BRANCH   3   4
ATOM      4  C   UNL     1      32.468  77.626  13.987  1.00  0.00     0.000 C 
BRANCH   4   5
ATOM      5  C   UNL     1      32.245  78.221  15.390  1.00  0.00     0.000 C 
BRANCH   5   6
ATOM      6  C   UNL     1      32.884  79.603  15.626  1.00  0.00     0.006 C 
BRANCH   6   7
ATOM      7  C   UNL     1      31.866  80.755  15.712  1.00  0.00     0.053 C 
BRANCH   7   8
ATOM      8  C   UNL     1      32.313  81.846  16.636  1.00  0.00     0.041 C 
ATOM      9  O   UNL     1      33.151  82.703  16.249  1.00  0.00    -0.550 OA
ATOM     10  O   UNL     1      31.832  81.898  17.938  1.00  0.00    -0.550 OA
ENDBRANCH   7   8
ENDBRANCH   6   7
ENDBRANCH   5   6
ENDBRANCH   4   5
ENDBRANCH   3   4
ENDBRANCH   2   3
ENDBRANCH   1   2
BRANCH   1  11
ATOM     11  C   UNL     1      31.424  74.974  11.007  1.00  0.00     0.000 C 
BRANCH  11  12
ATOM     12  C   UNL     1      32.587  73.996  11.232  1.00  0.00    -0.000 C 
BRANCH  12  13
ATOM     13  C   UNL     1      33.805  74.678  11.890  1.00  0.00    -0.000 C 
BRANCH  13  14
ATOM     14  C   UNL     1      34.676  75.471  10.900  1.00  0.00    -0.000 C 
BRANCH  14  15
ATOM     15  C   UNL     1      34.923  76.918  11.347  1.00  0.00    -0.000 C 
BRANCH  15  16
ATOM     16  C   UNL     1      34.455  77.912  10.278  1.00  0.00    -0.000 C 
BRANCH  16  17
ATOM     17  C   UNL     1      33.961  77.178   9.026  1.00  0.00    -0.003 C 
ATOM     18  C   UNL     1      32.570  77.658   8.619  1.00  0.00     0.004 C 
ENDBRANCH  16  17
ENDBRANCH  15  16
ENDBRANCH  14  15
ENDBRANCH  13  14
ENDBRANCH  12  13
ENDBRANCH  11  12
ENDBRANCH   1  11
TORSDOF 14
ENDMDL
MODEL 8
REMARK VINA RESULT:    -3.848     12.323     15.174
REMARK INTER + INTRA:          -9.065
REMARK INTER:                  -7.325
REMARK INTRA:                  -1.740
REMARK UNBOUND:                -2.068
REMARK SMILES CCCCCCCCCCCCCCCC(=O)[O-]
REMARK SMILES IDX 9 1 10 2 11 3 12 4 13 5 14 6 15 7 16 8 17 9 18 10 8 11 7 12
REMARK SMILES IDX 6 13 5 14 4 15 3 16 2 17 1 18
REMARK H PARENT
REMARK Flexibility Score: inf
ROOT
ATOM      1  C   UNL     1      46.250  71.883  12.495  1.00  0.00     0.000 C 
ENDROOT
BRANCH   1   2
ATOM      2  C   UNL     1      46.598  72.377  11.082  1.00  0.00     0.000 C 
BRANCH   2   3
ATOM      3  C   UNL     1      46.330  71.320   9.997  1.00  0.00     0.000 C 
BRANCH   3   4
ATOM      4  C   UNL     1      46.794  71.708   8.578  1.00  0.00     0.000 C 
BRANCH   4   5
ATOM      5  C   UNL     1      46.619  73.194   8.213  1.00  0.00     0.000 C 
BRANCH   5   6
ATOM      6  C   UNL     1      45.524  73.490   7.169  1.00  0.00     0.006 C 
BRANCH   6   7
ATOM      7  C   UNL     1      44.380  72.460   7.156  1.00  0.00     0.053 C 
BRANCH   7   8
ATOM      8  C   UNL     1      43.195  72.911   7.955  1.00  0.00     0.041 C 
ATOM      9  O   UNL     1      43.336  73.270   9.153  1.00  0.00    -0.550 OA
ATOM     10  O   UNL     1      41.926  72.899   7.388  1.00  0.00    -0.550 OA
ENDBRANCH   7   8
ENDBRANCH   6   7
ENDBRANCH   5   6
ENDBRANCH   4   5
ENDBRANCH   3   4
ENDBRANCH   2   3
ENDBRANCH   1   2
BRANCH   1  11
ATOM     11  C   UNL     1      47.505  71.794  13.370  1.00  0.00     0.000 C 
BRANCH  11  12
ATOM     12  C   UNL     1      47.672  73.059  14.227  1.00  0.00    -0.000 C 
BRANCH  12  13
ATOM     13  C   UNL     1      46.504  73.250  15.218  1.00  0.00    -0.000 C 
BRANCH  13  14
ATOM     14  C   UNL     1      46.171  74.725  15.501  1.00  0.00    -0.000 C 
BRANCH  14  15
ATOM     15  C   UNL     1      45.476  75.419  14.322  1.00  0.00    -0.000 C 
BRANCH  15  16
ATOM     16  C   UNL     1      44.166  74.710  13.961  1.00  0.00    -0.000 C 
BRANCH  16  17
ATOM     17  C   UNL     1      43.858  74.852  12.466  1.00  0.00    -0.003 C 
ATOM     18  C   UNL     1      44.967  75.612  11.744  1.00  0.00     0.004 C 
ENDBRANCH  16  17
ENDBRANCH  15  16
ENDBRANCH  14  15
ENDBRANCH  13  14
ENDBRANCH  12  13
ENDBRANCH  11  12
ENDBRANCH   1  11
TORSDOF 14
ENDMDL
MODEL 9
REMARK VINA RESULT:    -3.832      3.414      7.187
REMARK INTER + INTRA:          -9.036
REMARK INTER:                  -6.651
REMARK INTRA:                  -2.385
REMARK UNBOUND:                -2.068
REMARK SMILES CCCCCCCCCCCCCCCC(=O)[O-]
REMARK SMILES IDX 9 1 10 2 11 3 12 4 13 5 14 6 15 7 16 8 17 9 18 10 8 11 7 12
REMARK SMILES IDX 6 13 5 14 4 15 3 16 2 17 1 18
REMARK H PARENT
REMARK Flexibility Score: inf
ROOT
ATOM      1  C   UNL     1      32.761  79.274  15.182  1.00  0.00     0.000 C 
ENDROOT
BRANCH   1   2
ATOM      2  C   UNL     1      32.362  77.797  15.313  1.00  0.00     0.000 C 
BRANCH   2   3
ATOM      3  C   UNL     1      31.273  77.381  14.309  1.00  0.00     0.000 C 
BRANCH   3   4
ATOM      4  C   UNL     1      31.797  76.811  12.974  1.00  0.00     0.000 C 
BRANCH   4   5
ATOM      5  C   UNL     1      31.622  77.732  11.752  1.00  0.00     0.000 C 
BRANCH   5   6
ATOM      6  C   UNL     1      32.858  78.575  11.382  1.00  0.00     0.006 C 
BRANCH   6   7
ATOM      7  C   UNL     1      34.181  78.023  11.944  1.00  0.00     0.053 C 
BRANCH   7   8
ATOM      8  C   UNL     1      35.049  77.424  10.881  1.00  0.00     0.041 C 
ATOM      9  O   UNL     1      34.609  77.273   9.711  1.00  0.00    -0.550 OA
ATOM     10  O   UNL     1      36.335  76.996  11.189  1.00  0.00    -0.550 OA
ENDBRANCH   7   8
ENDBRANCH   6   7
ENDBRANCH   5   6
ENDBRANCH   4   5
ENDBRANCH   3   4
ENDBRANCH   2   3
ENDBRANCH   1   2
BRANCH   1  11
ATOM     11  C   UNL     1      31.587  80.117  14.671  1.00  0.00     0.000 C 
BRANCH  11  12
ATOM     12  C   UNL     1      31.480  81.440  15.445  1.00  0.00    -0.000 C 
BRANCH  12  13
ATOM     13  C   UNL     1      32.436  81.487  16.655  1.00  0.00    -0.000 C 
BRANCH  13  14
ATOM     14  C   UNL     1      31.713  81.588  18.009  1.00  0.00    -0.000 C 
BRANCH  14  15
ATOM     15  C   UNL     1      32.064  80.437  18.962  1.00  0.00    -0.000 C 
BRANCH  15  16
ATOM     16  C   UNL     1      31.261  79.177  18.621  1.00  0.00    -0.000 C 
BRANCH  16  17
ATOM     17  C   UNL     1      29.782  79.513  18.394  1.00  0.00    -0.003 C 
ATOM     18  C   UNL     1      29.227  78.769  17.182  1.00  0.00     0.004 C 
ENDBRANCH  16  17
ENDBRANCH  15  16
ENDBRANCH  14  15
ENDBRANCH  13  14
ENDBRANCH  12  13
ENDBRANCH  11  12
ENDBRANCH   1  11
TORSDOF 14
ENDMDL
