MODEL 1
REMARK VINA RESULT:    -3.798      0.000      0.000
REMARK INTER + INTRA:          -4.639
REMARK INTER:                  -4.465
REMARK INTRA:                  -0.175
REMARK UNBOUND:                -0.175
REMARK SMILES COc1ccc(C=CC(=O)[O-])cc1
REMARK SMILES IDX 6 1 5 2 12 3 4 4 13 5 3 6 7 7 8 8 9 9 10 10 11 11 2 12 1 13
REMARK H PARENT
REMARK Flexibility Score: inf
ROOT
ATOM      1  C   UNL     1      -2.814  19.986 -16.249  1.00  0.00    -0.025 A 
ATOM      2  C   UNL     1      -2.945  21.062 -17.142  1.00  0.00     0.012 A 
ATOM      3  C   UNL     1      -3.661  18.871 -16.404  1.00  0.00     0.012 A 
ATOM      4  C   UNL     1      -3.914  21.041 -18.150  1.00  0.00     0.047 A 
ATOM      5  C   UNL     1      -4.629  18.851 -17.412  1.00  0.00     0.047 A 
ATOM      6  C   UNL     1      -4.767  19.931 -18.289  1.00  0.00     0.118 A 
ENDROOT
BRANCH   1   7
ATOM      7  C   UNL     1      -1.764  20.054 -15.203  1.00  0.00     0.010 C 
ATOM      8  C   UNL     1      -1.110  21.177 -14.876  1.00  0.00     0.025 C 
BRANCH   8   9
ATOM      9  C   UNL     1      -0.067  21.195 -13.839  1.00  0.00     0.064 C 
ATOM     10  O   UNL     1       0.931  20.435 -13.948  1.00  0.00    -0.545 OA
ATOM     11  O   UNL     1      -0.162  22.041 -12.739  1.00  0.00    -0.545 OA
ENDBRANCH   8   9
ENDBRANCH   1   7
BRANCH   6  12
ATOM     12  O   UNL     1      -5.754  19.862 -19.283  1.00  0.00    -0.497 OA
ATOM     13  C   UNL     1      -5.574  20.295 -20.627  1.00  0.00     0.278 C 
ENDBRANCH   6  12
TORSDOF 3
ENDMDL
MODEL 2
REMARK VINA RESULT:    -3.766      5.634      9.928
REMARK INTER + INTRA:          -4.601
REMARK INTER:                  -4.437
REMARK INTRA:                  -0.164
REMARK UNBOUND:                -0.175
REMARK SMILES COc1ccc(C=CC(=O)[O-])cc1
REMARK SMILES IDX 6 1 5 2 12 3 4 4 13 5 3 6 7 7 8 8 9 9 10 10 11 11 2 12 1 13
REMARK H PARENT
REMARK Flexibility Score: inf
ROOT
ATOM      1  C   UNL     1       1.529  22.839 -10.167  1.00  0.00    -0.025 A 
ATOM      2  C   UNL     1       0.425  23.627  -9.802  1.00  0.00     0.012 A 
ATOM      3  C   UNL     1       2.792  23.154  -9.629  1.00  0.00     0.012 A 
ATOM      4  C   UNL     1       0.579  24.718  -8.941  1.00  0.00     0.047 A 
ATOM      5  C   UNL     1       2.944  24.245  -8.769  1.00  0.00     0.047 A 
ATOM      6  C   UNL     1       1.846  25.036  -8.420  1.00  0.00     0.118 A 
ENDROOT
BRANCH   1   7
ATOM      7  C   UNL     1       1.310  21.687 -11.075  1.00  0.00     0.010 C 
ATOM      8  C   UNL     1       0.967  21.810 -12.365  1.00  0.00     0.025 C 
BRANCH   8   9
ATOM      9  C   UNL     1       0.749  20.638 -13.226  1.00  0.00     0.064 C 
ATOM     10  O   UNL     1       1.318  19.549 -12.949  1.00  0.00    -0.545 OA
ATOM     11  O   UNL     1      -0.078  20.710 -14.342  1.00  0.00    -0.545 OA
ENDBRANCH   8   9
ENDBRANCH   1   7
BRANCH   6  12
ATOM     12  O   UNL     1       2.053  26.121  -7.554  1.00  0.00    -0.497 OA
ATOM     13  C   UNL     1       2.773  26.044  -6.328  1.00  0.00     0.278 C 
ENDBRANCH   6  12
TORSDOF 3
ENDMDL
MODEL 3
REMARK VINA RESULT:    -3.762      9.463     10.422
REMARK INTER + INTRA:          -4.597
REMARK INTER:                  -4.420
REMARK INTRA:                  -0.177
REMARK UNBOUND:                -0.175
REMARK SMILES COc1ccc(C=CC(=O)[O-])cc1
REMARK SMILES IDX 6 1 5 2 12 3 4 4 13 5 3 6 7 7 8 8 9 9 10 10 11 11 2 12 1 13
REMARK H PARENT
REMARK Flexibility Score: inf
ROOT
ATOM      1  C   UNL     1      -1.408  29.720 -20.345  1.00  0.00    -0.025 A 
ATOM      2  C   UNL     1      -2.105  28.508 -20.217  1.00  0.00     0.012 A 
ATOM      3  C   UNL     1      -0.636  29.938 -21.502  1.00  0.00     0.012 A 
ATOM      4  C   UNL     1      -2.017  27.525 -21.208  1.00  0.00     0.047 A 
ATOM      5  C   UNL     1      -0.549  28.955 -22.492  1.00  0.00     0.047 A 
ATOM      6  C   UNL     1      -1.232  27.743 -22.355  1.00  0.00     0.118 A 
ENDROOT
BRANCH   1   7
ATOM      7  C   UNL     1      -1.543  30.734 -19.270  1.00  0.00     0.010 C 
ATOM      8  C   UNL     1      -2.444  30.656 -18.282  1.00  0.00     0.025 C 
BRANCH   8   9
ATOM      9  C   UNL     1      -2.550  31.691 -17.242  1.00  0.00     0.064 C 
ATOM     10  O   UNL     1      -3.671  31.943 -16.728  1.00  0.00    -0.545 OA
ATOM     11  O   UNL     1      -1.431  32.398 -16.815  1.00  0.00    -0.545 OA
ENDBRANCH   8   9
ENDBRANCH   1   7
BRANCH   6  12
ATOM     12  O   UNL     1      -1.111  26.789 -23.376  1.00  0.00    -0.497 OA
ATOM     13  C   UNL     1      -1.308  25.390 -23.197  1.00  0.00     0.278 C 
ENDBRANCH   6  12
TORSDOF 3
ENDMDL
MODEL 4
REMARK VINA RESULT:    -3.733      8.598      9.226
REMARK INTER + INTRA:          -4.563
REMARK INTER:                  -4.397
REMARK INTRA:                  -0.165
REMARK UNBOUND:                -0.175
REMARK SMILES COc1ccc(C=CC(=O)[O-])cc1
REMARK SMILES IDX 6 1 5 2 12 3 4 4 13 5 3 6 7 7 8 8 9 9 10 10 11 11 2 12 1 13
REMARK H PARENT
REMARK Flexibility Score: inf
ROOT
ATOM      1  C   UNL     1      -7.261  19.340  -8.822  1.00  0.00    -0.025 A 
ATOM      2  C   UNL     1      -7.174  19.888 -10.112  1.00  0.00     0.012 A 
ATOM      3  C   UNL     1      -7.529  17.964  -8.687  1.00  0.00     0.012 A 
ATOM      4  C   UNL     1      -7.373  19.089 -11.242  1.00  0.00     0.047 A 
ATOM      5  C   UNL     1      -7.728  17.167  -9.818  1.00  0.00     0.047 A 
ATOM      6  C   UNL     1      -7.656  17.718 -11.101  1.00  0.00     0.118 A 
ENDROOT
BRANCH   1   7
ATOM      7  C   UNL     1      -7.031  20.229  -7.656  1.00  0.00     0.010 C 
ATOM      8  C   UNL     1      -7.927  21.121  -7.212  1.00  0.00     0.025 C 
BRANCH   8   9
ATOM      9  C   UNL     1      -7.651  21.991  -6.058  1.00  0.00     0.064 C 
ATOM     10  O   UNL     1      -6.643  21.767  -5.338  1.00  0.00    -0.545 OA
ATOM     11  O   UNL     1      -8.486  23.059  -5.747  1.00  0.00    -0.545 OA
ENDBRANCH   8   9
ENDBRANCH   1   7
BRANCH   6  12
ATOM     12  O   UNL     1      -7.864  16.875 -12.202  1.00  0.00    -0.497 OA
ATOM     13  C   UNL     1      -7.820  17.300 -13.560  1.00  0.00     0.278 C 
ENDBRANCH   6  12
TORSDOF 3
ENDMDL
MODEL 5
REMARK VINA RESULT:    -3.728      3.250      7.845
REMARK INTER + INTRA:          -4.557
REMARK INTER:                  -4.396
REMARK INTRA:                  -0.161
REMARK UNBOUND:                -0.175
REMARK SMILES COc1ccc(C=CC(=O)[O-])cc1
REMARK SMILES IDX 6 1 5 2 12 3 4 4 13 5 3 6 7 7 8 8 9 9 10 10 11 11 2 12 1 13
REMARK H PARENT
REMARK Flexibility Score: inf
ROOT
ATOM      1  C   UNL     1       0.567  21.708 -13.162  1.00  0.00    -0.025 A 
ATOM      2  C   UNL     1       0.867  23.075 -13.285  1.00  0.00     0.012 A 
ATOM      3  C   UNL     1       0.956  21.033 -11.989  1.00  0.00     0.012 A 
ATOM      4  C   UNL     1       1.562  23.748 -12.275  1.00  0.00     0.047 A 
ATOM      5  C   UNL     1       1.650  21.707 -10.980  1.00  0.00     0.047 A 
ATOM      6  C   UNL     1       1.961  23.064 -11.113  1.00  0.00     0.118 A 
ENDROOT
BRANCH   1   7
ATOM      7  C   UNL     1      -0.181  21.043 -14.257  1.00  0.00     0.010 C 
ATOM      8  C   UNL     1      -1.413  21.401 -14.642  1.00  0.00     0.025 C 
BRANCH   8   9
ATOM      9  C   UNL     1      -2.122  20.706 -15.727  1.00  0.00     0.064 C 
ATOM     10  O   UNL     1      -2.191  19.448 -15.718  1.00  0.00    -0.545 OA
ATOM     11  O   UNL     1      -2.720  21.413 -16.765  1.00  0.00    -0.545 OA
ENDBRANCH   8   9
ENDBRANCH   1   7
BRANCH   6  12
ATOM     12  O   UNL     1       2.660  23.694 -10.072  1.00  0.00    -0.497 OA
ATOM     13  C   UNL     1       2.044  24.418  -9.013  1.00  0.00     0.278 C 
ENDBRANCH   6  12
TORSDOF 3
ENDMDL
MODEL 6
REMARK VINA RESULT:    -3.721      1.927      6.735
REMARK INTER + INTRA:          -4.548
REMARK INTER:                  -4.378
REMARK INTRA:                  -0.170
REMARK UNBOUND:                -0.175
REMARK SMILES COc1ccc(C=CC(=O)[O-])cc1
REMARK SMILES IDX 6 1 5 2 12 3 4 4 13 5 3 6 7 7 8 8 9 9 10 10 11 11 2 12 1 13
REMARK H PARENT
REMARK Flexibility Score: inf
ROOT
ATOM      1  C   UNL     1      -1.353  21.192 -14.720  1.00  0.00    -0.025 A 
ATOM      2  C   UNL     1      -1.871  22.210 -13.903  1.00  0.00     0.012 A 
ATOM      3  C   UNL     1      -0.081  20.665 -14.421  1.00  0.00     0.012 A 
ATOM      4  C   UNL     1      -1.130  22.711 -12.828  1.00  0.00     0.047 A 
ATOM      5  C   UNL     1       0.658  21.167 -13.346  1.00  0.00     0.047 A 
ATOM      6  C   UNL     1       0.146  22.191 -12.544  1.00  0.00     0.118 A 
ENDROOT
BRANCH   1   7
ATOM      7  C   UNL     1      -2.184  20.689 -15.842  1.00  0.00     0.010 C 
ATOM      8  C   UNL     1      -2.860  21.484 -16.682  1.00  0.00     0.025 C 
BRANCH   8   9
ATOM      9  C   UNL     1      -3.681  20.941 -17.775  1.00  0.00     0.064 C 
ATOM     10  O   UNL     1      -3.906  21.647 -18.793  1.00  0.00    -0.545 OA
ATOM     11  O   UNL     1      -4.213  19.658 -17.705  1.00  0.00    -0.545 OA
ENDBRANCH   8   9
ENDBRANCH   1   7
BRANCH   6  12
ATOM     12  O   UNL     1       0.929  22.659 -11.478  1.00  0.00    -0.497 OA
ATOM     13  C   UNL     1       1.693  21.825 -10.615  1.00  0.00     0.278 C 
ENDBRANCH   6  12
TORSDOF 3
ENDMDL
MODEL 7
REMARK VINA RESULT:    -3.719      3.356      8.048
REMARK INTER + INTRA:          -4.546
REMARK INTER:                  -4.392
REMARK INTRA:                  -0.154
REMARK UNBOUND:                -0.175
REMARK SMILES COc1ccc(C=CC(=O)[O-])cc1
REMARK SMILES IDX 6 1 5 2 12 3 4 4 13 5 3 6 7 7 8 8 9 9 10 10 11 11 2 12 1 13
REMARK H PARENT
REMARK Flexibility Score: inf
ROOT
ATOM      1  C   UNL     1       0.562  21.865 -12.997  1.00  0.00    -0.025 A 
ATOM      2  C   UNL     1       0.916  21.121 -11.859  1.00  0.00     0.012 A 
ATOM      3  C   UNL     1       0.916  23.227 -13.052  1.00  0.00     0.012 A 
ATOM      4  C   UNL     1       1.585  21.724 -10.790  1.00  0.00     0.047 A 
ATOM      5  C   UNL     1       1.585  23.829 -11.982  1.00  0.00     0.047 A 
ATOM      6  C   UNL     1       1.922  23.089 -10.844  1.00  0.00     0.118 A 
ENDROOT
BRANCH   1   7
ATOM      7  C   UNL     1      -0.138  21.175 -14.108  1.00  0.00     0.010 C 
ATOM      8  C   UNL     1      -1.401  21.440 -14.471  1.00  0.00     0.025 C 
BRANCH   8   9
ATOM      9  C   UNL     1      -2.060  20.722 -15.573  1.00  0.00     0.064 C 
ATOM     10  O   UNL     1      -2.063  19.463 -15.580  1.00  0.00    -0.545 OA
ATOM     11  O   UNL     1      -2.682  21.411 -16.609  1.00  0.00    -0.545 OA
ENDBRANCH   8   9
ENDBRANCH   1   7
BRANCH   6  12
ATOM     12  O   UNL     1       2.592  23.740  -9.798  1.00  0.00    -0.497 OA
ATOM     13  C   UNL     1       2.016  24.756  -8.984  1.00  0.00     0.278 C 
ENDBRANCH   6  12
TORSDOF 3
ENDMDL
MODEL 8
REMARK VINA RESULT:    -3.683      7.807     11.342
REMARK INTER + INTRA:          -4.503
REMARK INTER:                  -4.340
REMARK INTRA:                  -0.163
REMARK UNBOUND:                -0.175
REMARK SMILES COc1ccc(C=CC(=O)[O-])cc1
REMARK SMILES IDX 6 1 5 2 12 3 4 4 13 5 3 6 7 7 8 8 9 9 10 10 11 11 2 12 1 13
REMARK H PARENT
REMARK Flexibility Score: inf
ROOT
ATOM      1  C   UNL     1       2.837  25.060  -8.120  1.00  0.00    -0.025 A 
ATOM      2  C   UNL     1       3.813  24.101  -8.434  1.00  0.00     0.012 A 
ATOM      3  C   UNL     1       1.520  24.863  -8.580  1.00  0.00     0.012 A 
ATOM      4  C   UNL     1       3.492  22.982  -9.210  1.00  0.00     0.047 A 
ATOM      5  C   UNL     1       1.201  23.744  -9.356  1.00  0.00     0.047 A 
ATOM      6  C   UNL     1       2.179  22.799  -9.680  1.00  0.00     0.118 A 
ENDROOT
BRANCH   1   7
ATOM      7  C   UNL     1       3.226  26.223  -7.285  1.00  0.00     0.010 C 
ATOM      8  C   UNL     1       3.203  26.219  -5.945  1.00  0.00     0.025 C 
BRANCH   8   9
ATOM      9  C   UNL     1       3.588  27.401  -5.158  1.00  0.00     0.064 C 
ATOM     10  O   UNL     1       4.790  27.775  -5.147  1.00  0.00    -0.545 OA
ATOM     11  O   UNL     1       2.645  28.114  -4.425  1.00  0.00    -0.545 OA
ENDBRANCH   8   9
ENDBRANCH   1   7
BRANCH   6  12
ATOM     12  O   UNL     1       1.807  21.695 -10.462  1.00  0.00    -0.497 OA
ATOM     13  C   UNL     1       0.752  21.706 -11.417  1.00  0.00     0.278 C 
ENDBRANCH   6  12
TORSDOF 3
ENDMDL
MODEL 9
REMARK VINA RESULT:    -3.658      9.424     11.032
REMARK INTER + INTRA:          -4.474
REMARK INTER:                  -4.302
REMARK INTRA:                  -0.172
REMARK UNBOUND:                -0.175
REMARK SMILES COc1ccc(C=CC(=O)[O-])cc1
REMARK SMILES IDX 6 1 5 2 12 3 4 4 13 5 3 6 7 7 8 8 9 9 10 10 11 11 2 12 1 13
REMARK H PARENT
REMARK Flexibility Score: inf
ROOT
ATOM      1  C   UNL     1      -1.681  29.458 -19.736  1.00  0.00    -0.025 A 
ATOM      2  C   UNL     1      -2.621  28.832 -18.901  1.00  0.00     0.012 A 
ATOM      3  C   UNL     1      -1.380  30.817 -19.517  1.00  0.00     0.012 A 
ATOM      4  C   UNL     1      -3.267  29.548 -17.888  1.00  0.00     0.047 A 
ATOM      5  C   UNL     1      -2.026  31.531 -18.504  1.00  0.00     0.047 A 
ATOM      6  C   UNL     1      -2.973  30.909 -17.685  1.00  0.00     0.118 A 
ENDROOT
BRANCH   1   7
ATOM      7  C   UNL     1      -1.017  28.651 -20.789  1.00  0.00     0.010 C 
ATOM      8  C   UNL     1      -1.659  27.769 -21.567  1.00  0.00     0.025 C 
BRANCH   8   9
ATOM      9  C   UNL     1      -0.958  26.982 -22.592  1.00  0.00     0.064 C 
ATOM     10  O   UNL     1       0.034  27.480 -23.187  1.00  0.00    -0.545 OA
ATOM     11  O   UNL     1      -1.370  25.693 -22.916  1.00  0.00    -0.545 OA
ENDBRANCH   8   9
ENDBRANCH   1   7
BRANCH   6  12
ATOM     12  O   UNL     1      -3.594  31.671 -16.684  1.00  0.00    -0.497 OA
ATOM     13  C   UNL     1      -2.925  32.633 -15.875  1.00  0.00     0.278 C 
ENDBRANCH   6  12
TORSDOF 3
ENDMDL
