MODEL 1
REMARK VINA RESULT:    -4.868      0.000      0.000
REMARK INTER + INTRA:          -6.269
REMARK INTER:                  -5.580
REMARK INTRA:                  -0.689
REMARK UNBOUND:                -0.689
REMARK SMILES C=C(C)[C@H]1CC[C@]2(C(=O)[O-])CC[C@]3(C)[C@@H](CC[C@@H]4[C@@]5(C)CC[C@H](O)C(C)(C)[C@H]5CC[C@@]43C)[C@H]12
REMARK SMILES IDX 7 1 6 2 33 3 11 4 5 5 15 6 4 7 12 8 16 9 13 10 17 11 31 12
REMARK SMILES IDX 14 13 18 14 30 15 32 16 19 17 29 18 21 19 20 20 28 21 22 22
REMARK SMILES IDX 25 23 23 24 26 25 27 26 8 27 9 28 10 29 2 30 3 31 1 32 24 33
REMARK H PARENT 24 34
REMARK Flexibility Score: inf
ROOT
ATOM      1  C   UNL     1    -108.361 -18.837  50.184  1.00  0.00     0.014 C 
ATOM      2  C   UNL     1    -108.065 -20.325  50.470  1.00  0.00     0.014 C 
ATOM      3  C   UNL     1    -109.862 -18.775  49.779  1.00  0.00     0.012 C 
ATOM      4  C   UNL     1    -108.014 -17.970  51.414  1.00  0.00     0.014 C 
ATOM      5  C   UNL     1    -109.049 -21.124  49.635  1.00  0.00     0.009 C 
ATOM      6  C   UNL     1    -110.825 -18.022  50.780  1.00  0.00     0.000 C 
ATOM      7  C   UNL     1    -110.295 -20.243  49.478  1.00  0.00     0.018 C 
ATOM      8  C   UNL     1    -108.985 -18.044  52.613  1.00  0.00     0.008 C 
ATOM      9  C   UNL     1    -111.057 -16.533  50.370  1.00  0.00     0.005 C 
ATOM     10  C   UNL     1    -110.525 -18.209  52.324  1.00  0.00    -0.024 C 
ATOM     11  C   UNL     1    -110.573 -15.506  51.389  1.00  0.00     0.005 C 
ATOM     12  C   UNL     1    -111.430 -17.182  53.209  1.00  0.00    -0.024 C 
ATOM     13  C   UNL     1    -110.893 -19.679  52.720  1.00  0.00     0.012 C 
ATOM     14  C   UNL     1    -111.271 -15.654  52.763  1.00  0.00     0.002 C 
ATOM     15  C   UNL     1    -111.127 -17.312  54.735  1.00  0.00     0.008 C 
ATOM     16  C   UNL     1    -112.948 -17.571  53.032  1.00  0.00     0.012 C 
ATOM     17  C   UNL     1    -110.780 -14.562  53.843  1.00  0.00    -0.026 C 
ATOM     18  C   UNL     1    -111.858 -16.264  55.570  1.00  0.00     0.005 C 
ATOM     19  C   UNL     1    -111.207 -13.145  53.299  1.00  0.00     0.010 C 
ATOM     20  C   UNL     1    -109.226 -14.509  53.973  1.00  0.00     0.012 C 
ATOM     21  C   UNL     1    -111.363 -14.825  55.310  1.00  0.00     0.003 C 
ATOM     22  C   UNL     1    -111.198 -11.990  54.308  1.00  0.00     0.033 C 
ATOM     23  C   UNL     1    -112.368 -13.741  55.847  1.00  0.00    -0.006 C 
ATOM     24  C   UNL     1    -111.690 -12.340  55.728  1.00  0.00     0.120 C 
ATOM     25  C   UNL     1    -112.671 -13.978  57.355  1.00  0.00     0.014 C 
ATOM     26  C   UNL     1    -113.733 -13.775  55.095  1.00  0.00     0.014 C 
ENDROOT
BRANCH   1  27
ATOM     27  C   UNL     1    -107.513 -18.342  49.009  1.00  0.00     0.048 C 
ATOM     28  O   UNL     1    -106.282 -18.603  48.924  1.00  0.00    -0.550 OA
ATOM     29  O   UNL     1    -108.111 -17.627  47.977  1.00  0.00    -0.550 OA
ENDBRANCH   1  27
BRANCH   7  30
ATOM     30  C   UNL     1    -110.948 -20.411  48.106  1.00  0.00    -0.077 C 
ATOM     31  C   UNL     1    -110.121 -20.460  46.844  1.00  0.00     0.039 C 
ATOM     32  C   UNL     1    -112.281 -20.527  48.001  1.00  0.00     0.008 C 
ENDBRANCH   7  30
BRANCH  24  33
ATOM     33  O   UNL     1    -110.596 -12.262  56.615  1.00  0.00    -0.393 OA
ATOM     34  H   UNL     1    -110.453 -11.303  56.824  1.00  0.00     0.210 HD
ENDBRANCH  24  33
TORSDOF 3
ENDMDL
MODEL 2
REMARK VINA RESULT:    -4.683      1.408      7.927
REMARK INTER + INTRA:          -6.056
REMARK INTER:                  -5.537
REMARK INTRA:                  -0.519
REMARK UNBOUND:                -0.689
REMARK SMILES C=C(C)[C@H]1CC[C@]2(C(=O)[O-])CC[C@]3(C)[C@@H](CC[C@@H]4[C@@]5(C)CC[C@H](O)C(C)(C)[C@H]5CC[C@@]43C)[C@H]12
REMARK SMILES IDX 7 1 6 2 33 3 11 4 5 5 15 6 4 7 12 8 16 9 13 10 17 11 31 12
REMARK SMILES IDX 14 13 18 14 30 15 32 16 19 17 29 18 21 19 20 20 28 21 22 22
REMARK SMILES IDX 25 23 23 24 26 25 27 26 8 27 9 28 10 29 2 30 3 31 1 32 24 33
REMARK H PARENT 24 34
REMARK Flexibility Score: inf
ROOT
ATOM      1  C   UNL     1    -110.858 -12.857  54.095  1.00  0.00     0.014 C 
ATOM      2  C   UNL     1    -111.796 -11.751  53.564  1.00  0.00     0.014 C 
ATOM      3  C   UNL     1    -111.791 -13.972  54.650  1.00  0.00     0.012 C 
ATOM      4  C   UNL     1    -109.908 -13.342  52.979  1.00  0.00     0.014 C 
ATOM      5  C   UNL     1    -113.082 -11.862  54.365  1.00  0.00     0.009 C 
ATOM      6  C   UNL     1    -111.777 -15.346  53.870  1.00  0.00     0.000 C 
ATOM      7  C   UNL     1    -113.210 -13.335  54.771  1.00  0.00     0.018 C 
ATOM      8  C   UNL     1    -110.523 -14.240  51.883  1.00  0.00     0.008 C 
ATOM      9  C   UNL     1    -110.804 -16.383  54.517  1.00  0.00     0.005 C 
ATOM     10  C   UNL     1    -111.648 -15.262  52.294  1.00  0.00    -0.024 C 
ATOM     11  C   UNL     1    -109.653 -16.826  53.620  1.00  0.00     0.005 C 
ATOM     12  C   UNL     1    -111.393 -16.745  51.664  1.00  0.00    -0.024 C 
ATOM     13  C   UNL     1    -112.991 -14.694  51.723  1.00  0.00     0.012 C 
ATOM     14  C   UNL     1    -110.142 -17.501  52.313  1.00  0.00     0.002 C 
ATOM     15  C   UNL     1    -111.220 -16.691  50.113  1.00  0.00     0.008 C 
ATOM     16  C   UNL     1    -112.671 -17.630  51.930  1.00  0.00     0.012 C 
ATOM     17  C   UNL     1    -108.934 -17.991  51.365  1.00  0.00    -0.026 C 
ATOM     18  C   UNL     1    -110.840 -18.044  49.518  1.00  0.00     0.005 C 
ATOM     19  C   UNL     1    -108.148 -19.107  52.152  1.00  0.00     0.010 C 
ATOM     20  C   UNL     1    -107.894 -16.860  51.092  1.00  0.00     0.012 C 
ATOM     21  C   UNL     1    -109.433 -18.520  49.939  1.00  0.00     0.003 C 
ATOM     22  C   UNL     1    -107.204 -19.992  51.329  1.00  0.00     0.033 C 
ATOM     23  C   UNL     1    -109.215 -20.055  49.670  1.00  0.00    -0.006 C 
ATOM     24  C   UNL     1    -107.713 -20.391  49.928  1.00  0.00     0.120 C 
ATOM     25  C   UNL     1    -109.513 -20.394  48.180  1.00  0.00     0.014 C 
ATOM     26  C   UNL     1    -110.153 -20.947  50.539  1.00  0.00     0.014 C 
ENDROOT
BRANCH   1  27
ATOM     27  C   UNL     1    -109.997 -12.319  55.242  1.00  0.00     0.048 C 
ATOM     28  O   UNL     1    -110.488 -12.061  56.374  1.00  0.00    -0.550 OA
ATOM     29  O   UNL     1    -108.629 -12.150  55.059  1.00  0.00    -0.550 OA
ENDBRANCH   1  27
BRANCH   7  30
ATOM     30  C   UNL     1    -113.827 -13.495  56.161  1.00  0.00    -0.077 C 
ATOM     31  C   UNL     1    -114.105 -14.859  56.744  1.00  0.00     0.039 C 
ATOM     32  C   UNL     1    -114.125 -12.413  56.898  1.00  0.00     0.008 C 
ENDBRANCH   7  30
BRANCH  24  33
ATOM     33  O   UNL     1    -106.909 -19.756  48.959  1.00  0.00    -0.393 OA
ATOM     34  H   UNL     1    -106.098 -20.316  48.834  1.00  0.00     0.210 HD
ENDBRANCH  24  33
TORSDOF 3
ENDMDL
MODEL 3
REMARK VINA RESULT:    -4.659      1.572      2.193
REMARK INTER + INTRA:          -6.029
REMARK INTER:                  -5.397
REMARK INTRA:                  -0.632
REMARK UNBOUND:                -0.689
REMARK SMILES C=C(C)[C@H]1CC[C@]2(C(=O)[O-])CC[C@]3(C)[C@@H](CC[C@@H]4[C@@]5(C)CC[C@H](O)C(C)(C)[C@H]5CC[C@@]43C)[C@H]12
REMARK SMILES IDX 7 1 6 2 33 3 11 4 5 5 15 6 4 7 12 8 16 9 13 10 17 11 31 12
REMARK SMILES IDX 14 13 18 14 30 15 32 16 19 17 29 18 21 19 20 20 28 21 22 22
REMARK SMILES IDX 25 23 23 24 26 25 27 26 8 27 9 28 10 29 2 30 3 31 1 32 24 33
REMARK H PARENT 24 34
REMARK Flexibility Score: inf
ROOT
ATOM      1  C   UNL     1    -108.673 -19.838  51.285  1.00  0.00     0.014 C 
ATOM      2  C   UNL     1    -109.514 -21.091  50.954  1.00  0.00     0.014 C 
ATOM      3  C   UNL     1    -108.923 -18.841  50.117  1.00  0.00     0.012 C 
ATOM      4  C   UNL     1    -109.059 -19.279  52.670  1.00  0.00     0.014 C 
ATOM      5  C   UNL     1    -109.652 -21.124  49.442  1.00  0.00     0.009 C 
ATOM      6  C   UNL     1    -109.706 -17.519  50.483  1.00  0.00     0.000 C 
ATOM      7  C   UNL     1    -109.588 -19.666  48.972  1.00  0.00     0.018 C 
ATOM      8  C   UNL     1    -110.407 -18.531  52.769  1.00  0.00     0.008 C 
ATOM      9  C   UNL     1    -108.743 -16.324  50.777  1.00  0.00     0.005 C 
ATOM     10  C   UNL     1    -110.874 -17.660  51.543  1.00  0.00    -0.024 C 
ATOM     11  C   UNL     1    -108.831 -15.766  52.194  1.00  0.00     0.005 C 
ATOM     12  C   UNL     1    -111.408 -16.189  52.001  1.00  0.00    -0.024 C 
ATOM     13  C   UNL     1    -112.053 -18.440  50.870  1.00  0.00     0.012 C 
ATOM     14  C   UNL     1    -110.244 -15.232  52.538  1.00  0.00     0.002 C 
ATOM     15  C   UNL     1    -112.534 -16.294  53.078  1.00  0.00     0.008 C 
ATOM     16  C   UNL     1    -112.064 -15.482  50.753  1.00  0.00     0.012 C 
ATOM     17  C   UNL     1    -110.345 -14.623  54.027  1.00  0.00    -0.026 C 
ATOM     18  C   UNL     1    -112.950 -14.931  53.626  1.00  0.00     0.005 C 
ATOM     19  C   UNL     1    -109.392 -13.369  54.082  1.00  0.00     0.010 C 
ATOM     20  C   UNL     1    -109.805 -15.607  55.112  1.00  0.00     0.012 C 
ATOM     21  C   UNL     1    -111.841 -14.240  54.447  1.00  0.00     0.003 C 
ATOM     22  C   UNL     1    -109.598 -12.400  55.253  1.00  0.00     0.033 C 
ATOM     23  C   UNL     1    -112.117 -12.705  54.654  1.00  0.00    -0.006 C 
ATOM     24  C   UNL     1    -111.064 -12.147  55.662  1.00  0.00     0.120 C 
ATOM     25  C   UNL     1    -113.522 -12.485  55.288  1.00  0.00     0.014 C 
ATOM     26  C   UNL     1    -112.092 -11.914  53.311  1.00  0.00     0.014 C 
ENDROOT
BRANCH   1  27
ATOM     27  C   UNL     1    -107.183 -20.192  51.320  1.00  0.00     0.048 C 
ATOM     28  O   UNL     1    -106.694 -20.906  52.237  1.00  0.00    -0.550 OA
ATOM     29  O   UNL     1    -106.346 -19.762  50.297  1.00  0.00    -0.550 OA
ENDBRANCH   1  27
BRANCH   7  30
ATOM     30  C   UNL     1    -108.867 -19.527  47.630  1.00  0.00    -0.077 C 
ATOM     31  C   UNL     1    -109.007 -20.573  46.551  1.00  0.00     0.039 C 
ATOM     32  C   UNL     1    -108.096 -18.455  47.385  1.00  0.00     0.008 C 
ENDBRANCH   7  30
BRANCH  24  33
ATOM     33  O   UNL     1    -111.279 -12.709  56.937  1.00  0.00    -0.393 OA
ATOM     34  H   UNL     1    -112.016 -13.369  56.849  1.00  0.00     0.210 HD
ENDBRANCH  24  33
TORSDOF 3
ENDMDL
MODEL 4
REMARK VINA RESULT:    -4.044      1.786      7.916
REMARK INTER + INTRA:          -5.324
REMARK INTER:                  -4.677
REMARK INTRA:                  -0.646
REMARK UNBOUND:                -0.689
REMARK SMILES C=C(C)[C@H]1CC[C@]2(C(=O)[O-])CC[C@]3(C)[C@@H](CC[C@@H]4[C@@]5(C)CC[C@H](O)C(C)(C)[C@H]5CC[C@@]43C)[C@H]12
REMARK SMILES IDX 7 1 6 2 33 3 11 4 5 5 15 6 4 7 12 8 16 9 13 10 17 11 31 12
REMARK SMILES IDX 14 13 18 14 30 15 32 16 19 17 29 18 21 19 20 20 28 21 22 22
REMARK SMILES IDX 25 23 23 24 26 25 27 26 8 27 9 28 10 29 2 30 3 31 1 32 24 33
REMARK H PARENT 24 34
REMARK Flexibility Score: inf
ROOT
ATOM      1  C   UNL     1    -110.280 -15.231  53.765  1.00  0.00     0.014 C 
ATOM      2  C   UNL     1    -111.272 -14.047  53.747  1.00  0.00     0.014 C 
ATOM      3  C   UNL     1    -111.156 -16.515  53.828  1.00  0.00     0.012 C 
ATOM      4  C   UNL     1    -109.349 -15.176  52.535  1.00  0.00     0.014 C 
ATOM      5  C   UNL     1    -112.527 -14.532  54.450  1.00  0.00     0.009 C 
ATOM      6  C   UNL     1    -111.119 -17.449  52.555  1.00  0.00     0.000 C 
ATOM      7  C   UNL     1    -112.592 -16.047  54.220  1.00  0.00     0.018 C 
ATOM      8  C   UNL     1    -109.966 -15.575  51.176  1.00  0.00     0.008 C 
ATOM      9  C   UNL     1    -110.091 -18.616  52.707  1.00  0.00     0.005 C 
ATOM     10  C   UNL     1    -111.043 -16.725  51.149  1.00  0.00    -0.024 C 
ATOM     11  C   UNL     1    -108.955 -18.603  51.690  1.00  0.00     0.005 C 
ATOM     12  C   UNL     1    -110.756 -17.808  49.964  1.00  0.00    -0.024 C 
ATOM     13  C   UNL     1    -112.421 -16.032  50.880  1.00  0.00     0.012 C 
ATOM     14  C   UNL     1    -109.460 -18.707  50.229  1.00  0.00     0.002 C 
ATOM     15  C   UNL     1    -110.633 -17.118  48.569  1.00  0.00     0.008 C 
ATOM     16  C   UNL     1    -111.994 -18.779  49.862  1.00  0.00     0.012 C 
ATOM     17  C   UNL     1    -108.266 -18.713  49.146  1.00  0.00    -0.026 C 
ATOM     18  C   UNL     1    -110.225 -18.092  47.467  1.00  0.00     0.005 C 
ATOM     19  C   UNL     1    -107.418 -20.018  49.396  1.00  0.00     0.010 C 
ATOM     20  C   UNL     1    -107.274 -17.525  49.345  1.00  0.00     0.012 C 
ATOM     21  C   UNL     1    -108.790 -18.636  47.636  1.00  0.00     0.003 C 
ATOM     22  C   UNL     1    -106.470 -20.447  48.269  1.00  0.00     0.033 C 
ATOM     23  C   UNL     1    -108.529 -19.916  46.759  1.00  0.00    -0.006 C 
ATOM     24  C   UNL     1    -107.008 -20.261  46.835  1.00  0.00     0.120 C 
ATOM     25  C   UNL     1    -108.860 -19.630  45.265  1.00  0.00     0.014 C 
ATOM     26  C   UNL     1    -109.407 -21.125  47.200  1.00  0.00     0.014 C 
ENDROOT
BRANCH   1  27
ATOM     27  C   UNL     1    -109.403 -15.171  55.019  1.00  0.00     0.048 C 
ATOM     28  O   UNL     1    -109.575 -15.961  55.986  1.00  0.00    -0.550 OA
ATOM     29  O   UNL     1    -108.356 -14.258  55.087  1.00  0.00    -0.550 OA
ENDBRANCH   1  27
BRANCH   7  30
ATOM     30  C   UNL     1    -113.159 -16.788  55.431  1.00  0.00    -0.077 C 
ATOM     31  C   UNL     1    -112.926 -16.289  56.836  1.00  0.00     0.039 C 
ATOM     32  C   UNL     1    -113.891 -17.901  55.261  1.00  0.00     0.008 C 
ENDBRANCH   7  30
BRANCH  24  33
ATOM     33  O   UNL     1    -106.257 -19.251  46.201  1.00  0.00    -0.393 OA
ATOM     34  H   UNL     1    -105.345 -19.271  46.592  1.00  0.00     0.210 HD
ENDBRANCH  24  33
TORSDOF 3
ENDMDL
MODEL 5
REMARK VINA RESULT:    -3.865      1.924      3.094
REMARK INTER + INTRA:          -5.118
REMARK INTER:                  -4.558
REMARK INTRA:                  -0.560
REMARK UNBOUND:                -0.689
REMARK SMILES C=C(C)[C@H]1CC[C@]2(C(=O)[O-])CC[C@]3(C)[C@@H](CC[C@@H]4[C@@]5(C)CC[C@H](O)C(C)(C)[C@H]5CC[C@@]43C)[C@H]12
REMARK SMILES IDX 7 1 6 2 33 3 11 4 5 5 15 6 4 7 12 8 16 9 13 10 17 11 31 12
REMARK SMILES IDX 14 13 18 14 30 15 32 16 19 17 29 18 21 19 20 20 28 21 22 22
REMARK SMILES IDX 25 23 23 24 26 25 27 26 8 27 9 28 10 29 2 30 3 31 1 32 24 33
REMARK H PARENT 24 34
REMARK Flexibility Score: inf
ROOT
ATOM      1  C   UNL     1    -108.278 -18.911  46.860  1.00  0.00     0.014 C 
ATOM      2  C   UNL     1    -107.659 -20.301  46.594  1.00  0.00     0.014 C 
ATOM      3  C   UNL     1    -109.811 -19.147  46.979  1.00  0.00     0.012 C 
ATOM      4  C   UNL     1    -107.650 -18.271  48.116  1.00  0.00     0.014 C 
ATOM      5  C   UNL     1    -108.738 -21.125  45.912  1.00  0.00     0.009 C 
ATOM      6  C   UNL     1    -110.447 -18.898  48.403  1.00  0.00     0.000 C 
ATOM      7  C   UNL     1    -110.079 -20.576  46.415  1.00  0.00     0.018 C 
ATOM      8  C   UNL     1    -108.085 -18.845  49.482  1.00  0.00     0.008 C 
ATOM      9  C   UNL     1    -111.053 -17.464  48.538  1.00  0.00     0.005 C 
ATOM     10  C   UNL     1    -109.575 -19.330  49.652  1.00  0.00    -0.024 C 
ATOM     11  C   UNL     1    -110.402 -16.592  49.606  1.00  0.00     0.005 C 
ATOM     12  C   UNL     1    -110.246 -18.782  51.034  1.00  0.00    -0.024 C 
ATOM     13  C   UNL     1    -109.528 -20.895  49.698  1.00  0.00     0.012 C 
ATOM     14  C   UNL     1    -110.513 -17.205  51.025  1.00  0.00     0.002 C 
ATOM     15  C   UNL     1    -109.386 -19.157  52.282  1.00  0.00     0.008 C 
ATOM     16  C   UNL     1    -111.637 -19.496  51.233  1.00  0.00     0.012 C 
ATOM     17  C   UNL     1    -109.844 -16.283  52.166  1.00  0.00    -0.026 C 
ATOM     18  C   UNL     1    -109.919 -18.534  53.570  1.00  0.00     0.005 C 
ATOM     19  C   UNL     1    -110.665 -14.939  52.218  1.00  0.00     0.010 C 
ATOM     20  C   UNL     1    -108.382 -15.867  51.815  1.00  0.00     0.012 C 
ATOM     21  C   UNL     1    -109.796 -16.995  53.598  1.00  0.00     0.003 C 
ATOM     22  C   UNL     1    -110.474 -14.065  53.464  1.00  0.00     0.033 C 
ATOM     23  C   UNL     1    -110.695 -16.344  54.712  1.00  0.00    -0.006 C 
ATOM     24  C   UNL     1    -110.346 -14.825  54.800  1.00  0.00     0.120 C 
ATOM     25  C   UNL     1    -110.379 -16.970  56.102  1.00  0.00     0.014 C 
ATOM     26  C   UNL     1    -112.216 -16.561  54.447  1.00  0.00     0.014 C 
ENDROOT
BRANCH   1  27
ATOM     27  C   UNL     1    -108.014 -17.976  45.676  1.00  0.00     0.048 C 
ATOM     28  O   UNL     1    -107.387 -18.364  44.653  1.00  0.00    -0.550 OA
ATOM     29  O   UNL     1    -108.513 -16.679  45.695  1.00  0.00    -0.550 OA
ENDBRANCH   1  27
BRANCH   7  30
ATOM     30  C   UNL     1    -111.154 -20.605  45.328  1.00  0.00    -0.077 C 
ATOM     31  C   UNL     1    -110.805 -20.407  43.873  1.00  0.00     0.039 C 
ATOM     32  C   UNL     1    -112.439 -20.818  45.653  1.00  0.00     0.008 C 
ENDBRANCH   7  30
BRANCH  24  33
ATOM     33  O   UNL     1    -109.031 -14.665  55.284  1.00  0.00    -0.393 OA
ATOM     34  H   UNL     1    -109.061 -14.791  56.269  1.00  0.00     0.210 HD
ENDBRANCH  24  33
TORSDOF 3
ENDMDL
MODEL 6
REMARK VINA RESULT:    -3.852      2.478      7.961
REMARK INTER + INTRA:          -5.104
REMARK INTER:                  -4.435
REMARK INTRA:                  -0.669
REMARK UNBOUND:                -0.689
REMARK SMILES C=C(C)[C@H]1CC[C@]2(C(=O)[O-])CC[C@]3(C)[C@@H](CC[C@@H]4[C@@]5(C)CC[C@H](O)C(C)(C)[C@H]5CC[C@@]43C)[C@H]12
REMARK SMILES IDX 7 1 6 2 33 3 11 4 5 5 15 6 4 7 12 8 16 9 13 10 17 11 31 12
REMARK SMILES IDX 14 13 18 14 30 15 32 16 19 17 29 18 21 19 20 20 28 21 22 22
REMARK SMILES IDX 25 23 23 24 26 25 27 26 8 27 9 28 10 29 2 30 3 31 1 32 24 33
REMARK H PARENT 24 34
REMARK Flexibility Score: inf
ROOT
ATOM      1  C   UNL     1    -111.696 -16.627  54.452  1.00  0.00     0.014 C 
ATOM      2  C   UNL     1    -110.781 -17.193  55.560  1.00  0.00     0.014 C 
ATOM      3  C   UNL     1    -110.786 -15.718  53.576  1.00  0.00     0.012 C 
ATOM      4  C   UNL     1    -112.367 -17.773  53.666  1.00  0.00     0.014 C 
ATOM      5  C   UNL     1    -109.667 -16.180  55.752  1.00  0.00     0.009 C 
ATOM      6  C   UNL     1    -110.524 -16.210  52.098  1.00  0.00     0.000 C 
ATOM      7  C   UNL     1    -109.482 -15.482  54.398  1.00  0.00     0.018 C 
ATOM      8  C   UNL     1    -111.475 -18.556  52.678  1.00  0.00     0.008 C 
ATOM      9  C   UNL     1    -111.502 -15.550  51.073  1.00  0.00     0.005 C 
ATOM     10  C   UNL     1    -110.358 -17.771  51.892  1.00  0.00    -0.024 C 
ATOM     11  C   UNL     1    -112.414 -16.528  50.340  1.00  0.00     0.005 C 
ATOM     12  C   UNL     1    -110.350 -18.139  50.303  1.00  0.00    -0.024 C 
ATOM     13  C   UNL     1    -108.990 -18.204  52.519  1.00  0.00     0.012 C 
ATOM     14  C   UNL     1    -111.626 -17.578  49.518  1.00  0.00     0.002 C 
ATOM     15  C   UNL     1    -110.229 -19.677  50.067  1.00  0.00     0.008 C 
ATOM     16  C   UNL     1    -109.069 -17.495  49.646  1.00  0.00     0.012 C 
ATOM     17  C   UNL     1    -112.580 -18.606  48.723  1.00  0.00    -0.026 C 
ATOM     18  C   UNL     1    -110.362 -20.057  48.594  1.00  0.00     0.005 C 
ATOM     19  C   UNL     1    -113.395 -17.764  47.668  1.00  0.00     0.010 C 
ATOM     20  C   UNL     1    -113.651 -19.263  49.649  1.00  0.00     0.012 C 
ATOM     21  C   UNL     1    -111.773 -19.797  48.024  1.00  0.00     0.003 C 
ATOM     22  C   UNL     1    -114.079 -18.550  46.543  1.00  0.00     0.033 C 
ATOM     23  C   UNL     1    -111.792 -19.800  46.451  1.00  0.00    -0.006 C 
ATOM     24  C   UNL     1    -113.278 -19.741  45.977  1.00  0.00     0.120 C 
ATOM     25  C   UNL     1    -111.186 -21.124  45.901  1.00  0.00     0.014 C 
ATOM     26  C   UNL     1    -110.957 -18.629  45.848  1.00  0.00     0.014 C 
ENDROOT
BRANCH   1  27
ATOM     27  C   UNL     1    -112.806 -15.767  55.066  1.00  0.00     0.048 C 
ATOM     28  O   UNL     1    -113.324 -16.052  56.179  1.00  0.00    -0.550 OA
ATOM     29  O   UNL     1    -113.229 -14.615  54.414  1.00  0.00    -0.550 OA
ENDBRANCH   1  27
BRANCH   7  30
ATOM     30  C   UNL     1    -109.128 -14.003  54.559  1.00  0.00    -0.077 C 
ATOM     31  C   UNL     1    -107.709 -13.514  54.402  1.00  0.00     0.039 C 
ATOM     32  C   UNL     1    -110.087 -13.105  54.835  1.00  0.00     0.008 C 
ENDBRANCH   7  30
BRANCH  24  33
ATOM     33  O   UNL     1    -113.939 -20.935  46.329  1.00  0.00    -0.393 OA
ATOM     34  H   UNL     1    -114.912 -20.742  46.342  1.00  0.00     0.210 HD
ENDBRANCH  24  33
TORSDOF 3
ENDMDL
MODEL 7
REMARK VINA RESULT:    -3.535      2.063      3.257
REMARK INTER + INTRA:          -4.740
REMARK INTER:                  -4.076
REMARK INTRA:                  -0.663
REMARK UNBOUND:                -0.689
REMARK SMILES C=C(C)[C@H]1CC[C@]2(C(=O)[O-])CC[C@]3(C)[C@@H](CC[C@@H]4[C@@]5(C)CC[C@H](O)C(C)(C)[C@H]5CC[C@@]43C)[C@H]12
REMARK SMILES IDX 7 1 6 2 33 3 11 4 5 5 15 6 4 7 12 8 16 9 13 10 17 11 31 12
REMARK SMILES IDX 14 13 18 14 30 15 32 16 19 17 29 18 21 19 20 20 28 21 22 22
REMARK SMILES IDX 25 23 23 24 26 25 27 26 8 27 9 28 10 29 2 30 3 31 1 32 24 33
REMARK H PARENT 24 34
REMARK Flexibility Score: inf
ROOT
ATOM      1  C   UNL     1    -109.522 -18.162  47.374  1.00  0.00     0.014 C 
ATOM      2  C   UNL     1    -109.161 -19.509  46.709  1.00  0.00     0.014 C 
ATOM      3  C   UNL     1    -111.076 -18.115  47.416  1.00  0.00     0.012 C 
ATOM      4  C   UNL     1    -108.861 -18.051  48.764  1.00  0.00     0.014 C 
ATOM      5  C   UNL     1    -110.333 -19.870  45.813  1.00  0.00     0.009 C 
ATOM      6  C   UNL     1    -111.738 -18.168  48.849  1.00  0.00     0.000 C 
ATOM      7  C   UNL     1    -111.575 -19.237  46.454  1.00  0.00     0.018 C 
ATOM      8  C   UNL     1    -109.478 -18.898  49.899  1.00  0.00     0.008 C 
ATOM      9  C   UNL     1    -112.070 -16.744  49.400  1.00  0.00     0.005 C 
ATOM     10  C   UNL     1    -111.039 -19.107  49.915  1.00  0.00    -0.024 C 
ATOM     11  C   UNL     1    -111.332 -16.366  50.680  1.00  0.00     0.005 C 
ATOM     12  C   UNL     1    -111.676 -18.861  51.396  1.00  0.00    -0.024 C 
ATOM     13  C   UNL     1    -111.290 -20.595  49.497  1.00  0.00     0.012 C 
ATOM     14  C   UNL     1    -111.640 -17.329  51.854  1.00  0.00     0.002 C 
ATOM     15  C   UNL     1    -110.979 -19.744  52.479  1.00  0.00     0.008 C 
ATOM     16  C   UNL     1    -113.187 -19.313  51.374  1.00  0.00     0.012 C 
ATOM     17  C   UNL     1    -110.879 -16.928  53.217  1.00  0.00    -0.026 C 
ATOM     18  C   UNL     1    -111.461 -19.428  53.893  1.00  0.00     0.005 C 
ATOM     19  C   UNL     1    -111.434 -15.522  53.664  1.00  0.00     0.010 C 
ATOM     20  C   UNL     1    -109.347 -16.725  53.007  1.00  0.00     0.012 C 
ATOM     21  C   UNL     1    -111.052 -18.019  54.375  1.00  0.00     0.003 C 
ATOM     22  C   UNL     1    -111.157 -15.102  55.112  1.00  0.00     0.033 C 
ATOM     23  C   UNL     1    -111.878 -17.554  55.630  1.00  0.00    -0.006 C 
ATOM     24  C   UNL     1    -111.254 -16.227  56.164  1.00  0.00     0.120 C 
ATOM     25  C   UNL     1    -111.769 -18.605  56.774  1.00  0.00     0.014 C 
ATOM     26  C   UNL     1    -113.393 -17.380  55.311  1.00  0.00     0.014 C 
ENDROOT
BRANCH   1  27
ATOM     27  C   UNL     1    -109.016 -16.996  46.520  1.00  0.00     0.048 C 
ATOM     28  O   UNL     1    -107.785 -16.766  46.376  1.00  0.00    -0.550 OA
ATOM     29  O   UNL     1    -109.924 -16.191  45.841  1.00  0.00    -0.550 OA
ENDBRANCH   1  27
BRANCH   7  30
ATOM     30  C   UNL     1    -112.569 -18.736  45.405  1.00  0.00    -0.077 C 
ATOM     31  C   UNL     1    -113.344 -17.457  45.606  1.00  0.00     0.039 C 
ATOM     32  C   UNL     1    -112.763 -19.430  44.272  1.00  0.00     0.008 C 
ENDBRANCH   7  30
BRANCH  24  33
ATOM     33  O   UNL     1    -109.964 -16.477  56.676  1.00  0.00    -0.393 OA
ATOM     34  H   UNL     1    -109.323 -15.948  56.133  1.00  0.00     0.210 HD
ENDBRANCH  24  33
TORSDOF 3
ENDMDL
MODEL 8
REMARK VINA RESULT:    -3.500      1.483      7.859
REMARK INTER + INTRA:          -4.700
REMARK INTER:                  -4.054
REMARK INTRA:                  -0.646
REMARK UNBOUND:                -0.689
REMARK SMILES C=C(C)[C@H]1CC[C@]2(C(=O)[O-])CC[C@]3(C)[C@@H](CC[C@@H]4[C@@]5(C)CC[C@H](O)C(C)(C)[C@H]5CC[C@@]43C)[C@H]12
REMARK SMILES IDX 7 1 6 2 33 3 11 4 5 5 15 6 4 7 12 8 16 9 13 10 17 11 31 12
REMARK SMILES IDX 14 13 18 14 30 15 32 16 19 17 29 18 21 19 20 20 28 21 22 22
REMARK SMILES IDX 25 23 23 24 26 25 27 26 8 27 9 28 10 29 2 30 3 31 1 32 24 33
REMARK H PARENT 24 34
REMARK Flexibility Score: inf
ROOT
ATOM      1  C   UNL     1    -112.254 -13.517  53.214  1.00  0.00     0.014 C 
ATOM      2  C   UNL     1    -113.795 -13.551  53.316  1.00  0.00     0.014 C 
ATOM      3  C   UNL     1    -111.733 -14.415  54.373  1.00  0.00     0.012 C 
ATOM      4  C   UNL     1    -111.795 -13.983  51.815  1.00  0.00     0.014 C 
ATOM      5  C   UNL     1    -114.119 -13.824  54.774  1.00  0.00     0.009 C 
ATOM      6  C   UNL     1    -111.006 -15.751  53.948  1.00  0.00     0.000 C 
ATOM      7  C   UNL     1    -112.944 -14.638  55.331  1.00  0.00     0.018 C 
ATOM      8  C   UNL     1    -111.889 -15.496  51.519  1.00  0.00     0.008 C 
ATOM      9  C   UNL     1    -109.453 -15.589  53.900  1.00  0.00     0.005 C 
ATOM     10  C   UNL     1    -111.598 -16.509  52.690  1.00  0.00    -0.024 C 
ATOM     11  C   UNL     1    -108.830 -15.805  52.524  1.00  0.00     0.005 C 
ATOM     12  C   UNL     1    -110.600 -17.713  52.228  1.00  0.00    -0.024 C 
ATOM     13  C   UNL     1    -112.980 -17.124  53.095  1.00  0.00     0.012 C 
ATOM     14  C   UNL     1    -109.100 -17.224  51.964  1.00  0.00     0.002 C 
ATOM     15  C   UNL     1    -111.136 -18.454  50.963  1.00  0.00     0.008 C 
ATOM     16  C   UNL     1    -110.551 -18.792  53.376  1.00  0.00     0.012 C 
ATOM     17  C   UNL     1    -108.430 -17.471  50.518  1.00  0.00    -0.026 C 
ATOM     18  C   UNL     1    -110.150 -19.490  50.428  1.00  0.00     0.005 C 
ATOM     19  C   UNL     1    -106.868 -17.378  50.706  1.00  0.00     0.010 C 
ATOM     20  C   UNL     1    -108.796 -16.352  49.493  1.00  0.00     0.012 C 
ATOM     21  C   UNL     1    -108.859 -18.865  49.859  1.00  0.00     0.003 C 
ATOM     22  C   UNL     1    -106.005 -17.948  49.575  1.00  0.00     0.033 C 
ATOM     23  C   UNL     1    -107.705 -19.921  49.695  1.00  0.00    -0.006 C 
ATOM     24  C   UNL     1    -106.526 -19.247  48.925  1.00  0.00     0.120 C 
ATOM     25  C   UNL     1    -108.187 -21.125  48.832  1.00  0.00     0.014 C 
ATOM     26  C   UNL     1    -107.232 -20.499  51.063  1.00  0.00     0.014 C 
ENDROOT
BRANCH   1  27
ATOM     27  C   UNL     1    -111.738 -12.091  53.425  1.00  0.00     0.048 C 
ATOM     28  O   UNL     1    -112.218 -11.112  52.790  1.00  0.00    -0.550 OA
ATOM     29  O   UNL     1    -110.750 -11.846  54.372  1.00  0.00    -0.550 OA
ENDBRANCH   1  27
BRANCH   7  30
ATOM     30  C   UNL     1    -112.636 -14.280  56.786  1.00  0.00    -0.077 C 
ATOM     31  C   UNL     1    -112.322 -12.862  57.196  1.00  0.00     0.039 C 
ATOM     32  C   UNL     1    -112.650 -15.231  57.733  1.00  0.00     0.008 C 
ENDBRANCH   7  30
BRANCH  24  33
ATOM     33  O   UNL     1    -106.921 -18.961  47.602  1.00  0.00    -0.393 OA
ATOM     34  H   UNL     1    -107.912 -19.004  47.574  1.00  0.00     0.210 HD
ENDBRANCH  24  33
TORSDOF 3
ENDMDL
MODEL 9
REMARK VINA RESULT:    -3.321      2.291      7.965
REMARK INTER + INTRA:          -4.495
REMARK INTER:                  -3.814
REMARK INTRA:                  -0.681
REMARK UNBOUND:                -0.689
REMARK SMILES C=C(C)[C@H]1CC[C@]2(C(=O)[O-])CC[C@]3(C)[C@@H](CC[C@@H]4[C@@]5(C)CC[C@H](O)C(C)(C)[C@H]5CC[C@@]43C)[C@H]12
REMARK SMILES IDX 7 1 6 2 33 3 11 4 5 5 15 6 4 7 12 8 16 9 13 10 17 11 31 12
REMARK SMILES IDX 14 13 18 14 30 15 32 16 19 17 29 18 21 19 20 20 28 21 22 22
REMARK SMILES IDX 25 23 23 24 26 25 27 26 8 27 9 28 10 29 2 30 3 31 1 32 24 33
REMARK H PARENT 24 34
REMARK Flexibility Score: inf
ROOT
ATOM      1  C   UNL     1    -112.789 -16.607  53.166  1.00  0.00     0.014 C 
ATOM      2  C   UNL     1    -114.052 -17.259  53.771  1.00  0.00     0.014 C 
ATOM      3  C   UNL     1    -111.587 -17.432  53.708  1.00  0.00     0.012 C 
ATOM      4  C   UNL     1    -112.879 -16.581  51.626  1.00  0.00     0.014 C 
ATOM      5  C   UNL     1    -113.615 -17.909  55.072  1.00  0.00     0.009 C 
ATOM      6  C   UNL     1    -110.778 -18.271  52.642  1.00  0.00     0.000 C 
ATOM      7  C   UNL     1    -112.141 -18.288  54.889  1.00  0.00     0.018 C 
ATOM      8  C   UNL     1    -112.667 -17.924  50.893  1.00  0.00     0.008 C 
ATOM      9  C   UNL     1    -109.517 -17.509  52.124  1.00  0.00     0.005 C 
ATOM     10  C   UNL     1    -111.624 -18.945  51.485  1.00  0.00    -0.024 C 
ATOM     11  C   UNL     1    -109.526 -17.199  50.630  1.00  0.00     0.005 C 
ATOM     12  C   UNL     1    -110.637 -19.552  50.337  1.00  0.00    -0.024 C 
ATOM     13  C   UNL     1    -112.457 -20.117  52.107  1.00  0.00     0.012 C 
ATOM     14  C   UNL     1    -109.606 -18.476  49.756  1.00  0.00     0.002 C 
ATOM     15  C   UNL     1    -111.443 -20.188  49.161  1.00  0.00     0.008 C 
ATOM     16  C   UNL     1    -109.792 -20.723  50.970  1.00  0.00     0.012 C 
ATOM     17  C   UNL     1    -109.598 -18.161  48.175  1.00  0.00    -0.026 C 
ATOM     18  C   UNL     1    -110.545 -20.635  48.009  1.00  0.00     0.005 C 
ATOM     19  C   UNL     1    -108.206 -17.503  47.839  1.00  0.00     0.010 C 
ATOM     20  C   UNL     1    -110.670 -17.101  47.772  1.00  0.00     0.012 C 
ATOM     21  C   UNL     1    -109.864 -19.459  47.277  1.00  0.00     0.003 C 
ATOM     22  C   UNL     1    -107.803 -17.464  46.360  1.00  0.00     0.033 C 
ATOM     23  C   UNL     1    -108.655 -19.929  46.387  1.00  0.00    -0.006 C 
ATOM     24  C   UNL     1    -108.172 -18.714  45.534  1.00  0.00     0.120 C 
ATOM     25  C   UNL     1    -109.109 -21.037  45.392  1.00  0.00     0.014 C 
ATOM     26  C   UNL     1    -107.491 -20.524  47.236  1.00  0.00     0.014 C 
ENDROOT
BRANCH   1  27
ATOM     27  C   UNL     1    -112.653 -15.161  53.652  1.00  0.00     0.048 C 
ATOM     28  O   UNL     1    -113.662 -14.428  53.841  1.00  0.00    -0.550 OA
ATOM     29  O   UNL     1    -111.395 -14.644  53.942  1.00  0.00    -0.550 OA
ENDBRANCH   1  27
BRANCH   7  30
ATOM     30  C   UNL     1    -111.341 -18.122  56.182  1.00  0.00    -0.077 C 
ATOM     31  C   UNL     1    -110.363 -16.986  56.360  1.00  0.00     0.039 C 
ATOM     32  C   UNL     1    -111.505 -18.989  57.195  1.00  0.00     0.008 C 
ENDBRANCH   7  30
BRANCH  24  33
ATOM     33  O   UNL     1    -109.167 -18.360  44.601  1.00  0.00    -0.393 OA
ATOM     34  H   UNL     1    -108.842 -17.560  44.110  1.00  0.00     0.210 HD
ENDBRANCH  24  33
TORSDOF 3
ENDMDL
