MODEL 1
REMARK VINA RESULT:    -4.585      0.000      0.000
REMARK INTER + INTRA:          -7.036
REMARK INTER:                  -6.997
REMARK INTRA:                  -0.039
REMARK UNBOUND:                -0.039
REMARK SMILES CC1=CCC[C@H](C)C(=O)C[C@@H](C(C)C)C(=O)C1
REMARK SMILES IDX 8 1 9 2 6 3 7 4 5 5 4 6 3 7 2 8 1 9 10 11 11 12 15 13 16 14
REMARK SMILES IDX 17 15 12 17 13 18 14 19
REMARK H PARENT
REMARK Flexibility Score: 70.00
ROOT
ATOM      1  C   UNL     1      23.762 -24.329  20.747  1.00  0.00     0.136 C 
ATOM      2  O   UNL     1      24.506 -24.625  21.673  1.00  0.00    -0.299 OA
ENDROOT
BRANCH   1   3
ATOM      3  C   UNL     1      22.268 -24.241  20.992  1.00  0.00     0.053 C 
ATOM      4  C   UNL     1      21.838 -25.284  22.032  1.00  0.00     0.016 C 
BRANCH   3   5
ATOM      5  C   UNL     1      21.875 -22.816  21.443  1.00  0.00     0.015 C 
BRANCH   5   6
ATOM      6  C   UNL     1      21.851 -21.832  20.257  1.00  0.00     0.028 C 
BRANCH   6   7
ATOM      7  C   UNL     1      22.787 -20.660  20.431  1.00  0.00    -0.028 C 
ATOM      8  C   UNL     1      23.892 -20.414  19.684  1.00  0.00    -0.070 CG0
ATOM      9  C   UNL     1      24.641 -19.131  19.948  1.00  0.00     0.039 C 
ATOM     10  G   UNL     1      24.443 -21.379  18.641  1.00  0.00     0.000 G0
ENDBRANCH   6   7
ENDBRANCH   5   6
ENDBRANCH   3   5
ENDBRANCH   1   3
BRANCH   1  11
ATOM     11  C   UNL     1      24.362 -24.081  19.381  1.00  0.00     0.087 C 
BRANCH  11  12
ATOM     12  C   UNL     1      25.795 -23.488  19.472  1.00  0.00     0.066 C 
BRANCH  12  13
ATOM     13  C   UNL     1      25.768 -22.034  19.022  1.00  0.00     0.140 C 
ATOM     14  O   UNL     1      26.802 -21.377  19.019  1.00  0.00    -0.299 OA
BRANCH  13  15
ATOM     15  C   UNL     1      24.465 -21.388  18.626  1.00  0.00     0.106 CG0
ATOM     16  G   UNL     1      23.895 -20.441  19.674  1.00  0.00     0.000 G0
ENDBRANCH  13  15
ENDBRANCH  12  13
BRANCH  12  17
ATOM     17  C   UNL     1      26.854 -24.311  18.666  1.00  0.00    -0.006 C 
ATOM     18  C   UNL     1      26.314 -25.678  18.205  1.00  0.00     0.008 C 
ATOM     19  C   UNL     1      28.126 -24.545  19.505  1.00  0.00     0.008 C 
ENDBRANCH  12  17
ENDBRANCH  11  12
ENDBRANCH   1  11
TORSDOF 1
ENDMDL
MODEL 2
REMARK VINA RESULT:    -4.507      2.449      4.942
REMARK INTER + INTRA:          -6.918
REMARK INTER:                  -7.567
REMARK INTRA:                   0.649
REMARK UNBOUND:                -0.039
REMARK SMILES CC1=CCC[C@H](C)C(=O)C[C@@H](C(C)C)C(=O)C1
REMARK SMILES IDX 8 1 9 2 6 3 7 4 5 5 4 6 3 7 2 8 1 9 10 11 11 12 15 13 16 14
REMARK SMILES IDX 17 15 12 17 13 18 14 19
REMARK H PARENT
REMARK Flexibility Score: 70.00
ROOT
ATOM      1  C   UNL     1      22.919 -22.812  17.118  1.00  0.00     0.136 C 
ATOM      2  O   UNL     1      23.259 -22.309  16.055  1.00  0.00    -0.299 OA
ENDROOT
BRANCH   1   3
ATOM      3  C   UNL     1      23.267 -24.260  17.401  1.00  0.00     0.053 C 
ATOM      4  C   UNL     1      23.099 -25.105  16.131  1.00  0.00     0.016 C 
BRANCH   3   5
ATOM      5  C   UNL     1      24.706 -24.374  17.954  1.00  0.00     0.015 C 
BRANCH   5   6
ATOM      6  C   UNL     1      24.756 -24.088  19.468  1.00  0.00     0.028 C 
BRANCH   6   7
ATOM      7  C   UNL     1      23.768 -24.904  20.266  1.00  0.00    -0.028 C 
ATOM      8  C   UNL     1      22.872 -24.410  21.155  1.00  0.00    -0.070 CG0
ATOM      9  C   UNL     1      21.898 -25.380  21.777  1.00  0.00     0.039 C 
ATOM     10  G   UNL     1      22.830 -22.952  21.597  1.00  0.00     0.000 G0
ENDBRANCH   6   7
ENDBRANCH   5   6
ENDBRANCH   3   5
ENDBRANCH   1   3
BRANCH   1  11
ATOM     11  C   UNL     1      22.141 -21.972  18.107  1.00  0.00     0.087 C 
BRANCH  11  12
ATOM     12  C   UNL     1      22.983 -21.620  19.363  1.00  0.00     0.066 C 
BRANCH  12  13
ATOM     13  C   UNL     1      22.205 -22.001  20.615  1.00  0.00     0.140 C 
ATOM     14  O   UNL     1      21.101 -21.513  20.820  1.00  0.00    -0.299 OA
BRANCH  13  15
ATOM     15  C   UNL     1      22.811 -22.941  21.627  1.00  0.00     0.106 CG0
ATOM     16  G   UNL     1      22.867 -24.394  21.171  1.00  0.00     0.000 G0
ENDBRANCH  13  15
ENDBRANCH  12  13
BRANCH  12  17
ATOM     17  C   UNL     1      23.428 -20.121  19.408  1.00  0.00    -0.006 C 
ATOM     18  C   UNL     1      24.818 -19.898  18.781  1.00  0.00     0.008 C 
ATOM     19  C   UNL     1      23.455 -19.595  20.856  1.00  0.00     0.008 C 
ENDBRANCH  12  17
ENDBRANCH  11  12
ENDBRANCH   1  11
TORSDOF 1
ENDMDL
MODEL 3
REMARK VINA RESULT:    -4.506      2.045      4.458
REMARK INTER + INTRA:          -6.916
REMARK INTER:                  -7.173
REMARK INTRA:                   0.257
REMARK UNBOUND:                -0.039
REMARK SMILES CC1=CCC[C@H](C)C(=O)C[C@@H](C(C)C)C(=O)C1
REMARK SMILES IDX 8 1 9 2 6 3 7 4 5 5 4 6 3 7 2 8 1 9 10 11 11 12 15 13 16 14
REMARK SMILES IDX 17 15 12 17 13 18 14 19
REMARK H PARENT
REMARK Flexibility Score: 70.00
ROOT
ATOM      1  C   UNL     1      28.034 -22.371  19.205  1.00  0.00     0.136 C 
ATOM      2  O   UNL     1      29.028 -22.171  19.891  1.00  0.00    -0.299 OA
ENDROOT
BRANCH   1   3
ATOM      3  C   UNL     1      27.547 -23.792  18.998  1.00  0.00     0.053 C 
ATOM      4  C   UNL     1      28.667 -24.790  19.322  1.00  0.00     0.016 C 
BRANCH   3   5
ATOM      5  C   UNL     1      26.295 -24.067  19.862  1.00  0.00     0.015 C 
BRANCH   5   6
ATOM      6  C   UNL     1      25.019 -24.145  19.003  1.00  0.00     0.028 C 
BRANCH   6   7
ATOM      7  C   UNL     1      23.862 -23.361  19.575  1.00  0.00    -0.028 C 
ATOM      8  C   UNL     1      23.576 -22.064  19.304  1.00  0.00    -0.070 CG0
ATOM      9  C   UNL     1      22.312 -21.489  19.896  1.00  0.00     0.039 C 
ATOM     10  G   UNL     1      24.478 -21.149  18.486  1.00  0.00     0.000 G0
ENDBRANCH   6   7
ENDBRANCH   5   6
ENDBRANCH   3   5
ENDBRANCH   1   3
BRANCH   1  11
ATOM     11  C   UNL     1      27.338 -21.190  18.567  1.00  0.00     0.087 C 
BRANCH  11  12
ATOM     12  C   UNL     1      26.667 -20.269  19.622  1.00  0.00     0.066 C 
BRANCH  12  13
ATOM     13  C   UNL     1      25.193 -20.098  19.279  1.00  0.00     0.140 C 
ATOM     14  O   UNL     1      24.582 -19.117  19.683  1.00  0.00    -0.299 OA
BRANCH  13  15
ATOM     15  C   UNL     1      24.474 -21.158  18.483  1.00  0.00     0.106 CG0
ATOM     16  G   UNL     1      23.581 -22.066  19.318  1.00  0.00     0.000 G0
ENDBRANCH  13  15
ENDBRANCH  12  13
BRANCH  12  17
ATOM     17  C   UNL     1      27.377 -18.882  19.772  1.00  0.00    -0.006 C 
ATOM     18  C   UNL     1      28.888 -18.960  19.482  1.00  0.00     0.008 C 
ATOM     19  C   UNL     1      27.179 -18.310  21.189  1.00  0.00     0.008 C 
ENDBRANCH  12  17
ENDBRANCH  11  12
ENDBRANCH   1  11
TORSDOF 1
ENDMDL
MODEL 4
REMARK VINA RESULT:    -4.360      1.989      5.220
REMARK INTER + INTRA:          -6.693
REMARK INTER:                  -6.652
REMARK INTRA:                  -0.041
REMARK UNBOUND:                -0.039
REMARK SMILES CC1=CCC[C@H](C)C(=O)C[C@@H](C(C)C)C(=O)C1
REMARK SMILES IDX 8 1 9 2 6 3 7 4 5 5 4 6 3 7 2 8 1 9 10 11 11 12 15 13 16 14
REMARK SMILES IDX 17 15 12 17 13 18 14 19
REMARK H PARENT
REMARK Flexibility Score: 70.00
ROOT
ATOM      1  C   UNL     1      24.464 -19.956  19.556  1.00  0.00     0.136 C 
ATOM      2  O   UNL     1      24.018 -19.437  20.571  1.00  0.00    -0.299 OA
ENDROOT
BRANCH   1   3
ATOM      3  C   UNL     1      25.775 -19.458  18.981  1.00  0.00     0.053 C 
ATOM      4  C   UNL     1      26.589 -18.733  20.061  1.00  0.00     0.016 C 
BRANCH   3   5
ATOM      5  C   UNL     1      26.581 -20.630  18.376  1.00  0.00     0.015 C 
BRANCH   5   6
ATOM      6  C   UNL     1      27.113 -21.577  19.470  1.00  0.00     0.028 C 
BRANCH   6   7
ATOM      7  C   UNL     1      27.511 -22.936  18.945  1.00  0.00    -0.028 C 
ATOM      8  C   UNL     1      26.757 -24.061  19.018  1.00  0.00    -0.070 CG0
ATOM      9  C   UNL     1      27.289 -25.301  18.341  1.00  0.00     0.039 C 
ATOM     10  G   UNL     1      25.442 -24.154  19.781  1.00  0.00     0.000 G0
ENDBRANCH   6   7
ENDBRANCH   5   6
ENDBRANCH   3   5
ENDBRANCH   1   3
BRANCH   1  11
ATOM     11  C   UNL     1      23.674 -21.064  18.896  1.00  0.00     0.087 C 
BRANCH  11  12
ATOM     12  C   UNL     1      23.574 -22.325  19.798  1.00  0.00     0.066 C 
BRANCH  12  13
ATOM     13  C   UNL     1      24.268 -23.493  19.111  1.00  0.00     0.140 C 
ATOM     14  O   UNL     1      23.850 -23.905  18.037  1.00  0.00    -0.299 OA
BRANCH  13  15
ATOM     15  C   UNL     1      25.439 -24.174  19.774  1.00  0.00     0.106 CG0
ATOM     16  G   UNL     1      26.751 -24.039  19.013  1.00  0.00     0.000 G0
ENDBRANCH  13  15
ENDBRANCH  12  13
BRANCH  12  17
ATOM     17  C   UNL     1      22.103 -22.690  20.187  1.00  0.00    -0.006 C 
ATOM     18  C   UNL     1      21.250 -21.446  20.500  1.00  0.00     0.008 C 
ATOM     19  C   UNL     1      22.071 -23.626  21.411  1.00  0.00     0.008 C 
ENDBRANCH  12  17
ENDBRANCH  11  12
ENDBRANCH   1  11
TORSDOF 1
ENDMDL
MODEL 5
REMARK VINA RESULT:    -4.336      2.305      4.108
REMARK INTER + INTRA:          -6.656
REMARK INTER:                  -6.391
REMARK INTRA:                  -0.265
REMARK UNBOUND:                -0.039
REMARK SMILES CC1=CCC[C@H](C)C(=O)C[C@@H](C(C)C)C(=O)C1
REMARK SMILES IDX 8 1 9 2 6 3 7 4 5 5 4 6 3 7 2 8 1 9 10 11 11 12 15 13 16 14
REMARK SMILES IDX 17 15 12 17 13 18 14 19
REMARK H PARENT
REMARK Flexibility Score: 70.00
ROOT
ATOM      1  C   UNL     1      26.454 -23.733  19.047  1.00  0.00     0.136 C 
ATOM      2  O   UNL     1      26.761 -24.537  18.176  1.00  0.00    -0.299 OA
ENDROOT
BRANCH   1   3
ATOM      3  C   UNL     1      27.547 -22.999  19.800  1.00  0.00     0.053 C 
ATOM      4  C   UNL     1      28.490 -24.002  20.478  1.00  0.00     0.016 C 
BRANCH   3   5
ATOM      5  C   UNL     1      28.326 -22.063  18.848  1.00  0.00     0.015 C 
BRANCH   5   6
ATOM      6  C   UNL     1      27.415 -20.971  18.255  1.00  0.00     0.028 C 
BRANCH   6   7
ATOM      7  C   UNL     1      26.989 -19.932  19.264  1.00  0.00    -0.028 C 
ATOM      8  C   UNL     1      25.714 -19.527  19.490  1.00  0.00    -0.070 CG0
ATOM      9  C   UNL     1      25.482 -18.550  20.616  1.00  0.00     0.039 C 
ATOM     10  G   UNL     1      24.524 -19.960  18.644  1.00  0.00     0.000 G0
ENDBRANCH   6   7
ENDBRANCH   5   6
ENDBRANCH   3   5
ENDBRANCH   1   3
BRANCH   1  11
ATOM     11  C   UNL     1      24.989 -23.518  19.357  1.00  0.00     0.087 C 
BRANCH  11  12
ATOM     12  C   UNL     1      24.314 -22.556  18.342  1.00  0.00     0.066 C 
BRANCH  12  13
ATOM     13  C   UNL     1      23.903 -21.276  19.056  1.00  0.00     0.140 C 
ATOM     14  O   UNL     1      23.055 -21.314  19.938  1.00  0.00    -0.299 OA
BRANCH  13  15
ATOM     15  C   UNL     1      24.504 -19.955  18.647  1.00  0.00     0.106 CG0
ATOM     16  G   UNL     1      25.706 -19.532  19.482  1.00  0.00     0.000 G0
ENDBRANCH  13  15
ENDBRANCH  12  13
BRANCH  12  17
ATOM     17  C   UNL     1      23.100 -23.202  17.595  1.00  0.00    -0.006 C 
ATOM     18  C   UNL     1      23.408 -24.624  17.088  1.00  0.00     0.008 C 
ATOM     19  C   UNL     1      22.667 -22.337  16.395  1.00  0.00     0.008 C 
ENDBRANCH  12  17
ENDBRANCH  11  12
ENDBRANCH   1  11
TORSDOF 1
ENDMDL
MODEL 6
REMARK VINA RESULT:    -4.300      1.614      3.412
REMARK INTER + INTRA:          -6.602
REMARK INTER:                  -6.722
REMARK INTRA:                   0.120
REMARK UNBOUND:                -0.039
REMARK SMILES CC1=CCC[C@H](C)C(=O)C[C@@H](C(C)C)C(=O)C1
REMARK SMILES IDX 8 1 9 2 6 3 7 4 5 5 4 6 3 7 2 8 1 9 10 11 11 12 15 13 16 14
REMARK SMILES IDX 17 15 12 17 13 18 14 19
REMARK H PARENT
REMARK Flexibility Score: 70.00
ROOT
ATOM      1  C   UNL     1      26.018 -23.337  19.082  1.00  0.00     0.136 C 
ATOM      2  O   UNL     1      26.959 -23.836  19.685  1.00  0.00    -0.299 OA
ENDROOT
BRANCH   1   3
ATOM      3  C   UNL     1      24.697 -24.079  19.021  1.00  0.00     0.053 C 
ATOM      4  C   UNL     1      24.861 -25.396  18.250  1.00  0.00     0.016 C 
BRANCH   3   5
ATOM      5  C   UNL     1      24.153 -24.336  20.445  1.00  0.00     0.015 C 
BRANCH   5   6
ATOM      6  C   UNL     1      22.702 -23.839  20.596  1.00  0.00     0.028 C 
BRANCH   6   7
ATOM      7  C   UNL     1      22.603 -22.429  21.127  1.00  0.00    -0.028 C 
ATOM      8  C   UNL     1      22.644 -21.300  20.378  1.00  0.00    -0.070 CG0
ATOM      9  C   UNL     1      22.424 -19.985  21.086  1.00  0.00     0.039 C 
ATOM     10  G   UNL     1      22.948 -21.281  18.886  1.00  0.00     0.000 G0
ENDBRANCH   6   7
ENDBRANCH   5   6
ENDBRANCH   3   5
ENDBRANCH   1   3
BRANCH   1  11
ATOM     11  C   UNL     1      26.216 -22.004  18.396  1.00  0.00     0.087 C 
BRANCH  11  12
ATOM     12  C   UNL     1      25.514 -20.847  19.159  1.00  0.00     0.066 C 
BRANCH  12  13
ATOM     13  C   UNL     1      24.189 -20.527  18.481  1.00  0.00     0.140 C 
ATOM     14  O   UNL     1      24.129 -19.630  17.650  1.00  0.00    -0.299 OA
BRANCH  13  15
ATOM     15  C   UNL     1      22.940 -21.279  18.867  1.00  0.00     0.106 CG0
ATOM     16  G   UNL     1      22.662 -21.298  20.364  1.00  0.00     0.000 G0
ENDBRANCH  13  15
ENDBRANCH  12  13
BRANCH  12  17
ATOM     17  C   UNL     1      26.405 -19.567  19.292  1.00  0.00    -0.006 C 
ATOM     18  C   UNL     1      27.883 -19.904  19.569  1.00  0.00     0.008 C 
ATOM     19  C   UNL     1      25.892 -18.652  20.421  1.00  0.00     0.008 C 
ENDBRANCH  12  17
ENDBRANCH  11  12
ENDBRANCH   1  11
TORSDOF 1
ENDMDL
MODEL 7
REMARK VINA RESULT:    -4.297      2.131      4.184
REMARK INTER + INTRA:          -6.597
REMARK INTER:                  -6.532
REMARK INTRA:                  -0.065
REMARK UNBOUND:                -0.039
REMARK SMILES CC1=CCC[C@H](C)C(=O)C[C@@H](C(C)C)C(=O)C1
REMARK SMILES IDX 8 1 9 2 6 3 7 4 5 5 4 6 3 7 2 8 1 9 10 11 11 12 15 13 16 14
REMARK SMILES IDX 17 15 12 17 13 18 14 19
REMARK H PARENT
REMARK Flexibility Score: 70.00
ROOT
ATOM      1  C   UNL     1      27.548 -21.853  19.147  1.00  0.00     0.136 C 
ATOM      2  O   UNL     1      28.500 -22.007  18.393  1.00  0.00    -0.299 OA
ENDROOT
BRANCH   1   3
ATOM      3  C   UNL     1      27.071 -20.449  19.464  1.00  0.00     0.053 C 
ATOM      4  C   UNL     1      28.266 -19.494  19.578  1.00  0.00     0.016 C 
BRANCH   3   5
ATOM      5  C   UNL     1      26.073 -19.960  18.389  1.00  0.00     0.015 C 
BRANCH   5   6
ATOM      6  C   UNL     1      24.613 -20.163  18.836  1.00  0.00     0.028 C 
BRANCH   6   7
ATOM      7  C   UNL     1      23.808 -21.016  17.885  1.00  0.00    -0.028 C 
ATOM      8  C   UNL     1      23.496 -22.323  18.068  1.00  0.00    -0.070 CG0
ATOM      9  C   UNL     1      22.592 -22.974  17.049  1.00  0.00     0.039 C 
ATOM     10  G   UNL     1      24.045 -23.175  19.205  1.00  0.00     0.000 G0
ENDBRANCH   6   7
ENDBRANCH   5   6
ENDBRANCH   3   5
ENDBRANCH   1   3
BRANCH   1  11
ATOM     11  C   UNL     1      26.894 -23.073  19.756  1.00  0.00     0.087 C 
BRANCH  11  12
ATOM     12  C   UNL     1      26.431 -24.087  18.674  1.00  0.00     0.066 C 
BRANCH  12  13
ATOM     13  C   UNL     1      24.930 -24.308  18.799  1.00  0.00     0.140 C 
ATOM     14  O   UNL     1      24.447 -25.397  18.518  1.00  0.00    -0.299 OA
BRANCH  13  15
ATOM     15  C   UNL     1      24.031 -23.173  19.223  1.00  0.00     0.106 CG0
ATOM     16  G   UNL     1      23.503 -22.332  18.067  1.00  0.00     0.000 G0
ENDBRANCH  13  15
ENDBRANCH  12  13
BRANCH  12  17
ATOM     17  C   UNL     1      27.209 -25.444  18.728  1.00  0.00    -0.006 C 
ATOM     18  C   UNL     1      28.603 -25.300  19.367  1.00  0.00     0.008 C 
ATOM     19  C   UNL     1      27.376 -26.041  17.317  1.00  0.00     0.008 C 
ENDBRANCH  12  17
ENDBRANCH  11  12
ENDBRANCH   1  11
TORSDOF 1
ENDMDL
MODEL 8
REMARK VINA RESULT:    -4.239      2.265      4.214
REMARK INTER + INTRA:          -6.508
REMARK INTER:                  -7.131
REMARK INTRA:                   0.623
REMARK UNBOUND:                -0.039
REMARK SMILES CC1=CCC[C@H](C)C(=O)C[C@@H](C(C)C)C(=O)C1
REMARK SMILES IDX 8 1 9 2 6 3 7 4 5 5 4 6 3 7 2 8 1 9 10 11 11 12 15 13 16 14
REMARK SMILES IDX 17 15 12 17 13 18 14 19
REMARK H PARENT
REMARK Flexibility Score: 70.00
ROOT
ATOM      1  C   UNL     1      24.048 -20.357  19.178  1.00  0.00     0.136 C 
ATOM      2  O   UNL     1      24.149 -19.322  18.533  1.00  0.00    -0.299 OA
ENDROOT
BRANCH   1   3
ATOM      3  C   UNL     1      23.318 -20.336  20.507  1.00  0.00     0.053 C 
ATOM      4  C   UNL     1      23.572 -19.008  21.233  1.00  0.00     0.016 C 
BRANCH   3   5
ATOM      5  C   UNL     1      21.804 -20.570  20.297  1.00  0.00     0.015 C 
BRANCH   5   6
ATOM      6  C   UNL     1      21.426 -22.050  20.501  1.00  0.00     0.028 C 
BRANCH   6   7
ATOM      7  C   UNL     1      22.192 -22.717  21.619  1.00  0.00    -0.028 C 
ATOM      8  C   UNL     1      22.996 -23.801  21.487  1.00  0.00    -0.070 CG0
ATOM      9  C   UNL     1      23.759 -24.256  22.707  1.00  0.00     0.039 C 
ATOM     10  G   UNL     1      23.130 -24.607  20.202  1.00  0.00     0.000 G0
ENDBRANCH   6   7
ENDBRANCH   5   6
ENDBRANCH   3   5
ENDBRANCH   1   3
BRANCH   1  11
ATOM     11  C   UNL     1      24.679 -21.620  18.635  1.00  0.00     0.087 C 
BRANCH  11  12
ATOM     12  C   UNL     1      23.631 -22.745  18.414  1.00  0.00     0.066 C 
BRANCH  12  13
ATOM     13  C   UNL     1      24.065 -23.994  19.170  1.00  0.00     0.140 C 
ATOM     14  O   UNL     1      25.142 -24.518  18.916  1.00  0.00    -0.299 OA
BRANCH  13  15
ATOM     15  C   UNL     1      23.151 -24.612  20.198  1.00  0.00     0.106 CG0
ATOM     16  G   UNL     1      23.012 -23.797  21.478  1.00  0.00     0.000 G0
ENDBRANCH  13  15
ENDBRANCH  12  13
BRANCH  12  17
ATOM     17  C   UNL     1      23.373 -23.060  16.903  1.00  0.00    -0.006 C 
ATOM     18  C   UNL     1      22.153 -22.304  16.343  1.00  0.00     0.008 C 
ATOM     19  C   UNL     1      23.159 -24.570  16.682  1.00  0.00     0.008 C 
ENDBRANCH  12  17
ENDBRANCH  11  12
ENDBRANCH   1  11
TORSDOF 1
ENDMDL
MODEL 9
REMARK VINA RESULT:    -4.155      2.203      4.395
REMARK INTER + INTRA:          -6.380
REMARK INTER:                  -6.175
REMARK INTRA:                  -0.205
REMARK UNBOUND:                -0.039
REMARK SMILES CC1=CCC[C@H](C)C(=O)C[C@@H](C(C)C)C(=O)C1
REMARK SMILES IDX 8 1 9 2 6 3 7 4 5 5 4 6 3 7 2 8 1 9 10 11 11 12 15 13 16 14
REMARK SMILES IDX 17 15 12 17 13 18 14 19
REMARK H PARENT
REMARK Flexibility Score: 70.00
ROOT
ATOM      1  C   UNL     1      25.217 -24.323  18.856  1.00  0.00     0.136 C 
ATOM      2  O   UNL     1      24.434 -24.941  18.147  1.00  0.00    -0.299 OA
ENDROOT
BRANCH   1   3
ATOM      3  C   UNL     1      26.578 -24.921  19.159  1.00  0.00     0.053 C 
ATOM      4  C   UNL     1      27.264 -25.365  17.860  1.00  0.00     0.016 C 
BRANCH   3   5
ATOM      5  C   UNL     1      27.456 -23.908  19.929  1.00  0.00     0.015 C 
BRANCH   5   6
ATOM      6  C   UNL     1      28.224 -22.979  18.969  1.00  0.00     0.028 C 
BRANCH   6   7
ATOM      7  C   UNL     1      28.478 -21.605  19.541  1.00  0.00    -0.028 C 
ATOM      8  C   UNL     1      27.773 -20.484  19.247  1.00  0.00    -0.070 CG0
ATOM      9  C   UNL     1      28.118 -19.225  20.003  1.00  0.00     0.039 C 
ATOM     10  G   UNL     1      26.699 -20.416  18.169  1.00  0.00     0.000 G0
ENDBRANCH   6   7
ENDBRANCH   5   6
ENDBRANCH   3   5
ENDBRANCH   1   3
BRANCH   1  11
ATOM     11  C   UNL     1      24.789 -22.990  19.427  1.00  0.00     0.087 C 
BRANCH  11  12
ATOM     12  C   UNL     1      24.553 -21.929  18.317  1.00  0.00     0.066 C 
BRANCH  12  13
ATOM     13  C   UNL     1      25.290 -20.647  18.679  1.00  0.00     0.140 C 
ATOM     14  O   UNL     1      24.730 -19.790  19.351  1.00  0.00    -0.299 OA
BRANCH  13  15
ATOM     15  C   UNL     1      26.690 -20.410  18.173  1.00  0.00     0.106 CG0
ATOM     16  G   UNL     1      27.764 -20.488  19.251  1.00  0.00     0.000 G0
ENDBRANCH  13  15
ENDBRANCH  12  13
BRANCH  12  17
ATOM     17  C   UNL     1      23.038 -21.652  18.040  1.00  0.00    -0.006 C 
ATOM     18  C   UNL     1      22.138 -22.065  19.221  1.00  0.00     0.008 C 
ATOM     19  C   UNL     1      22.562 -22.397  16.778  1.00  0.00     0.008 C 
ENDBRANCH  12  17
ENDBRANCH  11  12
ENDBRANCH   1  11
TORSDOF 1
ENDMDL
