MODEL 1
REMARK VINA RESULT:    -4.517      0.000      0.000
REMARK INTER + INTRA:          -7.411
REMARK INTER:                  -6.893
REMARK INTRA:                  -0.518
REMARK UNBOUND:                -0.518
REMARK SMILES O=C([O-])CCCCCCCCC(=O)[O-]
REMARK SMILES IDX 7 1 6 2 5 3 4 4 2 5 1 6 3 7 8 8 9 9 10 10 11 11 12 12 13 13
REMARK SMILES IDX 14 14
REMARK H PARENT
REMARK Flexibility Score: inf
ROOT
ATOM      1  C   UNL     1    -119.790 -35.499 -55.978  1.00  0.00     0.000 C 
ENDROOT
BRANCH   1   2
ATOM      2  C   UNL     1    -120.550 -34.818 -57.129  1.00  0.00     0.000 C 
BRANCH   2   3
ATOM      3  C   UNL     1    -122.022 -34.540 -56.782  1.00  0.00     0.006 C 
BRANCH   3   4
ATOM      4  C   UNL     1    -122.995 -35.400 -57.598  1.00  0.00     0.053 C 
BRANCH   4   5
ATOM      5  C   UNL     1    -122.990 -36.810 -57.099  1.00  0.00     0.041 C 
ATOM      6  O   UNL     1    -122.872 -37.768 -57.908  1.00  0.00    -0.550 OA
ATOM      7  O   UNL     1    -123.064 -37.066 -55.736  1.00  0.00    -0.550 OA
ENDBRANCH   4   5
ENDBRANCH   3   4
ENDBRANCH   2   3
ENDBRANCH   1   2
BRANCH   1   8
ATOM      8  C   UNL     1    -119.311 -36.913 -56.341  1.00  0.00     0.000 C 
BRANCH   8   9
ATOM      9  C   UNL     1    -117.796 -37.093 -56.161  1.00  0.00     0.000 C 
BRANCH   9  10
ATOM     10  C   UNL     1    -117.035 -35.843 -56.627  1.00  0.00     0.006 C 
BRANCH  10  11
ATOM     11  C   UNL     1    -115.517 -35.987 -56.456  1.00  0.00     0.053 C 
BRANCH  11  12
ATOM     12  C   UNL     1    -114.767 -35.342 -57.581  1.00  0.00     0.041 C 
ATOM     13  O   UNL     1    -115.348 -35.095 -58.671  1.00  0.00    -0.550 OA
ATOM     14  O   UNL     1    -113.417 -35.045 -57.438  1.00  0.00    -0.550 OA
ENDBRANCH  11  12
ENDBRANCH  10  11
ENDBRANCH   9  10
ENDBRANCH   8   9
ENDBRANCH   1   8
TORSDOF 9
ENDMDL
MODEL 2
REMARK VINA RESULT:    -4.497      0.983      6.606
REMARK INTER + INTRA:          -7.381
REMARK INTER:                  -6.847
REMARK INTRA:                  -0.534
REMARK UNBOUND:                -0.518
REMARK SMILES O=C([O-])CCCCCCCCC(=O)[O-]
REMARK SMILES IDX 7 1 6 2 5 3 4 4 2 5 1 6 3 7 8 8 9 9 10 10 11 11 12 12 13 13
REMARK SMILES IDX 14 14
REMARK H PARENT
REMARK Flexibility Score: inf
ROOT
ATOM      1  C   UNL     1    -119.669 -35.373 -56.710  1.00  0.00     0.000 C 
ENDROOT
BRANCH   1   2
ATOM      2  C   UNL     1    -119.019 -36.637 -56.122  1.00  0.00     0.000 C 
BRANCH   2   3
ATOM      3  C   UNL     1    -117.503 -36.692 -56.372  1.00  0.00     0.006 C 
BRANCH   3   4
ATOM      4  C   UNL     1    -116.919 -35.331 -56.771  1.00  0.00     0.053 C 
BRANCH   4   5
ATOM      5  C   UNL     1    -115.532 -35.496 -57.308  1.00  0.00     0.041 C 
ATOM      6  O   UNL     1    -115.284 -35.235 -58.515  1.00  0.00    -0.550 OA
ATOM      7  O   UNL     1    -114.501 -35.888 -56.464  1.00  0.00    -0.550 OA
ENDBRANCH   4   5
ENDBRANCH   3   4
ENDBRANCH   2   3
ENDBRANCH   1   2
BRANCH   1   8
ATOM      8  C   UNL     1    -120.523 -34.614 -55.682  1.00  0.00     0.000 C 
BRANCH   8   9
ATOM      9  C   UNL     1    -121.792 -34.004 -56.297  1.00  0.00     0.000 C 
BRANCH   9  10
ATOM     10  C   UNL     1    -122.666 -35.090 -56.942  1.00  0.00     0.006 C 
BRANCH  10  11
ATOM     11  C   UNL     1    -123.038 -36.202 -55.951  1.00  0.00     0.053 C 
BRANCH  11  12
ATOM     12  C   UNL     1    -122.623 -37.552 -56.449  1.00  0.00     0.041 C 
ATOM     13  O   UNL     1    -122.875 -37.895 -57.635  1.00  0.00    -0.550 OA
ATOM     14  O   UNL     1    -121.989 -38.445 -55.595  1.00  0.00    -0.550 OA
ENDBRANCH  11  12
ENDBRANCH  10  11
ENDBRANCH   9  10
ENDBRANCH   8   9
ENDBRANCH   1   8
TORSDOF 9
ENDMDL
MODEL 3
REMARK VINA RESULT:    -4.408      3.064      3.515
REMARK INTER + INTRA:          -7.245
REMARK INTER:                  -6.881
REMARK INTRA:                  -0.364
REMARK UNBOUND:                -0.518
REMARK SMILES O=C([O-])CCCCCCCCC(=O)[O-]
REMARK SMILES IDX 7 1 6 2 5 3 4 4 2 5 1 6 3 7 8 8 9 9 10 10 11 11 12 12 13 13
REMARK SMILES IDX 14 14
REMARK H PARENT
REMARK Flexibility Score: inf
ROOT
ATOM      1  C   UNL     1    -121.006 -34.539 -55.823  1.00  0.00     0.000 C 
ENDROOT
BRANCH   1   2
ATOM      2  C   UNL     1    -122.281 -34.229 -56.627  1.00  0.00     0.000 C 
BRANCH   2   3
ATOM      3  C   UNL     1    -121.976 -33.599 -57.996  1.00  0.00     0.006 C 
BRANCH   3   4
ATOM      4  C   UNL     1    -123.023 -32.561 -58.417  1.00  0.00     0.053 C 
BRANCH   4   5
ATOM      5  C   UNL     1    -122.448 -31.617 -59.426  1.00  0.00     0.041 C 
ATOM      6  O   UNL     1    -122.400 -30.382 -59.184  1.00  0.00    -0.550 OA
ATOM      7  O   UNL     1    -121.917 -32.107 -60.612  1.00  0.00    -0.550 OA
ENDBRANCH   4   5
ENDBRANCH   3   4
ENDBRANCH   2   3
ENDBRANCH   1   2
BRANCH   1   8
ATOM      8  C   UNL     1    -119.887 -35.131 -56.694  1.00  0.00     0.000 C 
BRANCH   8   9
ATOM      9  C   UNL     1    -119.382 -36.486 -56.173  1.00  0.00     0.000 C 
BRANCH   9  10
ATOM     10  C   UNL     1    -117.848 -36.552 -56.212  1.00  0.00     0.006 C 
BRANCH  10  11
ATOM     11  C   UNL     1    -117.226 -35.280 -56.806  1.00  0.00     0.053 C 
BRANCH  11  12
ATOM     12  C   UNL     1    -115.822 -35.514 -57.272  1.00  0.00     0.041 C 
ATOM     13  O   UNL     1    -115.482 -35.201 -58.444  1.00  0.00    -0.550 OA
ATOM     14  O   UNL     1    -114.896 -36.108 -56.423  1.00  0.00    -0.550 OA
ENDBRANCH  11  12
ENDBRANCH  10  11
ENDBRANCH   9  10
ENDBRANCH   8   9
ENDBRANCH   1   8
TORSDOF 9
ENDMDL
MODEL 4
REMARK VINA RESULT:    -4.244      1.775      6.859
REMARK INTER + INTRA:          -6.995
REMARK INTER:                  -6.564
REMARK INTRA:                  -0.430
REMARK UNBOUND:                -0.518
REMARK SMILES O=C([O-])CCCCCCCCC(=O)[O-]
REMARK SMILES IDX 7 1 6 2 5 3 4 4 2 5 1 6 3 7 8 8 9 9 10 10 11 11 12 12 13 13
REMARK SMILES IDX 14 14
REMARK H PARENT
REMARK Flexibility Score: inf
ROOT
ATOM      1  C   UNL     1    -119.151 -36.267 -56.095  1.00  0.00     0.000 C 
ENDROOT
BRANCH   1   2
ATOM      2  C   UNL     1    -118.139 -37.421 -56.205  1.00  0.00     0.000 C 
BRANCH   2   3
ATOM      3  C   UNL     1    -116.692 -36.925 -56.356  1.00  0.00     0.006 C 
BRANCH   3   4
ATOM      4  C   UNL     1    -116.611 -35.493 -56.901  1.00  0.00     0.053 C 
BRANCH   4   5
ATOM      5  C   UNL     1    -115.233 -35.206 -57.410  1.00  0.00     0.041 C 
ATOM      6  O   UNL     1    -115.075 -34.598 -58.502  1.00  0.00    -0.550 OA
ATOM      7  O   UNL     1    -114.124 -35.563 -56.654  1.00  0.00    -0.550 OA
ENDBRANCH   4   5
ENDBRANCH   3   4
ENDBRANCH   2   3
ENDBRANCH   1   2
BRANCH   1   8
ATOM      8  C   UNL     1    -120.608 -36.748 -56.183  1.00  0.00     0.000 C 
BRANCH   8   9
ATOM      9  C   UNL     1    -121.461 -35.890 -57.130  1.00  0.00     0.000 C 
BRANCH   9  10
ATOM     10  C   UNL     1    -121.310 -34.397 -56.805  1.00  0.00     0.006 C 
BRANCH  10  11
ATOM     11  C   UNL     1    -122.647 -33.745 -56.428  1.00  0.00     0.053 C 
BRANCH  11  12
ATOM     12  C   UNL     1    -122.834 -33.677 -54.943  1.00  0.00     0.041 C 
ATOM     13  O   UNL     1    -122.811 -32.565 -54.352  1.00  0.00    -0.550 OA
ATOM     14  O   UNL     1    -123.000 -34.844 -54.208  1.00  0.00    -0.550 OA
ENDBRANCH  11  12
ENDBRANCH  10  11
ENDBRANCH   9  10
ENDBRANCH   8   9
ENDBRANCH   1   8
TORSDOF 9
ENDMDL
MODEL 5
REMARK VINA RESULT:    -4.210      2.597      6.657
REMARK INTER + INTRA:          -6.942
REMARK INTER:                  -6.620
REMARK INTRA:                  -0.323
REMARK UNBOUND:                -0.518
REMARK SMILES O=C([O-])CCCCCCCCC(=O)[O-]
REMARK SMILES IDX 7 1 6 2 5 3 4 4 2 5 1 6 3 7 8 8 9 9 10 10 11 11 12 12 13 13
REMARK SMILES IDX 14 14
REMARK H PARENT
REMARK Flexibility Score: inf
ROOT
ATOM      1  C   UNL     1    -119.539 -36.082 -56.374  1.00  0.00     0.000 C 
ENDROOT
BRANCH   1   2
ATOM      2  C   UNL     1    -118.574 -37.158 -55.848  1.00  0.00     0.000 C 
BRANCH   2   3
ATOM      3  C   UNL     1    -117.160 -37.021 -56.438  1.00  0.00     0.006 C 
BRANCH   3   4
ATOM      4  C   UNL     1    -116.787 -35.567 -56.750  1.00  0.00     0.053 C 
BRANCH   4   5
ATOM      5  C   UNL     1    -115.418 -35.496 -57.350  1.00  0.00     0.041 C 
ATOM      6  O   UNL     1    -115.266 -35.112 -58.540  1.00  0.00    -0.550 OA
ATOM      7  O   UNL     1    -114.305 -35.807 -56.580  1.00  0.00    -0.550 OA
ENDBRANCH   4   5
ENDBRANCH   3   4
ENDBRANCH   2   3
ENDBRANCH   1   2
BRANCH   1   8
ATOM      8  C   UNL     1    -120.979 -36.601 -56.519  1.00  0.00     0.000 C 
BRANCH   8   9
ATOM      9  C   UNL     1    -122.024 -35.475 -56.471  1.00  0.00     0.000 C 
BRANCH   9  10
ATOM     10  C   UNL     1    -121.652 -34.338 -57.434  1.00  0.00     0.006 C 
BRANCH  10  11
ATOM     11  C   UNL     1    -122.882 -33.738 -58.129  1.00  0.00     0.053 C 
BRANCH  11  12
ATOM     12  C   UNL     1    -122.518 -32.567 -58.989  1.00  0.00     0.041 C 
ATOM     13  O   UNL     1    -121.640 -32.687 -59.884  1.00  0.00    -0.550 OA
ATOM     14  O   UNL     1    -123.125 -31.335 -58.781  1.00  0.00    -0.550 OA
ENDBRANCH  11  12
ENDBRANCH  10  11
ENDBRANCH   9  10
ENDBRANCH   8   9
ENDBRANCH   1   8
TORSDOF 9
ENDMDL
MODEL 6
REMARK VINA RESULT:    -4.106     13.041     15.166
REMARK INTER + INTRA:          -6.785
REMARK INTER:                  -5.846
REMARK INTRA:                  -0.939
REMARK UNBOUND:                -0.518
REMARK SMILES O=C([O-])CCCCCCCCC(=O)[O-]
REMARK SMILES IDX 7 1 6 2 5 3 4 4 2 5 1 6 3 7 8 8 9 9 10 10 11 11 12 12 13 13
REMARK SMILES IDX 14 14
REMARK H PARENT
REMARK Flexibility Score: inf
ROOT
ATOM      1  C   UNL     1    -113.691 -41.199 -65.514  1.00  0.00     0.000 C 
ENDROOT
BRANCH   1   2
ATOM      2  C   UNL     1    -113.044 -42.144 -64.486  1.00  0.00     0.000 C 
BRANCH   2   3
ATOM      3  C   UNL     1    -111.698 -42.709 -64.969  1.00  0.00     0.006 C 
BRANCH   3   4
ATOM      4  C   UNL     1    -110.832 -41.656 -65.673  1.00  0.00     0.053 C 
BRANCH   4   5
ATOM      5  C   UNL     1    -110.218 -42.229 -66.911  1.00  0.00     0.041 C 
ATOM      6  O   UNL     1    -109.862 -41.471 -67.852  1.00  0.00    -0.550 OA
ATOM      7  O   UNL     1    -109.991 -43.597 -67.006  1.00  0.00    -0.550 OA
ENDBRANCH   4   5
ENDBRANCH   3   4
ENDBRANCH   2   3
ENDBRANCH   1   2
BRANCH   1   8
ATOM      8  C   UNL     1    -114.486 -41.954 -66.591  1.00  0.00     0.000 C 
BRANCH   8   9
ATOM      9  C   UNL     1    -113.787 -41.948 -67.960  1.00  0.00     0.000 C 
BRANCH   9  10
ATOM     10  C   UNL     1    -113.425 -43.374 -68.398  1.00  0.00     0.006 C 
BRANCH  10  11
ATOM     11  C   UNL     1    -112.494 -43.390 -69.618  1.00  0.00     0.053 C 
BRANCH  11  12
ATOM     12  C   UNL     1    -113.195 -42.923 -70.858  1.00  0.00     0.041 C 
ATOM     13  O   UNL     1    -114.020 -43.676 -71.440  1.00  0.00    -0.550 OA
ATOM     14  O   UNL     1    -112.912 -41.671 -71.388  1.00  0.00    -0.550 OA
ENDBRANCH  11  12
ENDBRANCH  10  11
ENDBRANCH   9  10
ENDBRANCH   8   9
ENDBRANCH   1   8
TORSDOF 9
ENDMDL
MODEL 7
REMARK VINA RESULT:    -4.066     12.179     14.157
REMARK INTER + INTRA:          -6.724
REMARK INTER:                  -5.611
REMARK INTRA:                  -1.113
REMARK UNBOUND:                -0.518
REMARK SMILES O=C([O-])CCCCCCCCC(=O)[O-]
REMARK SMILES IDX 7 1 6 2 5 3 4 4 2 5 1 6 3 7 8 8 9 9 10 10 11 11 12 12 13 13
REMARK SMILES IDX 14 14
REMARK H PARENT
REMARK Flexibility Score: inf
ROOT
ATOM      1  C   UNL     1    -113.740 -41.093 -65.494  1.00  0.00     0.000 C 
ENDROOT
BRANCH   1   2
ATOM      2  C   UNL     1    -114.421 -42.057 -66.482  1.00  0.00     0.000 C 
BRANCH   2   3
ATOM      3  C   UNL     1    -113.768 -42.034 -67.874  1.00  0.00     0.006 C 
BRANCH   3   4
ATOM      4  C   UNL     1    -113.417 -43.436 -68.387  1.00  0.00     0.053 C 
BRANCH   4   5
ATOM      5  C   UNL     1    -112.495 -43.346 -69.562  1.00  0.00     0.041 C 
ATOM      6  O   UNL     1    -111.369 -43.908 -69.529  1.00  0.00    -0.550 OA
ATOM      7  O   UNL     1    -112.900 -42.683 -70.714  1.00  0.00    -0.550 OA
ENDBRANCH   4   5
ENDBRANCH   3   4
ENDBRANCH   2   3
ENDBRANCH   1   2
BRANCH   1   8
ATOM      8  C   UNL     1    -113.326 -41.783 -64.185  1.00  0.00     0.000 C 
BRANCH   8   9
ATOM      9  C   UNL     1    -112.590 -43.111 -64.420  1.00  0.00     0.000 C 
BRANCH   9  10
ATOM     10  C   UNL     1    -111.081 -42.880 -64.587  1.00  0.00     0.006 C 
BRANCH  10  11
ATOM     11  C   UNL     1    -110.640 -42.952 -66.056  1.00  0.00     0.053 C 
BRANCH  11  12
ATOM     12  C   UNL     1    -110.225 -41.610 -66.578  1.00  0.00     0.041 C 
ATOM     13  O   UNL     1    -110.205 -40.611 -65.812  1.00  0.00    -0.550 OA
ATOM     14  O   UNL     1    -109.894 -41.456 -67.918  1.00  0.00    -0.550 OA
ENDBRANCH  11  12
ENDBRANCH  10  11
ENDBRANCH   9  10
ENDBRANCH   8   9
ENDBRANCH   1   8
TORSDOF 9
ENDMDL
MODEL 8
REMARK VINA RESULT:    -4.028     12.806     14.820
REMARK INTER + INTRA:          -6.665
REMARK INTER:                  -5.672
REMARK INTRA:                  -0.993
REMARK UNBOUND:                -0.518
REMARK SMILES O=C([O-])CCCCCCCCC(=O)[O-]
REMARK SMILES IDX 7 1 6 2 5 3 4 4 2 5 1 6 3 7 8 8 9 9 10 10 11 11 12 12 13 13
REMARK SMILES IDX 14 14
REMARK H PARENT
REMARK Flexibility Score: inf
ROOT
ATOM      1  C   UNL     1    -112.259 -41.280 -65.339  1.00  0.00     0.000 C 
ENDROOT
BRANCH   1   2
ATOM      2  C   UNL     1    -111.960 -42.719 -64.884  1.00  0.00     0.000 C 
BRANCH   2   3
ATOM      3  C   UNL     1    -110.525 -43.159 -65.221  1.00  0.00     0.006 C 
BRANCH   3   4
ATOM      4  C   UNL     1    -109.578 -41.972 -65.439  1.00  0.00     0.053 C 
BRANCH   4   5
ATOM      5  C   UNL     1    -108.400 -42.069 -64.522  1.00  0.00     0.041 C 
ATOM      6  O   UNL     1    -107.341 -41.437 -64.780  1.00  0.00    -0.550 OA
ATOM      7  O   UNL     1    -108.487 -42.817 -63.354  1.00  0.00    -0.550 OA
ENDBRANCH   4   5
ENDBRANCH   3   4
ENDBRANCH   2   3
ENDBRANCH   1   2
BRANCH   1   8
ATOM      8  C   UNL     1    -113.723 -41.087 -65.764  1.00  0.00     0.000 C 
BRANCH   8   9
ATOM      9  C   UNL     1    -114.298 -42.313 -66.491  1.00  0.00     0.000 C 
BRANCH   9  10
ATOM     10  C   UNL     1    -114.088 -42.200 -68.008  1.00  0.00     0.006 C 
BRANCH  10  11
ATOM     11  C   UNL     1    -113.277 -43.375 -68.572  1.00  0.00     0.053 C 
BRANCH  11  12
ATOM     12  C   UNL     1    -111.820 -43.044 -68.678  1.00  0.00     0.041 C 
ATOM     13  O   UNL     1    -111.446 -41.843 -68.756  1.00  0.00    -0.550 OA
ATOM     14  O   UNL     1    -110.876 -44.062 -68.725  1.00  0.00    -0.550 OA
ENDBRANCH  11  12
ENDBRANCH  10  11
ENDBRANCH   9  10
ENDBRANCH   8   9
ENDBRANCH   1   8
TORSDOF 9
ENDMDL
MODEL 9
REMARK VINA RESULT:    -4.014     15.590     17.122
REMARK INTER + INTRA:          -6.643
REMARK INTER:                  -5.701
REMARK INTRA:                  -0.942
REMARK UNBOUND:                -0.518
REMARK SMILES O=C([O-])CCCCCCCCC(=O)[O-]
REMARK SMILES IDX 7 1 6 2 5 3 4 4 2 5 1 6 3 7 8 8 9 9 10 10 11 11 12 12 13 13
REMARK SMILES IDX 14 14
REMARK H PARENT
REMARK Flexibility Score: inf
ROOT
ATOM      1  C   UNL     1    -106.673 -28.731 -59.880  1.00  0.00     0.000 C 
ENDROOT
BRANCH   1   2
ATOM      2  C   UNL     1    -107.580 -27.595 -59.375  1.00  0.00     0.000 C 
BRANCH   2   3
ATOM      3  C   UNL     1    -107.713 -26.450 -60.394  1.00  0.00     0.006 C 
BRANCH   3   4
ATOM      4  C   UNL     1    -106.983 -26.742 -61.711  1.00  0.00     0.053 C 
BRANCH   4   5
ATOM      5  C   UNL     1    -106.257 -25.523 -62.186  1.00  0.00     0.041 C 
ATOM      6  O   UNL     1    -105.788 -25.479 -63.354  1.00  0.00    -0.550 OA
ATOM      7  O   UNL     1    -106.141 -24.415 -61.355  1.00  0.00    -0.550 OA
ENDBRANCH   4   5
ENDBRANCH   3   4
ENDBRANCH   2   3
ENDBRANCH   1   2
BRANCH   1   8
ATOM      8  C   UNL     1    -105.424 -28.922 -59.005  1.00  0.00     0.000 C 
BRANCH   8   9
ATOM      9  C   UNL     1    -104.156 -28.336 -59.645  1.00  0.00     0.000 C 
BRANCH   9  10
ATOM     10  C   UNL     1    -103.460 -27.357 -58.688  1.00  0.00     0.006 C 
BRANCH  10  11
ATOM     11  C   UNL     1    -103.934 -25.911 -58.889  1.00  0.00     0.053 C 
BRANCH  11  12
ATOM     12  C   UNL     1    -104.570 -25.358 -57.650  1.00  0.00     0.041 C 
ATOM     13  O   UNL     1    -105.756 -25.663 -57.356  1.00  0.00    -0.550 OA
ATOM     14  O   UNL     1    -103.865 -24.479 -56.838  1.00  0.00    -0.550 OA
ENDBRANCH  11  12
ENDBRANCH  10  11
ENDBRANCH   9  10
ENDBRANCH   8   9
ENDBRANCH   1   8
TORSDOF 9
ENDMDL
