MODEL 1
REMARK VINA RESULT:    -3.586      0.000      0.000
REMARK INTER + INTRA:          -5.651
REMARK INTER:                  -5.054
REMARK INTRA:                  -0.597
REMARK UNBOUND:                -0.597
REMARK SMILES CCCCCCCCC(=O)[O-]
REMARK SMILES IDX 6 1 7 2 8 3 9 4 10 5 11 6 5 7 4 8 3 9 2 10 1 11
REMARK H PARENT
REMARK Flexibility Score: inf
ROOT
ATOM      1  C   UNL     1     174.560 174.806 151.197  1.00  0.00     0.000 C 
ENDROOT
BRANCH   1   2
ATOM      2  C   UNL     1     176.089 174.923 151.088  1.00  0.00     0.006 C 
BRANCH   2   3
ATOM      3  C   UNL     1     176.775 173.566 150.877  1.00  0.00     0.053 C 
BRANCH   3   4
ATOM      4  C   UNL     1     176.736 172.761 152.137  1.00  0.00     0.041 C 
ATOM      5  O   UNL     1     177.363 173.150 153.158  1.00  0.00    -0.550 OA
ATOM      6  O   UNL     1     176.046 171.556 152.172  1.00  0.00    -0.550 OA
ENDBRANCH   3   4
ENDBRANCH   2   3
ENDBRANCH   1   2
BRANCH   1   7
ATOM      7  C   UNL     1     173.840 176.107 150.802  1.00  0.00     0.000 C 
BRANCH   7   8
ATOM      8  C   UNL     1     174.736 177.347 150.955  1.00  0.00    -0.000 C 
BRANCH   8   9
ATOM      9  C   UNL     1     174.485 178.099 152.273  1.00  0.00    -0.000 C 
BRANCH   9  10
ATOM     10  C   UNL     1     175.724 178.123 153.183  1.00  0.00    -0.003 C 
ATOM     11  C   UNL     1     175.656 177.085 154.303  1.00  0.00     0.004 C 
ENDBRANCH   9  10
ENDBRANCH   8   9
ENDBRANCH   7   8
ENDBRANCH   1   7
TORSDOF 7
ENDMDL
MODEL 2
REMARK VINA RESULT:    -3.562     12.043     13.597
REMARK INTER + INTRA:          -5.616
REMARK INTER:                  -5.336
REMARK INTRA:                  -0.280
REMARK UNBOUND:                -0.597
REMARK SMILES CCCCCCCCC(=O)[O-]
REMARK SMILES IDX 6 1 7 2 8 3 9 4 10 5 11 6 5 7 4 8 3 9 2 10 1 11
REMARK H PARENT
REMARK Flexibility Score: inf
ROOT
ATOM      1  C   UNL     1     162.568 176.717 150.859  1.00  0.00     0.000 C 
ENDROOT
BRANCH   1   2
ATOM      2  C   UNL     1     161.163 177.299 150.634  1.00  0.00     0.006 C 
BRANCH   2   3
ATOM      3  C   UNL     1     160.432 177.609 151.948  1.00  0.00     0.053 C 
BRANCH   3   4
ATOM      4  C   UNL     1     159.984 176.342 152.606  1.00  0.00     0.041 C 
ATOM      5  O   UNL     1     159.486 175.412 151.918  1.00  0.00    -0.550 OA
ATOM      6  O   UNL     1     160.073 176.207 153.985  1.00  0.00    -0.550 OA
ENDBRANCH   3   4
ENDBRANCH   2   3
ENDBRANCH   1   2
BRANCH   1   7
ATOM      7  C   UNL     1     163.488 177.679 151.631  1.00  0.00     0.000 C 
BRANCH   7   8
ATOM      8  C   UNL     1     164.704 178.125 150.802  1.00  0.00    -0.000 C 
BRANCH   8   9
ATOM      9  C   UNL     1     165.960 177.288 151.097  1.00  0.00    -0.000 C 
BRANCH   9  10
ATOM     10  C   UNL     1     166.964 177.302 149.934  1.00  0.00    -0.003 C 
ATOM     11  C   UNL     1     167.151 175.926 149.296  1.00  0.00     0.004 C 
ENDBRANCH   9  10
ENDBRANCH   8   9
ENDBRANCH   7   8
ENDBRANCH   1   7
TORSDOF 7
ENDMDL
MODEL 3
REMARK VINA RESULT:    -3.557      2.582      3.937
REMARK INTER + INTRA:          -5.610
REMARK INTER:                  -5.104
REMARK INTRA:                  -0.506
REMARK UNBOUND:                -0.597
REMARK SMILES CCCCCCCCC(=O)[O-]
REMARK SMILES IDX 6 1 7 2 8 3 9 4 10 5 11 6 5 7 4 8 3 9 2 10 1 11
REMARK H PARENT
REMARK Flexibility Score: inf
ROOT
ATOM      1  C   UNL     1     176.393 172.214 151.188  1.00  0.00     0.000 C 
ENDROOT
BRANCH   1   2
ATOM      2  C   UNL     1     176.498 171.020 150.225  1.00  0.00     0.006 C 
BRANCH   2   3
ATOM      3  C   UNL     1     175.574 171.158 149.006  1.00  0.00     0.053 C 
BRANCH   3   4
ATOM      4  C   UNL     1     174.143 171.035 149.422  1.00  0.00     0.041 C 
ATOM      5  O   UNL     1     173.730 169.978 149.968  1.00  0.00    -0.550 OA
ATOM      6  O   UNL     1     173.253 172.069 149.163  1.00  0.00    -0.550 OA
ENDBRANCH   3   4
ENDBRANCH   2   3
ENDBRANCH   1   2
BRANCH   1   7
ATOM      7  C   UNL     1     176.890 173.526 150.557  1.00  0.00     0.000 C 
BRANCH   7   8
ATOM      8  C   UNL     1     176.169 174.762 151.121  1.00  0.00    -0.000 C 
BRANCH   8   9
ATOM      9  C   UNL     1     174.639 174.611 151.111  1.00  0.00    -0.000 C 
BRANCH   9  10
ATOM     10  C   UNL     1     173.919 175.930 150.788  1.00  0.00    -0.003 C 
ATOM     11  C   UNL     1     174.876 177.115 150.674  1.00  0.00     0.004 C 
ENDBRANCH   9  10
ENDBRANCH   8   9
ENDBRANCH   7   8
ENDBRANCH   1   7
TORSDOF 7
ENDMDL
MODEL 4
REMARK VINA RESULT:    -3.510     13.825     15.184
REMARK INTER + INTRA:          -5.543
REMARK INTER:                  -4.902
REMARK INTRA:                  -0.640
REMARK UNBOUND:                -0.597
REMARK SMILES CCCCCCCCC(=O)[O-]
REMARK SMILES IDX 6 1 7 2 8 3 9 4 10 5 11 6 5 7 4 8 3 9 2 10 1 11
REMARK H PARENT
REMARK Flexibility Score: inf
ROOT
ATOM      1  C   UNL     1     160.004 175.471 152.917  1.00  0.00     0.000 C 
ENDROOT
BRANCH   1   2
ATOM      2  C   UNL     1     159.548 174.401 151.912  1.00  0.00     0.006 C 
BRANCH   2   3
ATOM      3  C   UNL     1     160.513 173.210 151.834  1.00  0.00     0.053 C 
BRANCH   3   4
ATOM      4  C   UNL     1     159.751 171.926 151.742  1.00  0.00     0.041 C 
ATOM      5  O   UNL     1     159.565 171.378 150.623  1.00  0.00    -0.550 OA
ATOM      6  O   UNL     1     159.204 171.359 152.886  1.00  0.00    -0.550 OA
ENDBRANCH   3   4
ENDBRANCH   2   3
ENDBRANCH   1   2
BRANCH   1   7
ATOM      7  C   UNL     1     160.104 176.870 152.283  1.00  0.00     0.000 C 
BRANCH   7   8
ATOM      8  C   UNL     1     160.624 176.827 150.837  1.00  0.00    -0.000 C 
BRANCH   8   9
ATOM      9  C   UNL     1     161.978 177.537 150.673  1.00  0.00    -0.000 C 
BRANCH   9  10
ATOM     10  C   UNL     1     163.128 176.775 151.352  1.00  0.00    -0.003 C 
ATOM     11  C   UNL     1     163.346 175.383 150.762  1.00  0.00     0.004 C 
ENDBRANCH   9  10
ENDBRANCH   8   9
ENDBRANCH   7   8
ENDBRANCH   1   7
TORSDOF 7
ENDMDL
MODEL 5
REMARK VINA RESULT:    -3.473      2.029      3.929
REMARK INTER + INTRA:          -5.492
REMARK INTER:                  -4.769
REMARK INTRA:                  -0.722
REMARK UNBOUND:                -0.597
REMARK SMILES CCCCCCCCC(=O)[O-]
REMARK SMILES IDX 6 1 7 2 8 3 9 4 10 5 11 6 5 7 4 8 3 9 2 10 1 11
REMARK H PARENT
REMARK Flexibility Score: inf
ROOT
ATOM      1  C   UNL     1     175.353 178.125 151.502  1.00  0.00     0.000 C 
ENDROOT
BRANCH   1   2
ATOM      2  C   UNL     1     174.834 178.125 152.950  1.00  0.00     0.006 C 
BRANCH   2   3
ATOM      3  C   UNL     1     175.908 177.712 153.965  1.00  0.00     0.053 C 
BRANCH   3   4
ATOM      4  C   UNL     1     175.567 176.390 154.576  1.00  0.00     0.041 C 
ATOM      5  O   UNL     1     174.370 176.002 154.620  1.00  0.00    -0.550 OA
ATOM      6  O   UNL     1     176.566 175.607 155.141  1.00  0.00    -0.550 OA
ENDBRANCH   3   4
ENDBRANCH   2   3
ENDBRANCH   1   2
BRANCH   1   7
ATOM      7  C   UNL     1     174.382 177.435 150.528  1.00  0.00     0.000 C 
BRANCH   7   8
ATOM      8  C   UNL     1     173.498 176.384 151.221  1.00  0.00    -0.000 C 
BRANCH   8   9
ATOM      9  C   UNL     1     173.887 174.944 150.847  1.00  0.00    -0.000 C 
BRANCH   9  10
ATOM     10  C   UNL     1     175.363 174.636 151.145  1.00  0.00    -0.003 C 
ATOM     11  C   UNL     1     175.540 173.579 152.234  1.00  0.00     0.004 C 
ENDBRANCH   9  10
ENDBRANCH   8   9
ENDBRANCH   7   8
ENDBRANCH   1   7
TORSDOF 7
ENDMDL
MODEL 6
REMARK VINA RESULT:    -3.436     12.003     13.470
REMARK INTER + INTRA:          -5.439
REMARK INTER:                  -5.052
REMARK INTRA:                  -0.387
REMARK UNBOUND:                -0.597
REMARK SMILES CCCCCCCCC(=O)[O-]
REMARK SMILES IDX 6 1 7 2 8 3 9 4 10 5 11 6 5 7 4 8 3 9 2 10 1 11
REMARK H PARENT
REMARK Flexibility Score: inf
ROOT
ATOM      1  C   UNL     1     162.703 176.688 151.112  1.00  0.00     0.000 C 
ENDROOT
BRANCH   1   2
ATOM      2  C   UNL     1     163.530 177.908 151.553  1.00  0.00     0.006 C 
BRANCH   2   3
ATOM      3  C   UNL     1     164.899 177.977 150.863  1.00  0.00     0.053 C 
BRANCH   3   4
ATOM      4  C   UNL     1     165.990 177.670 151.838  1.00  0.00     0.041 C 
ATOM      5  O   UNL     1     165.922 178.097 153.021  1.00  0.00    -0.550 OA
ATOM      6  O   UNL     1     167.107 176.953 151.428  1.00  0.00    -0.550 OA
ENDBRANCH   3   4
ENDBRANCH   2   3
ENDBRANCH   1   2
BRANCH   1   7
ATOM      7  C   UNL     1     161.311 177.079 150.585  1.00  0.00     0.000 C 
BRANCH   7   8
ATOM      8  C   UNL     1     160.292 177.295 151.717  1.00  0.00    -0.000 C 
BRANCH   8   9
ATOM      9  C   UNL     1     160.097 176.040 152.585  1.00  0.00    -0.000 C 
BRANCH   9  10
ATOM     10  C   UNL     1     159.366 174.915 151.836  1.00  0.00    -0.003 C 
ATOM     11  C   UNL     1     160.044 173.555 152.001  1.00  0.00     0.004 C 
ENDBRANCH   9  10
ENDBRANCH   8   9
ENDBRANCH   7   8
ENDBRANCH   1   7
TORSDOF 7
ENDMDL
MODEL 7
REMARK VINA RESULT:    -3.425      9.507     10.987
REMARK INTER + INTRA:          -5.423
REMARK INTER:                  -5.013
REMARK INTRA:                  -0.411
REMARK UNBOUND:                -0.597
REMARK SMILES CCCCCCCCC(=O)[O-]
REMARK SMILES IDX 6 1 7 2 8 3 9 4 10 5 11 6 5 7 4 8 3 9 2 10 1 11
REMARK H PARENT
REMARK Flexibility Score: inf
ROOT
ATOM      1  C   UNL     1     165.483 176.235 151.003  1.00  0.00     0.000 C 
ENDROOT
BRANCH   1   2
ATOM      2  C   UNL     1     166.587 176.131 149.938  1.00  0.00     0.006 C 
BRANCH   2   3
ATOM      3  C   UNL     1     167.772 177.065 150.218  1.00  0.00     0.053 C 
BRANCH   3   4
ATOM      4  C   UNL     1     168.510 176.618 151.440  1.00  0.00     0.041 C 
ATOM      5  O   UNL     1     168.564 177.362 152.456  1.00  0.00    -0.550 OA
ATOM      6  O   UNL     1     169.180 175.402 151.441  1.00  0.00    -0.550 OA
ENDBRANCH   3   4
ENDBRANCH   2   3
ENDBRANCH   1   2
BRANCH   1   7
ATOM      7  C   UNL     1     164.856 177.639 151.065  1.00  0.00     0.000 C 
BRANCH   7   8
ATOM      8  C   UNL     1     163.318 177.599 151.058  1.00  0.00    -0.000 C 
BRANCH   8   9
ATOM      9  C   UNL     1     162.764 176.164 151.034  1.00  0.00    -0.000 C 
BRANCH   9  10
ATOM     10  C   UNL     1     161.261 176.119 150.717  1.00  0.00    -0.003 C 
ATOM     11  C   UNL     1     160.709 177.471 150.266  1.00  0.00     0.004 C 
ENDBRANCH   9  10
ENDBRANCH   8   9
ENDBRANCH   7   8
ENDBRANCH   1   7
TORSDOF 7
ENDMDL
MODEL 8
REMARK VINA RESULT:    -3.393     10.214     11.720
REMARK INTER + INTRA:          -5.379
REMARK INTER:                  -4.978
REMARK INTRA:                  -0.401
REMARK UNBOUND:                -0.597
REMARK SMILES CCCCCCCCC(=O)[O-]
REMARK SMILES IDX 6 1 7 2 8 3 9 4 10 5 11 6 5 7 4 8 3 9 2 10 1 11
REMARK H PARENT
REMARK Flexibility Score: inf
ROOT
ATOM      1  C   UNL     1     165.228 178.069 150.727  1.00  0.00     0.000 C 
ENDROOT
BRANCH   1   2
ATOM      2  C   UNL     1     166.077 176.804 150.932  1.00  0.00     0.006 C 
BRANCH   2   3
ATOM      3  C   UNL     1     166.858 176.403 149.672  1.00  0.00     0.053 C 
BRANCH   3   4
ATOM      4  C   UNL     1     166.834 174.917 149.495  1.00  0.00     0.041 C 
ATOM      5  O   UNL     1     165.830 174.355 148.984  1.00  0.00    -0.550 OA
ATOM      6  O   UNL     1     167.902 174.148 149.940  1.00  0.00    -0.550 OA
ENDBRANCH   3   4
ENDBRANCH   2   3
ENDBRANCH   1   2
BRANCH   1   7
ATOM      7  C   UNL     1     163.752 177.855 151.104  1.00  0.00     0.000 C 
BRANCH   7   8
ATOM      8  C   UNL     1     163.414 176.374 151.350  1.00  0.00    -0.000 C 
BRANCH   8   9
ATOM      9  C   UNL     1     162.063 175.966 150.739  1.00  0.00    -0.000 C 
BRANCH   9  10
ATOM     10  C   UNL     1     161.036 177.109 150.765  1.00  0.00    -0.003 C 
ATOM     11  C   UNL     1     160.207 177.133 152.048  1.00  0.00     0.004 C 
ENDBRANCH   9  10
ENDBRANCH   8   9
ENDBRANCH   7   8
ENDBRANCH   1   7
TORSDOF 7
ENDMDL
MODEL 9
REMARK VINA RESULT:    -3.368     13.496     14.812
REMARK INTER + INTRA:          -5.343
REMARK INTER:                  -4.700
REMARK INTRA:                  -0.643
REMARK UNBOUND:                -0.597
REMARK SMILES CCCCCCCCC(=O)[O-]
REMARK SMILES IDX 6 1 7 2 8 3 9 4 10 5 11 6 5 7 4 8 3 9 2 10 1 11
REMARK H PARENT
REMARK Flexibility Score: inf
ROOT
ATOM      1  C   UNL     1     163.286 174.628 151.869  1.00  0.00     0.000 C 
ENDROOT
BRANCH   1   2
ATOM      2  C   UNL     1     162.166 173.593 152.066  1.00  0.00     0.006 C 
BRANCH   2   3
ATOM      3  C   UNL     1     161.065 174.084 153.017  1.00  0.00     0.053 C 
BRANCH   3   4
ATOM      4  C   UNL     1     159.724 173.614 152.548  1.00  0.00     0.041 C 
ATOM      5  O   UNL     1     159.358 172.428 152.760  1.00  0.00    -0.550 OA
ATOM      6  O   UNL     1     158.898 174.472 151.834  1.00  0.00    -0.550 OA
ENDBRANCH   3   4
ENDBRANCH   2   3
ENDBRANCH   1   2
BRANCH   1   7
ATOM      7  C   UNL     1     162.998 175.593 150.706  1.00  0.00     0.000 C 
BRANCH   7   8
ATOM      8  C   UNL     1     162.508 176.969 151.189  1.00  0.00    -0.000 C 
BRANCH   8   9
ATOM      9  C   UNL     1     161.162 177.372 150.561  1.00  0.00    -0.000 C 
BRANCH   9  10
ATOM     10  C   UNL     1     160.231 178.073 151.563  1.00  0.00    -0.003 C 
ATOM     11  C   UNL     1     160.617 177.806 153.017  1.00  0.00     0.004 C 
ENDBRANCH   9  10
ENDBRANCH   8   9
ENDBRANCH   7   8
ENDBRANCH   1   7
TORSDOF 7
ENDMDL
