MODEL 1
REMARK VINA RESULT:    -3.978      0.000      0.000
REMARK INTER + INTRA:          -5.013
REMARK INTER:                  -4.908
REMARK INTRA:                  -0.105
REMARK UNBOUND:                -0.105
REMARK SMILES CCCCC=CC(C)=O
REMARK SMILES IDX 4 1 3 2 2 3 1 4 5 5 6 6 7 7 9 8 8 9
REMARK H PARENT
REMARK Flexibility Score: inf
ROOT
ATOM      1  C   UNL     1     -59.793 -76.799 218.325  1.00  0.00     0.027 C 
ENDROOT
BRANCH   1   2
ATOM      2  C   UNL     1     -61.086 -76.781 219.150  1.00  0.00     0.004 C 
BRANCH   2   3
ATOM      3  C   UNL     1     -60.894 -77.508 220.486  1.00  0.00    -0.003 C 
ATOM      4  C   UNL     1     -61.493 -76.709 221.639  1.00  0.00     0.004 C 
ENDBRANCH   2   3
ENDBRANCH   1   2
BRANCH   1   5
ATOM      5  C   UNL     1     -59.634 -75.532 217.534  1.00  0.00    -0.023 C 
ATOM      6  C   UNL     1     -58.431 -75.099 217.142  1.00  0.00     0.042 C 
BRANCH   6   7
ATOM      7  C   UNL     1     -58.253 -73.866 216.355  1.00  0.00     0.152 C 
ATOM      8  O   UNL     1     -58.570 -72.743 216.836  1.00  0.00    -0.295 OA
ATOM      9  C   UNL     1     -57.691 -73.943 214.973  1.00  0.00     0.093 C 
ENDBRANCH   6   7
ENDBRANCH   1   5
TORSDOF 4
ENDMDL
MODEL 2
REMARK VINA RESULT:    -3.927      6.217      8.459
REMARK INTER + INTRA:          -4.950
REMARK INTER:                  -4.674
REMARK INTRA:                  -0.277
REMARK UNBOUND:                -0.105
REMARK SMILES CCCCC=CC(C)=O
REMARK SMILES IDX 4 1 3 2 2 3 1 4 5 5 6 6 7 7 9 8 8 9
REMARK H PARENT
REMARK Flexibility Score: inf
ROOT
ATOM      1  C   UNL     1     -61.927 -78.044 222.133  1.00  0.00     0.027 C 
ENDROOT
BRANCH   1   2
ATOM      2  C   UNL     1     -61.687 -76.582 221.736  1.00  0.00     0.004 C 
BRANCH   2   3
ATOM      3  C   UNL     1     -62.966 -75.947 221.180  1.00  0.00    -0.003 C 
ATOM      4  C   UNL     1     -63.552 -74.938 222.163  1.00  0.00     0.004 C 
ENDBRANCH   2   3
ENDBRANCH   1   2
BRANCH   1   5
ATOM      5  C   UNL     1     -62.212 -78.169 223.603  1.00  0.00    -0.023 C 
ATOM      6  C   UNL     1     -63.462 -78.262 224.068  1.00  0.00     0.042 C 
BRANCH   6   7
ATOM      7  C   UNL     1     -63.762 -78.399 225.504  1.00  0.00     0.152 C 
ATOM      8  O   UNL     1     -64.780 -77.846 226.006  1.00  0.00    -0.295 OA
ATOM      9  C   UNL     1     -62.854 -79.200 226.379  1.00  0.00     0.093 C 
ENDBRANCH   6   7
ENDBRANCH   1   5
TORSDOF 4
ENDMDL
MODEL 3
REMARK VINA RESULT:    -3.918      6.900      9.602
REMARK INTER + INTRA:          -4.939
REMARK INTER:                  -4.701
REMARK INTRA:                  -0.238
REMARK UNBOUND:                -0.105
REMARK SMILES CCCCC=CC(C)=O
REMARK SMILES IDX 4 1 3 2 2 3 1 4 5 5 6 6 7 7 9 8 8 9
REMARK H PARENT
REMARK Flexibility Score: inf
ROOT
ATOM      1  C   UNL     1     -64.714 -77.761 222.127  1.00  0.00     0.027 C 
ENDROOT
BRANCH   1   2
ATOM      2  C   UNL     1     -63.477 -77.161 222.809  1.00  0.00     0.004 C 
BRANCH   2   3
ATOM      3  C   UNL     1     -62.829 -76.090 221.925  1.00  0.00    -0.003 C 
ATOM      4  C   UNL     1     -63.507 -74.736 222.114  1.00  0.00     0.004 C 
ENDBRANCH   2   3
ENDBRANCH   1   2
BRANCH   1   5
ATOM      5  C   UNL     1     -65.822 -77.991 223.115  1.00  0.00    -0.023 C 
ATOM      6  C   UNL     1     -66.698 -77.028 223.419  1.00  0.00     0.042 C 
BRANCH   6   7
ATOM      7  C   UNL     1     -67.800 -77.236 224.376  1.00  0.00     0.152 C 
ATOM      8  O   UNL     1     -67.829 -76.613 225.473  1.00  0.00    -0.295 OA
ATOM      9  C   UNL     1     -68.897 -78.195 224.045  1.00  0.00     0.093 C 
ENDBRANCH   6   7
ENDBRANCH   1   5
TORSDOF 4
ENDMDL
MODEL 4
REMARK VINA RESULT:    -3.865     10.595     11.719
REMARK INTER + INTRA:          -4.873
REMARK INTER:                  -4.701
REMARK INTRA:                  -0.173
REMARK UNBOUND:                -0.105
REMARK SMILES CCCCC=CC(C)=O
REMARK SMILES IDX 4 1 3 2 2 3 1 4 5 5 6 6 7 7 9 8 8 9
REMARK H PARENT
REMARK Flexibility Score: inf
ROOT
ATOM      1  C   UNL     1     -69.693 -75.111 216.818  1.00  0.00     0.027 C 
ENDROOT
BRANCH   1   2
ATOM      2  C   UNL     1     -68.722 -75.175 215.632  1.00  0.00     0.004 C 
BRANCH   2   3
ATOM      3  C   UNL     1     -67.323 -74.705 216.043  1.00  0.00    -0.003 C 
ATOM      4  C   UNL     1     -66.318 -75.852 215.989  1.00  0.00     0.004 C 
ENDBRANCH   2   3
ENDBRANCH   1   2
BRANCH   1   5
ATOM      5  C   UNL     1     -70.873 -74.235 216.509  1.00  0.00    -0.023 C 
ATOM      6  C   UNL     1     -71.075 -73.740 215.283  1.00  0.00     0.042 C 
BRANCH   6   7
ATOM      7  C   UNL     1     -72.233 -72.889 214.955  1.00  0.00     0.152 C 
ATOM      8  O   UNL     1     -72.074 -71.681 214.627  1.00  0.00    -0.295 OA
ATOM      9  C   UNL     1     -73.612 -73.462 215.009  1.00  0.00     0.093 C 
ENDBRANCH   6   7
ENDBRANCH   1   5
TORSDOF 4
ENDMDL
MODEL 5
REMARK VINA RESULT:    -3.839      1.887      2.823
REMARK INTER + INTRA:          -4.842
REMARK INTER:                  -4.565
REMARK INTRA:                  -0.277
REMARK UNBOUND:                -0.105
REMARK SMILES CCCCC=CC(C)=O
REMARK SMILES IDX 4 1 3 2 2 3 1 4 5 5 6 6 7 7 9 8 8 9
REMARK H PARENT
REMARK Flexibility Score: inf
ROOT
ATOM      1  C   UNL     1     -59.363 -76.892 218.003  1.00  0.00     0.027 C 
ENDROOT
BRANCH   1   2
ATOM      2  C   UNL     1     -58.337 -77.911 217.489  1.00  0.00     0.004 C 
BRANCH   2   3
ATOM      3  C   UNL     1     -57.286 -78.219 218.560  1.00  0.00    -0.003 C 
ATOM      4  C   UNL     1     -55.998 -77.439 218.309  1.00  0.00     0.004 C 
ENDBRANCH   2   3
ENDBRANCH   1   2
BRANCH   1   5
ATOM      5  C   UNL     1     -59.358 -75.645 217.166  1.00  0.00    -0.023 C 
ATOM      6  C   UNL     1     -58.369 -74.748 217.253  1.00  0.00     0.042 C 
BRANCH   6   7
ATOM      7  C   UNL     1     -58.338 -73.524 216.433  1.00  0.00     0.152 C 
ATOM      8  O   UNL     1     -58.739 -72.423 216.901  1.00  0.00    -0.295 OA
ATOM      9  C   UNL     1     -57.826 -73.585 215.030  1.00  0.00     0.093 C 
ENDBRANCH   6   7
ENDBRANCH   1   5
TORSDOF 4
ENDMDL
MODEL 6
REMARK VINA RESULT:    -3.759      9.907     10.965
REMARK INTER + INTRA:          -4.743
REMARK INTER:                  -4.455
REMARK INTRA:                  -0.287
REMARK UNBOUND:                -0.105
REMARK SMILES CCCCC=CC(C)=O
REMARK SMILES IDX 4 1 3 2 2 3 1 4 5 5 6 6 7 7 9 8 8 9
REMARK H PARENT
REMARK Flexibility Score: inf
ROOT
ATOM      1  C   UNL     1     -71.169 -74.581 216.460  1.00  0.00     0.027 C 
ENDROOT
BRANCH   1   2
ATOM      2  C   UNL     1     -71.580 -74.583 214.982  1.00  0.00     0.004 C 
BRANCH   2   3
ATOM      3  C   UNL     1     -72.317 -73.290 214.615  1.00  0.00    -0.003 C 
ATOM      4  C   UNL     1     -71.358 -72.104 214.572  1.00  0.00     0.004 C 
ENDBRANCH   2   3
ENDBRANCH   1   2
BRANCH   1   5
ATOM      5  C   UNL     1     -69.691 -74.798 216.614  1.00  0.00    -0.023 C 
ATOM      6  C   UNL     1     -68.885 -74.904 215.552  1.00  0.00     0.042 C 
BRANCH   6   7
ATOM      7  C   UNL     1     -67.431 -75.105 215.681  1.00  0.00     0.152 C 
ATOM      8  O   UNL     1     -66.640 -74.121 215.675  1.00  0.00    -0.295 OA
ATOM      9  C   UNL     1     -66.883 -76.488 215.822  1.00  0.00     0.093 C 
ENDBRANCH   6   7
ENDBRANCH   1   5
TORSDOF 4
ENDMDL
MODEL 7
REMARK VINA RESULT:    -3.712      6.652      8.373
REMARK INTER + INTRA:          -4.686
REMARK INTER:                  -4.423
REMARK INTRA:                  -0.263
REMARK UNBOUND:                -0.105
REMARK SMILES CCCCC=CC(C)=O
REMARK SMILES IDX 4 1 3 2 2 3 1 4 5 5 6 6 7 7 9 8 8 9
REMARK H PARENT
REMARK Flexibility Score: inf
ROOT
ATOM      1  C   UNL     1     -64.462 -77.464 222.898  1.00  0.00     0.027 C 
ENDROOT
BRANCH   1   2
ATOM      2  C   UNL     1     -63.460 -77.321 221.746  1.00  0.00     0.004 C 
BRANCH   2   3
ATOM      3  C   UNL     1     -63.525 -75.917 221.134  1.00  0.00    -0.003 C 
ATOM      4  C   UNL     1     -63.575 -74.845 222.219  1.00  0.00     0.004 C 
ENDBRANCH   2   3
ENDBRANCH   1   2
BRANCH   1   5
ATOM      5  C   UNL     1     -63.825 -78.104 224.098  1.00  0.00    -0.023 C 
ATOM      6  C   UNL     1     -62.540 -78.475 224.093  1.00  0.00     0.042 C 
BRANCH   6   7
ATOM      7  C   UNL     1     -61.891 -79.093 225.263  1.00  0.00     0.152 C 
ATOM      8  O   UNL     1     -62.563 -79.765 226.093  1.00  0.00    -0.295 OA
ATOM      9  C   UNL     1     -60.421 -78.923 225.471  1.00  0.00     0.093 C 
ENDBRANCH   6   7
ENDBRANCH   1   5
TORSDOF 4
ENDMDL
MODEL 8
REMARK VINA RESULT:    -3.684      6.769      9.269
REMARK INTER + INTRA:          -4.651
REMARK INTER:                  -4.439
REMARK INTRA:                  -0.213
REMARK UNBOUND:                -0.105
REMARK SMILES CCCCC=CC(C)=O
REMARK SMILES IDX 4 1 3 2 2 3 1 4 5 5 6 6 7 7 9 8 8 9
REMARK H PARENT
REMARK Flexibility Score: inf
ROOT
ATOM      1  C   UNL     1     -62.249 -77.814 223.233  1.00  0.00     0.027 C 
ENDROOT
BRANCH   1   2
ATOM      2  C   UNL     1     -62.469 -76.981 221.964  1.00  0.00     0.004 C 
BRANCH   2   3
ATOM      3  C   UNL     1     -63.798 -76.221 222.029  1.00  0.00    -0.003 C 
ATOM      4  C   UNL     1     -63.570 -74.729 222.252  1.00  0.00     0.004 C 
ENDBRANCH   2   3
ENDBRANCH   1   2
BRANCH   1   5
ATOM      5  C   UNL     1     -63.546 -78.068 223.948  1.00  0.00    -0.023 C 
ATOM      6  C   UNL     1     -63.574 -78.450 225.229  1.00  0.00     0.042 C 
BRANCH   6   7
ATOM      7  C   UNL     1     -64.835 -78.693 225.953  1.00  0.00     0.152 C 
ATOM      8  O   UNL     1     -65.588 -77.734 226.277  1.00  0.00    -0.295 OA
ATOM      9  C   UNL     1     -65.230 -80.090 226.307  1.00  0.00     0.093 C 
ENDBRANCH   6   7
ENDBRANCH   1   5
TORSDOF 4
ENDMDL
MODEL 9
REMARK VINA RESULT:    -3.650      5.490      7.346
REMARK INTER + INTRA:          -4.608
REMARK INTER:                  -4.398
REMARK INTRA:                  -0.210
REMARK UNBOUND:                -0.105
REMARK SMILES CCCCC=CC(C)=O
REMARK SMILES IDX 4 1 3 2 2 3 1 4 5 5 6 6 7 7 9 8 8 9
REMARK H PARENT
REMARK Flexibility Score: inf
ROOT
ATOM      1  C   UNL     1     -63.043 -79.009 224.075  1.00  0.00     0.027 C 
ENDROOT
BRANCH   1   2
ATOM      2  C   UNL     1     -62.432 -78.955 225.482  1.00  0.00     0.004 C 
BRANCH   2   3
ATOM      3  C   UNL     1     -63.502 -79.190 226.553  1.00  0.00    -0.003 C 
ATOM      4  C   UNL     1     -64.773 -78.403 226.245  1.00  0.00     0.004 C 
ENDBRANCH   2   3
ENDBRANCH   1   2
BRANCH   1   5
ATOM      5  C   UNL     1     -62.793 -77.732 223.324  1.00  0.00    -0.023 C 
ATOM      6  C   UNL     1     -63.800 -76.982 222.866  1.00  0.00     0.042 C 
BRANCH   6   7
ATOM      7  C   UNL     1     -63.577 -75.720 222.138  1.00  0.00     0.152 C 
ATOM      8  O   UNL     1     -63.795 -74.608 222.693  1.00  0.00    -0.295 OA
ATOM      9  C   UNL     1     -63.088 -75.755 220.727  1.00  0.00     0.093 C 
ENDBRANCH   6   7
ENDBRANCH   1   5
TORSDOF 4
ENDMDL
