MODEL 1
REMARK VINA RESULT:    -3.145      0.000      0.000
REMARK INTER + INTRA:          -3.748
REMARK INTER:                  -3.697
REMARK INTRA:                  -0.051
REMARK UNBOUND:                -0.051
REMARK SMILES O=C([O-])CCC(=O)[O-]
REMARK SMILES IDX 4 1 2 2 1 3 3 4 5 5 6 6 7 7 8 8
REMARK H PARENT
REMARK Flexibility Score: inf
ROOT
ATOM      1  C   UNL     1       7.724 -30.142  18.316  1.00  0.00     0.059 C 
ENDROOT
BRANCH   1   2
ATOM      2  C   UNL     1       6.442 -29.504  17.885  1.00  0.00     0.042 C 
ATOM      3  O   UNL     1       5.876 -28.656  18.624  1.00  0.00    -0.550 OA
ATOM      4  O   UNL     1       5.896 -29.808  16.644  1.00  0.00    -0.550 OA
ENDBRANCH   1   2
BRANCH   1   5
ATOM      5  C   UNL     1       8.783 -29.076  18.604  1.00  0.00     0.059 C 
BRANCH   5   6
ATOM      6  C   UNL     1       9.528 -28.727  17.355  1.00  0.00     0.042 C 
ATOM      7  O   UNL     1      10.376 -27.796  17.362  1.00  0.00    -0.550 OA
ATOM      8  O   UNL     1       9.251 -29.397  16.170  1.00  0.00    -0.550 OA
ENDBRANCH   5   6
ENDBRANCH   1   5
TORSDOF 3
ENDMDL
MODEL 2
REMARK VINA RESULT:    -3.127      1.816      3.524
REMARK INTER + INTRA:          -3.726
REMARK INTER:                  -3.669
REMARK INTRA:                  -0.057
REMARK UNBOUND:                -0.051
REMARK SMILES O=C([O-])CCC(=O)[O-]
REMARK SMILES IDX 4 1 2 2 1 3 3 4 5 5 6 6 7 7 8 8
REMARK H PARENT
REMARK Flexibility Score: inf
ROOT
ATOM      1  C   UNL     1       8.486 -29.936  17.516  1.00  0.00     0.059 C 
ENDROOT
BRANCH   1   2
ATOM      2  C   UNL     1       9.339 -28.908  18.188  1.00  0.00     0.042 C 
ATOM      3  O   UNL     1       9.315 -28.784  19.440  1.00  0.00    -0.550 OA
ATOM      4  O   UNL     1      10.200 -28.118  17.435  1.00  0.00    -0.550 OA
ENDBRANCH   1   2
BRANCH   1   5
ATOM      5  C   UNL     1       8.522 -29.752  15.997  1.00  0.00     0.059 C 
BRANCH   5   6
ATOM      6  C   UNL     1       7.146 -29.872  15.423  1.00  0.00     0.042 C 
ATOM      7  O   UNL     1       6.981 -29.911  14.175  1.00  0.00    -0.550 OA
ATOM      8  O   UNL     1       6.040 -29.894  16.264  1.00  0.00    -0.550 OA
ENDBRANCH   5   6
ENDBRANCH   1   5
TORSDOF 3
ENDMDL
MODEL 3
REMARK VINA RESULT:    -3.121      1.930      2.387
REMARK INTER + INTRA:          -3.719
REMARK INTER:                  -3.657
REMARK INTRA:                  -0.062
REMARK UNBOUND:                -0.051
REMARK SMILES O=C([O-])CCC(=O)[O-]
REMARK SMILES IDX 4 1 2 2 1 3 3 4 5 5 6 6 7 7 8 8
REMARK H PARENT
REMARK Flexibility Score: inf
ROOT
ATOM      1  C   UNL     1       8.630 -29.772  15.938  1.00  0.00     0.059 C 
ENDROOT
BRANCH   1   2
ATOM      2  C   UNL     1       7.288 -29.849  15.282  1.00  0.00     0.042 C 
ATOM      3  O   UNL     1       6.241 -29.876  15.981  1.00  0.00    -0.550 OA
ATOM      4  O   UNL     1       7.190 -29.842  13.896  1.00  0.00    -0.550 OA
ENDBRANCH   1   2
BRANCH   1   5
ATOM      5  C   UNL     1       8.494 -29.931  17.454  1.00  0.00     0.059 C 
BRANCH   5   6
ATOM      6  C   UNL     1       9.336 -28.918  18.163  1.00  0.00     0.042 C 
ATOM      7  O   UNL     1       9.262 -28.796  19.414  1.00  0.00    -0.550 OA
ATOM      8  O   UNL     1      10.169 -28.075  17.438  1.00  0.00    -0.550 OA
ENDBRANCH   5   6
ENDBRANCH   1   5
TORSDOF 3
ENDMDL
MODEL 4
REMARK VINA RESULT:    -3.080      1.631      3.748
REMARK INTER + INTRA:          -3.672
REMARK INTER:                  -3.564
REMARK INTRA:                  -0.108
REMARK UNBOUND:                -0.051
REMARK SMILES O=C([O-])CCC(=O)[O-]
REMARK SMILES IDX 4 1 2 2 1 3 3 4 5 5 6 6 7 7 8 8
REMARK H PARENT
REMARK Flexibility Score: inf
ROOT
ATOM      1  C   UNL     1       7.850 -30.549  16.099  1.00  0.00     0.059 C 
ENDROOT
BRANCH   1   2
ATOM      2  C   UNL     1       8.840 -29.582  15.531  1.00  0.00     0.042 C 
ATOM      3  O   UNL     1       8.981 -29.478  14.284  1.00  0.00    -0.550 OA
ATOM      4  O   UNL     1       9.574 -28.760  16.377  1.00  0.00    -0.550 OA
ENDBRANCH   1   2
BRANCH   1   5
ATOM      5  C   UNL     1       6.595 -29.813  16.575  1.00  0.00     0.059 C 
BRANCH   5   6
ATOM      6  C   UNL     1       6.652 -29.585  18.051  1.00  0.00     0.042 C 
ATOM      7  O   UNL     1       5.875 -28.756  18.595  1.00  0.00    -0.550 OA
ATOM      8  O   UNL     1       7.595 -30.252  18.824  1.00  0.00    -0.550 OA
ENDBRANCH   5   6
ENDBRANCH   1   5
TORSDOF 3
ENDMDL
MODEL 5
REMARK VINA RESULT:    -3.053      1.224      1.926
REMARK INTER + INTRA:          -3.640
REMARK INTER:                  -3.520
REMARK INTRA:                  -0.120
REMARK UNBOUND:                -0.051
REMARK SMILES O=C([O-])CCC(=O)[O-]
REMARK SMILES IDX 4 1 2 2 1 3 3 4 5 5 6 6 7 7 8 8
REMARK H PARENT
REMARK Flexibility Score: inf
ROOT
ATOM      1  C   UNL     1       7.983 -30.645  17.440  1.00  0.00     0.059 C 
ENDROOT
BRANCH   1   2
ATOM      2  C   UNL     1       6.543 -30.326  17.196  1.00  0.00     0.042 C 
ATOM      3  O   UNL     1       5.875 -31.000  16.368  1.00  0.00    -0.550 OA
ATOM      4  O   UNL     1       5.922 -29.313  17.917  1.00  0.00    -0.550 OA
ENDBRANCH   1   2
BRANCH   1   5
ATOM      5  C   UNL     1       8.883 -29.591  16.792  1.00  0.00     0.059 C 
BRANCH   5   6
ATOM      6  C   UNL     1       9.506 -28.721  17.837  1.00  0.00     0.042 C 
ATOM      7  O   UNL     1       9.237 -28.900  19.054  1.00  0.00    -0.550 OA
ATOM      8  O   UNL     1      10.347 -27.680  17.464  1.00  0.00    -0.550 OA
ENDBRANCH   5   6
ENDBRANCH   1   5
TORSDOF 3
ENDMDL
MODEL 6
REMARK VINA RESULT:    -2.988      2.133      3.830
REMARK INTER + INTRA:          -3.564
REMARK INTER:                  -3.527
REMARK INTRA:                  -0.037
REMARK UNBOUND:                -0.051
REMARK SMILES O=C([O-])CCC(=O)[O-]
REMARK SMILES IDX 4 1 2 2 1 3 3 4 5 5 6 6 7 7 8 8
REMARK H PARENT
REMARK Flexibility Score: inf
ROOT
ATOM      1  C   UNL     1       9.286 -29.156  16.000  1.00  0.00     0.059 C 
ENDROOT
BRANCH   1   2
ATOM      2  C   UNL     1       9.295 -29.535  14.554  1.00  0.00     0.042 C 
ATOM      3  O   UNL     1       8.224 -29.857  13.976  1.00  0.00    -0.550 OA
ATOM      4  O   UNL     1      10.480 -29.487  13.829  1.00  0.00    -0.550 OA
ENDBRANCH   1   2
BRANCH   1   5
ATOM      5  C   UNL     1       8.137 -29.855  16.730  1.00  0.00     0.059 C 
BRANCH   5   6
ATOM      6  C   UNL     1       8.257 -29.656  18.207  1.00  0.00     0.042 C 
ATOM      7  O   UNL     1       7.471 -30.248  18.992  1.00  0.00    -0.550 OA
ATOM      8  O   UNL     1       9.207 -28.780  18.716  1.00  0.00    -0.550 OA
ENDBRANCH   5   6
ENDBRANCH   1   5
TORSDOF 3
ENDMDL
MODEL 7
REMARK VINA RESULT:    -2.986      1.971      2.479
REMARK INTER + INTRA:          -3.561
REMARK INTER:                  -3.468
REMARK INTRA:                  -0.093
REMARK UNBOUND:                -0.051
REMARK SMILES O=C([O-])CCC(=O)[O-]
REMARK SMILES IDX 4 1 2 2 1 3 3 4 5 5 6 6 7 7 8 8
REMARK H PARENT
REMARK Flexibility Score: inf
ROOT
ATOM      1  C   UNL     1       8.138 -30.555  17.077  1.00  0.00     0.059 C 
ENDROOT
BRANCH   1   2
ATOM      2  C   UNL     1       7.832 -29.686  18.255  1.00  0.00     0.042 C 
ATOM      3  O   UNL     1       6.639 -29.499  18.612  1.00  0.00    -0.550 OA
ATOM      4  O   UNL     1       8.866 -29.119  18.989  1.00  0.00    -0.550 OA
ENDBRANCH   1   2
BRANCH   1   5
ATOM      5  C   UNL     1       7.688 -29.879  15.780  1.00  0.00     0.059 C 
BRANCH   5   6
ATOM      6  C   UNL     1       8.873 -29.506  14.947  1.00  0.00     0.042 C 
ATOM      7  O   UNL     1       9.936 -29.113  15.496  1.00  0.00    -0.550 OA
ATOM      8  O   UNL     1       8.789 -29.546  13.561  1.00  0.00    -0.550 OA
ENDBRANCH   5   6
ENDBRANCH   1   5
TORSDOF 3
ENDMDL
MODEL 8
REMARK VINA RESULT:    -2.985      1.985      2.359
REMARK INTER + INTRA:          -3.560
REMARK INTER:                  -3.471
REMARK INTRA:                  -0.089
REMARK UNBOUND:                -0.051
REMARK SMILES O=C([O-])CCC(=O)[O-]
REMARK SMILES IDX 4 1 2 2 1 3 3 4 5 5 6 6 7 7 8 8
REMARK H PARENT
REMARK Flexibility Score: inf
ROOT
ATOM      1  C   UNL     1       7.915 -30.621  16.988  1.00  0.00     0.059 C 
ENDROOT
BRANCH   1   2
ATOM      2  C   UNL     1       7.580 -29.759  18.163  1.00  0.00     0.042 C 
ATOM      3  O   UNL     1       8.487 -29.380  18.950  1.00  0.00    -0.550 OA
ATOM      4  O   UNL     1       6.273 -29.331  18.362  1.00  0.00    -0.550 OA
ENDBRANCH   1   2
BRANCH   1   5
ATOM      5  C   UNL     1       7.542 -29.917  15.682  1.00  0.00     0.059 C 
BRANCH   5   6
ATOM      6  C   UNL     1       8.773 -29.518  14.933  1.00  0.00     0.042 C 
ATOM      7  O   UNL     1       9.783 -29.092  15.553  1.00  0.00    -0.550 OA
ATOM      8  O   UNL     1       8.790 -29.569  13.544  1.00  0.00    -0.550 OA
ENDBRANCH   5   6
ENDBRANCH   1   5
TORSDOF 3
ENDMDL
