MODEL 1
REMARK VINA RESULT:    -7.842      0.000      0.000
REMARK INTER + INTRA:          -9.481
REMARK INTER:                  -9.217
REMARK INTRA:                  -0.264
REMARK UNBOUND:                -0.264
REMARK SMILES O=c1cc(-c2ccc(O)c(O)c2)oc2cc(O)cc(O)c12
REMARK SMILES IDX 4 1 3 2 2 3 1 4 21 5 19 6 18 7 16 8 15 9 14 10 13 11 5 12
REMARK SMILES IDX 6 13 7 14 8 15 12 16 10 17 9 18 11 20 20 22 17 24
REMARK H PARENT 9 19 11 21 20 23 17 25
REMARK Flexibility Score: inf
ROOT
ATOM      1  C   UNL     1      15.523  15.394   9.564  1.00  0.00     0.138 A 
ATOM      2  C   UNL     1      16.135  14.256   9.024  1.00  0.00     0.100 A 
ATOM      3  C   UNL     1      16.937  13.452   9.837  1.00  0.00     0.197 A 
ATOM      4  O   UNL     1      17.427  12.407   9.338  1.00  0.00    -0.289 OA
ATOM      5  C   UNL     1      17.153  13.813  11.190  1.00  0.00     0.107 A 
ATOM      6  C   UNL     1      17.976  13.088  12.104  1.00  0.00     0.134 A 
ATOM      7  C   UNL     1      18.035  13.488  13.445  1.00  0.00     0.093 A 
ATOM      8  C   UNL     1      17.346  14.617  13.892  1.00  0.00     0.123 A 
ATOM      9  C   UNL     1      16.579  15.360  12.997  1.00  0.00     0.094 A 
ATOM     10  C   UNL     1      16.472  14.968  11.660  1.00  0.00     0.146 A 
ATOM     11  O   UNL     1      15.716  15.694  10.845  1.00  0.00    -0.456 OA
ENDROOT
BRANCH   1  12
ATOM     12  C   UNL     1      14.664  16.287   8.745  1.00  0.00     0.021 A 
ATOM     13  C   UNL     1      15.147  17.551   8.363  1.00  0.00     0.016 A 
ATOM     14  C   UNL     1      14.356  18.412   7.598  1.00  0.00     0.051 A 
ATOM     15  C   UNL     1      13.067  18.031   7.211  1.00  0.00     0.157 A 
ATOM     16  C   UNL     1      13.361  15.915   8.362  1.00  0.00     0.062 A 
ATOM     17  C   UNL     1      12.566  16.777   7.597  1.00  0.00     0.158 A 
BRANCH  15  18
ATOM     18  O   UNL     1      12.281  18.892   6.446  1.00  0.00    -0.504 OA
ATOM     19  H   UNL     1      12.446  19.892   6.434  1.00  0.00     0.293 HD
ENDBRANCH  15  18
BRANCH  17  20
ATOM     20  O   UNL     1      11.281  16.372   7.237  1.00  0.00    -0.504 OA
ATOM     21  H   UNL     1      10.872  16.612   6.342  1.00  0.00     0.293 HD
ENDBRANCH  17  20
ENDBRANCH   1  12
BRANCH   6  22
ATOM     22  O   UNL     1      18.769  11.993  11.746  1.00  0.00    -0.507 OA
ATOM     23  H   UNL     1      19.691  11.801  12.107  1.00  0.00     0.293 HD
ENDBRANCH   6  22
BRANCH   8  24
ATOM     24  O   UNL     1      17.422  15.015  15.225  1.00  0.00    -0.508 OA
ATOM     25  H   UNL     1      18.200  15.564  15.570  1.00  0.00     0.293 HD
ENDBRANCH   8  24
TORSDOF 5
ENDMDL
MODEL 2
REMARK VINA RESULT:    -7.365      2.878      7.411
REMARK INTER + INTRA:          -8.920
REMARK INTER:                  -8.651
REMARK INTRA:                  -0.270
REMARK UNBOUND:                -0.264
REMARK SMILES O=c1cc(-c2ccc(O)c(O)c2)oc2cc(O)cc(O)c12
REMARK SMILES IDX 4 1 3 2 2 3 1 4 21 5 19 6 18 7 16 8 15 9 14 10 13 11 5 12
REMARK SMILES IDX 6 13 7 14 8 15 12 16 10 17 9 18 11 20 20 22 17 24
REMARK H PARENT 9 19 11 21 20 23 17 25
REMARK Flexibility Score: inf
ROOT
ATOM      1  C   UNL     1      16.290  13.246  13.636  1.00  0.00     0.138 A 
ATOM      2  C   UNL     1      17.500  12.912  13.016  1.00  0.00     0.100 A 
ATOM      3  C   UNL     1      17.653  13.116  11.644  1.00  0.00     0.197 A 
ATOM      4  O   UNL     1      18.770  12.858  11.126  1.00  0.00    -0.289 OA
ATOM      5  C   UNL     1      16.572  13.626  10.884  1.00  0.00     0.107 A 
ATOM      6  C   UNL     1      16.600  13.844   9.473  1.00  0.00     0.134 A 
ATOM      7  C   UNL     1      15.502  14.446   8.846  1.00  0.00     0.093 A 
ATOM      8  C   UNL     1      14.355  14.784   9.568  1.00  0.00     0.123 A 
ATOM      9  C   UNL     1      14.299  14.529  10.936  1.00  0.00     0.094 A 
ATOM     10  C   UNL     1      15.390  13.962  11.597  1.00  0.00     0.146 A 
ATOM     11  O   UNL     1      15.301  13.753  12.906  1.00  0.00    -0.456 OA
ENDROOT
BRANCH   1  12
ATOM     12  C   UNL     1      16.071  13.047  15.092  1.00  0.00     0.021 A 
ATOM     13  C   UNL     1      16.703  13.904  16.009  1.00  0.00     0.016 A 
ATOM     14  C   UNL     1      16.519  13.734  17.383  1.00  0.00     0.051 A 
ATOM     15  C   UNL     1      15.711  12.698  17.866  1.00  0.00     0.157 A 
ATOM     16  C   UNL     1      15.270  11.998  15.584  1.00  0.00     0.062 A 
ATOM     17  C   UNL     1      15.086  11.825  16.961  1.00  0.00     0.158 A 
BRANCH  15  18
ATOM     18  O   UNL     1      15.529  12.533  19.237  1.00  0.00    -0.504 OA
ATOM     19  H   UNL     1      15.741  13.274  19.895  1.00  0.00     0.293 HD
ENDBRANCH  15  18
BRANCH  17  20
ATOM     20  O   UNL     1      14.284  10.776  17.410  1.00  0.00    -0.504 OA
ATOM     21  H   UNL     1      13.411  10.534  16.957  1.00  0.00     0.293 HD
ENDBRANCH  17  20
ENDBRANCH   1  12
BRANCH   6  22
ATOM     22  O   UNL     1      17.662  13.472   8.643  1.00  0.00    -0.507 OA
ATOM     23  H   UNL     1      18.518  13.993   8.527  1.00  0.00     0.293 HD
ENDBRANCH   6  22
BRANCH   8  24
ATOM     24  O   UNL     1      13.262  15.369   8.933  1.00  0.00    -0.508 OA
ATOM     25  H   UNL     1      13.231  16.363   8.739  1.00  0.00     0.293 HD
ENDBRANCH   8  24
TORSDOF 5
ENDMDL
MODEL 3
REMARK VINA RESULT:    -7.337      2.527      6.933
REMARK INTER + INTRA:          -8.888
REMARK INTER:                  -8.623
REMARK INTRA:                  -0.265
REMARK UNBOUND:                -0.264
REMARK SMILES O=c1cc(-c2ccc(O)c(O)c2)oc2cc(O)cc(O)c12
REMARK SMILES IDX 4 1 3 2 2 3 1 4 21 5 19 6 18 7 16 8 15 9 14 10 13 11 5 12
REMARK SMILES IDX 6 13 7 14 8 15 12 16 10 17 9 18 11 20 20 22 17 24
REMARK H PARENT 9 19 11 21 20 23 17 25
REMARK Flexibility Score: inf
ROOT
ATOM      1  C   UNL     1      15.617  14.021  11.798  1.00  0.00     0.138 A 
ATOM      2  C   UNL     1      14.394  14.478  11.290  1.00  0.00     0.100 A 
ATOM      3  C   UNL     1      14.252  14.685   9.916  1.00  0.00     0.197 A 
ATOM      4  O   UNL     1      13.126  15.042   9.485  1.00  0.00    -0.289 OA
ATOM      5  C   UNL     1      15.353  14.466   9.053  1.00  0.00     0.107 A 
ATOM      6  C   UNL     1      15.335  14.676   7.641  1.00  0.00     0.134 A 
ATOM      7  C   UNL     1      16.457  14.331   6.878  1.00  0.00     0.093 A 
ATOM      8  C   UNL     1      17.616  13.838   7.482  1.00  0.00     0.123 A 
ATOM      9  C   UNL     1      17.661  13.677   8.865  1.00  0.00     0.094 A 
ATOM     10  C   UNL     1      16.547  13.979   9.650  1.00  0.00     0.146 A 
ATOM     11  O   UNL     1      16.626  13.792  10.963  1.00  0.00    -0.456 OA
ENDROOT
BRANCH   1  12
ATOM     12  C   UNL     1      15.826  13.787  13.250  1.00  0.00     0.021 A 
ATOM     13  C   UNL     1      16.692  14.630  13.967  1.00  0.00     0.016 A 
ATOM     14  C   UNL     1      16.910  14.427  15.333  1.00  0.00     0.051 A 
ATOM     15  C   UNL     1      16.277  13.373  16.001  1.00  0.00     0.157 A 
ATOM     16  C   UNL     1      15.202  12.720  13.926  1.00  0.00     0.062 A 
ATOM     17  C   UNL     1      15.422  12.514  15.293  1.00  0.00     0.158 A 
BRANCH  15  18
ATOM     18  O   UNL     1      16.497  13.175  17.363  1.00  0.00    -0.504 OA
ATOM     19  H   UNL     1      15.909  12.557  17.912  1.00  0.00     0.293 HD
ENDBRANCH  15  18
BRANCH  17  20
ATOM     20  O   UNL     1      14.785  11.448  15.928  1.00  0.00    -0.504 OA
ATOM     21  H   UNL     1      14.874  11.282  16.923  1.00  0.00     0.293 HD
ENDBRANCH  17  20
ENDBRANCH   1  12
BRANCH   6  22
ATOM     22  O   UNL     1      14.260  15.237   6.946  1.00  0.00    -0.507 OA
ATOM     23  H   UNL     1      13.650  14.737   6.317  1.00  0.00     0.293 HD
ENDBRANCH   6  22
BRANCH   8  24
ATOM     24  O   UNL     1      18.733  13.511   6.716  1.00  0.00    -0.508 OA
ATOM     25  H   UNL     1      18.642  13.102   5.794  1.00  0.00     0.293 HD
ENDBRANCH   8  24
TORSDOF 5
ENDMDL
MODEL 4
REMARK VINA RESULT:    -7.308      2.412      2.944
REMARK INTER + INTRA:          -8.854
REMARK INTER:                  -8.544
REMARK INTRA:                  -0.310
REMARK UNBOUND:                -0.264
REMARK SMILES O=c1cc(-c2ccc(O)c(O)c2)oc2cc(O)cc(O)c12
REMARK SMILES IDX 4 1 3 2 2 3 1 4 21 5 19 6 18 7 16 8 15 9 14 10 13 11 5 12
REMARK SMILES IDX 6 13 7 14 8 15 12 16 10 17 9 18 11 20 20 22 17 24
REMARK H PARENT 9 19 11 21 20 23 17 25
REMARK Flexibility Score: inf
ROOT
ATOM      1  C   UNL     1      14.696  14.754  10.082  1.00  0.00     0.138 A 
ATOM      2  C   UNL     1      13.613  14.144  10.727  1.00  0.00     0.100 A 
ATOM      3  C   UNL     1      13.803  13.537  11.970  1.00  0.00     0.197 A 
ATOM      4  O   UNL     1      12.801  13.046  12.549  1.00  0.00    -0.289 OA
ATOM      5  C   UNL     1      15.094  13.512  12.551  1.00  0.00     0.107 A 
ATOM      6  C   UNL     1      15.415  12.894  13.798  1.00  0.00     0.134 A 
ATOM      7  C   UNL     1      16.708  13.020  14.318  1.00  0.00     0.093 A 
ATOM      8  C   UNL     1      17.707  13.693  13.612  1.00  0.00     0.123 A 
ATOM      9  C   UNL     1      17.418  14.257  12.371  1.00  0.00     0.094 A 
ATOM     10  C   UNL     1      16.129  14.178  11.840  1.00  0.00     0.146 A 
ATOM     11  O   UNL     1      15.891  14.746  10.663  1.00  0.00    -0.456 OA
ENDROOT
BRANCH   1  12
ATOM     12  C   UNL     1      14.552  15.411   8.758  1.00  0.00     0.021 A 
ATOM     13  C   UNL     1      13.288  15.867   8.346  1.00  0.00     0.016 A 
ATOM     14  C   UNL     1      13.124  16.483   7.103  1.00  0.00     0.051 A 
ATOM     15  C   UNL     1      14.218  16.643   6.244  1.00  0.00     0.157 A 
ATOM     16  C   UNL     1      15.646  15.564   7.883  1.00  0.00     0.062 A 
ATOM     17  C   UNL     1      15.484  16.179   6.636  1.00  0.00     0.158 A 
BRANCH  15  18
ATOM     18  O   UNL     1      14.051  17.259   5.005  1.00  0.00    -0.504 OA
ATOM     19  H   UNL     1      13.678  16.757   4.208  1.00  0.00     0.293 HD
ENDBRANCH  15  18
BRANCH  17  20
ATOM     20  O   UNL     1      16.591  16.314   5.799  1.00  0.00    -0.504 OA
ATOM     21  H   UNL     1      16.571  16.022   4.829  1.00  0.00     0.293 HD
ENDBRANCH  17  20
ENDBRANCH   1  12
BRANCH   6  22
ATOM     22  O   UNL     1      14.514  12.131  14.548  1.00  0.00    -0.507 OA
ATOM     23  H   UNL     1      14.754  11.582  15.359  1.00  0.00     0.293 HD
ENDBRANCH   6  22
BRANCH   8  24
ATOM     24  O   UNL     1      18.996  13.801  14.131  1.00  0.00    -0.508 OA
ATOM     25  H   UNL     1      19.198  13.574  15.097  1.00  0.00     0.293 HD
ENDBRANCH   8  24
TORSDOF 5
ENDMDL
MODEL 5
REMARK VINA RESULT:    -7.251      2.317      7.239
REMARK INTER + INTRA:          -8.787
REMARK INTER:                  -8.496
REMARK INTRA:                  -0.290
REMARK UNBOUND:                -0.264
REMARK SMILES O=c1cc(-c2ccc(O)c(O)c2)oc2cc(O)cc(O)c12
REMARK SMILES IDX 4 1 3 2 2 3 1 4 21 5 19 6 18 7 16 8 15 9 14 10 13 11 5 12
REMARK SMILES IDX 6 13 7 14 8 15 12 16 10 17 9 18 11 20 20 22 17 24
REMARK H PARENT 9 19 11 21 20 23 17 25
REMARK Flexibility Score: inf
ROOT
ATOM      1  C   UNL     1      15.682  14.913   9.562  1.00  0.00     0.138 A 
ATOM      2  C   UNL     1      14.322  15.247   9.566  1.00  0.00     0.100 A 
ATOM      3  C   UNL     1      13.702  15.633   8.376  1.00  0.00     0.197 A 
ATOM      4  O   UNL     1      12.468  15.873   8.402  1.00  0.00    -0.289 OA
ATOM      5  C   UNL     1      14.460  15.717   7.183  1.00  0.00     0.107 A 
ATOM      6  C   UNL     1      13.943  16.130   5.917  1.00  0.00     0.134 A 
ATOM      7  C   UNL     1      14.766  16.079   4.786  1.00  0.00     0.093 A 
ATOM      8  C   UNL     1      16.102  15.685   4.884  1.00  0.00     0.123 A 
ATOM      9  C   UNL     1      16.630  15.328   6.122  1.00  0.00     0.094 A 
ATOM     10  C   UNL     1      15.826  15.335   7.264  1.00  0.00     0.146 A 
ATOM     11  O   UNL     1      16.364  14.969   8.422  1.00  0.00    -0.456 OA
ENDROOT
BRANCH   1  12
ATOM     12  C   UNL     1      16.394  14.499  10.798  1.00  0.00     0.021 A 
ATOM     13  C   UNL     1      16.244  15.263  11.969  1.00  0.00     0.016 A 
ATOM     14  C   UNL     1      16.907  14.899  13.144  1.00  0.00     0.051 A 
ATOM     15  C   UNL     1      17.740  13.774  13.166  1.00  0.00     0.157 A 
ATOM     16  C   UNL     1      17.244  13.376  10.824  1.00  0.00     0.062 A 
ATOM     17  C   UNL     1      17.911  13.012  12.000  1.00  0.00     0.158 A 
BRANCH  15  18
ATOM     18  O   UNL     1      18.399  13.414  14.340  1.00  0.00    -0.504 OA
ATOM     19  H   UNL     1      18.996  14.066  14.837  1.00  0.00     0.293 HD
ENDBRANCH  15  18
BRANCH  17  20
ATOM     20  O   UNL     1      18.743  11.892  11.986  1.00  0.00    -0.504 OA
ATOM     21  H   UNL     1      18.549  11.085  11.405  1.00  0.00     0.293 HD
ENDBRANCH  17  20
ENDBRANCH   1  12
BRANCH   6  22
ATOM     22  O   UNL     1      12.646  16.617   5.722  1.00  0.00    -0.507 OA
ATOM     23  H   UNL     1      11.810  16.214   6.116  1.00  0.00     0.293 HD
ENDBRANCH   6  22
BRANCH   8  24
ATOM     24  O   UNL     1      16.918  15.652   3.755  1.00  0.00    -0.508 OA
ATOM     25  H   UNL     1      17.297  14.781   3.401  1.00  0.00     0.293 HD
ENDBRANCH   8  24
TORSDOF 5
ENDMDL
MODEL 6
REMARK VINA RESULT:    -7.228      1.920      6.987
REMARK INTER + INTRA:          -8.760
REMARK INTER:                  -8.471
REMARK INTRA:                  -0.289
REMARK UNBOUND:                -0.264
REMARK SMILES O=c1cc(-c2ccc(O)c(O)c2)oc2cc(O)cc(O)c12
REMARK SMILES IDX 4 1 3 2 2 3 1 4 21 5 19 6 18 7 16 8 15 9 14 10 13 11 5 12
REMARK SMILES IDX 6 13 7 14 8 15 12 16 10 17 9 18 11 20 20 22 17 24
REMARK H PARENT 9 19 11 21 20 23 17 25
REMARK Flexibility Score: inf
ROOT
ATOM      1  C   UNL     1      15.993  14.724   9.223  1.00  0.00     0.138 A 
ATOM      2  C   UNL     1      16.733  14.482   8.059  1.00  0.00     0.100 A 
ATOM      3  C   UNL     1      16.212  14.855   6.819  1.00  0.00     0.197 A 
ATOM      4  O   UNL     1      16.924  14.676   5.798  1.00  0.00    -0.289 OA
ATOM      5  C   UNL     1      14.925  15.443   6.744  1.00  0.00     0.107 A 
ATOM      6  C   UNL     1      14.278  15.834   5.533  1.00  0.00     0.134 A 
ATOM      7  C   UNL     1      13.046  16.496   5.593  1.00  0.00     0.093 A 
ATOM      8  C   UNL     1      12.411  16.730   6.815  1.00  0.00     0.123 A 
ATOM      9  C   UNL     1      13.011  16.308   7.999  1.00  0.00     0.094 A 
ATOM     10  C   UNL     1      14.256  15.676   7.976  1.00  0.00     0.146 A 
ATOM     11  O   UNL     1      14.802  15.306   9.130  1.00  0.00    -0.456 OA
ENDROOT
BRANCH   1  12
ATOM     12  C   UNL     1      16.497  14.344  10.567  1.00  0.00     0.021 A 
ATOM     13  C   UNL     1      16.088  15.081  11.692  1.00  0.00     0.016 A 
ATOM     14  C   UNL     1      16.553  14.749  12.967  1.00  0.00     0.051 A 
ATOM     15  C   UNL     1      17.442  13.682  13.139  1.00  0.00     0.157 A 
ATOM     16  C   UNL     1      17.403  13.280  10.746  1.00  0.00     0.062 A 
ATOM     17  C   UNL     1      17.871  12.947  12.023  1.00  0.00     0.158 A 
BRANCH  15  18
ATOM     18  O   UNL     1      17.902  13.352  14.413  1.00  0.00    -0.504 OA
ATOM     19  H   UNL     1      17.600  12.507  14.885  1.00  0.00     0.293 HD
ENDBRANCH  15  18
BRANCH  17  20
ATOM     20  O   UNL     1      18.766  11.886  12.159  1.00  0.00    -0.504 OA
ATOM     21  H   UNL     1      19.155  11.404  11.358  1.00  0.00     0.293 HD
ENDBRANCH  17  20
ENDBRANCH   1  12
BRANCH   6  22
ATOM     22  O   UNL     1      14.785  15.579   4.256  1.00  0.00    -0.507 OA
ATOM     23  H   UNL     1      14.507  14.810   3.664  1.00  0.00     0.293 HD
ENDBRANCH   6  22
BRANCH   8  24
ATOM     24  O   UNL     1      11.178  17.377   6.863  1.00  0.00    -0.508 OA
ATOM     25  H   UNL     1      10.769  17.673   7.742  1.00  0.00     0.293 HD
ENDBRANCH   8  24
TORSDOF 5
ENDMDL
MODEL 7
REMARK VINA RESULT:    -7.126      1.422      7.417
REMARK INTER + INTRA:          -8.640
REMARK INTER:                  -8.374
REMARK INTRA:                  -0.266
REMARK UNBOUND:                -0.264
REMARK SMILES O=c1cc(-c2ccc(O)c(O)c2)oc2cc(O)cc(O)c12
REMARK SMILES IDX 4 1 3 2 2 3 1 4 21 5 19 6 18 7 16 8 15 9 14 10 13 11 5 12
REMARK SMILES IDX 6 13 7 14 8 15 12 16 10 17 9 18 11 20 20 22 17 24
REMARK H PARENT 9 19 11 21 20 23 17 25
REMARK Flexibility Score: inf
ROOT
ATOM      1  C   UNL     1      15.257  16.142   9.130  1.00  0.00     0.138 A 
ATOM      2  C   UNL     1      15.727  17.440   8.890  1.00  0.00     0.100 A 
ATOM      3  C   UNL     1      14.997  18.296   8.063  1.00  0.00     0.197 A 
ATOM      4  O   UNL     1      15.415  19.473   7.912  1.00  0.00    -0.289 OA
ATOM      5  C   UNL     1      13.808  17.836   7.447  1.00  0.00     0.107 A 
ATOM      6  C   UNL     1      12.999  18.608   6.559  1.00  0.00     0.134 A 
ATOM      7  C   UNL     1      11.792  18.077   6.088  1.00  0.00     0.093 A 
ATOM      8  C   UNL     1      11.392  16.783   6.426  1.00  0.00     0.123 A 
ATOM      9  C   UNL     1      12.199  16.003   7.251  1.00  0.00     0.094 A 
ATOM     10  C   UNL     1      13.392  16.515   7.766  1.00  0.00     0.146 A 
ATOM     11  O   UNL     1      14.122  15.744   8.565  1.00  0.00    -0.456 OA
ENDROOT
BRANCH   1  12
ATOM     12  C   UNL     1      15.995  15.188   9.997  1.00  0.00     0.021 A 
ATOM     13  C   UNL     1      16.582  14.047   9.424  1.00  0.00     0.016 A 
ATOM     14  C   UNL     1      17.276  13.130  10.219  1.00  0.00     0.051 A 
ATOM     15  C   UNL     1      17.385  13.332  11.600  1.00  0.00     0.157 A 
ATOM     16  C   UNL     1      16.097  15.379  11.389  1.00  0.00     0.062 A 
ATOM     17  C   UNL     1      16.790  14.460  12.187  1.00  0.00     0.158 A 
BRANCH  15  18
ATOM     18  O   UNL     1      18.079  12.417  12.389  1.00  0.00    -0.504 OA
ATOM     19  H   UNL     1      18.001  12.420  13.400  1.00  0.00     0.293 HD
ENDBRANCH  15  18
BRANCH  17  20
ATOM     20  O   UNL     1      16.871  14.685  13.561  1.00  0.00    -0.504 OA
ATOM     21  H   UNL     1      16.809  13.930  14.234  1.00  0.00     0.293 HD
ENDBRANCH  17  20
ENDBRANCH   1  12
BRANCH   6  22
ATOM     22  O   UNL     1      13.342  19.881   6.093  1.00  0.00    -0.507 OA
ATOM     23  H   UNL     1      14.121  20.086   5.486  1.00  0.00     0.293 HD
ENDBRANCH   6  22
BRANCH   8  24
ATOM     24  O   UNL     1      10.196  16.258   5.941  1.00  0.00    -0.508 OA
ATOM     25  H   UNL     1      10.132  15.858   5.012  1.00  0.00     0.293 HD
ENDBRANCH   8  24
TORSDOF 5
ENDMDL
MODEL 8
REMARK VINA RESULT:    -7.010      2.652      2.920
REMARK INTER + INTRA:          -8.503
REMARK INTER:                  -8.187
REMARK INTRA:                  -0.316
REMARK UNBOUND:                -0.264
REMARK SMILES O=c1cc(-c2ccc(O)c(O)c2)oc2cc(O)cc(O)c12
REMARK SMILES IDX 4 1 3 2 2 3 1 4 21 5 19 6 18 7 16 8 15 9 14 10 13 11 5 12
REMARK SMILES IDX 6 13 7 14 8 15 12 16 10 17 9 18 11 20 20 22 17 24
REMARK H PARENT 9 19 11 21 20 23 17 25
REMARK Flexibility Score: inf
ROOT
ATOM      1  C   UNL     1      14.739  14.807  10.322  1.00  0.00     0.138 A 
ATOM      2  C   UNL     1      16.033  14.938  10.842  1.00  0.00     0.100 A 
ATOM      3  C   UNL     1      16.372  14.280  12.025  1.00  0.00     0.197 A 
ATOM      4  O   UNL     1      17.557  14.372  12.436  1.00  0.00    -0.289 OA
ATOM      5  C   UNL     1      15.396  13.515  12.710  1.00  0.00     0.107 A 
ATOM      6  C   UNL     1      15.616  12.828  13.942  1.00  0.00     0.134 A 
ATOM      7  C   UNL     1      14.602  12.022  14.473  1.00  0.00     0.093 A 
ATOM      8  C   UNL     1      13.357  11.924  13.849  1.00  0.00     0.123 A 
ATOM      9  C   UNL     1      13.115  12.631  12.673  1.00  0.00     0.094 A 
ATOM     10  C   UNL     1      14.117  13.416  12.099  1.00  0.00     0.146 A 
ATOM     11  O   UNL     1      13.850  14.058  10.967  1.00  0.00    -0.456 OA
ENDROOT
BRANCH   1  12
ATOM     12  C   UNL     1      14.322  15.488   9.069  1.00  0.00     0.021 A 
ATOM     13  C   UNL     1      15.298  16.083   8.250  1.00  0.00     0.016 A 
ATOM     14  C   UNL     1      14.932  16.735   7.069  1.00  0.00     0.051 A 
ATOM     15  C   UNL     1      13.586  16.813   6.693  1.00  0.00     0.157 A 
ATOM     16  C   UNL     1      12.969  15.582   8.691  1.00  0.00     0.062 A 
ATOM     17  C   UNL     1      12.600  16.236   7.509  1.00  0.00     0.158 A 
BRANCH  15  18
ATOM     18  O   UNL     1      13.225  17.463   5.514  1.00  0.00    -0.504 OA
ATOM     19  H   UNL     1      13.131  18.471   5.470  1.00  0.00     0.293 HD
ENDBRANCH  15  18
BRANCH  17  20
ATOM     20  O   UNL     1      11.250  16.307   7.168  1.00  0.00    -0.504 OA
ATOM     21  H   UNL     1      10.804  17.180   6.913  1.00  0.00     0.293 HD
ENDBRANCH  17  20
ENDBRANCH   1  12
BRANCH   6  22
ATOM     22  O   UNL     1      16.794  12.919  14.689  1.00  0.00    -0.507 OA
ATOM     23  H   UNL     1      17.689  13.217  14.329  1.00  0.00     0.293 HD
ENDBRANCH   6  22
BRANCH   8  24
ATOM     24  O   UNL     1      12.349  11.132  14.393  1.00  0.00    -0.508 OA
ATOM     25  H   UNL     1      11.784  10.522  13.814  1.00  0.00     0.293 HD
ENDBRANCH   8  24
TORSDOF 5
ENDMDL
MODEL 9
REMARK VINA RESULT:    -6.783      9.719     12.162
REMARK INTER + INTRA:          -8.236
REMARK INTER:                  -7.925
REMARK INTRA:                  -0.312
REMARK UNBOUND:                -0.264
REMARK SMILES O=c1cc(-c2ccc(O)c(O)c2)oc2cc(O)cc(O)c12
REMARK SMILES IDX 4 1 3 2 2 3 1 4 21 5 19 6 18 7 16 8 15 9 14 10 13 11 5 12
REMARK SMILES IDX 6 13 7 14 8 15 12 16 10 17 9 18 11 20 20 22 17 24
REMARK H PARENT 9 19 11 21 20 23 17 25
REMARK Flexibility Score: inf
ROOT
ATOM      1  C   UNL     1      25.674  16.025   6.416  1.00  0.00     0.138 A 
ATOM      2  C   UNL     1      26.545  17.118   6.315  1.00  0.00     0.100 A 
ATOM      3  C   UNL     1      26.024  18.404   6.168  1.00  0.00     0.197 A 
ATOM      4  O   UNL     1      26.830  19.370   6.136  1.00  0.00    -0.289 OA
ATOM      5  C   UNL     1      24.623  18.592   6.087  1.00  0.00     0.107 A 
ATOM      6  C   UNL     1      23.978  19.853   5.904  1.00  0.00     0.134 A 
ATOM      7  C   UNL     1      22.581  19.925   5.938  1.00  0.00     0.093 A 
ATOM      8  C   UNL     1      21.803  18.775   6.091  1.00  0.00     0.123 A 
ATOM      9  C   UNL     1      22.421  17.534   6.220  1.00  0.00     0.094 A 
ATOM     10  C   UNL     1      23.813  17.432   6.225  1.00  0.00     0.146 A 
ATOM     11  O   UNL     1      24.362  16.230   6.370  1.00  0.00    -0.456 OA
ENDROOT
BRANCH   1  12
ATOM     12  C   UNL     1      26.173  14.635   6.570  1.00  0.00     0.021 A 
ATOM     13  C   UNL     1      27.476  14.418   7.050  1.00  0.00     0.016 A 
ATOM     14  C   UNL     1      27.972  13.120   7.198  1.00  0.00     0.051 A 
ATOM     15  C   UNL     1      27.179  12.017   6.858  1.00  0.00     0.157 A 
ATOM     16  C   UNL     1      25.385  13.521   6.218  1.00  0.00     0.062 A 
ATOM     17  C   UNL     1      25.881  12.220   6.363  1.00  0.00     0.158 A 
BRANCH  15  18
ATOM     18  O   UNL     1      27.676  10.724   7.008  1.00  0.00    -0.504 OA
ATOM     19  H   UNL     1      27.228   9.928   6.569  1.00  0.00     0.293 HD
ENDBRANCH  15  18
BRANCH  17  20
ATOM     20  O   UNL     1      25.070  11.143   6.005  1.00  0.00    -0.504 OA
ATOM     21  H   UNL     1      24.069  11.150   6.157  1.00  0.00     0.293 HD
ENDBRANCH  17  20
ENDBRANCH   1  12
BRANCH   6  22
ATOM     22  O   UNL     1      24.657  21.052   5.665  1.00  0.00    -0.507 OA
ATOM     23  H   UNL     1      24.855  21.755   6.359  1.00  0.00     0.293 HD
ENDBRANCH   6  22
BRANCH   8  24
ATOM     24  O   UNL     1      20.412  18.855   6.110  1.00  0.00    -0.508 OA
ATOM     25  H   UNL     1      19.859  18.652   5.285  1.00  0.00     0.293 HD
ENDBRANCH   8  24
TORSDOF 5
ENDMDL
