MODEL 1
REMARK VINA RESULT:    -0.554      0.000      0.000
REMARK INTER + INTRA:          -0.887
REMARK INTER:                  -0.716
REMARK INTRA:                  -0.171
REMARK UNBOUND:                -0.171
REMARK SMILES CCCCCCC(=O)[O-]
REMARK SMILES IDX 5 1 6 2 7 3 8 4 9 5 4 6 3 7 2 8 1 9
REMARK H PARENT
REMARK Flexibility Score: inf
ROOT
ATOM      1  C   UNL     1      15.684   6.341   9.096  1.00  0.00     0.006 C 
ENDROOT
BRANCH   1   2
ATOM      2  C   UNL     1      15.879   7.741   9.683  1.00  0.00     0.053 C 
BRANCH   2   3
ATOM      3  C   UNL     1      17.332   8.022   9.899  1.00  0.00     0.041 C 
ATOM      4  O   UNL     1      18.125   7.084  10.176  1.00  0.00    -0.550 OA
ATOM      5  O   UNL     1      17.821   9.313   9.745  1.00  0.00    -0.550 OA
ENDBRANCH   2   3
ENDBRANCH   1   2
BRANCH   1   6
ATOM      6  C   UNL     1      15.882   6.349   7.575  1.00  0.00     0.000 C 
BRANCH   6   7
ATOM      7  C   UNL     1      15.631   4.955   6.981  1.00  0.00    -0.000 C 
BRANCH   7   8
ATOM      8  C   UNL     1      16.703   4.548   5.958  1.00  0.00    -0.003 C 
ATOM      9  C   UNL     1      18.125   4.699   6.501  1.00  0.00     0.004 C 
ENDBRANCH   7   8
ENDBRANCH   6   7
ENDBRANCH   1   6
TORSDOF 5
ENDMDL
MODEL 2
REMARK VINA RESULT:     0.875      2.506      4.499
REMARK INTER + INTRA:           0.960
REMARK INTER:                   1.042
REMARK INTRA:                  -0.083
REMARK UNBOUND:                -0.171
REMARK SMILES CCCCCCC(=O)[O-]
REMARK SMILES IDX 5 1 6 2 7 3 8 4 9 5 4 6 3 7 2 8 1 9
REMARK H PARENT
REMARK Flexibility Score: inf
ROOT
ATOM      1  C   UNL     1      15.412   6.036   8.265  1.00  0.00     0.006 C 
ENDROOT
BRANCH   1   2
ATOM      2  C   UNL     1      15.896   6.140   6.816  1.00  0.00     0.053 C 
BRANCH   2   3
ATOM      3  C   UNL     1      16.693   4.930   6.441  1.00  0.00     0.041 C 
ATOM      4  O   UNL     1      16.133   3.951   5.882  1.00  0.00    -0.550 OA
ATOM      5  O   UNL     1      18.063   4.904   6.665  1.00  0.00    -0.550 OA
ENDBRANCH   2   3
ENDBRANCH   1   2
BRANCH   1   6
ATOM      6  C   UNL     1      16.551   6.328   9.249  1.00  0.00     0.000 C 
BRANCH   6   7
ATOM      7  C   UNL     1      16.518   7.793   9.710  1.00  0.00    -0.000 C 
BRANCH   7   8
ATOM      8  C   UNL     1      17.914   8.332  10.059  1.00  0.00    -0.003 C 
ATOM      9  C   UNL     1      18.125   9.772   9.590  1.00  0.00     0.004 C 
ENDBRANCH   7   8
ENDBRANCH   6   7
ENDBRANCH   1   6
TORSDOF 5
ENDMDL
