MODEL 1
REMARK VINA RESULT:    -6.843      0.000      0.000
REMARK INTER + INTRA:          -8.342
REMARK INTER:                  -8.043
REMARK INTRA:                  -0.299
REMARK UNBOUND:                -0.299
REMARK SMILES O=c1c(O)c(-c2ccc(O)cc2)oc2cc(O)cc(O)c12
REMARK SMILES IDX 5 1 3 2 2 3 1 4 21 5 19 6 18 7 16 8 15 9 14 10 13 11 6 12
REMARK SMILES IDX 7 13 8 14 9 15 12 16 11 17 10 18 4 20 20 22 17 24
REMARK H PARENT 10 19 4 21 20 23 17 25
REMARK Flexibility Score: inf
ROOT
ATOM      1  C   UNL     1      -5.424  15.231   6.859  1.00  0.00     0.180 A 
ATOM      2  C   UNL     1      -5.851  14.231   5.969  1.00  0.00     0.208 A 
ATOM      3  C   UNL     1      -7.216  14.137   5.654  1.00  0.00     0.238 A 
ATOM      4  O   UNL     1      -7.584  13.274   4.814  1.00  0.00    -0.285 OA
ATOM      5  C   UNL     1      -8.138  15.033   6.244  1.00  0.00     0.111 A 
ATOM      6  C   UNL     1      -9.549  15.004   6.027  1.00  0.00     0.134 A 
ATOM      7  C   UNL     1     -10.351  16.021   6.561  1.00  0.00     0.093 A 
ATOM      8  C   UNL     1      -9.801  17.029   7.356  1.00  0.00     0.123 A 
ATOM      9  C   UNL     1      -8.434  17.032   7.623  1.00  0.00     0.094 A 
ATOM     10  C   UNL     1      -7.603  16.052   7.075  1.00  0.00     0.146 A 
ATOM     11  O   UNL     1      -6.304  16.098   7.346  1.00  0.00    -0.452 OA
ENDROOT
BRANCH   1  12
ATOM     12  C   UNL     1      -4.005  15.377   7.259  1.00  0.00     0.021 A 
ATOM     13  C   UNL     1      -3.185  16.291   6.577  1.00  0.00     0.016 A 
ATOM     14  C   UNL     1      -1.849  16.461   6.953  1.00  0.00     0.047 A 
ATOM     15  C   UNL     1      -1.321  15.732   8.026  1.00  0.00     0.115 A 
ATOM     16  C   UNL     1      -3.473  14.662   8.348  1.00  0.00     0.016 A 
ATOM     17  C   UNL     1      -2.138  14.836   8.723  1.00  0.00     0.047 A 
BRANCH  15  18
ATOM     18  O   UNL     1       0.009  15.892   8.409  1.00  0.00    -0.508 OA
ATOM     19  H   UNL     1       0.757  15.390   7.947  1.00  0.00     0.293 HD
ENDBRANCH  15  18
ENDBRANCH   1  12
BRANCH   2  20
ATOM     20  O   UNL     1      -4.920  13.370   5.381  1.00  0.00    -0.502 OA
ATOM     21  H   UNL     1      -5.109  12.386   5.229  1.00  0.00     0.293 HD
ENDBRANCH   2  20
BRANCH   6  22
ATOM     22  O   UNL     1     -10.209  13.992   5.325  1.00  0.00    -0.507 OA
ATOM     23  H   UNL     1     -10.351  13.054   5.667  1.00  0.00     0.293 HD
ENDBRANCH   6  22
BRANCH   8  24
ATOM     24  O   UNL     1     -10.609  18.028   7.896  1.00  0.00    -0.508 OA
ATOM     25  H   UNL     1     -11.300  18.512   7.335  1.00  0.00     0.293 HD
ENDBRANCH   8  24
TORSDOF 5
ENDMDL
MODEL 2
REMARK VINA RESULT:    -6.703      1.765      3.755
REMARK INTER + INTRA:          -8.178
REMARK INTER:                  -7.988
REMARK INTRA:                  -0.190
REMARK UNBOUND:                -0.299
REMARK SMILES O=c1c(O)c(-c2ccc(O)cc2)oc2cc(O)cc(O)c12
REMARK SMILES IDX 5 1 3 2 2 3 1 4 21 5 19 6 18 7 16 8 15 9 14 10 13 11 6 12
REMARK SMILES IDX 7 13 8 14 9 15 12 16 11 17 10 18 4 20 20 22 17 24
REMARK H PARENT 10 19 4 21 20 23 17 25
REMARK Flexibility Score: inf
ROOT
ATOM      1  C   UNL     1      -3.517  15.525   8.032  1.00  0.00     0.180 A 
ATOM      2  C   UNL     1      -4.415  16.123   8.934  1.00  0.00     0.208 A 
ATOM      3  C   UNL     1      -5.793  16.041   8.676  1.00  0.00     0.238 A 
ATOM      4  O   UNL     1      -6.594  16.531   9.515  1.00  0.00    -0.285 OA
ATOM      5  C   UNL     1      -6.255  15.377   7.515  1.00  0.00     0.111 A 
ATOM      6  C   UNL     1      -7.627  15.268   7.136  1.00  0.00     0.134 A 
ATOM      7  C   UNL     1      -7.978  14.476   6.034  1.00  0.00     0.093 A 
ATOM      8  C   UNL     1      -7.001  13.842   5.263  1.00  0.00     0.123 A 
ATOM      9  C   UNL     1      -5.656  13.992   5.590  1.00  0.00     0.094 A 
ATOM     10  C   UNL     1      -5.277  14.746   6.703  1.00  0.00     0.146 A 
ATOM     11  O   UNL     1      -3.984  14.853   6.987  1.00  0.00    -0.452 OA
ENDROOT
BRANCH   1  12
ATOM     12  C   UNL     1      -2.050  15.590   8.221  1.00  0.00     0.021 A 
ATOM     13  C   UNL     1      -1.448  14.826   9.236  1.00  0.00     0.016 A 
ATOM     14  C   UNL     1      -0.062  14.856   9.417  1.00  0.00     0.047 A 
ATOM     15  C   UNL     1       0.742  15.636   8.576  1.00  0.00     0.115 A 
ATOM     16  C   UNL     1      -1.234  16.357   7.369  1.00  0.00     0.016 A 
ATOM     17  C   UNL     1       0.152  16.383   7.552  1.00  0.00     0.047 A 
BRANCH  15  18
ATOM     18  O   UNL     1       2.124  15.674   8.748  1.00  0.00    -0.508 OA
ATOM     19  H   UNL     1       2.753  15.755   7.959  1.00  0.00     0.293 HD
ENDBRANCH  15  18
ENDBRANCH   1  12
BRANCH   2  20
ATOM     20  O   UNL     1      -3.938  16.755  10.085  1.00  0.00    -0.502 OA
ATOM     21  H   UNL     1      -4.046  16.356  11.009  1.00  0.00     0.293 HD
ENDBRANCH   2  20
BRANCH   6  22
ATOM     22  O   UNL     1      -8.670  15.934   7.784  1.00  0.00    -0.507 OA
ATOM     23  H   UNL     1      -9.198  16.698   7.389  1.00  0.00     0.293 HD
ENDBRANCH   6  22
BRANCH   8  24
ATOM     24  O   UNL     1      -7.359  13.069   4.160  1.00  0.00    -0.508 OA
ATOM     25  H   UNL     1      -8.056  12.338   4.229  1.00  0.00     0.293 HD
ENDBRANCH   8  24
TORSDOF 5
ENDMDL
MODEL 3
REMARK VINA RESULT:    -6.388      4.384      6.317
REMARK INTER + INTRA:          -7.808
REMARK INTER:                  -7.563
REMARK INTRA:                  -0.245
REMARK UNBOUND:                -0.299
REMARK SMILES O=c1c(O)c(-c2ccc(O)cc2)oc2cc(O)cc(O)c12
REMARK SMILES IDX 5 1 3 2 2 3 1 4 21 5 19 6 18 7 16 8 15 9 14 10 13 11 6 12
REMARK SMILES IDX 7 13 8 14 9 15 12 16 11 17 10 18 4 20 20 22 17 24
REMARK H PARENT 10 19 4 21 20 23 17 25
REMARK Flexibility Score: inf
ROOT
ATOM      1  C   UNL     1      -6.264  14.233  10.539  1.00  0.00     0.180 A 
ATOM      2  C   UNL     1      -5.400  15.340  10.600  1.00  0.00     0.208 A 
ATOM      3  C   UNL     1      -4.977  15.939   9.403  1.00  0.00     0.238 A 
ATOM      4  O   UNL     1      -4.247  16.963   9.466  1.00  0.00    -0.285 OA
ATOM      5  C   UNL     1      -5.410  15.416   8.161  1.00  0.00     0.111 A 
ATOM      6  C   UNL     1      -5.012  15.921   6.886  1.00  0.00     0.134 A 
ATOM      7  C   UNL     1      -5.606  15.409   5.725  1.00  0.00     0.093 A 
ATOM      8  C   UNL     1      -6.534  14.367   5.790  1.00  0.00     0.123 A 
ATOM      9  C   UNL     1      -6.884  13.828   7.026  1.00  0.00     0.094 A 
ATOM     10  C   UNL     1      -6.336  14.342   8.204  1.00  0.00     0.146 A 
ATOM     11  O   UNL     1      -6.705  13.806   9.362  1.00  0.00    -0.452 OA
ENDROOT
BRANCH   1  12
ATOM     12  C   UNL     1      -6.733  13.531  11.756  1.00  0.00     0.021 A 
ATOM     13  C   UNL     1      -6.114  12.332  12.145  1.00  0.00     0.016 A 
ATOM     14  C   UNL     1      -6.526  11.665  13.304  1.00  0.00     0.047 A 
ATOM     15  C   UNL     1      -7.551  12.198  14.095  1.00  0.00     0.115 A 
ATOM     16  C   UNL     1      -7.749  14.070  12.567  1.00  0.00     0.016 A 
ATOM     17  C   UNL     1      -8.157  13.402  13.725  1.00  0.00     0.047 A 
BRANCH  15  18
ATOM     18  O   UNL     1      -7.971  11.543  15.251  1.00  0.00    -0.508 OA
ATOM     19  H   UNL     1      -8.370  10.612  15.216  1.00  0.00     0.293 HD
ENDBRANCH  15  18
ENDBRANCH   1  12
BRANCH   2  20
ATOM     20  O   UNL     1      -5.002  15.852  11.837  1.00  0.00    -0.502 OA
ATOM     21  H   UNL     1      -4.254  16.530  11.930  1.00  0.00     0.293 HD
ENDBRANCH   2  20
BRANCH   6  22
ATOM     22  O   UNL     1      -4.028  16.896   6.706  1.00  0.00    -0.507 OA
ATOM     23  H   UNL     1      -3.077  16.821   7.035  1.00  0.00     0.293 HD
ENDBRANCH   6  22
BRANCH   8  24
ATOM     24  O   UNL     1      -7.108  13.853   4.629  1.00  0.00    -0.508 OA
ATOM     25  H   UNL     1      -7.688  13.023   4.647  1.00  0.00     0.293 HD
ENDBRANCH   8  24
TORSDOF 5
ENDMDL
MODEL 4
REMARK VINA RESULT:    -6.289      2.112      6.642
REMARK INTER + INTRA:          -7.691
REMARK INTER:                  -7.741
REMARK INTRA:                   0.049
REMARK UNBOUND:                -0.299
REMARK SMILES O=c1c(O)c(-c2ccc(O)cc2)oc2cc(O)cc(O)c12
REMARK SMILES IDX 5 1 3 2 2 3 1 4 21 5 19 6 18 7 16 8 15 9 14 10 13 11 6 12
REMARK SMILES IDX 7 13 8 14 9 15 12 16 11 17 10 18 4 20 20 22 17 24
REMARK H PARENT 10 19 4 21 20 23 17 25
REMARK Flexibility Score: inf
ROOT
ATOM      1  C   UNL     1      -7.369  15.980   7.298  1.00  0.00     0.180 A 
ATOM      2  C   UNL     1      -6.429  15.509   6.364  1.00  0.00     0.208 A 
ATOM      3  C   UNL     1      -5.082  15.407   6.746  1.00  0.00     0.238 A 
ATOM      4  O   UNL     1      -4.255  14.933   5.924  1.00  0.00    -0.285 OA
ATOM      5  C   UNL     1      -4.689  15.792   8.050  1.00  0.00     0.111 A 
ATOM      6  C   UNL     1      -3.345  15.767   8.532  1.00  0.00     0.134 A 
ATOM      7  C   UNL     1      -3.090  16.045   9.881  1.00  0.00     0.093 A 
ATOM      8  C   UNL     1      -4.122  16.410  10.749  1.00  0.00     0.123 A 
ATOM      9  C   UNL     1      -5.428  16.495  10.274  1.00  0.00     0.094 A 
ATOM     10  C   UNL     1      -5.719  16.188   8.942  1.00  0.00     0.146 A 
ATOM     11  O   UNL     1      -6.980  16.271   8.533  1.00  0.00    -0.452 OA
ENDROOT
BRANCH   1  12
ATOM     12  C   UNL     1      -8.802  16.139   6.961  1.00  0.00     0.021 A 
ATOM     13  C   UNL     1      -9.508  15.056   6.411  1.00  0.00     0.016 A 
ATOM     14  C   UNL     1     -10.868  15.178   6.107  1.00  0.00     0.047 A 
ATOM     15  C   UNL     1     -11.542  16.378   6.365  1.00  0.00     0.115 A 
ATOM     16  C   UNL     1      -9.492  17.335   7.236  1.00  0.00     0.016 A 
ATOM     17  C   UNL     1     -10.851  17.453   6.932  1.00  0.00     0.047 A 
BRANCH  15  18
ATOM     18  O   UNL     1     -12.896  16.511   6.066  1.00  0.00    -0.508 OA
ATOM     19  H   UNL     1     -13.247  16.371   5.126  1.00  0.00     0.293 HD
ENDBRANCH  15  18
ENDBRANCH   1  12
BRANCH   2  20
ATOM     20  O   UNL     1      -6.843  15.115   5.089  1.00  0.00    -0.502 OA
ATOM     21  H   UNL     1      -7.794  14.828   4.890  1.00  0.00     0.293 HD
ENDBRANCH   2  20
BRANCH   6  22
ATOM     22  O   UNL     1      -2.233  15.505   7.727  1.00  0.00    -0.507 OA
ATOM     23  H   UNL     1      -1.794  14.601   7.630  1.00  0.00     0.293 HD
ENDBRANCH   6  22
BRANCH   8  24
ATOM     24  O   UNL     1      -3.856  16.700  12.086  1.00  0.00    -0.508 OA
ATOM     25  H   UNL     1      -3.542  15.985  12.731  1.00  0.00     0.293 HD
ENDBRANCH   8  24
TORSDOF 5
ENDMDL
MODEL 5
REMARK VINA RESULT:    -6.277      1.248      1.434
REMARK INTER + INTRA:          -7.677
REMARK INTER:                  -7.386
REMARK INTRA:                  -0.292
REMARK UNBOUND:                -0.299
REMARK SMILES O=c1c(O)c(-c2ccc(O)cc2)oc2cc(O)cc(O)c12
REMARK SMILES IDX 5 1 3 2 2 3 1 4 21 5 19 6 18 7 16 8 15 9 14 10 13 11 6 12
REMARK SMILES IDX 7 13 8 14 9 15 12 16 11 17 10 18 4 20 20 22 17 24
REMARK H PARENT 10 19 4 21 20 23 17 25
REMARK Flexibility Score: inf
ROOT
ATOM      1  C   UNL     1      -6.371  15.668   7.272  1.00  0.00     0.180 A 
ATOM      2  C   UNL     1      -6.991  15.051   6.171  1.00  0.00     0.208 A 
ATOM      3  C   UNL     1      -8.388  15.115   6.054  1.00  0.00     0.238 A 
ATOM      4  O   UNL     1      -8.933  14.607   5.038  1.00  0.00    -0.285 OA
ATOM      5  C   UNL     1      -9.150  15.780   7.044  1.00  0.00     0.111 A 
ATOM      6  C   UNL     1     -10.574  15.871   7.046  1.00  0.00     0.134 A 
ATOM      7  C   UNL     1     -11.214  16.666   8.007  1.00  0.00     0.093 A 
ATOM      8  C   UNL     1     -10.484  17.319   9.003  1.00  0.00     0.123 A 
ATOM      9  C   UNL     1      -9.098  17.187   9.045  1.00  0.00     0.094 A 
ATOM     10  C   UNL     1      -8.429  16.431   8.079  1.00  0.00     0.146 A 
ATOM     11  O   UNL     1      -7.106  16.341   8.149  1.00  0.00    -0.452 OA
ENDROOT
BRANCH   1  12
ATOM     12  C   UNL     1      -4.905  15.623   7.478  1.00  0.00     0.021 A 
ATOM     13  C   UNL     1      -4.097  16.632   6.927  1.00  0.00     0.016 A 
ATOM     14  C   UNL     1      -2.713  16.621   7.129  1.00  0.00     0.047 A 
ATOM     15  C   UNL     1      -2.122  15.610   7.897  1.00  0.00     0.115 A 
ATOM     16  C   UNL     1      -4.305  14.622   8.265  1.00  0.00     0.016 A 
ATOM     17  C   UNL     1      -2.922  14.615   8.466  1.00  0.00     0.047 A 
BRANCH  15  18
ATOM     18  O   UNL     1      -0.745  15.588   8.104  1.00  0.00    -0.508 OA
ATOM     19  H   UNL     1      -0.322  16.049   8.901  1.00  0.00     0.293 HD
ENDBRANCH  15  18
ENDBRANCH   1  12
BRANCH   2  20
ATOM     20  O   UNL     1      -6.218  14.418   5.194  1.00  0.00    -0.502 OA
ATOM     21  H   UNL     1      -6.414  14.506   4.204  1.00  0.00     0.293 HD
ENDBRANCH   2  20
BRANCH   6  22
ATOM     22  O   UNL     1     -11.401  15.186   6.152  1.00  0.00    -0.507 OA
ATOM     23  H   UNL     1     -11.073  14.628   5.378  1.00  0.00     0.293 HD
ENDBRANCH   6  22
BRANCH   8  24
ATOM     24  O   UNL     1     -11.130  18.094   9.964  1.00  0.00    -0.508 OA
ATOM     25  H   UNL     1     -11.231  17.776  10.920  1.00  0.00     0.293 HD
ENDBRANCH   8  24
TORSDOF 5
ENDMDL
MODEL 6
REMARK VINA RESULT:    -6.141      3.113      8.648
REMARK INTER + INTRA:          -7.517
REMARK INTER:                  -7.238
REMARK INTRA:                  -0.280
REMARK UNBOUND:                -0.299
REMARK SMILES O=c1c(O)c(-c2ccc(O)cc2)oc2cc(O)cc(O)c12
REMARK SMILES IDX 5 1 3 2 2 3 1 4 21 5 19 6 18 7 16 8 15 9 14 10 13 11 6 12
REMARK SMILES IDX 7 13 8 14 9 15 12 16 11 17 10 18 4 20 20 22 17 24
REMARK H PARENT 10 19 4 21 20 23 17 25
REMARK Flexibility Score: inf
ROOT
ATOM      1  C   UNL     1     -11.734  15.312   6.802  1.00  0.00     0.180 A 
ATOM      2  C   UNL     1     -11.233  16.453   7.453  1.00  0.00     0.208 A 
ATOM      3  C   UNL     1      -9.852  16.702   7.424  1.00  0.00     0.238 A 
ATOM      4  O   UNL     1      -9.417  17.754   7.962  1.00  0.00    -0.285 OA
ATOM      5  C   UNL     1      -8.987  15.802   6.757  1.00  0.00     0.111 A 
ATOM      6  C   UNL     1      -7.568  15.936   6.698  1.00  0.00     0.134 A 
ATOM      7  C   UNL     1      -6.823  15.056   5.900  1.00  0.00     0.093 A 
ATOM      8  C   UNL     1      -7.442  14.010   5.212  1.00  0.00     0.123 A 
ATOM      9  C   UNL     1      -8.820  13.835   5.312  1.00  0.00     0.094 A 
ATOM     10  C   UNL     1      -9.593  14.718   6.071  1.00  0.00     0.146 A 
ATOM     11  O   UNL     1     -10.906  14.522   6.130  1.00  0.00    -0.452 OA
ENDROOT
BRANCH   1  12
ATOM     12  C   UNL     1     -13.174  14.968   6.811  1.00  0.00     0.021 A 
ATOM     13  C   UNL     1     -13.714  14.277   7.909  1.00  0.00     0.016 A 
ATOM     14  C   UNL     1     -15.076  13.962   7.947  1.00  0.00     0.047 A 
ATOM     15  C   UNL     1     -15.918  14.349   6.896  1.00  0.00     0.115 A 
ATOM     16  C   UNL     1     -14.030  15.370   5.769  1.00  0.00     0.016 A 
ATOM     17  C   UNL     1     -15.391  15.055   5.811  1.00  0.00     0.047 A 
BRANCH  15  18
ATOM     18  O   UNL     1     -17.276  14.040   6.924  1.00  0.00    -0.508 OA
ATOM     19  H   UNL     1     -17.774  13.767   6.085  1.00  0.00     0.293 HD
ENDBRANCH  15  18
ENDBRANCH   1  12
BRANCH   2  20
ATOM     20  O   UNL     1     -12.107  17.340   8.087  1.00  0.00    -0.502 OA
ATOM     21  H   UNL     1     -12.904  17.026   8.628  1.00  0.00     0.293 HD
ENDBRANCH   2  20
BRANCH   6  22
ATOM     22  O   UNL     1      -6.843  16.889   7.419  1.00  0.00    -0.507 OA
ATOM     23  H   UNL     1      -7.121  17.852   7.539  1.00  0.00     0.293 HD
ENDBRANCH   6  22
BRANCH   8  24
ATOM     24  O   UNL     1      -6.692  13.130   4.434  1.00  0.00    -0.508 OA
ATOM     25  H   UNL     1      -6.490  12.188   4.746  1.00  0.00     0.293 HD
ENDBRANCH   8  24
TORSDOF 5
ENDMDL
MODEL 7
REMARK VINA RESULT:    -5.949      1.929      6.860
REMARK INTER + INTRA:          -7.291
REMARK INTER:                  -7.044
REMARK INTRA:                  -0.247
REMARK UNBOUND:                -0.299
REMARK SMILES O=c1c(O)c(-c2ccc(O)cc2)oc2cc(O)cc(O)c12
REMARK SMILES IDX 5 1 3 2 2 3 1 4 21 5 19 6 18 7 16 8 15 9 14 10 13 11 6 12
REMARK SMILES IDX 7 13 8 14 9 15 12 16 11 17 10 18 4 20 20 22 17 24
REMARK H PARENT 10 19 4 21 20 23 17 25
REMARK Flexibility Score: inf
ROOT
ATOM      1  C   UNL     1      -6.720  15.942   7.652  1.00  0.00     0.180 A 
ATOM      2  C   UNL     1      -6.383  15.199   8.797  1.00  0.00     0.208 A 
ATOM      3  C   UNL     1      -5.028  14.996   9.103  1.00  0.00     0.238 A 
ATOM      4  O   UNL     1      -4.734  14.376  10.158  1.00  0.00    -0.285 OA
ATOM      5  C   UNL     1      -4.027  15.524   8.253  1.00  0.00     0.111 A 
ATOM      6  C   UNL     1      -2.624  15.346   8.445  1.00  0.00     0.134 A 
ATOM      7  C   UNL     1      -1.721  16.023   7.615  1.00  0.00     0.093 A 
ATOM      8  C   UNL     1      -2.173  16.820   6.560  1.00  0.00     0.123 A 
ATOM      9  C   UNL     1      -3.539  16.953   6.328  1.00  0.00     0.094 A 
ATOM     10  C   UNL     1      -4.464  16.318   7.161  1.00  0.00     0.146 A 
ATOM     11  O   UNL     1      -5.759  16.480   6.911  1.00  0.00    -0.452 OA
ENDROOT
BRANCH   1  12
ATOM     12  C   UNL     1      -8.126  16.177   7.250  1.00  0.00     0.021 A 
ATOM     13  C   UNL     1      -8.872  17.176   7.898  1.00  0.00     0.016 A 
ATOM     14  C   UNL     1     -10.194  17.430   7.519  1.00  0.00     0.047 A 
ATOM     15  C   UNL     1     -10.780  16.700   6.477  1.00  0.00     0.115 A 
ATOM     16  C   UNL     1      -8.715  15.463   6.191  1.00  0.00     0.016 A 
ATOM     17  C   UNL     1     -10.036  15.720   5.814  1.00  0.00     0.047 A 
BRANCH  15  18
ATOM     18  O   UNL     1     -12.096  16.944   6.091  1.00  0.00    -0.508 OA
ATOM     19  H   UNL     1     -12.666  16.222   5.667  1.00  0.00     0.293 HD
ENDBRANCH  15  18
ENDBRANCH   1  12
BRANCH   2  20
ATOM     20  O   UNL     1      -7.388  14.705   9.634  1.00  0.00    -0.502 OA
ATOM     21  H   UNL     1      -7.305  13.819  10.118  1.00  0.00     0.293 HD
ENDBRANCH   2  20
BRANCH   6  22
ATOM     22  O   UNL     1      -2.070  14.500   9.410  1.00  0.00    -0.507 OA
ATOM     23  H   UNL     1      -1.260  13.916   9.266  1.00  0.00     0.293 HD
ENDBRANCH   6  22
BRANCH   8  24
ATOM     24  O   UNL     1      -1.267  17.478   5.729  1.00  0.00    -0.508 OA
ATOM     25  H   UNL     1      -1.454  18.407   5.372  1.00  0.00     0.293 HD
ENDBRANCH   8  24
TORSDOF 5
ENDMDL
MODEL 8
REMARK VINA RESULT:    -5.934      5.809      7.008
REMARK INTER + INTRA:          -7.274
REMARK INTER:                  -6.980
REMARK INTRA:                  -0.294
REMARK UNBOUND:                -0.299
REMARK SMILES O=c1c(O)c(-c2ccc(O)cc2)oc2cc(O)cc(O)c12
REMARK SMILES IDX 5 1 3 2 2 3 1 4 21 5 19 6 18 7 16 8 15 9 14 10 13 11 6 12
REMARK SMILES IDX 7 13 8 14 9 15 12 16 11 17 10 18 4 20 20 22 17 24
REMARK H PARENT 10 19 4 21 20 23 17 25
REMARK Flexibility Score: inf
ROOT
ATOM      1  C   UNL     1      -8.141  14.084  12.536  1.00  0.00     0.180 A 
ATOM      2  C   UNL     1      -7.405  15.114  11.925  1.00  0.00     0.208 A 
ATOM      3  C   UNL     1      -8.086  16.081  11.169  1.00  0.00     0.238 A 
ATOM      4  O   UNL     1      -7.427  17.031  10.669  1.00  0.00    -0.285 OA
ATOM      5  C   UNL     1      -9.491  15.999  11.020  1.00  0.00     0.111 A 
ATOM      6  C   UNL     1     -10.278  16.902  10.245  1.00  0.00     0.134 A 
ATOM      7  C   UNL     1     -11.675  16.802  10.275  1.00  0.00     0.093 A 
ATOM      8  C   UNL     1     -12.309  15.791  11.002  1.00  0.00     0.123 A 
ATOM      9  C   UNL     1     -11.546  14.869  11.714  1.00  0.00     0.094 A 
ATOM     10  C   UNL     1     -10.153  14.965  11.732  1.00  0.00     0.146 A 
ATOM     11  O   UNL     1      -9.464  14.071  12.433  1.00  0.00    -0.452 OA
ENDROOT
BRANCH   1  12
ATOM     12  C   UNL     1      -7.491  13.014  13.328  1.00  0.00     0.021 A 
ATOM     13  C   UNL     1      -7.452  13.117  14.728  1.00  0.00     0.016 A 
ATOM     14  C   UNL     1      -6.864  12.106  15.496  1.00  0.00     0.047 A 
ATOM     15  C   UNL     1      -6.323  10.974  14.874  1.00  0.00     0.115 A 
ATOM     16  C   UNL     1      -6.963  11.864  12.712  1.00  0.00     0.016 A 
ATOM     17  C   UNL     1      -6.378  10.856  13.482  1.00  0.00     0.047 A 
BRANCH  15  18
ATOM     18  O   UNL     1      -5.734   9.962  15.629  1.00  0.00    -0.508 OA
ATOM     19  H   UNL     1      -5.869   8.984  15.400  1.00  0.00     0.293 HD
ENDBRANCH  15  18
ENDBRANCH   1  12
BRANCH   2  20
ATOM     20  O   UNL     1      -6.020  15.188  12.102  1.00  0.00    -0.502 OA
ATOM     21  H   UNL     1      -5.550  14.765  12.892  1.00  0.00     0.293 HD
ENDBRANCH   2  20
BRANCH   6  22
ATOM     22  O   UNL     1      -9.741  17.889   9.413  1.00  0.00    -0.507 OA
ATOM     23  H   UNL     1      -9.467  18.810   9.718  1.00  0.00     0.293 HD
ENDBRANCH   6  22
BRANCH   8  24
ATOM     24  O   UNL     1     -13.699  15.690  11.014  1.00  0.00    -0.508 OA
ATOM     25  H   UNL     1     -14.230  15.796  11.870  1.00  0.00     0.293 HD
ENDBRANCH   8  24
TORSDOF 5
ENDMDL
MODEL 9
REMARK VINA RESULT:    -5.922      5.216      6.191
REMARK INTER + INTRA:          -7.260
REMARK INTER:                  -7.001
REMARK INTRA:                  -0.259
REMARK UNBOUND:                -0.299
REMARK SMILES O=c1c(O)c(-c2ccc(O)cc2)oc2cc(O)cc(O)c12
REMARK SMILES IDX 5 1 3 2 2 3 1 4 21 5 19 6 18 7 16 8 15 9 14 10 13 11 6 12
REMARK SMILES IDX 7 13 8 14 9 15 12 16 11 17 10 18 4 20 20 22 17 24
REMARK H PARENT 10 19 4 21 20 23 17 25
REMARK Flexibility Score: inf
ROOT
ATOM      1  C   UNL     1      -6.258  14.226  10.584  1.00  0.00     0.180 A 
ATOM      2  C   UNL     1      -7.559  14.759  10.613  1.00  0.00     0.208 A 
ATOM      3  C   UNL     1      -8.484  14.245  11.535  1.00  0.00     0.238 A 
ATOM      4  O   UNL     1      -9.630  14.763  11.593  1.00  0.00    -0.285 OA
ATOM      5  C   UNL     1      -8.104  13.195  12.405  1.00  0.00     0.111 A 
ATOM      6  C   UNL     1      -8.972  12.572  13.351  1.00  0.00     0.134 A 
ATOM      7  C   UNL     1      -8.452  11.631  14.250  1.00  0.00     0.093 A 
ATOM      8  C   UNL     1      -7.111  11.246  14.194  1.00  0.00     0.123 A 
ATOM      9  C   UNL     1      -6.270  11.805  13.235  1.00  0.00     0.094 A 
ATOM     10  C   UNL     1      -6.750  12.772  12.348  1.00  0.00     0.146 A 
ATOM     11  O   UNL     1      -5.912  13.288  11.456  1.00  0.00    -0.452 OA
ENDROOT
BRANCH   1  12
ATOM     12  C   UNL     1      -5.234  14.699   9.623  1.00  0.00     0.021 A 
ATOM     13  C   UNL     1      -4.187  15.519  10.077  1.00  0.00     0.016 A 
ATOM     14  C   UNL     1      -3.198  15.957   9.191  1.00  0.00     0.047 A 
ATOM     15  C   UNL     1      -3.233  15.568   7.846  1.00  0.00     0.115 A 
ATOM     16  C   UNL     1      -5.252  14.297   8.275  1.00  0.00     0.016 A 
ATOM     17  C   UNL     1      -4.261  14.735   7.393  1.00  0.00     0.047 A 
BRANCH  15  18
ATOM     18  O   UNL     1      -2.253  16.000   6.955  1.00  0.00    -0.508 OA
ATOM     19  H   UNL     1      -2.217  16.960   6.633  1.00  0.00     0.293 HD
ENDBRANCH  15  18
ENDBRANCH   1  12
BRANCH   2  20
ATOM     20  O   UNL     1      -7.907  15.810   9.760  1.00  0.00    -0.502 OA
ATOM     21  H   UNL     1      -7.221  16.451   9.379  1.00  0.00     0.293 HD
ENDBRANCH   2  20
BRANCH   6  22
ATOM     22  O   UNL     1     -10.345  12.818  13.429  1.00  0.00    -0.507 OA
ATOM     23  H   UNL     1     -10.992  12.290  13.995  1.00  0.00     0.293 HD
ENDBRANCH   6  22
BRANCH   8  24
ATOM     24  O   UNL     1      -6.606  10.299  15.082  1.00  0.00    -0.508 OA
ATOM     25  H   UNL     1      -6.091  10.571  15.911  1.00  0.00     0.293 HD
ENDBRANCH   8  24
TORSDOF 5
ENDMDL
