MODEL 1
REMARK VINA RESULT:    -4.044      0.000      0.000
REMARK INTER + INTRA:          -4.471
REMARK INTER:                  -4.989
REMARK INTRA:                   0.518
REMARK UNBOUND:                 0.518
REMARK SMILES C=C1[C@H]2CC[C@@H]3[C@@H]2C(C)(C)CCC[C@]13C
REMARK SMILES IDX 14 1 6 2 7 3 3 4 2 5 1 6 4 7 5 8 15 9 8 10 9 11 10 12 11 13
REMARK SMILES IDX 13 15 12 16
REMARK H PARENT
REMARK Flexibility Score: 80.00
ROOT
ATOM      1  C   UNL     1      30.655  24.176  12.978  1.00  0.00    -0.008 C 
ATOM      2  C   UNL     1      29.423  25.059  12.843  1.00  0.00     0.003 C 
ATOM      3  C   UNL     1      29.707  25.655  11.451  1.00  0.00     0.006 C 
ATOM      4  C   UNL     1      29.590  24.322  10.732  1.00  0.00     0.019 C 
ATOM      5  C   UNL     1      30.641  23.557  11.571  1.00  0.00    -0.068 C 
ATOM      6  C   UNL     1      31.438  22.587  11.119  1.00  0.00     0.009 C 
ATOM      7  C   UNL     1      28.215  23.815  11.148  1.00  0.00     0.008 C 
ATOM      8  C   UNL     1      28.099  24.293  12.597  1.00  0.00     0.005 C 
ATOM      9  C   UNL     1      30.507  23.085  14.060  1.00  0.00     0.016 C 
ENDROOT
BRANCH   3  10
ATOM     10  C   UNL     1      29.704  27.198  11.513  1.00  0.00    -0.032 C 
ATOM     11  C   UNL     1      30.081  27.828  10.144  1.00  0.00     0.011 C 
ATOM     12  C   UNL     1      28.307  27.736  11.896  1.00  0.00     0.011 C 
BRANCH  10  13
ATOM     13  C   UNL     1      30.785  27.587  12.624  1.00  0.00     0.007 CG0
ATOM     14  G   UNL     1      32.038  26.619  12.772  1.00  0.00     0.000 G0
ENDBRANCH  10  13
ENDBRANCH   3  10
BRANCH   1  15
ATOM     15  C   UNL     1      31.874  25.138  13.350  1.00  0.00     0.011 C 
BRANCH  15  16
ATOM     16  C   UNL     1      32.039  26.617  12.769  1.00  0.00     0.001 CG0
ATOM     17  G   UNL     1      30.787  27.589  12.629  1.00  0.00     0.000 G0
ENDBRANCH  15  16
ENDBRANCH   1  15
TORSDOF 0
ENDMDL
MODEL 2
REMARK VINA RESULT:    -4.018      1.342      3.052
REMARK INTER + INTRA:          -4.439
REMARK INTER:                  -4.967
REMARK INTRA:                   0.527
REMARK UNBOUND:                 0.518
REMARK SMILES C=C1[C@H]2CC[C@@H]3[C@@H]2C(C)(C)CCC[C@]13C
REMARK SMILES IDX 14 1 6 2 7 3 3 4 2 5 1 6 4 7 5 8 15 9 8 10 9 11 10 12 11 13
REMARK SMILES IDX 13 15 12 16
REMARK H PARENT
REMARK Flexibility Score: 80.00
ROOT
ATOM      1  C   UNL     1      28.603  24.643  11.687  1.00  0.00    -0.008 C 
ATOM      2  C   UNL     1      29.799  24.907  10.784  1.00  0.00     0.003 C 
ATOM      3  C   UNL     1      30.734  25.572  11.810  1.00  0.00     0.006 C 
ATOM      4  C   UNL     1      30.872  24.323  12.663  1.00  0.00     0.019 C 
ATOM      5  C   UNL     1      29.361  24.085  12.902  1.00  0.00    -0.068 C 
ATOM      6  C   UNL     1      28.824  23.557  14.004  1.00  0.00     0.009 C 
ATOM      7  C   UNL     1      31.350  23.269  11.672  1.00  0.00     0.008 C 
ATOM      8  C   UNL     1      30.605  23.645  10.389  1.00  0.00     0.005 C 
ATOM      9  C   UNL     1      27.628  23.592  11.117  1.00  0.00     0.016 C 
ENDROOT
BRANCH   3  10
ATOM     10  C   UNL     1      31.185  26.962  11.311  1.00  0.00    -0.032 C 
ATOM     11  C   UNL     1      32.032  27.709  12.378  1.00  0.00     0.011 C 
ATOM     12  C   UNL     1      32.054  26.839  10.038  1.00  0.00     0.011 C 
BRANCH  10  13
ATOM     13  C   UNL     1      29.839  27.766  11.001  1.00  0.00     0.007 CG0
ATOM     14  G   UNL     1      28.589  27.453  11.933  1.00  0.00     0.000 G0
ENDBRANCH  10  13
ENDBRANCH   3  10
BRANCH   1  15
ATOM     15  C   UNL     1      27.844  26.037  11.867  1.00  0.00     0.011 C 
BRANCH  15  16
ATOM     16  C   UNL     1      28.594  27.446  11.941  1.00  0.00     0.001 CG0
ATOM     17  G   UNL     1      29.831  27.769  10.995  1.00  0.00     0.000 G0
ENDBRANCH  15  16
ENDBRANCH   1  15
TORSDOF 0
ENDMDL
MODEL 3
REMARK VINA RESULT:    -3.401      1.706      4.134
REMARK INTER + INTRA:          -3.677
REMARK INTER:                  -4.190
REMARK INTRA:                   0.512
REMARK UNBOUND:                 0.518
REMARK SMILES C=C1[C@H]2CC[C@@H]3[C@@H]2C(C)(C)CCC[C@]13C
REMARK SMILES IDX 14 1 6 2 7 3 3 4 2 5 1 6 4 7 5 8 15 9 8 10 9 11 10 12 11 13
REMARK SMILES IDX 13 15 12 16
REMARK H PARENT
REMARK Flexibility Score: 80.00
ROOT
ATOM      1  C   UNL     1      30.960  27.250  10.391  1.00  0.00    -0.008 C 
ATOM      2  C   UNL     1      29.555  26.683  10.539  1.00  0.00     0.003 C 
ATOM      3  C   UNL     1      29.707  26.023  11.922  1.00  0.00     0.006 C 
ATOM      4  C   UNL     1      29.918  27.338  12.652  1.00  0.00     0.019 C 
ATOM      5  C   UNL     1      31.110  27.841  11.802  1.00  0.00    -0.068 C 
ATOM      6  C   UNL     1      32.120  28.590  12.249  1.00  0.00     0.009 C 
ATOM      7  C   UNL     1      28.697  28.161  12.258  1.00  0.00     0.008 C 
ATOM      8  C   UNL     1      28.454  27.738  10.808  1.00  0.00     0.005 C 
ATOM      9  C   UNL     1      31.061  28.355   9.319  1.00  0.00     0.016 C 
ENDROOT
BRANCH   3  10
ATOM     10  C   UNL     1      29.338  24.525  11.850  1.00  0.00    -0.032 C 
ATOM     11  C   UNL     1      29.566  23.811  13.212  1.00  0.00     0.011 C 
ATOM     12  C   UNL     1      27.850  24.336  11.477  1.00  0.00     0.011 C 
BRANCH  10  13
ATOM     13  C   UNL     1      30.287  23.901  10.726  1.00  0.00     0.007 CG0
ATOM     14  G   UNL     1      31.728  24.553  10.564  1.00  0.00     0.000 G0
ENDBRANCH  10  13
ENDBRANCH   3  10
BRANCH   1  15
ATOM     15  C   UNL     1      31.911  26.030   9.996  1.00  0.00     0.011 C 
BRANCH  15  16
ATOM     16  C   UNL     1      31.726  24.547  10.562  1.00  0.00     0.001 CG0
ATOM     17  G   UNL     1      30.280  23.904  10.721  1.00  0.00     0.000 G0
ENDBRANCH  15  16
ENDBRANCH   1  15
TORSDOF 0
ENDMDL
MODEL 4
REMARK VINA RESULT:    -3.381      1.671      3.635
REMARK INTER + INTRA:          -3.653
REMARK INTER:                  -4.149
REMARK INTRA:                   0.496
REMARK UNBOUND:                 0.518
REMARK SMILES C=C1[C@H]2CC[C@@H]3[C@@H]2C(C)(C)CCC[C@]13C
REMARK SMILES IDX 14 1 6 2 7 3 3 4 2 5 1 6 4 7 5 8 15 9 8 10 9 11 10 12 11 13
REMARK SMILES IDX 13 15 12 16
REMARK H PARENT
REMARK Flexibility Score: 80.00
ROOT
ATOM      1  C   UNL     1      30.899  26.862  11.959  1.00  0.00    -0.008 C 
ATOM      2  C   UNL     1      30.548  25.609  12.749  1.00  0.00     0.003 C 
ATOM      3  C   UNL     1      29.838  24.816  11.636  1.00  0.00     0.006 C 
ATOM      4  C   UNL     1      31.088  24.674  10.784  1.00  0.00     0.019 C 
ATOM      5  C   UNL     1      31.425  26.181  10.686  1.00  0.00    -0.068 C 
ATOM      6  C   UNL     1      32.002  26.781   9.642  1.00  0.00     0.009 C 
ATOM      7  C   UNL     1      32.095  24.042  11.736  1.00  0.00     0.008 C 
ATOM      8  C   UNL     1      31.750  24.690  13.079  1.00  0.00     0.005 C 
ATOM      9  C   UNL     1      32.003  27.711  12.625  1.00  0.00     0.016 C 
ENDROOT
BRANCH   3  10
ATOM     10  C   UNL     1      28.415  24.412  12.081  1.00  0.00    -0.032 C 
ATOM     11  C   UNL     1      27.671  23.617  10.974  1.00  0.00     0.011 C 
ATOM     12  C   UNL     1      28.461  23.515  13.339  1.00  0.00     0.011 C 
BRANCH  10  13
ATOM     13  C   UNL     1      27.656  25.784  12.391  1.00  0.00     0.007 CG0
ATOM     14  G   UNL     1      28.132  27.065  11.578  1.00  0.00     0.000 G0
ENDBRANCH  10  13
ENDBRANCH   3  10
BRANCH   1  15
ATOM     15  C   UNL     1      29.560  27.723  11.838  1.00  0.00     0.011 C 
BRANCH  15  16
ATOM     16  C   UNL     1      28.118  27.080  11.592  1.00  0.00     0.001 CG0
ATOM     17  G   UNL     1      27.654  25.778  12.378  1.00  0.00     0.000 G0
ENDBRANCH  15  16
ENDBRANCH   1  15
TORSDOF 0
ENDMDL
MODEL 5
REMARK VINA RESULT:    -2.910      1.633      4.073
REMARK INTER + INTRA:          -3.072
REMARK INTER:                  -3.587
REMARK INTRA:                   0.515
REMARK UNBOUND:                 0.518
REMARK SMILES C=C1[C@H]2CC[C@@H]3[C@@H]2C(C)(C)CCC[C@]13C
REMARK SMILES IDX 14 1 6 2 7 3 3 4 2 5 1 6 4 7 5 8 15 9 8 10 9 11 10 12 11 13
REMARK SMILES IDX 13 15 12 16
REMARK H PARENT
REMARK Flexibility Score: 80.00
ROOT
ATOM      1  C   UNL     1      31.384  25.717  11.974  1.00  0.00    -0.008 C 
ATOM      2  C   UNL     1      31.504  24.276  11.497  1.00  0.00     0.003 C 
ATOM      3  C   UNL     1      30.374  23.651  12.336  1.00  0.00     0.006 C 
ATOM      4  C   UNL     1      29.273  24.437  11.644  1.00  0.00     0.019 C 
ATOM      5  C   UNL     1      29.854  25.848  11.900  1.00  0.00    -0.068 C 
ATOM      6  C   UNL     1      29.139  26.958  12.095  1.00  0.00     0.009 C 
ATOM      7  C   UNL     1      29.482  24.116  10.170  1.00  0.00     0.008 C 
ATOM      8  C   UNL     1      31.005  24.027  10.053  1.00  0.00     0.005 C 
ATOM      9  C   UNL     1      32.069  26.729  11.032  1.00  0.00     0.016 C 
ENDROOT
BRANCH   3  10
ATOM     10  C   UNL     1      30.913  22.475  13.179  1.00  0.00    -0.032 C 
ATOM     11  C   UNL     1      29.813  21.877  14.100  1.00  0.00     0.011 C 
ATOM     12  C   UNL     1      31.424  21.331  12.274  1.00  0.00     0.011 C 
BRANCH  10  13
ATOM     13  C   UNL     1      32.105  23.082  14.053  1.00  0.00     0.007 CG0
ATOM     14  G   UNL     1      31.966  24.603  14.493  1.00  0.00     0.000 G0
ENDBRANCH  10  13
ENDBRANCH   3  10
BRANCH   1  15
ATOM     15  C   UNL     1      32.062  25.783  13.418  1.00  0.00     0.011 C 
BRANCH  15  16
ATOM     16  C   UNL     1      31.979  24.599  14.487  1.00  0.00     0.001 CG0
ATOM     17  G   UNL     1      32.118  23.079  14.041  1.00  0.00     0.000 G0
ENDBRANCH  15  16
ENDBRANCH   1  15
TORSDOF 0
ENDMDL
MODEL 6
REMARK VINA RESULT:    -2.571      1.743      4.344
REMARK INTER + INTRA:          -2.654
REMARK INTER:                  -3.185
REMARK INTRA:                   0.531
REMARK UNBOUND:                 0.518
REMARK SMILES C=C1[C@H]2CC[C@@H]3[C@@H]2C(C)(C)CCC[C@]13C
REMARK SMILES IDX 14 1 6 2 7 3 3 4 2 5 1 6 4 7 5 8 15 9 8 10 9 11 10 12 11 13
REMARK SMILES IDX 13 15 12 16
REMARK H PARENT
REMARK Flexibility Score: 80.00
ROOT
ATOM      1  C   UNL     1      29.060  27.166  11.946  1.00  0.00    -0.008 C 
ATOM      2  C   UNL     1      30.088  26.523  12.867  1.00  0.00     0.003 C 
ATOM      3  C   UNL     1      30.649  25.465  11.900  1.00  0.00     0.006 C 
ATOM      4  C   UNL     1      31.236  26.488  10.942  1.00  0.00     0.019 C 
ATOM      5  C   UNL     1      29.934  27.283  10.687  1.00  0.00    -0.068 C 
ATOM      6  C   UNL     1      29.608  27.892   9.545  1.00  0.00     0.009 C 
ATOM      7  C   UNL     1      32.125  27.341  11.838  1.00  0.00     0.008 C 
ATOM      8  C   UNL     1      31.339  27.391  13.150  1.00  0.00     0.005 C 
ATOM      9  C   UNL     1      28.598  28.558  12.427  1.00  0.00     0.016 C 
ENDROOT
BRANCH   3  10
ATOM     10  C   UNL     1      30.535  24.053  12.516  1.00  0.00    -0.032 C 
ATOM     11  C   UNL     1      30.975  22.951  11.513  1.00  0.00     0.011 C 
ATOM     12  C   UNL     1      31.433  23.920  13.767  1.00  0.00     0.011 C 
BRANCH  10  13
ATOM     13  C   UNL     1      28.995  23.875  12.902  1.00  0.00     0.007 CG0
ATOM     14  G   UNL     1      27.933  24.580  11.952  1.00  0.00     0.000 G0
ENDBRANCH  10  13
ENDBRANCH   3  10
BRANCH   1  15
ATOM     15  C   UNL     1      27.809  26.175  11.889  1.00  0.00     0.011 C 
BRANCH  15  16
ATOM     16  C   UNL     1      27.941  24.584  11.942  1.00  0.00     0.001 CG0
ATOM     17  G   UNL     1      28.986  23.878  12.911  1.00  0.00     0.000 G0
ENDBRANCH  15  16
ENDBRANCH   1  15
TORSDOF 0
ENDMDL
MODEL 7
REMARK VINA RESULT:    -2.391      1.390      2.569
REMARK INTER + INTRA:          -2.432
REMARK INTER:                  -2.894
REMARK INTRA:                   0.463
REMARK UNBOUND:                 0.518
REMARK SMILES C=C1[C@H]2CC[C@@H]3[C@@H]2C(C)(C)CCC[C@]13C
REMARK SMILES IDX 14 1 6 2 7 3 3 4 2 5 1 6 4 7 5 8 15 9 8 10 9 11 10 12 11 13
REMARK SMILES IDX 13 15 12 16
REMARK H PARENT
REMARK Flexibility Score: 80.00
ROOT
ATOM      1  C   UNL     1      30.920  23.822  11.097  1.00  0.00    -0.008 C 
ATOM      2  C   UNL     1      31.267  24.501  12.414  1.00  0.00     0.003 C 
ATOM      3  C   UNL     1      30.329  25.718  12.311  1.00  0.00     0.006 C 
ATOM      4  C   UNL     1      29.059  24.886  12.365  1.00  0.00     0.019 C 
ATOM      5  C   UNL     1      29.391  23.952  11.176  1.00  0.00    -0.068 C 
ATOM      6  C   UNL     1      28.501  23.422  10.333  1.00  0.00     0.009 C 
ATOM      7  C   UNL     1      29.222  24.074  13.644  1.00  0.00     0.008 C 
ATOM      8  C   UNL     1      30.724  23.786  13.676  1.00  0.00     0.005 C 
ATOM      9  C   UNL     1      31.345  22.339  11.046  1.00  0.00     0.016 C 
ENDROOT
BRANCH   3  10
ATOM     10  C   UNL     1      31.128  27.032  12.454  1.00  0.00    -0.032 C 
ATOM     11  C   UNL     1      30.196  28.275  12.442  1.00  0.00     0.011 C 
ATOM     12  C   UNL     1      31.915  27.061  13.785  1.00  0.00     0.011 C 
BRANCH  10  13
ATOM     13  C   UNL     1      32.125  27.067  11.206  1.00  0.00     0.007 CG0
ATOM     14  G   UNL     1      31.699  26.224   9.927  1.00  0.00     0.000 G0
ENDBRANCH  10  13
ENDBRANCH   3  10
BRANCH   1  15
ATOM     15  C   UNL     1      31.672  24.635   9.947  1.00  0.00     0.011 C 
BRANCH  15  16
ATOM     16  C   UNL     1      31.754  26.230   9.904  1.00  0.00     0.001 CG0
ATOM     17  G   UNL     1      32.131  27.068  11.202  1.00  0.00     0.000 G0
ENDBRANCH  15  16
ENDBRANCH   1  15
TORSDOF 0
ENDMDL
MODEL 8
REMARK VINA RESULT:    -1.135      2.068      4.418
REMARK INTER + INTRA:          -0.882
REMARK INTER:                  -1.369
REMARK INTRA:                   0.486
REMARK UNBOUND:                 0.518
REMARK SMILES C=C1[C@H]2CC[C@@H]3[C@@H]2C(C)(C)CCC[C@]13C
REMARK SMILES IDX 14 1 6 2 7 3 3 4 2 5 1 6 4 7 5 8 15 9 8 10 9 11 10 12 11 13
REMARK SMILES IDX 13 15 12 16
REMARK H PARENT
REMARK Flexibility Score: 80.00
ROOT
ATOM      1  C   UNL     1      29.292  25.085  11.906  1.00  0.00    -0.008 C 
ATOM      2  C   UNL     1      30.616  24.810  12.604  1.00  0.00     0.003 C 
ATOM      3  C   UNL     1      30.672  23.282  12.420  1.00  0.00     0.006 C 
ATOM      4  C   UNL     1      30.779  23.356  10.906  1.00  0.00     0.019 C 
ATOM      5  C   UNL     1      29.509  24.206  10.664  1.00  0.00    -0.068 C 
ATOM      6  C   UNL     1      28.713  24.125   9.596  1.00  0.00     0.009 C 
ATOM      7  C   UNL     1      31.985  24.259  10.680  1.00  0.00     0.008 C 
ATOM      8  C   UNL     1      31.871  25.271  11.822  1.00  0.00     0.005 C 
ATOM      9  C   UNL     1      29.110  26.565  11.508  1.00  0.00     0.016 C 
ENDROOT
BRANCH   3  10
ATOM     10  C   UNL     1      30.830  22.577  13.785  1.00  0.00    -0.032 C 
ATOM     11  C   UNL     1      30.908  21.033  13.628  1.00  0.00     0.011 C 
ATOM     12  C   UNL     1      32.125  23.032  14.497  1.00  0.00     0.011 C 
BRANCH  10  13
ATOM     13  C   UNL     1      29.541  22.989  14.635  1.00  0.00     0.007 CG0
ATOM     14  G   UNL     1      28.227  23.345  13.813  1.00  0.00     0.000 G0
ENDBRANCH  10  13
ENDBRANCH   3  10
BRANCH   1  15
ATOM     15  C   UNL     1      28.137  24.658  12.922  1.00  0.00     0.011 C 
BRANCH  15  16
ATOM     16  C   UNL     1      28.213  23.356  13.846  1.00  0.00     0.001 CG0
ATOM     17  G   UNL     1      29.544  22.983  14.632  1.00  0.00     0.000 G0
ENDBRANCH  15  16
ENDBRANCH   1  15
TORSDOF 0
ENDMDL
