MODEL 1
REMARK VINA RESULT:    -2.543      0.000      0.000
REMARK INTER + INTRA:          -2.543
REMARK INTER:                  -2.543
REMARK INTRA:                   0.000
REMARK UNBOUND:                 0.000
REMARK SMILES CC(=O)[O-]
REMARK SMILES IDX 1 1 2 2 3 3 4 4
REMARK H PARENT
REMARK Flexibility Score: inf
ROOT
ATOM      1  C   UNL     1       1.992 -36.388  15.781  1.00  0.00     0.063 C 
ATOM      2  C   UNL     1       2.988 -37.426  16.176  1.00  0.00     0.038 C 
ATOM      3  O   UNL     1       3.594 -38.088  15.294  1.00  0.00    -0.550 OA
ATOM      4  O   UNL     1       3.288 -37.627  17.516  1.00  0.00    -0.550 OA
ENDROOT
TORSDOF 0
ENDMDL
MODEL 2
REMARK VINA RESULT:    -2.507      1.426      1.771
REMARK INTER + INTRA:          -2.507
REMARK INTER:                  -2.507
REMARK INTRA:                   0.000
REMARK UNBOUND:                 0.000
REMARK SMILES CC(=O)[O-]
REMARK SMILES IDX 1 1 2 2 3 3 4 4
REMARK H PARENT
REMARK Flexibility Score: inf
ROOT
ATOM      1  C   UNL     1       3.064 -37.506  17.665  1.00  0.00     0.063 C 
ATOM      2  C   UNL     1       2.831 -37.342  16.201  1.00  0.00     0.038 C 
ATOM      3  O   UNL     1       3.533 -37.980  15.374  1.00  0.00    -0.550 OA
ATOM      4  O   UNL     1       1.804 -36.526  15.747  1.00  0.00    -0.550 OA
ENDROOT
TORSDOF 0
ENDMDL
MODEL 3
REMARK VINA RESULT:    -2.497      1.438      1.689
REMARK INTER + INTRA:          -2.497
REMARK INTER:                  -2.497
REMARK INTRA:                   0.000
REMARK UNBOUND:                 0.000
REMARK SMILES CC(=O)[O-]
REMARK SMILES IDX 1 1 2 2 3 3 4 4
REMARK H PARENT
REMARK Flexibility Score: inf
ROOT
ATOM      1  C   UNL     1       3.583 -37.514  14.860  1.00  0.00     0.063 C 
ATOM      2  C   UNL     1       2.846 -37.106  16.091  1.00  0.00     0.038 C 
ATOM      3  O   UNL     1       1.844 -36.349  16.005  1.00  0.00    -0.550 OA
ATOM      4  O   UNL     1       3.229 -37.603  17.329  1.00  0.00    -0.550 OA
ENDROOT
TORSDOF 0
ENDMDL
MODEL 4
REMARK VINA RESULT:    -2.429     17.512     17.826
REMARK INTER + INTRA:          -2.429
REMARK INTER:                  -2.429
REMARK INTRA:                   0.000
REMARK UNBOUND:                 0.000
REMARK SMILES CC(=O)[O-]
REMARK SMILES IDX 1 1 2 2 3 3 4 4
REMARK H PARENT
REMARK Flexibility Score: inf
ROOT
ATOM      1  C   UNL     1       5.525 -27.200  29.500  1.00  0.00     0.063 C 
ATOM      2  C   UNL     1       4.987 -25.810  29.510  1.00  0.00     0.038 C 
ATOM      3  O   UNL     1       5.521 -24.921  28.796  1.00  0.00    -0.550 OA
ATOM      4  O   UNL     1       3.863 -25.503  30.264  1.00  0.00    -0.550 OA
ENDROOT
TORSDOF 0
ENDMDL
MODEL 5
REMARK VINA RESULT:    -2.404      2.092      2.416
REMARK INTER + INTRA:          -2.404
REMARK INTER:                  -2.404
REMARK INTRA:                   0.000
REMARK UNBOUND:                 0.000
REMARK SMILES CC(=O)[O-]
REMARK SMILES IDX 1 1 2 2 3 3 4 4
REMARK H PARENT
REMARK Flexibility Score: inf
ROOT
ATOM      1  C   UNL     1       2.881 -37.290  16.673  1.00  0.00     0.063 C 
ATOM      2  C   UNL     1       2.827 -37.669  18.114  1.00  0.00     0.038 C 
ATOM      3  O   UNL     1       3.862 -37.593  18.826  1.00  0.00    -0.550 OA
ATOM      4  O   UNL     1       1.624 -38.055  18.687  1.00  0.00    -0.550 OA
ENDROOT
TORSDOF 0
ENDMDL
MODEL 6
REMARK VINA RESULT:    -2.300      2.675      3.577
REMARK INTER + INTRA:          -2.300
REMARK INTER:                  -2.300
REMARK INTRA:                   0.000
REMARK UNBOUND:                 0.000
REMARK SMILES CC(=O)[O-]
REMARK SMILES IDX 1 1 2 2 3 3 4 4
REMARK H PARENT
REMARK Flexibility Score: inf
ROOT
ATOM      1  C   UNL     1       4.637 -37.143  19.717  1.00  0.00     0.063 C 
ATOM      2  C   UNL     1       3.410 -37.547  18.972  1.00  0.00     0.038 C 
ATOM      3  O   UNL     1       2.367 -37.869  19.600  1.00  0.00    -0.550 OA
ATOM      4  O   UNL     1       3.397 -37.517  17.585  1.00  0.00    -0.550 OA
ENDROOT
TORSDOF 0
ENDMDL
MODEL 7
REMARK VINA RESULT:    -2.267      3.852      4.184
REMARK INTER + INTRA:          -2.267
REMARK INTER:                  -2.267
REMARK INTRA:                   0.000
REMARK UNBOUND:                 0.000
REMARK SMILES CC(=O)[O-]
REMARK SMILES IDX 1 1 2 2 3 3 4 4
REMARK H PARENT
REMARK Flexibility Score: inf
ROOT
ATOM      1  C   UNL     1       3.565 -37.471  18.726  1.00  0.00     0.063 C 
ATOM      2  C   UNL     1       4.572 -37.113  19.766  1.00  0.00     0.038 C 
ATOM      3  O   UNL     1       4.642 -35.933  20.198  1.00  0.00    -0.550 OA
ATOM      4  O   UNL     1       5.399 -38.092  20.300  1.00  0.00    -0.550 OA
ENDROOT
TORSDOF 0
ENDMDL
MODEL 8
REMARK VINA RESULT:    -2.231      3.841      4.486
REMARK INTER + INTRA:          -2.231
REMARK INTER:                  -2.231
REMARK INTRA:                   0.000
REMARK UNBOUND:                 0.000
REMARK SMILES CC(=O)[O-]
REMARK SMILES IDX 1 1 2 2 3 3 4 4
REMARK H PARENT
REMARK Flexibility Score: inf
ROOT
ATOM      1  C   UNL     1       5.367 -35.980  20.211  1.00  0.00     0.063 C 
ATOM      2  C   UNL     1       4.902 -37.351  19.855  1.00  0.00     0.038 C 
ATOM      3  O   UNL     1       5.383 -38.355  20.443  1.00  0.00    -0.550 OA
ATOM      4  O   UNL     1       3.898 -37.522  18.911  1.00  0.00    -0.550 OA
ENDROOT
TORSDOF 0
ENDMDL
MODEL 9
REMARK VINA RESULT:    -0.197      7.993      8.601
REMARK INTER + INTRA:          -0.197
REMARK INTER:                  -0.197
REMARK INTRA:                   0.000
REMARK UNBOUND:                 0.000
REMARK SMILES CC(=O)[O-]
REMARK SMILES IDX 1 1 2 2 3 3 4 4
REMARK H PARENT
REMARK Flexibility Score: inf
ROOT
ATOM      1  C   UNL     1       5.970 -36.338  24.848  1.00  0.00     0.063 C 
ATOM      2  C   UNL     1       6.076 -35.362  23.726  1.00  0.00     0.038 C 
ATOM      3  O   UNL     1       6.073 -35.766  22.534  1.00  0.00    -0.550 OA
ATOM      4  O   UNL     1       6.125 -34.000  23.991  1.00  0.00    -0.550 OA
ENDROOT
TORSDOF 0
ENDMDL
