MODEL 1
REMARK VINA RESULT:    -5.243      0.000      0.000
REMARK INTER + INTRA:          -5.243
REMARK INTER:                  -5.243
REMARK INTRA:                   0.000
REMARK UNBOUND:                 0.000
REMARK SMILES C=C1CC[C@@H]2C[C@H]1C2(C)C
REMARK SMILES IDX 9 1 8 2 5 3 4 4 3 5 2 6 1 7 7 8 6 9 10 10
REMARK H PARENT
REMARK Flexibility Score: inf
ROOT
ATOM      1  C   UNL     1       2.579  13.430   6.148  1.00  0.00     0.012 C 
ATOM      2  C   UNL     1       1.744  13.478   4.840  1.00  0.00    -0.026 C 
ATOM      3  C   UNL     1       1.779  12.255   3.890  1.00  0.00    -0.004 C 
ATOM      4  C   UNL     1       3.202  11.610   3.858  1.00  0.00     0.008 C 
ATOM      5  C   UNL     1       4.339  12.664   3.574  1.00  0.00     0.031 C 
ATOM      6  C   UNL     1       3.807  14.106   3.562  1.00  0.00    -0.074 C 
ATOM      7  C   UNL     1       4.635  15.152   3.477  1.00  0.00     0.008 C 
ATOM      8  C   UNL     1       2.295  14.290   3.644  1.00  0.00     0.021 C 
ATOM      9  C   UNL     1       1.714  13.226   2.699  1.00  0.00     0.012 C 
ATOM     10  C   UNL     1       0.294  13.889   5.201  1.00  0.00     0.012 C 
ENDROOT
TORSDOF 0
ENDMDL
MODEL 2
REMARK VINA RESULT:    -4.650      1.037      2.364
REMARK INTER + INTRA:          -4.650
REMARK INTER:                  -4.650
REMARK INTRA:                   0.000
REMARK UNBOUND:                 0.000
REMARK SMILES C=C1CC[C@@H]2C[C@H]1C2(C)C
REMARK SMILES IDX 9 1 8 2 5 3 4 4 3 5 2 6 1 7 7 8 6 9 10 10
REMARK H PARENT
REMARK Flexibility Score: inf
ROOT
ATOM      1  C   UNL     1       4.250  14.363   3.943  1.00  0.00     0.012 C 
ATOM      2  C   UNL     1       3.143  13.537   4.653  1.00  0.00    -0.026 C 
ATOM      3  C   UNL     1       2.990  12.037   4.295  1.00  0.00    -0.004 C 
ATOM      4  C   UNL     1       3.265  11.790   2.777  1.00  0.00     0.008 C 
ATOM      5  C   UNL     1       2.430  12.750   1.847  1.00  0.00     0.031 C 
ATOM      6  C   UNL     1       1.667  13.818   2.647  1.00  0.00    -0.074 C 
ATOM      7  C   UNL     1       1.013  14.811   2.034  1.00  0.00     0.008 C 
ATOM      8  C   UNL     1       1.683  13.692   4.167  1.00  0.00     0.021 C 
ATOM      9  C   UNL     1       1.468  12.196   4.443  1.00  0.00     0.012 C 
ATOM     10  C   UNL     1       3.273  13.757   6.181  1.00  0.00     0.012 C 
ENDROOT
TORSDOF 0
ENDMDL
MODEL 3
REMARK VINA RESULT:    -4.379      1.075      3.208
REMARK INTER + INTRA:          -4.379
REMARK INTER:                  -4.379
REMARK INTRA:                   0.000
REMARK UNBOUND:                 0.000
REMARK SMILES C=C1CC[C@@H]2C[C@H]1C2(C)C
REMARK SMILES IDX 9 1 8 2 5 3 4 4 3 5 2 6 1 7 7 8 6 9 10 10
REMARK H PARENT
REMARK Flexibility Score: inf
ROOT
ATOM      1  C   UNL     1       1.623  13.689   1.648  1.00  0.00     0.012 C 
ATOM      2  C   UNL     1       2.687  14.241   2.635  1.00  0.00    -0.026 C 
ATOM      3  C   UNL     1       3.788  13.282   3.154  1.00  0.00    -0.004 C 
ATOM      4  C   UNL     1       3.221  11.844   3.376  1.00  0.00     0.008 C 
ATOM      5  C   UNL     1       1.912  11.839   4.255  1.00  0.00     0.031 C 
ATOM      6  C   UNL     1       1.401  13.258   4.548  1.00  0.00    -0.074 C 
ATOM      7  C   UNL     1       0.229  13.464   5.158  1.00  0.00     0.008 C 
ATOM      8  C   UNL     1       2.291  14.420   4.119  1.00  0.00     0.021 C 
ATOM      9  C   UNL     1       3.715  13.996   4.514  1.00  0.00     0.012 C 
ATOM     10  C   UNL     1       3.286  15.538   2.033  1.00  0.00     0.012 C 
ENDROOT
TORSDOF 0
ENDMDL
MODEL 4
REMARK VINA RESULT:    -4.184      1.936      4.494
REMARK INTER + INTRA:          -4.184
REMARK INTER:                  -4.184
REMARK INTRA:                   0.000
REMARK UNBOUND:                 0.000
REMARK SMILES C=C1CC[C@@H]2C[C@H]1C2(C)C
REMARK SMILES IDX 9 1 8 2 5 3 4 4 3 5 2 6 1 7 7 8 6 9 10 10
REMARK H PARENT
REMARK Flexibility Score: inf
ROOT
ATOM      1  C   UNL     1      -0.479  13.698   3.431  1.00  0.00     0.012 C 
ATOM      2  C   UNL     1       0.552  13.529   4.579  1.00  0.00    -0.026 C 
ATOM      3  C   UNL     1       0.587  12.189   5.356  1.00  0.00    -0.004 C 
ATOM      4  C   UNL     1      -0.851  11.608   5.538  1.00  0.00     0.008 C 
ATOM      5  C   UNL     1      -1.859  12.662   6.138  1.00  0.00     0.031 C 
ATOM      6  C   UNL     1      -1.239  14.064   6.248  1.00  0.00    -0.074 C 
ATOM      7  C   UNL     1      -1.973  15.124   6.602  1.00  0.00     0.008 C 
ATOM      8  C   UNL     1       0.250  14.192   5.943  1.00  0.00     0.021 C 
ATOM      9  C   UNL     1       0.902  12.984   6.635  1.00  0.00     0.012 C 
ATOM     10  C   UNL     1       1.951  13.922   4.039  1.00  0.00     0.012 C 
ENDROOT
TORSDOF 0
ENDMDL
MODEL 5
REMARK VINA RESULT:    -4.180      1.037      2.412
REMARK INTER + INTRA:          -4.180
REMARK INTER:                  -4.180
REMARK INTRA:                   0.000
REMARK UNBOUND:                 0.000
REMARK SMILES C=C1CC[C@@H]2C[C@H]1C2(C)C
REMARK SMILES IDX 9 1 8 2 5 3 4 4 3 5 2 6 1 7 7 8 6 9 10 10
REMARK H PARENT
REMARK Flexibility Score: inf
ROOT
ATOM      1  C   UNL     1       1.443  14.705   2.897  1.00  0.00     0.012 C 
ATOM      2  C   UNL     1       2.195  13.375   2.623  1.00  0.00    -0.026 C 
ATOM      3  C   UNL     1       2.113  12.243   3.677  1.00  0.00    -0.004 C 
ATOM      4  C   UNL     1       2.106  12.825   5.127  1.00  0.00     0.008 C 
ATOM      5  C   UNL     1       3.288  13.838   5.378  1.00  0.00     0.031 C 
ATOM      6  C   UNL     1       4.072  14.149   4.093  1.00  0.00    -0.074 C 
ATOM      7  C   UNL     1       5.021  15.090   4.068  1.00  0.00     0.008 C 
ATOM      8  C   UNL     1       3.724  13.333   2.852  1.00  0.00     0.021 C 
ATOM      9  C   UNL     1       3.575  11.889   3.355  1.00  0.00     0.012 C 
ATOM     10  C   UNL     1       1.807  12.878   1.207  1.00  0.00     0.012 C 
ENDROOT
TORSDOF 0
ENDMDL
MODEL 6
REMARK VINA RESULT:    -4.126      1.431      2.701
REMARK INTER + INTRA:          -4.126
REMARK INTER:                  -4.126
REMARK INTRA:                   0.000
REMARK UNBOUND:                 0.000
REMARK SMILES C=C1CC[C@@H]2C[C@H]1C2(C)C
REMARK SMILES IDX 9 1 8 2 5 3 4 4 3 5 2 6 1 7 7 8 6 9 10 10
REMARK H PARENT
REMARK Flexibility Score: inf
ROOT
ATOM      1  C   UNL     1       1.858  14.869   3.128  1.00  0.00     0.012 C 
ATOM      2  C   UNL     1       0.860  13.898   3.814  1.00  0.00    -0.026 C 
ATOM      3  C   UNL     1       0.819  13.844   5.362  1.00  0.00    -0.004 C 
ATOM      4  C   UNL     1       2.249  14.014   5.967  1.00  0.00     0.008 C 
ATOM      5  C   UNL     1       3.299  13.027   5.327  1.00  0.00     0.031 C 
ATOM      6  C   UNL     1       2.715  12.244   4.140  1.00  0.00    -0.074 C 
ATOM      7  C   UNL     1       3.484  11.461   3.377  1.00  0.00     0.008 C 
ATOM      8  C   UNL     1       1.221  12.395   3.876  1.00  0.00     0.021 C 
ATOM      9  C   UNL     1       0.563  12.331   5.264  1.00  0.00     0.012 C 
ATOM     10  C   UNL     1      -0.546  14.133   3.206  1.00  0.00     0.012 C 
ENDROOT
TORSDOF 0
ENDMDL
MODEL 7
REMARK VINA RESULT:    -4.009     14.859     16.351
REMARK INTER + INTRA:          -4.009
REMARK INTER:                  -4.009
REMARK INTRA:                   0.000
REMARK UNBOUND:                 0.000
REMARK SMILES C=C1CC[C@@H]2C[C@H]1C2(C)C
REMARK SMILES IDX 9 1 8 2 5 3 4 4 3 5 2 6 1 7 7 8 6 9 10 10
REMARK H PARENT
REMARK Flexibility Score: inf
ROOT
ATOM      1  C   UNL     1       7.458   6.629  17.837  1.00  0.00     0.012 C 
ATOM      2  C   UNL     1       6.924   5.189  17.609  1.00  0.00    -0.026 C 
ATOM      3  C   UNL     1       7.771   3.993  18.111  1.00  0.00    -0.004 C 
ATOM      4  C   UNL     1       9.298   4.273  17.933  1.00  0.00     0.008 C 
ATOM      5  C   UNL     1       9.663   4.736  16.471  1.00  0.00     0.031 C 
ATOM      6  C   UNL     1       8.415   4.969  15.605  1.00  0.00    -0.074 C 
ATOM      7  C   UNL     1       8.506   5.498  14.381  1.00  0.00     0.008 C 
ATOM      8  C   UNL     1       7.070   4.565  16.201  1.00  0.00     0.021 C 
ATOM      9  C   UNL     1       7.324   3.204  16.869  1.00  0.00     0.012 C 
ATOM     10  C   UNL     1       5.464   5.122  18.125  1.00  0.00     0.012 C 
ENDROOT
TORSDOF 0
ENDMDL
MODEL 8
REMARK VINA RESULT:    -3.974      2.385      4.063
REMARK INTER + INTRA:          -3.974
REMARK INTER:                  -3.974
REMARK INTRA:                   0.000
REMARK UNBOUND:                 0.000
REMARK SMILES C=C1CC[C@@H]2C[C@H]1C2(C)C
REMARK SMILES IDX 9 1 8 2 5 3 4 4 3 5 2 6 1 7 7 8 6 9 10 10
REMARK H PARENT
REMARK Flexibility Score: inf
ROOT
ATOM      1  C   UNL     1      -0.645  14.637   2.147  1.00  0.00     0.012 C 
ATOM      2  C   UNL     1       0.782  14.235   2.610  1.00  0.00    -0.026 C 
ATOM      3  C   UNL     1       1.943  15.238   2.395  1.00  0.00    -0.004 C 
ATOM      4  C   UNL     1       1.773  16.015   1.051  1.00  0.00     0.008 C 
ATOM      5  C   UNL     1       1.531  15.056  -0.177  1.00  0.00     0.031 C 
ATOM      6  C   UNL     1       1.350  13.592   0.254  1.00  0.00    -0.074 C 
ATOM      7  C   UNL     1       0.996  12.647  -0.623  1.00  0.00     0.008 C 
ATOM      8  C   UNL     1       1.597  13.264   1.723  1.00  0.00     0.021 C 
ATOM      9  C   UNL     1       2.867  14.045   2.096  1.00  0.00     0.012 C 
ATOM     10  C   UNL     1       0.700  13.750   4.079  1.00  0.00     0.012 C 
ENDROOT
TORSDOF 0
ENDMDL
MODEL 9
REMARK VINA RESULT:    -3.881      2.975      4.688
REMARK INTER + INTRA:          -3.881
REMARK INTER:                  -3.881
REMARK INTRA:                   0.000
REMARK UNBOUND:                 0.000
REMARK SMILES C=C1CC[C@@H]2C[C@H]1C2(C)C
REMARK SMILES IDX 9 1 8 2 5 3 4 4 3 5 2 6 1 7 7 8 6 9 10 10
REMARK H PARENT
REMARK Flexibility Score: inf
ROOT
ATOM      1  C   UNL     1       1.371  13.002  -0.105  1.00  0.00     0.012 C 
ATOM      2  C   UNL     1       0.116  13.851   0.234  1.00  0.00    -0.026 C 
ATOM      3  C   UNL     1       0.173  15.384   0.017  1.00  0.00    -0.004 C 
ATOM      4  C   UNL     1       1.587  15.948   0.368  1.00  0.00     0.008 C 
ATOM      5  C   UNL     1       2.085  15.491   1.793  1.00  0.00     0.031 C 
ATOM      6  C   UNL     1       1.143  14.463   2.438  1.00  0.00    -0.074 C 
ATOM      7  C   UNL     1       1.460  13.849   3.582  1.00  0.00     0.008 C 
ATOM      8  C   UNL     1      -0.172  14.178   1.718  1.00  0.00     0.021 C 
ATOM      9  C   UNL     1      -0.690  15.556   1.278  1.00  0.00     0.012 C 
ATOM     10  C   UNL     1      -1.109  13.212  -0.467  1.00  0.00     0.012 C 
ENDROOT
TORSDOF 0
ENDMDL
