MODEL 1
REMARK VINA RESULT:    -0.243      0.000      0.000
REMARK INTER + INTRA:          -0.648
REMARK INTER:                  -0.342
REMARK INTRA:                  -0.306
REMARK UNBOUND:                -0.306
REMARK SMILES CCCCCCCCC(=O)[O-]
REMARK SMILES IDX 6 1 7 2 8 3 9 4 10 5 11 6 5 7 4 8 3 9 2 10 1 11
REMARK H PARENT
REMARK Flexibility Score: inf
ROOT
ATOM      1  C   UNL     1      15.889  -9.282  27.099  1.00  0.00     0.000 C 
ENDROOT
BRANCH   1   2
ATOM      2  C   UNL     1      16.782  -9.428  25.850  1.00  0.00     0.006 C 
BRANCH   2   3
ATOM      3  C   UNL     1      16.787  -8.200  24.926  1.00  0.00     0.053 C 
BRANCH   3   4
ATOM      4  C   UNL     1      18.175  -7.807  24.526  1.00  0.00     0.041 C 
ATOM      5  O   UNL     1      18.681  -6.738  24.959  1.00  0.00    -0.550 OA
ATOM      6  O   UNL     1      18.898  -8.604  23.648  1.00  0.00    -0.550 OA
ENDBRANCH   3   4
ENDBRANCH   2   3
ENDBRANCH   1   2
BRANCH   1   7
ATOM      7  C   UNL     1      15.962  -7.908  27.795  1.00  0.00     0.000 C 
BRANCH   7   8
ATOM      8  C   UNL     1      15.961  -7.954  29.336  1.00  0.00    -0.000 C 
BRANCH   8   9
ATOM      9  C   UNL     1      17.082  -7.144  30.011  1.00  0.00    -0.000 C 
BRANCH   9  10
ATOM     10  C   UNL     1      18.397  -7.927  30.125  1.00  0.00    -0.003 C 
ATOM     11  C   UNL     1      18.158  -9.427  29.978  1.00  0.00     0.004 C 
ENDBRANCH   9  10
ENDBRANCH   8   9
ENDBRANCH   7   8
ENDBRANCH   1   7
TORSDOF 7
ENDMDL
MODEL 2
REMARK VINA RESULT:    -0.058      2.474      4.650
REMARK INTER + INTRA:          -0.387
REMARK INTER:                  -0.189
REMARK INTRA:                  -0.197
REMARK UNBOUND:                -0.306
REMARK SMILES CCCCCCCCC(=O)[O-]
REMARK SMILES IDX 6 1 7 2 8 3 9 4 10 5 11 6 5 7 4 8 3 9 2 10 1 11
REMARK H PARENT
REMARK Flexibility Score: inf
ROOT
ATOM      1  C   UNL     1      15.875  -9.769  27.764  1.00  0.00     0.000 C 
ENDROOT
BRANCH   1   2
ATOM      2  C   UNL     1      15.945 -10.088  29.270  1.00  0.00     0.006 C 
BRANCH   2   3
ATOM      3  C   UNL     1      16.673  -9.028  30.110  1.00  0.00     0.053 C 
BRANCH   3   4
ATOM      4  C   UNL     1      18.131  -8.952  29.773  1.00  0.00     0.041 C 
ATOM      5  O   UNL     1      18.876  -9.951  29.950  1.00  0.00    -0.550 OA
ATOM      6  O   UNL     1      18.672  -7.766  29.294  1.00  0.00    -0.550 OA
ENDBRANCH   3   4
ENDBRANCH   2   3
ENDBRANCH   1   2
BRANCH   1   7
ATOM      7  C   UNL     1      15.876  -8.267  27.415  1.00  0.00     0.000 C 
BRANCH   7   8
ATOM      8  C   UNL     1      15.945  -7.944  25.909  1.00  0.00    -0.000 C 
BRANCH   8   9
ATOM      9  C   UNL     1      16.944  -8.797  25.107  1.00  0.00    -0.000 C 
BRANCH   9  10
ATOM     10  C   UNL     1      18.403  -8.389  25.350  1.00  0.00    -0.003 C 
ATOM     11  C   UNL     1      19.031  -7.812  24.084  1.00  0.00     0.004 C 
ENDBRANCH   9  10
ENDBRANCH   8   9
ENDBRANCH   7   8
ENDBRANCH   1   7
TORSDOF 7
ENDMDL
MODEL 3
REMARK VINA RESULT:     0.607     15.146     16.424
REMARK INTER + INTRA:           0.550
REMARK INTER:                   0.440
REMARK INTRA:                   0.109
REMARK UNBOUND:                -0.306
REMARK SMILES CCCCCCCCC(=O)[O-]
REMARK SMILES IDX 6 1 7 2 8 3 9 4 10 5 11 6 5 7 4 8 3 9 2 10 1 11
REMARK H PARENT
REMARK Flexibility Score: inf
ROOT
ATOM      1  C   UNL     1      33.306  -6.652  28.789  1.00  0.00     0.000 C 
ENDROOT
BRANCH   1   2
ATOM      2  C   UNL     1      31.860  -6.611  28.254  1.00  0.00     0.006 C 
BRANCH   2   3
ATOM      3  C   UNL     1      31.388  -5.218  27.811  1.00  0.00     0.053 C 
BRANCH   3   4
ATOM      4  C   UNL     1      31.001  -5.193  26.364  1.00  0.00     0.041 C 
ATOM      5  O   UNL     1      29.822  -4.905  26.028  1.00  0.00    -0.550 OA
ATOM      6  O   UNL     1      31.934  -5.518  25.389  1.00  0.00    -0.550 OA
ENDBRANCH   3   4
ENDBRANCH   2   3
ENDBRANCH   1   2
BRANCH   1   7
ATOM      7  C   UNL     1      33.833  -5.315  29.346  1.00  0.00     0.000 C 
BRANCH   7   8
ATOM      8  C   UNL     1      35.353  -5.099  29.201  1.00  0.00    -0.000 C 
BRANCH   8   9
ATOM      9  C   UNL     1      35.860  -5.001  27.752  1.00  0.00    -0.000 C 
BRANCH   9  10
ATOM     10  C   UNL     1      34.721  -4.875  26.730  1.00  0.00    -0.003 C 
ATOM     11  C   UNL     1      35.255  -4.932  25.302  1.00  0.00     0.004 C 
ENDBRANCH   9  10
ENDBRANCH   8   9
ENDBRANCH   7   8
ENDBRANCH   1   7
TORSDOF 7
ENDMDL
MODEL 4
REMARK VINA RESULT:     0.822     11.224     12.545
REMARK INTER + INTRA:           0.852
REMARK INTER:                   1.075
REMARK INTRA:                  -0.222
REMARK UNBOUND:                -0.306
REMARK SMILES CCCCCCCCC(=O)[O-]
REMARK SMILES IDX 6 1 7 2 8 3 9 4 10 5 11 6 5 7 4 8 3 9 2 10 1 11
REMARK H PARENT
REMARK Flexibility Score: inf
ROOT
ATOM      1  C   UNL     1      18.735 -19.106  25.668  1.00  0.00     0.000 C 
ENDROOT
BRANCH   1   2
ATOM      2  C   UNL     1      17.373 -18.695  26.262  1.00  0.00     0.006 C 
BRANCH   2   3
ATOM      3  C   UNL     1      17.011 -19.410  27.572  1.00  0.00     0.053 C 
BRANCH   3   4
ATOM      4  C   UNL     1      16.923 -18.457  28.724  1.00  0.00     0.041 C 
ATOM      5  O   UNL     1      16.147 -17.466  28.669  1.00  0.00    -0.550 OA
ATOM      6  O   UNL     1      17.721 -18.644  29.844  1.00  0.00    -0.550 OA
ENDBRANCH   3   4
ENDBRANCH   2   3
ENDBRANCH   1   2
BRANCH   1   7
ATOM      7  C   UNL     1      19.661 -19.876  26.631  1.00  0.00     0.000 C 
BRANCH   7   8
ATOM      8  C   UNL     1      21.146 -19.921  26.217  1.00  0.00    -0.000 C 
BRANCH   8   9
ATOM      9  C   UNL     1      21.491 -20.978  25.152  1.00  0.00    -0.000 C 
BRANCH   9  10
ATOM     10  C   UNL     1      23.002 -21.195  24.998  1.00  0.00    -0.003 C 
ATOM     11  C   UNL     1      23.457 -20.902  23.571  1.00  0.00     0.004 C 
ENDBRANCH   9  10
ENDBRANCH   8   9
ENDBRANCH   7   8
ENDBRANCH   1   7
TORSDOF 7
ENDMDL
MODEL 5
REMARK VINA RESULT:     1.035     11.636     12.744
REMARK INTER + INTRA:           1.152
REMARK INTER:                   1.400
REMARK INTRA:                  -0.248
REMARK UNBOUND:                -0.306
REMARK SMILES CCCCCCCCC(=O)[O-]
REMARK SMILES IDX 6 1 7 2 8 3 9 4 10 5 11 6 5 7 4 8 3 9 2 10 1 11
REMARK H PARENT
REMARK Flexibility Score: inf
ROOT
ATOM      1  C   UNL     1      21.096 -19.902  26.224  1.00  0.00     0.000 C 
ENDROOT
BRANCH   1   2
ATOM      2  C   UNL     1      21.466 -20.969  25.174  1.00  0.00     0.006 C 
BRANCH   2   3
ATOM      3  C   UNL     1      22.947 -21.378  25.180  1.00  0.00     0.053 C 
BRANCH   3   4
ATOM      4  C   UNL     1      23.626 -21.038  23.889  1.00  0.00     0.041 C 
ATOM      5  O   UNL     1      23.745 -19.837  23.532  1.00  0.00    -0.550 OA
ATOM      6  O   UNL     1      24.098 -22.051  23.065  1.00  0.00    -0.550 OA
ENDBRANCH   3   4
ENDBRANCH   2   3
ENDBRANCH   1   2
BRANCH   1   7
ATOM      7  C   UNL     1      19.606 -19.868  26.621  1.00  0.00     0.000 C 
BRANCH   7   8
ATOM      8  C   UNL     1      18.691 -19.079  25.664  1.00  0.00    -0.000 C 
BRANCH   8   9
ATOM      9  C   UNL     1      17.314 -18.706  26.242  1.00  0.00    -0.000 C 
BRANCH   9  10
ATOM     10  C   UNL     1      17.117 -19.206  27.679  1.00  0.00    -0.003 C 
ATOM     11  C   UNL     1      16.465 -18.135  28.549  1.00  0.00     0.004 C 
ENDBRANCH   9  10
ENDBRANCH   8   9
ENDBRANCH   7   8
ENDBRANCH   1   7
TORSDOF 7
ENDMDL
MODEL 6
REMARK VINA RESULT:     1.691     21.000     22.931
REMARK INTER + INTRA:           2.077
REMARK INTER:                   2.161
REMARK INTRA:                  -0.084
REMARK UNBOUND:                -0.306
REMARK SMILES CCCCCCCCC(=O)[O-]
REMARK SMILES IDX 6 1 7 2 8 3 9 4 10 5 11 6 5 7 4 8 3 9 2 10 1 11
REMARK H PARENT
REMARK Flexibility Score: inf
ROOT
ATOM      1  C   UNL     1      27.268 -23.669  14.169  1.00  0.00     0.000 C 
ENDROOT
BRANCH   1   2
ATOM      2  C   UNL     1      25.749 -23.663  14.439  1.00  0.00     0.006 C 
BRANCH   2   3
ATOM      3  C   UNL     1      25.295 -22.637  15.487  1.00  0.00     0.053 C 
BRANCH   3   4
ATOM      4  C   UNL     1      25.214 -21.254  14.918  1.00  0.00     0.041 C 
ATOM      5  O   UNL     1      25.330 -21.071  13.677  1.00  0.00    -0.550 OA
ATOM      6  O   UNL     1      25.043 -20.164  15.761  1.00  0.00    -0.550 OA
ENDBRANCH   3   4
ENDBRANCH   2   3
ENDBRANCH   1   2
BRANCH   1   7
ATOM      7  C   UNL     1      27.886 -25.066  13.957  1.00  0.00     0.000 C 
BRANCH   7   8
ATOM      8  C   UNL     1      29.423 -25.125  14.069  1.00  0.00    -0.000 C 
BRANCH   8   9
ATOM      9  C   UNL     1      30.185 -24.393  12.949  1.00  0.00    -0.000 C 
BRANCH   9  10
ATOM     10  C   UNL     1      31.693 -24.678  12.972  1.00  0.00    -0.003 C 
ATOM     11  C   UNL     1      32.478 -23.531  12.343  1.00  0.00     0.004 C 
ENDBRANCH   9  10
ENDBRANCH   8   9
ENDBRANCH   7   8
ENDBRANCH   1   7
TORSDOF 7
ENDMDL
MODEL 7
REMARK VINA RESULT:     1.845     21.135     22.883
REMARK INTER + INTRA:           2.295
REMARK INTER:                   2.506
REMARK INTRA:                  -0.211
REMARK UNBOUND:                -0.306
REMARK SMILES CCCCCCCCC(=O)[O-]
REMARK SMILES IDX 6 1 7 2 8 3 9 4 10 5 11 6 5 7 4 8 3 9 2 10 1 11
REMARK H PARENT
REMARK Flexibility Score: inf
ROOT
ATOM      1  C   UNL     1      27.608 -23.941  14.228  1.00  0.00     0.000 C 
ENDROOT
BRANCH   1   2
ATOM      2  C   UNL     1      28.677 -25.047  14.340  1.00  0.00     0.006 C 
BRANCH   2   3
ATOM      3  C   UNL     1      29.636 -25.125  13.143  1.00  0.00     0.053 C 
BRANCH   3   4
ATOM      4  C   UNL     1      31.039 -24.767  13.526  1.00  0.00     0.041 C 
ATOM      5  O   UNL     1      31.350 -24.631  14.739  1.00  0.00    -0.550 OA
ATOM      6  O   UNL     1      31.995 -24.551  12.542  1.00  0.00    -0.550 OA
ENDBRANCH   3   4
ENDBRANCH   2   3
ENDBRANCH   1   2
BRANCH   1   7
ATOM      7  C   UNL     1      26.150 -24.441  14.228  1.00  0.00     0.000 C 
BRANCH   7   8
ATOM      8  C   UNL     1      25.178 -23.627  15.106  1.00  0.00    -0.000 C 
BRANCH   8   9
ATOM      9  C   UNL     1      24.879 -22.205  14.599  1.00  0.00    -0.000 C 
BRANCH   9  10
ATOM     10  C   UNL     1      25.630 -21.123  15.387  1.00  0.00    -0.003 C 
ATOM     11  C   UNL     1      24.800 -19.848  15.497  1.00  0.00     0.004 C 
ENDBRANCH   9  10
ENDBRANCH   8   9
ENDBRANCH   7   8
ENDBRANCH   1   7
TORSDOF 7
ENDMDL
MODEL 8
REMARK VINA RESULT:     1.846     11.729     12.997
REMARK INTER + INTRA:           2.296
REMARK INTER:                   2.480
REMARK INTRA:                  -0.183
REMARK UNBOUND:                -0.306
REMARK SMILES CCCCCCCCC(=O)[O-]
REMARK SMILES IDX 6 1 7 2 8 3 9 4 10 5 11 6 5 7 4 8 3 9 2 10 1 11
REMARK H PARENT
REMARK Flexibility Score: inf
ROOT
ATOM      1  C   UNL     1      20.485 -20.588  25.924  1.00  0.00     0.000 C 
ENDROOT
BRANCH   1   2
ATOM      2  C   UNL     1      21.980 -20.501  25.554  1.00  0.00     0.006 C 
BRANCH   2   3
ATOM      3  C   UNL     1      22.444 -21.555  24.537  1.00  0.00     0.053 C 
BRANCH   3   4
ATOM      4  C   UNL     1      23.614 -21.078  23.733  1.00  0.00     0.041 C 
ATOM      5  O   UNL     1      23.958 -19.868  23.770  1.00  0.00    -0.550 OA
ATOM      6  O   UNL     1      24.304 -21.965  22.917  1.00  0.00    -0.550 OA
ENDBRANCH   3   4
ENDBRANCH   2   3
ENDBRANCH   1   2
BRANCH   1   7
ATOM      7  C   UNL     1      19.906 -19.327  26.596  1.00  0.00     0.000 C 
BRANCH   7   8
ATOM      8  C   UNL     1      18.449 -19.457  27.084  1.00  0.00    -0.000 C 
BRANCH   8   9
ATOM      9  C   UNL     1      17.386 -18.923  26.106  1.00  0.00    -0.000 C 
BRANCH   9  10
ATOM     10  C   UNL     1      17.940 -18.693  24.694  1.00  0.00    -0.003 C 
ATOM     11  C   UNL     1      17.084 -19.398  23.646  1.00  0.00     0.004 C 
ENDBRANCH   9  10
ENDBRANCH   8   9
ENDBRANCH   7   8
ENDBRANCH   1   7
TORSDOF 7
ENDMDL
