MODEL 1
REMARK VINA RESULT:     5.576      0.000      0.000
REMARK INTER + INTRA:          17.178
REMARK INTER:                  14.703
REMARK INTRA:                   2.476
REMARK UNBOUND:                 2.476
REMARK SMILES CCCCCCCCCCCCCCCCCCCCCCCCCCCCCC(=O)[O-]
REMARK SMILES IDX 16 1 17 2 18 3 19 4 20 5 21 6 22 7 23 8 24 9 25 10 26 11
REMARK SMILES IDX 27 12 28 13 29 14 30 15 31 16 32 17 15 18 14 19 13 20 12 21
REMARK SMILES IDX 11 22 10 23 9 24 8 25 7 26 6 27 5 28 4 29 3 30 2 31 1 32
REMARK H PARENT
REMARK Flexibility Score: inf
ROOT
ATOM      1  C   UNL     1      -3.901  34.723  21.796  1.00  0.00     0.000 C 
ENDROOT
BRANCH   1   2
ATOM      2  C   UNL     1      -5.095  34.864  22.756  1.00  0.00     0.000 C 
BRANCH   2   3
ATOM      3  C   UNL     1      -6.105  35.968  22.377  1.00  0.00     0.000 C 
BRANCH   3   4
ATOM      4  C   UNL     1      -5.784  36.734  21.075  1.00  0.00     0.000 C 
BRANCH   4   5
ATOM      5  C   UNL     1      -5.192  38.147  21.274  1.00  0.00     0.000 C 
BRANCH   5   6
ATOM      6  C   UNL     1      -6.092  39.288  20.766  1.00  0.00     0.000 C 
BRANCH   6   7
ATOM      7  C   UNL     1      -5.710  40.652  21.375  1.00  0.00     0.000 C 
BRANCH   7   8
ATOM      8  C   UNL     1      -4.847  40.505  22.641  1.00  0.00     0.000 C 
BRANCH   8   9
ATOM      9  C   UNL     1      -5.657  40.040  23.874  1.00  0.00     0.000 C 
BRANCH   9  10
ATOM     10  C   UNL     1      -5.026  38.855  24.625  1.00  0.00     0.000 C 
BRANCH  10  11
ATOM     11  C   UNL     1      -6.074  37.939  25.283  1.00  0.00     0.000 C 
BRANCH  11  12
ATOM     12  C   UNL     1      -5.531  36.526  25.591  1.00  0.00     0.000 C 
BRANCH  12  13
ATOM     13  C   UNL     1      -4.005  36.480  25.811  1.00  0.00     0.006 C 
BRANCH  13  14
ATOM     14  C   UNL     1      -3.492  37.422  26.912  1.00  0.00     0.053 C 
BRANCH  14  15
ATOM     15  C   UNL     1      -2.096  37.080  27.340  1.00  0.00     0.041 C 
ATOM     16  O   UNL     1      -1.709  35.882  27.344  1.00  0.00    -0.550 OA
ATOM     17  O   UNL     1      -1.221  38.085  27.736  1.00  0.00    -0.550 OA
ENDBRANCH  14  15
ENDBRANCH  13  14
ENDBRANCH  12  13
ENDBRANCH  11  12
ENDBRANCH  10  11
ENDBRANCH   9  10
ENDBRANCH   8   9
ENDBRANCH   7   8
ENDBRANCH   6   7
ENDBRANCH   5   6
ENDBRANCH   4   5
ENDBRANCH   3   4
ENDBRANCH   2   3
ENDBRANCH   1   2
BRANCH   1  18
ATOM     18  C   UNL     1      -4.335  34.616  20.326  1.00  0.00     0.000 C 
BRANCH  18  19
ATOM     19  C   UNL     1      -5.528  33.667  20.165  1.00  0.00     0.000 C 
BRANCH  19  20
ATOM     20  C   UNL     1      -6.119  33.769  18.752  1.00  0.00     0.000 C 
BRANCH  20  21
ATOM     21  C   UNL     1      -5.551  34.946  17.941  1.00  0.00     0.000 C 
BRANCH  21  22
ATOM     22  C   UNL     1      -4.162  35.440  18.392  1.00  0.00     0.000 C 
BRANCH  22  23
ATOM     23  C   UNL     1      -3.924  36.956  18.244  1.00  0.00     0.000 C 
BRANCH  23  24
ATOM     24  C   UNL     1      -2.673  37.496  18.965  1.00  0.00    -0.000 C 
BRANCH  24  25
ATOM     25  C   UNL     1      -1.370  37.427  18.148  1.00  0.00    -0.000 C 
BRANCH  25  26
ATOM     26  C   UNL     1      -1.215  36.104  17.378  1.00  0.00    -0.000 C 
BRANCH  26  27
ATOM     27  C   UNL     1      -1.416  36.289  15.864  1.00  0.00    -0.000 C 
BRANCH  27  28
ATOM     28  C   UNL     1      -2.619  37.197  15.547  1.00  0.00    -0.000 C 
BRANCH  28  29
ATOM     29  C   UNL     1      -3.235  36.904  14.169  1.00  0.00    -0.000 C 
BRANCH  29  30
ATOM     30  C   UNL     1      -4.471  37.768  13.876  1.00  0.00    -0.000 C 
BRANCH  30  31
ATOM     31  C   UNL     1      -4.331  39.159  14.507  1.00  0.00    -0.003 C 
ATOM     32  C   UNL     1      -5.425  40.102  14.014  1.00  0.00     0.004 C 
ENDBRANCH  30  31
ENDBRANCH  29  30
ENDBRANCH  28  29
ENDBRANCH  27  28
ENDBRANCH  26  27
ENDBRANCH  25  26
ENDBRANCH  24  25
ENDBRANCH  23  24
ENDBRANCH  22  23
ENDBRANCH  21  22
ENDBRANCH  20  21
ENDBRANCH  19  20
ENDBRANCH  18  19
ENDBRANCH   1  18
TORSDOF 28
ENDMDL
MODEL 2
REMARK VINA RESULT:     6.420      1.921      5.557
REMARK INTER + INTRA:          19.405
REMARK INTER:                  21.366
REMARK INTRA:                  -1.962
REMARK UNBOUND:                 2.476
REMARK SMILES CCCCCCCCCCCCCCCCCCCCCCCCCCCCCC(=O)[O-]
REMARK SMILES IDX 16 1 17 2 18 3 19 4 20 5 21 6 22 7 23 8 24 9 25 10 26 11
REMARK SMILES IDX 27 12 28 13 29 14 30 15 31 16 32 17 15 18 14 19 13 20 12 21
REMARK SMILES IDX 11 22 10 23 9 24 8 25 7 26 6 27 5 28 4 29 3 30 2 31 1 32
REMARK H PARENT
REMARK Flexibility Score: inf
ROOT
ATOM      1  C   UNL     1      -4.109  35.189  17.576  1.00  0.00     0.000 C 
ENDROOT
BRANCH   1   2
ATOM      2  C   UNL     1      -4.738  33.909  18.156  1.00  0.00     0.000 C 
BRANCH   2   3
ATOM      3  C   UNL     1      -6.123  34.106  18.807  1.00  0.00     0.000 C 
BRANCH   3   4
ATOM      4  C   UNL     1      -6.110  34.292  20.340  1.00  0.00     0.000 C 
BRANCH   4   5
ATOM      5  C   UNL     1      -4.724  34.589  20.953  1.00  0.00     0.000 C 
BRANCH   5   6
ATOM      6  C   UNL     1      -4.643  34.369  22.475  1.00  0.00     0.000 C 
BRANCH   6   7
ATOM      7  C   UNL     1      -5.839  34.991  23.221  1.00  0.00     0.000 C 
BRANCH   7   8
ATOM      8  C   UNL     1      -5.504  35.327  24.686  1.00  0.00     0.000 C 
BRANCH   8   9
ATOM      9  C   UNL     1      -6.061  36.698  25.134  1.00  0.00     0.000 C 
BRANCH   9  10
ATOM     10  C   UNL     1      -4.983  37.679  25.626  1.00  0.00     0.000 C 
BRANCH  10  11
ATOM     11  C   UNL     1      -4.158  37.121  26.799  1.00  0.00     0.000 C 
BRANCH  11  12
ATOM     12  C   UNL     1      -2.657  37.472  26.702  1.00  0.00     0.000 C 
BRANCH  12  13
ATOM     13  C   UNL     1      -1.726  36.402  27.308  1.00  0.00     0.006 C 
BRANCH  13  14
ATOM     14  C   UNL     1      -1.986  36.101  28.793  1.00  0.00     0.053 C 
BRANCH  14  15
ATOM     15  C   UNL     1      -1.833  34.643  29.108  1.00  0.00     0.041 C 
ATOM     16  O   UNL     1      -2.173  33.773  28.262  1.00  0.00    -0.550 OA
ATOM     17  O   UNL     1      -1.317  34.242  30.334  1.00  0.00    -0.550 OA
ENDBRANCH  14  15
ENDBRANCH  13  14
ENDBRANCH  12  13
ENDBRANCH  11  12
ENDBRANCH  10  11
ENDBRANCH   9  10
ENDBRANCH   8   9
ENDBRANCH   7   8
ENDBRANCH   6   7
ENDBRANCH   5   6
ENDBRANCH   4   5
ENDBRANCH   3   4
ENDBRANCH   2   3
ENDBRANCH   1   2
BRANCH   1  18
ATOM     18  C   UNL     1      -3.237  34.911  16.342  1.00  0.00     0.000 C 
BRANCH  18  19
ATOM     19  C   UNL     1      -1.769  35.263  16.606  1.00  0.00     0.000 C 
BRANCH  19  20
ATOM     20  C   UNL     1      -1.410  36.614  15.973  1.00  0.00     0.000 C 
BRANCH  20  21
ATOM     21  C   UNL     1      -1.711  37.812  16.889  1.00  0.00     0.000 C 
BRANCH  21  22
ATOM     22  C   UNL     1      -1.160  37.691  18.324  1.00  0.00     0.000 C 
BRANCH  22  23
ATOM     23  C   UNL     1      -2.138  38.110  19.440  1.00  0.00     0.000 C 
BRANCH  23  24
ATOM     24  C   UNL     1      -3.375  37.204  19.599  1.00  0.00    -0.000 C 
BRANCH  24  25
ATOM     25  C   UNL     1      -4.722  37.947  19.656  1.00  0.00    -0.000 C 
BRANCH  25  26
ATOM     26  C   UNL     1      -5.486  37.705  20.970  1.00  0.00    -0.000 C 
BRANCH  26  27
ATOM     27  C   UNL     1      -5.891  39.021  21.654  1.00  0.00    -0.000 C 
BRANCH  27  28
ATOM     28  C   UNL     1      -4.701  39.697  22.360  1.00  0.00    -0.000 C 
BRANCH  28  29
ATOM     29  C   UNL     1      -4.866  41.222  22.471  1.00  0.00    -0.000 C 
BRANCH  29  30
ATOM     30  C   UNL     1      -6.125  41.627  23.252  1.00  0.00    -0.000 C 
BRANCH  30  31
ATOM     31  C   UNL     1      -5.798  41.876  24.730  1.00  0.00    -0.003 C 
ATOM     32  C   UNL     1      -4.825  40.829  25.265  1.00  0.00     0.004 C 
ENDBRANCH  30  31
ENDBRANCH  29  30
ENDBRANCH  28  29
ENDBRANCH  27  28
ENDBRANCH  26  27
ENDBRANCH  25  26
ENDBRANCH  24  25
ENDBRANCH  23  24
ENDBRANCH  22  23
ENDBRANCH  21  22
ENDBRANCH  20  21
ENDBRANCH  19  20
ENDBRANCH  18  19
ENDBRANCH   1  18
TORSDOF 28
ENDMDL
MODEL 3
REMARK VINA RESULT:     6.475      2.460      4.233
REMARK INTER + INTRA:          19.549
REMARK INTER:                  17.919
REMARK INTRA:                   1.629
REMARK UNBOUND:                 2.476
REMARK SMILES CCCCCCCCCCCCCCCCCCCCCCCCCCCCCC(=O)[O-]
REMARK SMILES IDX 16 1 17 2 18 3 19 4 20 5 21 6 22 7 23 8 24 9 25 10 26 11
REMARK SMILES IDX 27 12 28 13 29 14 30 15 31 16 32 17 15 18 14 19 13 20 12 21
REMARK SMILES IDX 11 22 10 23 9 24 8 25 7 26 6 27 5 28 4 29 3 30 2 31 1 32
REMARK H PARENT
REMARK Flexibility Score: inf
ROOT
ATOM      1  C   UNL     1      -1.067  36.668  21.032  1.00  0.00     0.000 C 
ENDROOT
BRANCH   1   2
ATOM      2  C   UNL     1      -1.704  35.352  21.514  1.00  0.00     0.000 C 
BRANCH   2   3
ATOM      3  C   UNL     1      -3.182  35.163  21.113  1.00  0.00     0.000 C 
BRANCH   3   4
ATOM      4  C   UNL     1      -3.823  33.835  21.571  1.00  0.00     0.000 C 
BRANCH   4   5
ATOM      5  C   UNL     1      -4.997  33.981  22.564  1.00  0.00     0.000 C 
BRANCH   5   6
ATOM      6  C   UNL     1      -5.944  35.156  22.258  1.00  0.00     0.000 C 
BRANCH   6   7
ATOM      7  C   UNL     1      -6.074  36.129  23.446  1.00  0.00     0.000 C 
BRANCH   7   8
ATOM      8  C   UNL     1      -6.009  35.406  24.804  1.00  0.00     0.000 C 
BRANCH   8   9
ATOM      9  C   UNL     1      -5.857  36.377  25.998  1.00  0.00     0.000 C 
BRANCH   9  10
ATOM     10  C   UNL     1      -4.882  37.538  25.740  1.00  0.00     0.000 C 
BRANCH  10  11
ATOM     11  C   UNL     1      -5.251  38.363  24.494  1.00  0.00     0.000 C 
BRANCH  11  12
ATOM     12  C   UNL     1      -5.318  39.881  24.774  1.00  0.00     0.000 C 
BRANCH  12  13
ATOM     13  C   UNL     1      -4.820  40.752  23.604  1.00  0.00     0.006 C 
BRANCH  13  14
ATOM     14  C   UNL     1      -5.891  41.072  22.548  1.00  0.00     0.053 C 
BRANCH  14  15
ATOM     15  C   UNL     1      -5.911  40.060  21.442  1.00  0.00     0.041 C 
ATOM     16  O   UNL     1      -6.108  40.424  20.253  1.00  0.00    -0.550 OA
ATOM     17  O   UNL     1      -5.712  38.712  21.723  1.00  0.00    -0.550 OA
ENDBRANCH  14  15
ENDBRANCH  13  14
ENDBRANCH  12  13
ENDBRANCH  11  12
ENDBRANCH  10  11
ENDBRANCH   9  10
ENDBRANCH   8   9
ENDBRANCH   7   8
ENDBRANCH   6   7
ENDBRANCH   5   6
ENDBRANCH   4   5
ENDBRANCH   3   4
ENDBRANCH   2   3
ENDBRANCH   1   2
BRANCH   1  18
ATOM     18  C   UNL     1      -1.811  37.280  19.835  1.00  0.00     0.000 C 
BRANCH  18  19
ATOM     19  C   UNL     1      -3.323  37.330  20.085  1.00  0.00     0.000 C 
BRANCH  19  20
ATOM     20  C   UNL     1      -4.080  37.635  18.785  1.00  0.00     0.000 C 
BRANCH  20  21
ATOM     21  C   UNL     1      -5.514  37.080  18.774  1.00  0.00     0.000 C 
BRANCH  21  22
ATOM     22  C   UNL     1      -5.652  35.617  19.241  1.00  0.00     0.000 C 
BRANCH  22  23
ATOM     23  C   UNL     1      -5.023  34.567  18.303  1.00  0.00     0.000 C 
BRANCH  23  24
ATOM     24  C   UNL     1      -3.600  34.899  17.810  1.00  0.00    -0.000 C 
BRANCH  24  25
ATOM     25  C   UNL     1      -3.301  34.487  16.358  1.00  0.00    -0.000 C 
BRANCH  25  26
ATOM     26  C   UNL     1      -3.988  35.395  15.323  1.00  0.00    -0.000 C 
BRANCH  26  27
ATOM     27  C   UNL     1      -3.050  36.501  14.812  1.00  0.00    -0.000 C 
BRANCH  27  28
ATOM     28  C   UNL     1      -3.773  37.487  13.875  1.00  0.00    -0.000 C 
BRANCH  28  29
ATOM     29  C   UNL     1      -3.969  38.873  14.511  1.00  0.00    -0.000 C 
BRANCH  29  30
ATOM     30  C   UNL     1      -5.368  39.452  14.252  1.00  0.00    -0.000 C 
BRANCH  30  31
ATOM     31  C   UNL     1      -5.482  40.879  14.802  1.00  0.00    -0.003 C 
ATOM     32  C   UNL     1      -4.782  41.881  13.888  1.00  0.00     0.004 C 
ENDBRANCH  30  31
ENDBRANCH  29  30
ENDBRANCH  28  29
ENDBRANCH  27  28
ENDBRANCH  26  27
ENDBRANCH  25  26
ENDBRANCH  24  25
ENDBRANCH  23  24
ENDBRANCH  22  23
ENDBRANCH  21  22
ENDBRANCH  20  21
ENDBRANCH  19  20
ENDBRANCH  18  19
ENDBRANCH   1  18
TORSDOF 28
ENDMDL
MODEL 4
REMARK VINA RESULT:     7.069      2.506      8.873
REMARK INTER + INTRA:          21.115
REMARK INTER:                  20.656
REMARK INTRA:                   0.459
REMARK UNBOUND:                 2.476
REMARK SMILES CCCCCCCCCCCCCCCCCCCCCCCCCCCCCC(=O)[O-]
REMARK SMILES IDX 16 1 17 2 18 3 19 4 20 5 21 6 22 7 23 8 24 9 25 10 26 11
REMARK SMILES IDX 27 12 28 13 29 14 30 15 31 16 32 17 15 18 14 19 13 20 12 21
REMARK SMILES IDX 11 22 10 23 9 24 8 25 7 26 6 27 5 28 4 29 3 30 2 31 1 32
REMARK H PARENT
REMARK Flexibility Score: inf
ROOT
ATOM      1  C   UNL     1      -4.047  36.270  21.012  1.00  0.00     0.000 C 
ENDROOT
BRANCH   1   2
ATOM      2  C   UNL     1      -4.120  34.842  21.582  1.00  0.00     0.000 C 
BRANCH   2   3
ATOM      3  C   UNL     1      -4.877  33.830  20.696  1.00  0.00     0.000 C 
BRANCH   3   4
ATOM      4  C   UNL     1      -5.710  34.449  19.553  1.00  0.00     0.000 C 
BRANCH   4   5
ATOM      5  C   UNL     1      -5.363  33.940  18.137  1.00  0.00     0.000 C 
BRANCH   5   6
ATOM      6  C   UNL     1      -4.681  34.987  17.237  1.00  0.00     0.000 C 
BRANCH   6   7
ATOM      7  C   UNL     1      -3.153  34.797  17.170  1.00  0.00     0.000 C 
BRANCH   7   8
ATOM      8  C   UNL     1      -2.589  35.084  15.767  1.00  0.00     0.000 C 
BRANCH   8   9
ATOM      9  C   UNL     1      -3.659  35.607  14.781  1.00  0.00     0.000 C 
BRANCH   9  10
ATOM     10  C   UNL     1      -3.530  37.105  14.456  1.00  0.00     0.000 C 
BRANCH  10  11
ATOM     11  C   UNL     1      -3.605  37.997  15.707  1.00  0.00     0.000 C 
BRANCH  11  12
ATOM     12  C   UNL     1      -2.403  37.803  16.659  1.00  0.00     0.000 C 
BRANCH  12  13
ATOM     13  C   UNL     1      -2.802  37.640  18.140  1.00  0.00     0.006 C 
BRANCH  13  14
ATOM     14  C   UNL     1      -1.809  38.256  19.138  1.00  0.00     0.053 C 
BRANCH  14  15
ATOM     15  C   UNL     1      -0.558  37.439  19.266  1.00  0.00     0.041 C 
ATOM     16  O   UNL     1      -0.266  36.895  20.363  1.00  0.00    -0.550 OA
ATOM     17  O   UNL     1       0.286  37.276  18.173  1.00  0.00    -0.550 OA
ENDBRANCH  14  15
ENDBRANCH  13  14
ENDBRANCH  12  13
ENDBRANCH  11  12
ENDBRANCH  10  11
ENDBRANCH   9  10
ENDBRANCH   8   9
ENDBRANCH   7   8
ENDBRANCH   6   7
ENDBRANCH   5   6
ENDBRANCH   4   5
ENDBRANCH   3   4
ENDBRANCH   2   3
ENDBRANCH   1   2
BRANCH   1  18
ATOM     18  C   UNL     1      -5.417  36.794  20.554  1.00  0.00     0.000 C 
BRANCH  18  19
ATOM     19  C   UNL     1      -5.270  38.029  19.659  1.00  0.00     0.000 C 
BRANCH  19  20
ATOM     20  C   UNL     1      -5.977  39.241  20.281  1.00  0.00     0.000 C 
BRANCH  20  21
ATOM     21  C   UNL     1      -6.125  39.138  21.808  1.00  0.00     0.000 C 
BRANCH  21  22
ATOM     22  C   UNL     1      -5.818  40.436  22.583  1.00  0.00     0.000 C 
BRANCH  22  23
ATOM     23  C   UNL     1      -5.380  40.238  24.048  1.00  0.00     0.000 C 
BRANCH  23  24
ATOM     24  C   UNL     1      -4.786  38.852  24.371  1.00  0.00    -0.000 C 
BRANCH  24  25
ATOM     25  C   UNL     1      -5.770  37.855  25.009  1.00  0.00    -0.000 C 
BRANCH  25  26
ATOM     26  C   UNL     1      -5.072  36.802  25.889  1.00  0.00    -0.000 C 
BRANCH  26  27
ATOM     27  C   UNL     1      -3.549  37.010  25.939  1.00  0.00    -0.000 C 
BRANCH  27  28
ATOM     28  C   UNL     1      -3.077  37.506  27.319  1.00  0.00    -0.000 C 
BRANCH  28  29
ATOM     29  C   UNL     1      -1.833  36.757  27.824  1.00  0.00    -0.000 C 
BRANCH  29  30
ATOM     30  C   UNL     1      -1.996  35.231  27.770  1.00  0.00    -0.000 C 
BRANCH  30  31
ATOM     31  C   UNL     1      -1.179  34.552  28.876  1.00  0.00    -0.003 C 
ATOM     32  C   UNL     1      -2.064  34.161  30.056  1.00  0.00     0.004 C 
ENDBRANCH  30  31
ENDBRANCH  29  30
ENDBRANCH  28  29
ENDBRANCH  27  28
ENDBRANCH  26  27
ENDBRANCH  25  26
ENDBRANCH  24  25
ENDBRANCH  23  24
ENDBRANCH  22  23
ENDBRANCH  21  22
ENDBRANCH  20  21
ENDBRANCH  19  20
ENDBRANCH  18  19
ENDBRANCH   1  18
TORSDOF 28
ENDMDL
MODEL 5
REMARK VINA RESULT:     7.114      2.664      9.277
REMARK INTER + INTRA:          21.233
REMARK INTER:                  18.138
REMARK INTRA:                   3.095
REMARK UNBOUND:                 2.476
REMARK SMILES CCCCCCCCCCCCCCCCCCCCCCCCCCCCCC(=O)[O-]
REMARK SMILES IDX 16 1 17 2 18 3 19 4 20 5 21 6 22 7 23 8 24 9 25 10 26 11
REMARK SMILES IDX 27 12 28 13 29 14 30 15 31 16 32 17 15 18 14 19 13 20 12 21
REMARK SMILES IDX 11 22 10 23 9 24 8 25 7 26 6 27 5 28 4 29 3 30 2 31 1 32
REMARK H PARENT
REMARK Flexibility Score: inf
ROOT
ATOM      1  C   UNL     1      -3.338  36.775  20.708  1.00  0.00     0.000 C 
ENDROOT
BRANCH   1   2
ATOM      2  C   UNL     1      -3.414  35.261  20.443  1.00  0.00     0.000 C 
BRANCH   2   3
ATOM      3  C   UNL     1      -4.808  34.747  20.022  1.00  0.00     0.000 C 
BRANCH   3   4
ATOM      4  C   UNL     1      -4.941  34.349  18.536  1.00  0.00     0.000 C 
BRANCH   4   5
ATOM      5  C   UNL     1      -4.188  35.260  17.543  1.00  0.00     0.000 C 
BRANCH   5   6
ATOM      6  C   UNL     1      -3.540  34.512  16.363  1.00  0.00     0.000 C 
BRANCH   6   7
ATOM      7  C   UNL     1      -2.324  35.265  15.787  1.00  0.00     0.000 C 
BRANCH   7   8
ATOM      8  C   UNL     1      -2.628  35.912  14.424  1.00  0.00     0.000 C 
BRANCH   8   9
ATOM      9  C   UNL     1      -4.141  36.123  14.180  1.00  0.00     0.000 C 
BRANCH   9  10
ATOM     10  C   UNL     1      -4.545  37.597  14.003  1.00  0.00     0.000 C 
BRANCH  10  11
ATOM     11  C   UNL     1      -3.713  38.554  14.876  1.00  0.00     0.000 C 
BRANCH  11  12
ATOM     12  C   UNL     1      -3.577  38.073  16.338  1.00  0.00     0.000 C 
BRANCH  12  13
ATOM     13  C   UNL     1      -2.143  37.664  16.728  1.00  0.00     0.006 C 
BRANCH  13  14
ATOM     14  C   UNL     1      -1.997  37.153  18.170  1.00  0.00     0.053 C 
BRANCH  14  15
ATOM     15  C   UNL     1      -0.852  37.806  18.886  1.00  0.00     0.041 C 
ATOM     16  O   UNL     1      -0.204  37.169  19.758  1.00  0.00    -0.550 OA
ATOM     17  O   UNL     1      -0.500  39.118  18.592  1.00  0.00    -0.550 OA
ENDBRANCH  14  15
ENDBRANCH  13  14
ENDBRANCH  12  13
ENDBRANCH  11  12
ENDBRANCH  10  11
ENDBRANCH   9  10
ENDBRANCH   8   9
ENDBRANCH   7   8
ENDBRANCH   6   7
ENDBRANCH   5   6
ENDBRANCH   4   5
ENDBRANCH   3   4
ENDBRANCH   2   3
ENDBRANCH   1   2
BRANCH   1  18
ATOM     18  C   UNL     1      -4.688  37.479  20.506  1.00  0.00     0.000 C 
BRANCH  18  19
ATOM     19  C   UNL     1      -4.970  38.479  21.633  1.00  0.00     0.000 C 
BRANCH  19  20
ATOM     20  C   UNL     1      -5.930  37.877  22.668  1.00  0.00     0.000 C 
BRANCH  20  21
ATOM     21  C   UNL     1      -6.120  36.360  22.508  1.00  0.00     0.000 C 
BRANCH  21  22
ATOM     22  C   UNL     1      -5.160  35.490  23.344  1.00  0.00     0.000 C 
BRANCH  22  23
ATOM     23  C   UNL     1      -5.671  35.115  24.750  1.00  0.00     0.000 C 
BRANCH  23  24
ATOM     24  C   UNL     1      -5.066  35.937  25.906  1.00  0.00    -0.000 C 
BRANCH  24  25
ATOM     25  C   UNL     1      -5.242  37.461  25.784  1.00  0.00    -0.000 C 
BRANCH  25  26
ATOM     26  C   UNL     1      -4.289  38.250  26.699  1.00  0.00    -0.000 C 
BRANCH  26  27
ATOM     27  C   UNL     1      -2.814  37.902  26.435  1.00  0.00    -0.000 C 
BRANCH  27  28
ATOM     28  C   UNL     1      -2.124  37.322  27.685  1.00  0.00    -0.000 C 
BRANCH  28  29
ATOM     29  C   UNL     1      -1.732  35.845  27.513  1.00  0.00    -0.000 C 
BRANCH  29  30
ATOM     30  C   UNL     1      -2.235  34.961  28.665  1.00  0.00    -0.000 C 
BRANCH  30  31
ATOM     31  C   UNL     1      -1.062  34.319  29.416  1.00  0.00    -0.003 C 
ATOM     32  C   UNL     1      -1.538  33.603  30.677  1.00  0.00     0.004 C 
ENDBRANCH  30  31
ENDBRANCH  29  30
ENDBRANCH  28  29
ENDBRANCH  27  28
ENDBRANCH  26  27
ENDBRANCH  25  26
ENDBRANCH  24  25
ENDBRANCH  23  24
ENDBRANCH  22  23
ENDBRANCH  21  22
ENDBRANCH  20  21
ENDBRANCH  19  20
ENDBRANCH  18  19
ENDBRANCH   1  18
TORSDOF 28
ENDMDL
MODEL 6
REMARK VINA RESULT:     7.259      1.951      3.811
REMARK INTER + INTRA:          21.616
REMARK INTER:                  20.784
REMARK INTRA:                   0.831
REMARK UNBOUND:                 2.476
REMARK SMILES CCCCCCCCCCCCCCCCCCCCCCCCCCCCCC(=O)[O-]
REMARK SMILES IDX 16 1 17 2 18 3 19 4 20 5 21 6 22 7 23 8 24 9 25 10 26 11
REMARK SMILES IDX 27 12 28 13 29 14 30 15 31 16 32 17 15 18 14 19 13 20 12 21
REMARK SMILES IDX 11 22 10 23 9 24 8 25 7 26 6 27 5 28 4 29 3 30 2 31 1 32
REMARK H PARENT
REMARK Flexibility Score: inf
ROOT
ATOM      1  C   UNL     1      -0.691  37.406  20.137  1.00  0.00     0.000 C 
ENDROOT
BRANCH   1   2
ATOM      2  C   UNL     1      -1.042  36.260  21.103  1.00  0.00     0.000 C 
BRANCH   2   3
ATOM      3  C   UNL     1      -2.478  35.711  20.963  1.00  0.00     0.000 C 
BRANCH   3   4
ATOM      4  C   UNL     1      -2.859  34.603  21.968  1.00  0.00     0.000 C 
BRANCH   4   5
ATOM      5  C   UNL     1      -4.013  34.959  22.931  1.00  0.00     0.000 C 
BRANCH   5   6
ATOM      6  C   UNL     1      -4.840  33.749  23.404  1.00  0.00     0.000 C 
BRANCH   6   7
ATOM      7  C   UNL     1      -6.122  34.170  24.149  1.00  0.00     0.000 C 
BRANCH   7   8
ATOM      8  C   UNL     1      -6.030  35.601  24.708  1.00  0.00     0.000 C 
BRANCH   8   9
ATOM      9  C   UNL     1      -4.729  35.855  25.506  1.00  0.00     0.000 C 
BRANCH   9  10
ATOM     10  C   UNL     1      -4.781  37.105  26.402  1.00  0.00     0.000 C 
BRANCH  10  11
ATOM     11  C   UNL     1      -3.423  37.821  26.507  1.00  0.00     0.000 C 
BRANCH  11  12
ATOM     12  C   UNL     1      -2.235  36.844  26.651  1.00  0.00     0.000 C 
BRANCH  12  13
ATOM     13  C   UNL     1      -2.021  36.332  28.090  1.00  0.00     0.006 C 
BRANCH  13  14
ATOM     14  C   UNL     1      -1.492  34.891  28.180  1.00  0.00     0.053 C 
BRANCH  14  15
ATOM     15  C   UNL     1      -1.565  34.351  29.576  1.00  0.00     0.041 C 
ATOM     16  O   UNL     1      -0.515  34.214  30.259  1.00  0.00    -0.550 OA
ATOM     17  O   UNL     1      -2.791  33.996  30.127  1.00  0.00    -0.550 OA
ENDBRANCH  14  15
ENDBRANCH  13  14
ENDBRANCH  12  13
ENDBRANCH  11  12
ENDBRANCH  10  11
ENDBRANCH   9  10
ENDBRANCH   8   9
ENDBRANCH   7   8
ENDBRANCH   6   7
ENDBRANCH   5   6
ENDBRANCH   4   5
ENDBRANCH   3   4
ENDBRANCH   2   3
ENDBRANCH   1   2
BRANCH   1  18
ATOM     18  C   UNL     1      -1.907  37.895  19.336  1.00  0.00     0.000 C 
BRANCH  18  19
ATOM     19  C   UNL     1      -3.221  37.457  19.992  1.00  0.00     0.000 C 
BRANCH  19  20
ATOM     20  C   UNL     1      -4.425  38.069  19.264  1.00  0.00     0.000 C 
BRANCH  20  21
ATOM     21  C   UNL     1      -5.766  37.774  19.955  1.00  0.00     0.000 C 
BRANCH  21  22
ATOM     22  C   UNL     1      -5.811  36.459  20.760  1.00  0.00     0.000 C 
BRANCH  22  23
ATOM     23  C   UNL     1      -6.001  35.181  19.919  1.00  0.00     0.000 C 
BRANCH  23  24
ATOM     24  C   UNL     1      -4.713  34.618  19.285  1.00  0.00    -0.000 C 
BRANCH  24  25
ATOM     25  C   UNL     1      -4.777  34.402  17.762  1.00  0.00    -0.000 C 
BRANCH  25  26
ATOM     26  C   UNL     1      -4.335  35.640  16.962  1.00  0.00    -0.000 C 
BRANCH  26  27
ATOM     27  C   UNL     1      -2.804  35.730  16.837  1.00  0.00    -0.000 C 
BRANCH  27  28
ATOM     28  C   UNL     1      -2.368  36.359  15.501  1.00  0.00    -0.000 C 
BRANCH  28  29
ATOM     29  C   UNL     1      -3.260  35.930  14.325  1.00  0.00    -0.000 C 
BRANCH  29  30
ATOM     30  C   UNL     1      -4.348  36.963  13.997  1.00  0.00    -0.000 C 
BRANCH  30  31
ATOM     31  C   UNL     1      -3.800  38.391  14.107  1.00  0.00    -0.003 C 
ATOM     32  C   UNL     1      -4.923  39.398  14.338  1.00  0.00     0.004 C 
ENDBRANCH  30  31
ENDBRANCH  29  30
ENDBRANCH  28  29
ENDBRANCH  27  28
ENDBRANCH  26  27
ENDBRANCH  25  26
ENDBRANCH  24  25
ENDBRANCH  23  24
ENDBRANCH  22  23
ENDBRANCH  21  22
ENDBRANCH  20  21
ENDBRANCH  19  20
ENDBRANCH  18  19
ENDBRANCH   1  18
TORSDOF 28
ENDMDL
MODEL 7
REMARK VINA RESULT:     7.570      1.696      3.669
REMARK INTER + INTRA:          22.437
REMARK INTER:                  21.077
REMARK INTRA:                   1.360
REMARK UNBOUND:                 2.476
REMARK SMILES CCCCCCCCCCCCCCCCCCCCCCCCCCCCCC(=O)[O-]
REMARK SMILES IDX 16 1 17 2 18 3 19 4 20 5 21 6 22 7 23 8 24 9 25 10 26 11
REMARK SMILES IDX 27 12 28 13 29 14 30 15 31 16 32 17 15 18 14 19 13 20 12 21
REMARK SMILES IDX 11 22 10 23 9 24 8 25 7 26 6 27 5 28 4 29 3 30 2 31 1 32
REMARK H PARENT
REMARK Flexibility Score: inf
ROOT
ATOM      1  C   UNL     1      -5.196  36.197  21.973  1.00  0.00     0.000 C 
ENDROOT
BRANCH   1   2
ATOM      2  C   UNL     1      -5.940  36.877  20.810  1.00  0.00     0.000 C 
BRANCH   2   3
ATOM      3  C   UNL     1      -5.549  38.350  20.564  1.00  0.00     0.000 C 
BRANCH   3   4
ATOM      4  C   UNL     1      -5.804  39.305  21.750  1.00  0.00     0.000 C 
BRANCH   4   5
ATOM      5  C   UNL     1      -4.595  39.526  22.686  1.00  0.00     0.000 C 
BRANCH   5   6
ATOM      6  C   UNL     1      -4.816  39.043  24.131  1.00  0.00     0.000 C 
BRANCH   6   7
ATOM      7  C   UNL     1      -6.123  38.242  24.289  1.00  0.00     0.000 C 
BRANCH   7   8
ATOM      8  C   UNL     1      -5.865  36.753  24.584  1.00  0.00     0.000 C 
BRANCH   8   9
ATOM      9  C   UNL     1      -4.659  36.524  25.524  1.00  0.00     0.000 C 
BRANCH   9  10
ATOM     10  C   UNL     1      -4.548  37.555  26.660  1.00  0.00     0.000 C 
BRANCH  10  11
ATOM     11  C   UNL     1      -3.094  37.962  26.959  1.00  0.00     0.000 C 
BRANCH  11  12
ATOM     12  C   UNL     1      -2.115  36.767  26.930  1.00  0.00     0.000 C 
BRANCH  12  13
ATOM     13  C   UNL     1      -2.340  35.751  28.067  1.00  0.00     0.006 C 
BRANCH  13  14
ATOM     14  C   UNL     1      -1.077  34.982  28.491  1.00  0.00     0.053 C 
BRANCH  14  15
ATOM     15  C   UNL     1      -1.379  33.920  29.505  1.00  0.00     0.041 C 
ATOM     16  O   UNL     1      -0.697  32.861  29.537  1.00  0.00    -0.550 OA
ATOM     17  O   UNL     1      -2.415  34.096  30.417  1.00  0.00    -0.550 OA
ENDBRANCH  14  15
ENDBRANCH  13  14
ENDBRANCH  12  13
ENDBRANCH  11  12
ENDBRANCH  10  11
ENDBRANCH   9  10
ENDBRANCH   8   9
ENDBRANCH   7   8
ENDBRANCH   6   7
ENDBRANCH   5   6
ENDBRANCH   4   5
ENDBRANCH   3   4
ENDBRANCH   2   3
ENDBRANCH   1   2
BRANCH   1  18
ATOM     18  C   UNL     1      -4.550  34.865  21.562  1.00  0.00     0.000 C 
BRANCH  18  19
ATOM     19  C   UNL     1      -4.346  34.788  20.045  1.00  0.00     0.000 C 
BRANCH  19  20
ATOM     20  C   UNL     1      -5.509  34.043  19.375  1.00  0.00     0.000 C 
BRANCH  20  21
ATOM     21  C   UNL     1      -5.455  34.092  17.839  1.00  0.00     0.000 C 
BRANCH  21  22
ATOM     22  C   UNL     1      -4.086  34.480  17.245  1.00  0.00     0.000 C 
BRANCH  22  23
ATOM     23  C   UNL     1      -3.828  35.995  17.128  1.00  0.00     0.000 C 
BRANCH  23  24
ATOM     24  C   UNL     1      -4.010  36.583  15.714  1.00  0.00    -0.000 C 
BRANCH  24  25
ATOM     25  C   UNL     1      -2.816  36.377  14.765  1.00  0.00    -0.000 C 
BRANCH  25  26
ATOM     26  C   UNL     1      -1.599  35.741  15.460  1.00  0.00    -0.000 C 
BRANCH  26  27
ATOM     27  C   UNL     1      -1.491  36.164  16.935  1.00  0.00    -0.000 C 
BRANCH  27  28
ATOM     28  C   UNL     1      -0.580  37.393  17.119  1.00  0.00    -0.000 C 
BRANCH  28  29
ATOM     29  C   UNL     1      -0.892  38.173  18.406  1.00  0.00    -0.000 C 
BRANCH  29  30
ATOM     30  C   UNL     1      -2.271  37.831  18.988  1.00  0.00    -0.000 C 
BRANCH  30  31
ATOM     31  C   UNL     1      -2.141  37.218  20.387  1.00  0.00    -0.003 C 
ATOM     32  C   UNL     1      -0.696  36.833  20.690  1.00  0.00     0.004 C 
ENDBRANCH  30  31
ENDBRANCH  29  30
ENDBRANCH  28  29
ENDBRANCH  27  28
ENDBRANCH  26  27
ENDBRANCH  25  26
ENDBRANCH  24  25
ENDBRANCH  23  24
ENDBRANCH  22  23
ENDBRANCH  21  22
ENDBRANCH  20  21
ENDBRANCH  19  20
ENDBRANCH  18  19
ENDBRANCH   1  18
TORSDOF 28
ENDMDL
MODEL 8
REMARK VINA RESULT:     7.880      3.717      8.014
REMARK INTER + INTRA:          23.254
REMARK INTER:                  22.595
REMARK INTRA:                   0.659
REMARK UNBOUND:                 2.476
REMARK SMILES CCCCCCCCCCCCCCCCCCCCCCCCCCCCCC(=O)[O-]
REMARK SMILES IDX 16 1 17 2 18 3 19 4 20 5 21 6 22 7 23 8 24 9 25 10 26 11
REMARK SMILES IDX 27 12 28 13 29 14 30 15 31 16 32 17 15 18 14 19 13 20 12 21
REMARK SMILES IDX 11 22 10 23 9 24 8 25 7 26 6 27 5 28 4 29 3 30 2 31 1 32
REMARK H PARENT
REMARK Flexibility Score: inf
ROOT
ATOM      1  C   UNL     1      -5.171  34.708  24.068  1.00  0.00     0.000 C 
ENDROOT
BRANCH   1   2
ATOM      2  C   UNL     1      -5.838  33.788  23.030  1.00  0.00     0.000 C 
BRANCH   2   3
ATOM      3  C   UNL     1      -6.077  34.435  21.650  1.00  0.00     0.000 C 
BRANCH   3   4
ATOM      4  C   UNL     1      -5.746  35.941  21.562  1.00  0.00     0.000 C 
BRANCH   4   5
ATOM      5  C   UNL     1      -6.125  36.620  20.228  1.00  0.00     0.000 C 
BRANCH   5   6
ATOM      6  C   UNL     1      -5.984  35.712  18.992  1.00  0.00     0.000 C 
BRANCH   6   7
ATOM      7  C   UNL     1      -4.691  34.875  19.024  1.00  0.00     0.000 C 
BRANCH   7   8
ATOM      8  C   UNL     1      -4.791  33.609  18.153  1.00  0.00     0.000 C 
BRANCH   8   9
ATOM      9  C   UNL     1      -3.747  33.576  17.013  1.00  0.00     0.000 C 
BRANCH   9  10
ATOM     10  C   UNL     1      -3.565  34.924  16.293  1.00  0.00     0.000 C 
BRANCH  10  11
ATOM     11  C   UNL     1      -2.089  35.259  16.017  1.00  0.00     0.000 C 
BRANCH  11  12
ATOM     12  C   UNL     1      -1.714  36.704  16.415  1.00  0.00     0.000 C 
BRANCH  12  13
ATOM     13  C   UNL     1      -2.698  37.769  15.891  1.00  0.00     0.006 C 
BRANCH  13  14
ATOM     14  C   UNL     1      -3.085  37.606  14.412  1.00  0.00     0.053 C 
BRANCH  14  15
ATOM     15  C   UNL     1      -4.520  37.959  14.163  1.00  0.00     0.041 C 
ATOM     16  O   UNL     1      -4.896  39.160  14.212  1.00  0.00    -0.550 OA
ATOM     17  O   UNL     1      -5.447  36.962  13.877  1.00  0.00    -0.550 OA
ENDBRANCH  14  15
ENDBRANCH  13  14
ENDBRANCH  12  13
ENDBRANCH  11  12
ENDBRANCH  10  11
ENDBRANCH   9  10
ENDBRANCH   8   9
ENDBRANCH   7   8
ENDBRANCH   6   7
ENDBRANCH   5   6
ENDBRANCH   4   5
ENDBRANCH   3   4
ENDBRANCH   2   3
ENDBRANCH   1   2
BRANCH   1  18
ATOM     18  C   UNL     1      -6.105  35.052  25.238  1.00  0.00     0.000 C 
BRANCH  18  19
ATOM     19  C   UNL     1      -6.112  36.559  25.522  1.00  0.00     0.000 C 
BRANCH  19  20
ATOM     20  C   UNL     1      -4.793  36.997  26.172  1.00  0.00     0.000 C 
BRANCH  20  21
ATOM     21  C   UNL     1      -4.080  38.120  25.400  1.00  0.00     0.000 C 
BRANCH  21  22
ATOM     22  C   UNL     1      -4.994  39.268  24.927  1.00  0.00     0.000 C 
BRANCH  22  23
ATOM     23  C   UNL     1      -5.737  39.011  23.600  1.00  0.00     0.000 C 
BRANCH  23  24
ATOM     24  C   UNL     1      -6.076  40.275  22.785  1.00  0.00    -0.000 C 
BRANCH  24  25
ATOM     25  C   UNL     1      -5.405  40.357  21.402  1.00  0.00    -0.000 C 
BRANCH  25  26
ATOM     26  C   UNL     1      -5.141  38.974  20.781  1.00  0.00    -0.000 C 
BRANCH  26  27
ATOM     27  C   UNL     1      -3.695  38.835  20.275  1.00  0.00    -0.000 C 
BRANCH  27  28
ATOM     28  C   UNL     1      -3.505  37.582  19.400  1.00  0.00    -0.000 C 
BRANCH  28  29
ATOM     29  C   UNL     1      -2.041  37.119  19.337  1.00  0.00    -0.000 C 
BRANCH  29  30
ATOM     30  C   UNL     1      -1.525  36.598  20.686  1.00  0.00    -0.000 C 
BRANCH  30  31
ATOM     31  C   UNL     1      -2.612  35.804  21.421  1.00  0.00    -0.003 C 
ATOM     32  C   UNL     1      -2.511  34.313  21.114  1.00  0.00     0.004 C 
ENDBRANCH  30  31
ENDBRANCH  29  30
ENDBRANCH  28  29
ENDBRANCH  27  28
ENDBRANCH  26  27
ENDBRANCH  25  26
ENDBRANCH  24  25
ENDBRANCH  23  24
ENDBRANCH  22  23
ENDBRANCH  21  22
ENDBRANCH  20  21
ENDBRANCH  19  20
ENDBRANCH  18  19
ENDBRANCH   1  18
TORSDOF 28
ENDMDL
