MODEL 1
REMARK VINA RESULT:    -4.071      0.000      0.000
REMARK INTER + INTRA:          -4.968
REMARK INTER:                  -4.667
REMARK INTRA:                  -0.301
REMARK UNBOUND:                -0.301
REMARK SMILES O=C1C[C@@H](c2ccc(O)cc2)Oc2cc(O)cc(O)c21
REMARK SMILES IDX 3 1 4 2 12 3 13 4 14 5 15 6 17 7 18 8 20 9 2 10 1 11 5 12
REMARK SMILES IDX 6 13 11 14 7 15 10 16 8 17 9 18 19 20 16 22
REMARK H PARENT 9 19 19 21 16 23
REMARK Flexibility Score: inf
ROOT
ATOM      1  C   UNL     1      -7.384 -22.813  19.758  1.00  0.00     0.131 C 
ATOM      2  C   UNL     1      -8.892 -23.060  19.878  1.00  0.00     0.211 C 
ATOM      3  O   UNL     1      -9.610 -22.081  19.128  1.00  0.00    -0.484 OA
ATOM      4  C   UNL     1      -9.230 -21.721  17.831  1.00  0.00     0.138 A 
ATOM      5  C   UNL     1     -10.134 -21.014  17.036  1.00  0.00     0.093 A 
ATOM      6  C   UNL     1      -9.798 -20.662  15.731  1.00  0.00     0.123 A 
ATOM      7  C   UNL     1      -8.555 -21.034  15.210  1.00  0.00     0.093 A 
ATOM      8  C   UNL     1      -7.635 -21.751  15.986  1.00  0.00     0.133 A 
ATOM      9  C   UNL     1      -7.950 -22.061  17.339  1.00  0.00     0.102 A 
ATOM     10  C   UNL     1      -6.988 -22.652  18.316  1.00  0.00     0.174 C 
ATOM     11  O   UNL     1      -5.801 -22.925  17.995  1.00  0.00    -0.294 OA
ENDROOT
BRANCH   2  12
ATOM     12  C   UNL     1      -9.328 -23.031  21.323  1.00  0.00    -0.007 A 
ATOM     13  C   UNL     1     -10.694 -23.004  21.650  1.00  0.00     0.011 A 
ATOM     14  C   UNL     1      -8.377 -23.089  22.358  1.00  0.00     0.011 A 
ATOM     15  C   UNL     1     -11.101 -23.009  22.986  1.00  0.00     0.046 A 
ATOM     16  C   UNL     1      -8.788 -23.093  23.695  1.00  0.00     0.046 A 
ATOM     17  C   UNL     1     -10.152 -23.052  24.012  1.00  0.00     0.115 A 
BRANCH  17  18
ATOM     18  O   UNL     1     -10.572 -23.055  25.339  1.00  0.00    -0.508 OA
ATOM     19  H   UNL     1     -11.130 -23.812  25.717  1.00  0.00     0.293 HD
ENDBRANCH  17  18
ENDBRANCH   2  12
BRANCH   8  20
ATOM     20  O   UNL     1      -6.446 -22.135  15.360  1.00  0.00    -0.507 OA
ATOM     21  H   UNL     1      -5.846 -21.512  14.842  1.00  0.00     0.293 HD
ENDBRANCH   8  20
BRANCH   6  22
ATOM     22  O   UNL     1     -10.710 -19.951  14.954  1.00  0.00    -0.508 OA
ATOM     23  H   UNL     1     -11.710 -20.066  15.072  1.00  0.00     0.293 HD
ENDBRANCH   6  22
TORSDOF 4
ENDMDL
MODEL 2
REMARK VINA RESULT:    -4.054      1.422      3.072
REMARK INTER + INTRA:          -4.948
REMARK INTER:                  -4.646
REMARK INTRA:                  -0.302
REMARK UNBOUND:                -0.301
REMARK SMILES O=C1C[C@@H](c2ccc(O)cc2)Oc2cc(O)cc(O)c21
REMARK SMILES IDX 3 1 4 2 12 3 13 4 14 5 15 6 17 7 18 8 20 9 2 10 1 11 5 12
REMARK SMILES IDX 6 13 11 14 7 15 10 16 8 17 9 18 19 20 16 22
REMARK H PARENT 9 19 19 21 16 23
REMARK Flexibility Score: inf
ROOT
ATOM      1  C   UNL     1     -10.768 -21.111  18.730  1.00  0.00     0.131 C 
ATOM      2  C   UNL     1      -9.598 -21.006  19.715  1.00  0.00     0.211 C 
ATOM      3  O   UNL     1      -8.514 -21.823  19.278  1.00  0.00    -0.484 OA
ATOM      4  C   UNL     1      -8.090 -21.834  17.945  1.00  0.00     0.138 A 
ATOM      5  C   UNL     1      -6.846 -22.391  17.639  1.00  0.00     0.093 A 
ATOM      6  C   UNL     1      -6.381 -22.395  16.326  1.00  0.00     0.123 A 
ATOM      7  C   UNL     1      -7.157 -21.824  15.314  1.00  0.00     0.093 A 
ATOM      8  C   UNL     1      -8.404 -21.252  15.597  1.00  0.00     0.133 A 
ATOM      9  C   UNL     1      -8.910 -21.298  16.927  1.00  0.00     0.102 A 
ATOM     10  C   UNL     1     -10.293 -20.893  17.320  1.00  0.00     0.174 C 
ATOM     11  O   UNL     1     -11.124 -20.470  16.474  1.00  0.00    -0.294 OA
ENDROOT
BRANCH   2  12
ATOM     12  C   UNL     1     -10.029 -21.410  21.104  1.00  0.00    -0.007 A 
ATOM     13  C   UNL     1      -9.714 -22.688  21.598  1.00  0.00     0.011 A 
ATOM     14  C   UNL     1     -10.697 -20.498  21.941  1.00  0.00     0.011 A 
ATOM     15  C   UNL     1     -10.084 -23.055  22.895  1.00  0.00     0.046 A 
ATOM     16  C   UNL     1     -11.066 -20.868  23.237  1.00  0.00     0.046 A 
ATOM     17  C   UNL     1     -10.761 -22.149  23.717  1.00  0.00     0.115 A 
BRANCH  17  18
ATOM     18  O   UNL     1     -11.124 -22.529  25.007  1.00  0.00    -0.508 OA
ATOM     19  H   UNL     1     -10.473 -22.467  25.780  1.00  0.00     0.293 HD
ENDBRANCH  17  18
ENDBRANCH   2  12
BRANCH   8  20
ATOM     20  O   UNL     1      -9.078 -20.647  14.533  1.00  0.00    -0.507 OA
ATOM     21  H   UNL     1      -9.307 -21.108  13.667  1.00  0.00     0.293 HD
ENDBRANCH   8  20
BRANCH   6  22
ATOM     22  O   UNL     1      -5.141 -22.960  16.037  1.00  0.00    -0.508 OA
ATOM     23  H   UNL     1      -5.012 -23.581  15.246  1.00  0.00     0.293 HD
ENDBRANCH   6  22
TORSDOF 4
ENDMDL
MODEL 3
REMARK VINA RESULT:    -2.591     14.315     17.762
REMARK INTER + INTRA:          -3.271
REMARK INTER:                  -2.962
REMARK INTRA:                  -0.309
REMARK UNBOUND:                -0.301
REMARK SMILES O=C1C[C@@H](c2ccc(O)cc2)Oc2cc(O)cc(O)c21
REMARK SMILES IDX 3 1 4 2 12 3 13 4 14 5 15 6 17 7 18 8 20 9 2 10 1 11 5 12
REMARK SMILES IDX 6 13 11 14 7 15 10 16 8 17 9 18 19 20 16 22
REMARK H PARENT 9 19 19 21 16 23
REMARK Flexibility Score: inf
ROOT
ATOM      1  C   UNL     1       8.003 -22.426  13.580  1.00  0.00     0.131 C 
ATOM      2  C   UNL     1       6.981 -21.925  12.555  1.00  0.00     0.211 C 
ATOM      3  O   UNL     1       5.700 -22.495  12.821  1.00  0.00    -0.484 OA
ATOM      4  C   UNL     1       5.173 -22.552  14.116  1.00  0.00     0.138 A 
ATOM      5  C   UNL     1       3.812 -22.816  14.278  1.00  0.00     0.093 A 
ATOM      6  C   UNL     1       3.249 -22.853  15.552  1.00  0.00     0.123 A 
ATOM      7  C   UNL     1       4.050 -22.609  16.671  1.00  0.00     0.093 A 
ATOM      8  C   UNL     1       5.416 -22.333  16.533  1.00  0.00     0.133 A 
ATOM      9  C   UNL     1       6.008 -22.352  15.238  1.00  0.00     0.102 A 
ATOM     10  C   UNL     1       7.475 -22.259  14.979  1.00  0.00     0.174 C 
ATOM     11  O   UNL     1       8.308 -22.151  15.917  1.00  0.00    -0.294 OA
ENDROOT
BRANCH   2  12
ATOM     12  C   UNL     1       7.419 -22.264  11.151  1.00  0.00    -0.007 A 
ATOM     13  C   UNL     1       6.505 -22.819  10.239  1.00  0.00     0.011 A 
ATOM     14  C   UNL     1       8.727 -21.977  10.720  1.00  0.00     0.011 A 
ATOM     15  C   UNL     1       6.899 -23.105   8.929  1.00  0.00     0.046 A 
ATOM     16  C   UNL     1       9.118 -22.265   9.409  1.00  0.00     0.046 A 
ATOM     17  C   UNL     1       8.205 -22.831   8.510  1.00  0.00     0.115 A 
BRANCH  17  18
ATOM     18  O   UNL     1       8.584 -23.122   7.202  1.00  0.00    -0.508 OA
ATOM     19  H   UNL     1       8.196 -23.914   6.702  1.00  0.00     0.293 HD
ENDBRANCH  17  18
ENDBRANCH   2  12
BRANCH   8  20
ATOM     20  O   UNL     1       6.122 -22.037  17.702  1.00  0.00    -0.507 OA
ATOM     21  H   UNL     1       6.192 -22.652  18.498  1.00  0.00     0.293 HD
ENDBRANCH   8  20
BRANCH   6  22
ATOM     22  O   UNL     1       1.890 -23.125  15.695  1.00  0.00    -0.508 OA
ATOM     23  H   UNL     1       1.510 -23.488  16.562  1.00  0.00     0.293 HD
ENDBRANCH   6  22
TORSDOF 4
ENDMDL
MODEL 4
REMARK VINA RESULT:    -2.360     14.728     18.305
REMARK INTER + INTRA:          -3.006
REMARK INTER:                  -2.694
REMARK INTRA:                  -0.313
REMARK UNBOUND:                -0.301
REMARK SMILES O=C1C[C@@H](c2ccc(O)cc2)Oc2cc(O)cc(O)c21
REMARK SMILES IDX 3 1 4 2 12 3 13 4 14 5 15 6 17 7 18 8 20 9 2 10 1 11 5 12
REMARK SMILES IDX 6 13 11 14 7 15 10 16 8 17 9 18 19 20 16 22
REMARK H PARENT 9 19 19 21 16 23
REMARK Flexibility Score: inf
ROOT
ATOM      1  C   UNL     1       5.433 -22.658  12.529  1.00  0.00     0.131 C 
ATOM      2  C   UNL     1       6.940 -22.942  12.508  1.00  0.00     0.211 C 
ATOM      3  O   UNL     1       7.590 -22.214  13.548  1.00  0.00    -0.484 OA
ATOM      4  C   UNL     1       7.074 -22.166  14.848  1.00  0.00     0.138 A 
ATOM      5  C   UNL     1       7.899 -21.721  15.883  1.00  0.00     0.093 A 
ATOM      6  C   UNL     1       7.425 -21.686  17.193  1.00  0.00     0.123 A 
ATOM      7  C   UNL     1       6.124 -22.113  17.472  1.00  0.00     0.093 A 
ATOM      8  C   UNL     1       5.282 -22.571  16.451  1.00  0.00     0.133 A 
ATOM      9  C   UNL     1       5.740 -22.553  15.104  1.00  0.00     0.102 A 
ATOM     10  C   UNL     1       4.881 -22.838  13.916  1.00  0.00     0.174 C 
ATOM     11  O   UNL     1       3.660 -23.123  14.034  1.00  0.00    -0.294 OA
ENDROOT
BRANCH   2  12
ATOM     12  C   UNL     1       7.535 -22.580  11.169  1.00  0.00    -0.007 A 
ATOM     13  C   UNL     1       6.996 -23.115   9.987  1.00  0.00     0.011 A 
ATOM     14  C   UNL     1       8.597 -21.661  11.082  1.00  0.00     0.011 A 
ATOM     15  C   UNL     1       7.525 -22.758   8.743  1.00  0.00     0.046 A 
ATOM     16  C   UNL     1       9.125 -21.307   9.837  1.00  0.00     0.046 A 
ATOM     17  C   UNL     1       8.590 -21.856   8.664  1.00  0.00     0.115 A 
BRANCH  17  18
ATOM     18  O   UNL     1       9.108 -21.510   7.418  1.00  0.00    -0.508 OA
ATOM     19  H   UNL     1       8.593 -21.685   6.564  1.00  0.00     0.293 HD
ENDBRANCH  17  18
ENDBRANCH   2  12
BRANCH   8  20
ATOM     20  O   UNL     1       4.022 -23.038  16.835  1.00  0.00    -0.507 OA
ATOM     21  H   UNL     1       3.741 -24.006  16.812  1.00  0.00     0.293 HD
ENDBRANCH   8  20
BRANCH   6  22
ATOM     22  O   UNL     1       8.260 -21.233  18.213  1.00  0.00    -0.508 OA
ATOM     23  H   UNL     1       8.224 -20.275  18.542  1.00  0.00     0.293 HD
ENDBRANCH   6  22
TORSDOF 4
ENDMDL
MODEL 5
REMARK VINA RESULT:    -2.019     12.123     14.556
REMARK INTER + INTRA:          -2.615
REMARK INTER:                  -2.319
REMARK INTRA:                  -0.296
REMARK UNBOUND:                -0.301
REMARK SMILES O=C1C[C@@H](c2ccc(O)cc2)Oc2cc(O)cc(O)c21
REMARK SMILES IDX 3 1 4 2 12 3 13 4 14 5 15 6 17 7 18 8 20 9 2 10 1 11 5 12
REMARK SMILES IDX 6 13 11 14 7 15 10 16 8 17 9 18 19 20 16 22
REMARK H PARENT 9 19 19 21 16 23
REMARK Flexibility Score: inf
ROOT
ATOM      1  C   UNL     1       4.767 -21.997  16.781  1.00  0.00     0.131 C 
ATOM      2  C   UNL     1       3.908 -22.859  15.849  1.00  0.00     0.211 C 
ATOM      3  O   UNL     1       4.337 -22.699  14.498  1.00  0.00    -0.484 OA
ATOM      4  C   UNL     1       5.692 -22.722  14.148  1.00  0.00     0.138 A 
ATOM      5  C   UNL     1       6.037 -22.884  12.805  1.00  0.00     0.093 A 
ATOM      6  C   UNL     1       7.377 -22.937  12.425  1.00  0.00     0.123 A 
ATOM      7  C   UNL     1       8.378 -22.845  13.396  1.00  0.00     0.093 A 
ATOM      8  C   UNL     1       8.055 -22.690  14.751  1.00  0.00     0.133 A 
ATOM      9  C   UNL     1       6.690 -22.576  15.138  1.00  0.00     0.102 A 
ATOM     10  C   UNL     1       6.229 -22.226  16.514  1.00  0.00     0.174 C 
ATOM     11  O   UNL     1       7.043 -22.006  17.449  1.00  0.00    -0.294 OA
ENDROOT
BRANCH   2  12
ATOM     12  C   UNL     1       2.448 -22.497  15.977  1.00  0.00    -0.007 A 
ATOM     13  C   UNL     1       1.489 -23.125  15.165  1.00  0.00     0.011 A 
ATOM     14  C   UNL     1       2.022 -21.571  16.947  1.00  0.00     0.011 A 
ATOM     15  C   UNL     1       0.133 -22.815  15.302  1.00  0.00     0.046 A 
ATOM     16  C   UNL     1       0.666 -21.261  17.081  1.00  0.00     0.046 A 
ATOM     17  C   UNL     1      -0.283 -21.883  16.257  1.00  0.00     0.115 A 
BRANCH  17  18
ATOM     18  O   UNL     1      -1.637 -21.582  16.382  1.00  0.00    -0.508 OA
ATOM     19  H   UNL     1      -1.969 -20.910  17.063  1.00  0.00     0.293 HD
ENDBRANCH  17  18
ENDBRANCH   2  12
BRANCH   8  20
ATOM     20  O   UNL     1       9.121 -22.673  15.655  1.00  0.00    -0.507 OA
ATOM     21  H   UNL     1       9.136 -23.176  16.528  1.00  0.00     0.293 HD
ENDBRANCH   8  20
BRANCH   6  22
ATOM     22  O   UNL     1       7.704 -23.092  11.079  1.00  0.00    -0.508 OA
ATOM     23  H   UNL     1       8.469 -22.579  10.657  1.00  0.00     0.293 HD
ENDBRANCH   6  22
TORSDOF 4
ENDMDL
