MODEL 1
REMARK VINA RESULT:    -4.277      0.000      0.000
REMARK INTER + INTRA:         -14.689
REMARK INTER:                 -10.778
REMARK INTRA:                  -3.911
REMARK UNBOUND:                -3.911
REMARK SMILES CCCCCCCCCCCCCCCCCCCCCCCCCCCC(=O)[O-]
REMARK SMILES IDX 15 1 16 2 17 3 18 4 19 5 20 6 21 7 22 8 23 9 24 10 25 11
REMARK SMILES IDX 26 12 27 13 28 14 29 15 30 16 14 17 13 18 12 19 11 20 10 21
REMARK SMILES IDX 9 22 8 23 7 24 6 25 5 26 4 27 3 28 2 29 1 30
REMARK H PARENT
REMARK Flexibility Score: inf
ROOT
ATOM      1  C   UNL     1       2.541  -1.364  -5.087  1.00  0.00     0.000 C 
ENDROOT
BRANCH   1   2
ATOM      2  C   UNL     1       3.010  -1.754  -3.673  1.00  0.00     0.000 C 
BRANCH   2   3
ATOM      3  C   UNL     1       4.478  -1.418  -3.354  1.00  0.00     0.000 C 
BRANCH   3   4
ATOM      4  C   UNL     1       5.282  -1.003  -4.600  1.00  0.00     0.000 C 
BRANCH   4   5
ATOM      5  C   UNL     1       6.415  -1.989  -4.928  1.00  0.00     0.000 C 
BRANCH   5   6
ATOM      6  C   UNL     1       6.025  -3.450  -4.661  1.00  0.00     0.000 C 
BRANCH   6   7
ATOM      7  C   UNL     1       7.226  -4.256  -4.143  1.00  0.00     0.000 C 
BRANCH   7   8
ATOM      8  C   UNL     1       8.164  -3.421  -3.256  1.00  0.00     0.000 C 
BRANCH   8   9
ATOM      9  C   UNL     1       8.089  -3.819  -1.771  1.00  0.00     0.000 C 
BRANCH   9  10
ATOM     10  C   UNL     1       8.410  -2.635  -0.833  1.00  0.00     0.000 C 
BRANCH  10  11
ATOM     11  C   UNL     1       7.481  -1.422  -1.027  1.00  0.00     0.000 C 
BRANCH  11  12
ATOM     12  C   UNL     1       6.398  -1.255   0.057  1.00  0.00     0.006 C 
BRANCH  12  13
ATOM     13  C   UNL     1       5.832   0.170   0.173  1.00  0.00     0.053 C 
BRANCH  13  14
ATOM     14  C   UNL     1       5.544   0.544   1.596  1.00  0.00     0.041 C 
ATOM     15  O   UNL     1       5.338  -0.351   2.457  1.00  0.00    -0.550 OA
ATOM     16  O   UNL     1       5.478   1.883   1.963  1.00  0.00    -0.550 OA
ENDBRANCH  13  14
ENDBRANCH  12  13
ENDBRANCH  11  12
ENDBRANCH  10  11
ENDBRANCH   9  10
ENDBRANCH   8   9
ENDBRANCH   7   8
ENDBRANCH   6   7
ENDBRANCH   5   6
ENDBRANCH   4   5
ENDBRANCH   3   4
ENDBRANCH   2   3
ENDBRANCH   1   2
BRANCH   1  17
ATOM     17  C   UNL     1       2.264  -2.585  -5.982  1.00  0.00     0.000 C 
BRANCH  17  18
ATOM     18  C   UNL     1       2.479  -3.918  -5.246  1.00  0.00     0.000 C 
BRANCH  18  19
ATOM     19  C   UNL     1       1.365  -4.939  -5.529  1.00  0.00     0.000 C 
BRANCH  19  20
ATOM     20  C   UNL     1       0.832  -5.549  -4.225  1.00  0.00     0.000 C 
BRANCH  20  21
ATOM     21  C   UNL     1       0.601  -4.500  -3.120  1.00  0.00     0.000 C 
BRANCH  21  22
ATOM     22  C   UNL     1       0.550  -5.056  -1.685  1.00  0.00    -0.000 C 
BRANCH  22  23
ATOM     23  C   UNL     1       1.344  -6.363  -1.521  1.00  0.00    -0.000 C 
BRANCH  23  24
ATOM     24  C   UNL     1       0.500  -7.510  -0.937  1.00  0.00    -0.000 C 
BRANCH  24  25
ATOM     25  C   UNL     1      -0.115  -8.472  -1.974  1.00  0.00    -0.000 C 
BRANCH  25  26
ATOM     26  C   UNL     1      -1.636  -8.676  -1.860  1.00  0.00    -0.000 C 
BRANCH  26  27
ATOM     27  C   UNL     1      -2.432  -7.824  -2.866  1.00  0.00    -0.000 C 
BRANCH  27  28
ATOM     28  C   UNL     1      -2.884  -6.475  -2.270  1.00  0.00    -0.000 C 
BRANCH  28  29
ATOM     29  C   UNL     1      -3.251  -5.419  -3.327  1.00  0.00    -0.003 C 
ATOM     30  C   UNL     1      -2.755  -5.769  -4.728  1.00  0.00     0.004 C 
ENDBRANCH  28  29
ENDBRANCH  27  28
ENDBRANCH  26  27
ENDBRANCH  25  26
ENDBRANCH  24  25
ENDBRANCH  23  24
ENDBRANCH  22  23
ENDBRANCH  21  22
ENDBRANCH  20  21
ENDBRANCH  19  20
ENDBRANCH  18  19
ENDBRANCH  17  18
ENDBRANCH   1  17
TORSDOF 26
ENDMDL
MODEL 2
REMARK VINA RESULT:    -4.192      1.699      3.263
REMARK INTER + INTRA:         -14.475
REMARK INTER:                 -10.186
REMARK INTRA:                  -4.289
REMARK UNBOUND:                -3.911
REMARK SMILES CCCCCCCCCCCCCCCCCCCCCCCCCCCC(=O)[O-]
REMARK SMILES IDX 15 1 16 2 17 3 18 4 19 5 20 6 21 7 22 8 23 9 24 10 25 11
REMARK SMILES IDX 26 12 27 13 28 14 29 15 30 16 14 17 13 18 12 19 11 20 10 21
REMARK SMILES IDX 9 22 8 23 7 24 6 25 5 26 4 27 3 28 2 29 1 30
REMARK H PARENT
REMARK Flexibility Score: inf
ROOT
ATOM      1  C   UNL     1       2.996  -1.867  -3.787  1.00  0.00     0.000 C 
ENDROOT
BRANCH   1   2
ATOM      2  C   UNL     1       4.435  -1.480  -3.400  1.00  0.00     0.000 C 
BRANCH   2   3
ATOM      3  C   UNL     1       5.540  -2.335  -4.047  1.00  0.00     0.000 C 
BRANCH   3   4
ATOM      4  C   UNL     1       6.606  -1.491  -4.767  1.00  0.00     0.000 C 
BRANCH   4   5
ATOM      5  C   UNL     1       6.535  -0.001  -4.393  1.00  0.00     0.000 C 
BRANCH   5   6
ATOM      6  C   UNL     1       7.682   0.432  -3.467  1.00  0.00     0.000 C 
BRANCH   6   7
ATOM      7  C   UNL     1       8.814  -0.605  -3.470  1.00  0.00     0.000 C 
BRANCH   7   8
ATOM      8  C   UNL     1       9.220  -1.047  -2.054  1.00  0.00     0.000 C 
BRANCH   8   9
ATOM      9  C   UNL     1       8.868  -2.518  -1.766  1.00  0.00     0.000 C 
BRANCH   9  10
ATOM     10  C   UNL     1       7.453  -2.673  -1.169  1.00  0.00     0.000 C 
BRANCH  10  11
ATOM     11  C   UNL     1       7.156  -1.694  -0.017  1.00  0.00     0.000 C 
BRANCH  11  12
ATOM     12  C   UNL     1       5.934  -0.782  -0.242  1.00  0.00     0.006 C 
BRANCH  12  13
ATOM     13  C   UNL     1       6.078   0.628   0.356  1.00  0.00     0.053 C 
BRANCH  13  14
ATOM     14  C   UNL     1       5.792   0.644   1.827  1.00  0.00     0.041 C 
ATOM     15  O   UNL     1       5.203  -0.327   2.369  1.00  0.00    -0.550 OA
ATOM     16  O   UNL     1       6.156   1.745   2.593  1.00  0.00    -0.550 OA
ENDBRANCH  13  14
ENDBRANCH  12  13
ENDBRANCH  11  12
ENDBRANCH  10  11
ENDBRANCH   9  10
ENDBRANCH   8   9
ENDBRANCH   7   8
ENDBRANCH   6   7
ENDBRANCH   5   6
ENDBRANCH   4   5
ENDBRANCH   3   4
ENDBRANCH   2   3
ENDBRANCH   1   2
BRANCH   1  17
ATOM     17  C   UNL     1       2.536  -1.214  -5.102  1.00  0.00     0.000 C 
BRANCH  17  18
ATOM     18  C   UNL     1       2.261  -2.246  -6.210  1.00  0.00     0.000 C 
BRANCH  18  19
ATOM     19  C   UNL     1       3.527  -2.628  -6.994  1.00  0.00     0.000 C 
BRANCH  19  20
ATOM     20  C   UNL     1       3.606  -4.147  -7.205  1.00  0.00     0.000 C 
BRANCH  20  21
ATOM     21  C   UNL     1       4.099  -4.904  -5.958  1.00  0.00     0.000 C 
BRANCH  21  22
ATOM     22  C   UNL     1       3.623  -6.364  -5.844  1.00  0.00    -0.000 C 
BRANCH  22  23
ATOM     23  C   UNL     1       2.864  -6.646  -4.536  1.00  0.00    -0.000 C 
BRANCH  23  24
ATOM     24  C   UNL     1       1.344  -6.439  -4.668  1.00  0.00    -0.000 C 
BRANCH  24  25
ATOM     25  C   UNL     1       0.851  -4.996  -4.437  1.00  0.00    -0.000 C 
BRANCH  25  26
ATOM     26  C   UNL     1       0.689  -4.585  -2.964  1.00  0.00    -0.000 C 
BRANCH  26  27
ATOM     27  C   UNL     1       0.151  -5.725  -2.079  1.00  0.00    -0.000 C 
BRANCH  27  28
ATOM     28  C   UNL     1       1.135  -6.116  -0.957  1.00  0.00    -0.000 C 
BRANCH  28  29
ATOM     29  C   UNL     1       1.757  -7.512  -1.132  1.00  0.00    -0.003 C 
ATOM     30  C   UNL     1       0.796  -8.648  -0.789  1.00  0.00     0.004 C 
ENDBRANCH  28  29
ENDBRANCH  27  28
ENDBRANCH  26  27
ENDBRANCH  25  26
ENDBRANCH  24  25
ENDBRANCH  23  24
ENDBRANCH  22  23
ENDBRANCH  21  22
ENDBRANCH  20  21
ENDBRANCH  19  20
ENDBRANCH  18  19
ENDBRANCH  17  18
ENDBRANCH   1  17
TORSDOF 26
ENDMDL
MODEL 3
REMARK VINA RESULT:    -4.115      2.377      5.430
REMARK INTER + INTRA:         -14.281
REMARK INTER:                 -10.891
REMARK INTRA:                  -3.391
REMARK UNBOUND:                -3.911
REMARK SMILES CCCCCCCCCCCCCCCCCCCCCCCCCCCC(=O)[O-]
REMARK SMILES IDX 15 1 16 2 17 3 18 4 19 5 20 6 21 7 22 8 23 9 24 10 25 11
REMARK SMILES IDX 26 12 27 13 28 14 29 15 30 16 14 17 13 18 12 19 11 20 10 21
REMARK SMILES IDX 9 22 8 23 7 24 6 25 5 26 4 27 3 28 2 29 1 30
REMARK H PARENT
REMARK Flexibility Score: inf
ROOT
ATOM      1  C   UNL     1       6.629   0.228  -2.204  1.00  0.00     0.000 C 
ENDROOT
BRANCH   1   2
ATOM      2  C   UNL     1       5.583  -0.232  -1.172  1.00  0.00     0.000 C 
BRANCH   2   3
ATOM      3  C   UNL     1       6.154  -0.671   0.189  1.00  0.00     0.000 C 
BRANCH   3   4
ATOM      4  C   UNL     1       7.648  -1.038   0.121  1.00  0.00     0.000 C 
BRANCH   4   5
ATOM      5  C   UNL     1       8.498  -0.252   1.133  1.00  0.00     0.000 C 
BRANCH   5   6
ATOM      6  C   UNL     1       7.655   0.368   2.258  1.00  0.00     0.000 C 
BRANCH   6   7
ATOM      7  C   UNL     1       8.212   1.738   2.672  1.00  0.00     0.000 C 
BRANCH   7   8
ATOM      8  C   UNL     1       8.830   2.510   1.495  1.00  0.00     0.000 C 
BRANCH   8   9
ATOM      9  C   UNL     1       7.924   3.645   0.986  1.00  0.00     0.000 C 
BRANCH   9  10
ATOM     10  C   UNL     1       7.169   3.256  -0.303  1.00  0.00     0.000 C 
BRANCH  10  11
ATOM     11  C   UNL     1       5.636   3.307  -0.163  1.00  0.00     0.000 C 
BRANCH  11  12
ATOM     12  C   UNL     1       5.096   2.874   1.213  1.00  0.00     0.006 C 
BRANCH  12  13
ATOM     13  C   UNL     1       4.476   4.015   2.038  1.00  0.00     0.053 C 
BRANCH  13  14
ATOM     14  C   UNL     1       2.982   3.916   2.095  1.00  0.00     0.041 C 
ATOM     15  O   UNL     1       2.292   4.131   1.064  1.00  0.00    -0.550 OA
ATOM     16  O   UNL     1       2.351   3.610   3.295  1.00  0.00    -0.550 OA
ENDBRANCH  13  14
ENDBRANCH  12  13
ENDBRANCH  11  12
ENDBRANCH  10  11
ENDBRANCH   9  10
ENDBRANCH   8   9
ENDBRANCH   7   8
ENDBRANCH   6   7
ENDBRANCH   5   6
ENDBRANCH   4   5
ENDBRANCH   3   4
ENDBRANCH   2   3
ENDBRANCH   1   2
BRANCH   1  17
ATOM     17  C   UNL     1       6.385  -0.362  -3.603  1.00  0.00     0.000 C 
BRANCH  17  18
ATOM     18  C   UNL     1       6.236  -1.893  -3.582  1.00  0.00     0.000 C 
BRANCH  18  19
ATOM     19  C   UNL     1       4.943  -2.374  -4.260  1.00  0.00     0.000 C 
BRANCH  19  20
ATOM     20  C   UNL     1       4.206  -1.206  -4.931  1.00  0.00     0.000 C 
BRANCH  20  21
ATOM     21  C   UNL     1       2.674  -1.368  -4.905  1.00  0.00     0.000 C 
BRANCH  21  22
ATOM     22  C   UNL     1       2.150  -2.543  -4.059  1.00  0.00    -0.000 C 
BRANCH  22  23
ATOM     23  C   UNL     1       1.733  -3.755  -4.911  1.00  0.00    -0.000 C 
BRANCH  23  24
ATOM     24  C   UNL     1       1.584  -5.046  -4.086  1.00  0.00    -0.000 C 
BRANCH  24  25
ATOM     25  C   UNL     1       0.354  -5.100  -3.158  1.00  0.00    -0.000 C 
BRANCH  25  26
ATOM     26  C   UNL     1       0.647  -4.879  -1.664  1.00  0.00    -0.000 C 
BRANCH  26  27
ATOM     27  C   UNL     1       1.076  -6.169  -0.941  1.00  0.00    -0.000 C 
BRANCH  27  28
ATOM     28  C   UNL     1       0.397  -7.426  -1.522  1.00  0.00    -0.000 C 
BRANCH  28  29
ATOM     29  C   UNL     1       1.344  -8.627  -1.686  1.00  0.00    -0.003 C 
ATOM     30  C   UNL     1       2.618  -8.508  -0.853  1.00  0.00     0.004 C 
ENDBRANCH  28  29
ENDBRANCH  27  28
ENDBRANCH  26  27
ENDBRANCH  25  26
ENDBRANCH  24  25
ENDBRANCH  23  24
ENDBRANCH  22  23
ENDBRANCH  21  22
ENDBRANCH  20  21
ENDBRANCH  19  20
ENDBRANCH  18  19
ENDBRANCH  17  18
ENDBRANCH   1  17
TORSDOF 26
ENDMDL
MODEL 4
REMARK VINA RESULT:    -4.115      1.379      2.082
REMARK INTER + INTRA:         -14.280
REMARK INTER:                 -10.671
REMARK INTRA:                  -3.609
REMARK UNBOUND:                -3.911
REMARK SMILES CCCCCCCCCCCCCCCCCCCCCCCCCCCC(=O)[O-]
REMARK SMILES IDX 15 1 16 2 17 3 18 4 19 5 20 6 21 7 22 8 23 9 24 10 25 11
REMARK SMILES IDX 26 12 27 13 28 14 29 15 30 16 14 17 13 18 12 19 11 20 10 21
REMARK SMILES IDX 9 22 8 23 7 24 6 25 5 26 4 27 3 28 2 29 1 30
REMARK H PARENT
REMARK Flexibility Score: inf
ROOT
ATOM      1  C   UNL     1       2.550  -1.675  -4.198  1.00  0.00     0.000 C 
ENDROOT
BRANCH   1   2
ATOM      2  C   UNL     1       4.013  -1.469  -3.764  1.00  0.00     0.000 C 
BRANCH   2   3
ATOM      3  C   UNL     1       4.951  -0.926  -4.858  1.00  0.00     0.000 C 
BRANCH   3   4
ATOM      4  C   UNL     1       5.657  -2.042  -5.648  1.00  0.00     0.000 C 
BRANCH   4   5
ATOM      5  C   UNL     1       6.856  -2.637  -4.892  1.00  0.00     0.000 C 
BRANCH   5   6
ATOM      6  C   UNL     1       6.659  -4.120  -4.542  1.00  0.00     0.000 C 
BRANCH   6   7
ATOM      7  C   UNL     1       7.718  -4.594  -3.536  1.00  0.00     0.000 C 
BRANCH   7   8
ATOM      8  C   UNL     1       8.249  -3.456  -2.649  1.00  0.00     0.000 C 
BRANCH   8   9
ATOM      9  C   UNL     1       7.916  -3.657  -1.160  1.00  0.00     0.000 C 
BRANCH   9  10
ATOM     10  C   UNL     1       7.501  -2.338  -0.473  1.00  0.00     0.000 C 
BRANCH  10  11
ATOM     11  C   UNL     1       6.560  -1.464  -1.324  1.00  0.00     0.000 C 
BRANCH  11  12
ATOM     12  C   UNL     1       5.703  -0.465  -0.523  1.00  0.00     0.006 C 
BRANCH  12  13
ATOM     13  C   UNL     1       6.515   0.519   0.336  1.00  0.00     0.053 C 
BRANCH  13  14
ATOM     14  C   UNL     1       6.423   0.195   1.797  1.00  0.00     0.041 C 
ATOM     15  O   UNL     1       7.452   0.231   2.520  1.00  0.00    -0.550 OA
ATOM     16  O   UNL     1       5.202  -0.170   2.352  1.00  0.00    -0.550 OA
ENDBRANCH  13  14
ENDBRANCH  12  13
ENDBRANCH  11  12
ENDBRANCH  10  11
ENDBRANCH   9  10
ENDBRANCH   8   9
ENDBRANCH   7   8
ENDBRANCH   6   7
ENDBRANCH   5   6
ENDBRANCH   4   5
ENDBRANCH   3   4
ENDBRANCH   2   3
ENDBRANCH   1   2
BRANCH   1  17
ATOM     17  C   UNL     1       2.193  -3.157  -4.405  1.00  0.00     0.000 C 
BRANCH  17  18
ATOM     18  C   UNL     1       2.183  -3.561  -5.889  1.00  0.00     0.000 C 
BRANCH  18  19
ATOM     19  C   UNL     1       2.861  -4.918  -6.141  1.00  0.00     0.000 C 
BRANCH  19  20
ATOM     20  C   UNL     1       3.312  -5.561  -4.821  1.00  0.00     0.000 C 
BRANCH  20  21
ATOM     21  C   UNL     1       3.615  -7.065  -4.957  1.00  0.00     0.000 C 
BRANCH  21  22
ATOM     22  C   UNL     1       3.496  -7.880  -3.656  1.00  0.00    -0.000 C 
BRANCH  22  23
ATOM     23  C   UNL     1       2.058  -7.936  -3.114  1.00  0.00    -0.000 C 
BRANCH  23  24
ATOM     24  C   UNL     1       1.972  -7.637  -1.606  1.00  0.00    -0.000 C 
BRANCH  24  25
ATOM     25  C   UNL     1       0.832  -6.687  -1.185  1.00  0.00    -0.000 C 
BRANCH  25  26
ATOM     26  C   UNL     1       0.754  -5.366  -1.969  1.00  0.00    -0.000 C 
BRANCH  26  27
ATOM     27  C   UNL     1      -0.314  -5.389  -3.077  1.00  0.00    -0.000 C 
BRANCH  27  28
ATOM     28  C   UNL     1      -1.701  -4.941  -2.570  1.00  0.00    -0.000 C 
BRANCH  28  29
ATOM     29  C   UNL     1      -2.846  -5.887  -2.969  1.00  0.00    -0.003 C 
ATOM     30  C   UNL     1      -3.071  -7.017  -1.966  1.00  0.00     0.004 C 
ENDBRANCH  28  29
ENDBRANCH  27  28
ENDBRANCH  26  27
ENDBRANCH  25  26
ENDBRANCH  24  25
ENDBRANCH  23  24
ENDBRANCH  22  23
ENDBRANCH  21  22
ENDBRANCH  20  21
ENDBRANCH  19  20
ENDBRANCH  18  19
ENDBRANCH  17  18
ENDBRANCH   1  17
TORSDOF 26
ENDMDL
MODEL 5
REMARK VINA RESULT:    -4.035      2.075      5.057
REMARK INTER + INTRA:         -14.080
REMARK INTER:                 -10.698
REMARK INTRA:                  -3.382
REMARK UNBOUND:                -3.911
REMARK SMILES CCCCCCCCCCCCCCCCCCCCCCCCCCCC(=O)[O-]
REMARK SMILES IDX 15 1 16 2 17 3 18 4 19 5 20 6 21 7 22 8 23 9 24 10 25 11
REMARK SMILES IDX 26 12 27 13 28 14 29 15 30 16 14 17 13 18 12 19 11 20 10 21
REMARK SMILES IDX 9 22 8 23 7 24 6 25 5 26 4 27 3 28 2 29 1 30
REMARK H PARENT
REMARK Flexibility Score: inf
ROOT
ATOM      1  C   UNL     1       6.401   0.336  -2.210  1.00  0.00     0.000 C 
ENDROOT
BRANCH   1   2
ATOM      2  C   UNL     1       5.600  -0.513  -1.205  1.00  0.00     0.000 C 
BRANCH   2   3
ATOM      3  C   UNL     1       6.430  -1.149  -0.076  1.00  0.00     0.000 C 
BRANCH   3   4
ATOM      4  C   UNL     1       7.318  -2.307  -0.565  1.00  0.00     0.000 C 
BRANCH   4   5
ATOM      5  C   UNL     1       8.819  -2.009  -0.413  1.00  0.00     0.000 C 
BRANCH   5   6
ATOM      6  C   UNL     1       9.088  -0.610   0.164  1.00  0.00     0.000 C 
BRANCH   6   7
ATOM      7  C   UNL     1       9.913  -0.696   1.456  1.00  0.00     0.000 C 
BRANCH   7   8
ATOM      8  C   UNL     1       9.619   0.458   2.428  1.00  0.00     0.000 C 
BRANCH   8   9
ATOM      9  C   UNL     1       8.533   0.104   3.460  1.00  0.00     0.000 C 
BRANCH   9  10
ATOM     10  C   UNL     1       7.160   0.705   3.091  1.00  0.00     0.000 C 
BRANCH  10  11
ATOM     11  C   UNL     1       7.228   2.178   2.645  1.00  0.00     0.000 C 
BRANCH  11  12
ATOM     12  C   UNL     1       6.682   2.451   1.230  1.00  0.00     0.006 C 
BRANCH  12  13
ATOM     13  C   UNL     1       5.165   2.247   1.086  1.00  0.00     0.053 C 
BRANCH  13  14
ATOM     14  C   UNL     1       4.393   3.455   1.521  1.00  0.00     0.041 C 
ATOM     15  O   UNL     1       4.098   3.616   2.734  1.00  0.00    -0.550 OA
ATOM     16  O   UNL     1       3.980   4.392   0.581  1.00  0.00    -0.550 OA
ENDBRANCH  13  14
ENDBRANCH  12  13
ENDBRANCH  11  12
ENDBRANCH  10  11
ENDBRANCH   9  10
ENDBRANCH   8   9
ENDBRANCH   7   8
ENDBRANCH   6   7
ENDBRANCH   5   6
ENDBRANCH   4   5
ENDBRANCH   3   4
ENDBRANCH   2   3
ENDBRANCH   1   2
BRANCH   1  17
ATOM     17  C   UNL     1       6.635  -0.386  -3.548  1.00  0.00     0.000 C 
BRANCH  17  18
ATOM     18  C   UNL     1       5.557  -1.442  -3.846  1.00  0.00     0.000 C 
BRANCH  18  19
ATOM     19  C   UNL     1       4.513  -0.955  -4.865  1.00  0.00     0.000 C 
BRANCH  19  20
ATOM     20  C   UNL     1       3.099  -1.391  -4.456  1.00  0.00     0.000 C 
BRANCH  20  21
ATOM     21  C   UNL     1       2.225  -1.802  -5.656  1.00  0.00     0.000 C 
BRANCH  21  22
ATOM     22  C   UNL     1       2.909  -2.724  -6.683  1.00  0.00    -0.000 C 
BRANCH  22  23
ATOM     23  C   UNL     1       1.940  -3.738  -7.315  1.00  0.00    -0.000 C 
BRANCH  23  24
ATOM     24  C   UNL     1       2.004  -5.125  -6.649  1.00  0.00    -0.000 C 
BRANCH  24  25
ATOM     25  C   UNL     1       1.099  -5.307  -5.414  1.00  0.00    -0.000 C 
BRANCH  25  26
ATOM     26  C   UNL     1       1.766  -5.005  -4.061  1.00  0.00    -0.000 C 
BRANCH  26  27
ATOM     27  C   UNL     1       0.850  -4.223  -3.102  1.00  0.00    -0.000 C 
BRANCH  27  28
ATOM     28  C   UNL     1       0.667  -4.936  -1.746  1.00  0.00    -0.000 C 
BRANCH  28  29
ATOM     29  C   UNL     1       1.192  -6.382  -1.726  1.00  0.00    -0.003 C 
ATOM     30  C   UNL     1       0.090  -7.421  -1.531  1.00  0.00     0.004 C 
ENDBRANCH  28  29
ENDBRANCH  27  28
ENDBRANCH  26  27
ENDBRANCH  25  26
ENDBRANCH  24  25
ENDBRANCH  23  24
ENDBRANCH  22  23
ENDBRANCH  21  22
ENDBRANCH  20  21
ENDBRANCH  19  20
ENDBRANCH  18  19
ENDBRANCH  17  18
ENDBRANCH   1  17
TORSDOF 26
ENDMDL
MODEL 6
REMARK VINA RESULT:    -4.018      1.986      4.064
REMARK INTER + INTRA:         -14.037
REMARK INTER:                 -10.317
REMARK INTRA:                  -3.720
REMARK UNBOUND:                -3.911
REMARK SMILES CCCCCCCCCCCCCCCCCCCCCCCCCCCC(=O)[O-]
REMARK SMILES IDX 15 1 16 2 17 3 18 4 19 5 20 6 21 7 22 8 23 9 24 10 25 11
REMARK SMILES IDX 26 12 27 13 28 14 29 15 30 16 14 17 13 18 12 19 11 20 10 21
REMARK SMILES IDX 9 22 8 23 7 24 6 25 5 26 4 27 3 28 2 29 1 30
REMARK H PARENT
REMARK Flexibility Score: inf
ROOT
ATOM      1  C   UNL     1       5.941  -1.498  -2.831  1.00  0.00     0.000 C 
ENDROOT
BRANCH   1   2
ATOM      2  C   UNL     1       5.529  -0.746  -1.552  1.00  0.00     0.000 C 
BRANCH   2   3
ATOM      3  C   UNL     1       6.366  -1.073  -0.302  1.00  0.00     0.000 C 
BRANCH   3   4
ATOM      4  C   UNL     1       7.342  -2.242  -0.524  1.00  0.00     0.000 C 
BRANCH   4   5
ATOM      5  C   UNL     1       8.813  -1.795  -0.520  1.00  0.00     0.000 C 
BRANCH   5   6
ATOM      6  C   UNL     1       8.998  -0.373   0.030  1.00  0.00     0.000 C 
BRANCH   6   7
ATOM      7  C   UNL     1       9.810   0.494  -0.944  1.00  0.00     0.000 C 
BRANCH   7   8
ATOM      8  C   UNL     1       9.336   0.357  -2.400  1.00  0.00     0.000 C 
BRANCH   8   9
ATOM      9  C   UNL     1       8.245   1.377  -2.769  1.00  0.00     0.000 C 
BRANCH   9  10
ATOM     10  C   UNL     1       8.519   2.770  -2.162  1.00  0.00     0.000 C 
BRANCH  10  11
ATOM     11  C   UNL     1       7.258   3.466  -1.615  1.00  0.00     0.000 C 
BRANCH  11  12
ATOM     12  C   UNL     1       6.454   2.640  -0.592  1.00  0.00     0.006 C 
BRANCH  12  13
ATOM     13  C   UNL     1       6.088   3.403   0.691  1.00  0.00     0.053 C 
BRANCH  13  14
ATOM     14  C   UNL     1       5.102   2.648   1.530  1.00  0.00     0.041 C 
ATOM     15  O   UNL     1       4.004   3.176   1.847  1.00  0.00    -0.550 OA
ATOM     16  O   UNL     1       5.408   1.369   1.980  1.00  0.00    -0.550 OA
ENDBRANCH  13  14
ENDBRANCH  12  13
ENDBRANCH  11  12
ENDBRANCH  10  11
ENDBRANCH   9  10
ENDBRANCH   8   9
ENDBRANCH   7   8
ENDBRANCH   6   7
ENDBRANCH   5   6
ENDBRANCH   4   5
ENDBRANCH   3   4
ENDBRANCH   2   3
ENDBRANCH   1   2
BRANCH   1  17
ATOM     17  C   UNL     1       4.988  -1.236  -4.010  1.00  0.00     0.000 C 
BRANCH  17  18
ATOM     18  C   UNL     1       3.527  -1.581  -3.676  1.00  0.00     0.000 C 
BRANCH  18  19
ATOM     19  C   UNL     1       2.570  -1.314  -4.850  1.00  0.00     0.000 C 
BRANCH  19  20
ATOM     20  C   UNL     1       2.256  -2.611  -5.610  1.00  0.00     0.000 C 
BRANCH  20  21
ATOM     21  C   UNL     1       2.436  -3.874  -4.746  1.00  0.00     0.000 C 
BRANCH  21  22
ATOM     22  C   UNL     1       1.130  -4.537  -4.270  1.00  0.00    -0.000 C 
BRANCH  22  23
ATOM     23  C   UNL     1       0.774  -4.182  -2.816  1.00  0.00    -0.000 C 
BRANCH  23  24
ATOM     24  C   UNL     1      -0.693  -4.486  -2.466  1.00  0.00    -0.000 C 
BRANCH  24  25
ATOM     25  C   UNL     1      -1.342  -5.630  -3.271  1.00  0.00    -0.000 C 
BRANCH  25  26
ATOM     26  C   UNL     1      -1.971  -6.753  -2.427  1.00  0.00    -0.000 C 
BRANCH  26  27
ATOM     27  C   UNL     1      -0.944  -7.801  -1.963  1.00  0.00    -0.000 C 
BRANCH  27  28
ATOM     28  C   UNL     1       0.241  -7.941  -2.941  1.00  0.00    -0.000 C 
BRANCH  28  29
ATOM     29  C   UNL     1       1.617  -7.979  -2.253  1.00  0.00    -0.003 C 
ATOM     30  C   UNL     1       1.675  -7.143  -0.976  1.00  0.00     0.004 C 
ENDBRANCH  28  29
ENDBRANCH  27  28
ENDBRANCH  26  27
ENDBRANCH  25  26
ENDBRANCH  24  25
ENDBRANCH  23  24
ENDBRANCH  22  23
ENDBRANCH  21  22
ENDBRANCH  20  21
ENDBRANCH  19  20
ENDBRANCH  18  19
ENDBRANCH  17  18
ENDBRANCH   1  17
TORSDOF 26
ENDMDL
MODEL 7
REMARK VINA RESULT:    -4.014      2.592      5.562
REMARK INTER + INTRA:         -14.025
REMARK INTER:                 -10.835
REMARK INTRA:                  -3.190
REMARK UNBOUND:                -3.911
REMARK SMILES CCCCCCCCCCCCCCCCCCCCCCCCCCCC(=O)[O-]
REMARK SMILES IDX 15 1 16 2 17 3 18 4 19 5 20 6 21 7 22 8 23 9 24 10 25 11
REMARK SMILES IDX 26 12 27 13 28 14 29 15 30 16 14 17 13 18 12 19 11 20 10 21
REMARK SMILES IDX 9 22 8 23 7 24 6 25 5 26 4 27 3 28 2 29 1 30
REMARK H PARENT
REMARK Flexibility Score: inf
ROOT
ATOM      1  C   UNL     1       7.533  -3.009  -0.783  1.00  0.00     0.000 C 
ENDROOT
BRANCH   1   2
ATOM      2  C   UNL     1       7.498  -1.484  -0.576  1.00  0.00     0.000 C 
BRANCH   2   3
ATOM      3  C   UNL     1       6.323  -0.964   0.271  1.00  0.00     0.000 C 
BRANCH   3   4
ATOM      4  C   UNL     1       5.585   0.215  -0.388  1.00  0.00     0.000 C 
BRANCH   4   5
ATOM      5  C   UNL     1       6.411   0.884  -1.500  1.00  0.00     0.000 C 
BRANCH   5   6
ATOM      6  C   UNL     1       6.847   2.311  -1.136  1.00  0.00     0.000 C 
BRANCH   6   7
ATOM      7  C   UNL     1       6.885   2.505   0.387  1.00  0.00     0.000 C 
BRANCH   7   8
ATOM      8  C   UNL     1       8.258   2.178   0.995  1.00  0.00     0.000 C 
BRANCH   8   9
ATOM      9  C   UNL     1       8.152   1.515   2.380  1.00  0.00     0.000 C 
BRANCH   9  10
ATOM     10  C   UNL     1       9.074   0.283   2.509  1.00  0.00     0.000 C 
BRANCH  10  11
ATOM     11  C   UNL     1       9.849   0.225   3.839  1.00  0.00     0.000 C 
BRANCH  11  12
ATOM     12  C   UNL     1       9.188  -0.633   4.936  1.00  0.00     0.006 C 
BRANCH  12  13
ATOM     13  C   UNL     1       8.509   0.179   6.052  1.00  0.00     0.053 C 
BRANCH  13  14
ATOM     14  C   UNL     1       7.018   0.042   6.015  1.00  0.00     0.041 C 
ATOM     15  O   UNL     1       6.391  -0.346   7.036  1.00  0.00    -0.550 OA
ATOM     16  O   UNL     1       6.323   0.322   4.844  1.00  0.00    -0.550 OA
ENDBRANCH  13  14
ENDBRANCH  12  13
ENDBRANCH  11  12
ENDBRANCH  10  11
ENDBRANCH   9  10
ENDBRANCH   8   9
ENDBRANCH   7   8
ENDBRANCH   6   7
ENDBRANCH   5   6
ENDBRANCH   4   5
ENDBRANCH   3   4
ENDBRANCH   2   3
ENDBRANCH   1   2
BRANCH   1  17
ATOM     17  C   UNL     1       7.789  -3.407  -2.246  1.00  0.00     0.000 C 
BRANCH  17  18
ATOM     18  C   UNL     1       7.366  -2.312  -3.240  1.00  0.00     0.000 C 
BRANCH  18  19
ATOM     19  C   UNL     1       6.065  -2.654  -3.983  1.00  0.00     0.000 C 
BRANCH  19  20
ATOM     20  C   UNL     1       4.955  -1.649  -3.643  1.00  0.00     0.000 C 
BRANCH  20  21
ATOM     21  C   UNL     1       4.193  -1.150  -4.885  1.00  0.00     0.000 C 
BRANCH  21  22
ATOM     22  C   UNL     1       2.675  -1.411  -4.873  1.00  0.00    -0.000 C 
BRANCH  22  23
ATOM     23  C   UNL     1       2.276  -2.658  -5.681  1.00  0.00    -0.000 C 
BRANCH  23  24
ATOM     24  C   UNL     1       1.908  -3.858  -4.790  1.00  0.00    -0.000 C 
BRANCH  24  25
ATOM     25  C   UNL     1       1.467  -3.506  -3.355  1.00  0.00    -0.000 C 
BRANCH  25  26
ATOM     26  C   UNL     1       0.347  -4.388  -2.777  1.00  0.00    -0.000 C 
BRANCH  26  27
ATOM     27  C   UNL     1       0.510  -5.876  -3.137  1.00  0.00    -0.000 C 
BRANCH  27  28
ATOM     28  C   UNL     1       1.408  -6.632  -2.136  1.00  0.00    -0.000 C 
BRANCH  28  29
ATOM     29  C   UNL     1       2.285  -7.719  -2.782  1.00  0.00    -0.003 C 
ATOM     30  C   UNL     1       2.685  -7.395  -4.220  1.00  0.00     0.004 C 
ENDBRANCH  28  29
ENDBRANCH  27  28
ENDBRANCH  26  27
ENDBRANCH  25  26
ENDBRANCH  24  25
ENDBRANCH  23  24
ENDBRANCH  22  23
ENDBRANCH  21  22
ENDBRANCH  20  21
ENDBRANCH  19  20
ENDBRANCH  18  19
ENDBRANCH  17  18
ENDBRANCH   1  17
TORSDOF 26
ENDMDL
MODEL 8
REMARK VINA RESULT:    -3.999      1.143      2.482
REMARK INTER + INTRA:         -13.989
REMARK INTER:                 -10.004
REMARK INTRA:                  -3.985
REMARK UNBOUND:                -3.911
REMARK SMILES CCCCCCCCCCCCCCCCCCCCCCCCCCCC(=O)[O-]
REMARK SMILES IDX 15 1 16 2 17 3 18 4 19 5 20 6 21 7 22 8 23 9 24 10 25 11
REMARK SMILES IDX 26 12 27 13 28 14 29 15 30 16 14 17 13 18 12 19 11 20 10 21
REMARK SMILES IDX 9 22 8 23 7 24 6 25 5 26 4 27 3 28 2 29 1 30
REMARK H PARENT
REMARK Flexibility Score: inf
ROOT
ATOM      1  C   UNL     1       3.435  -1.610  -3.711  1.00  0.00     0.000 C 
ENDROOT
BRANCH   1   2
ATOM      2  C   UNL     1       4.931  -1.869  -3.966  1.00  0.00     0.000 C 
BRANCH   2   3
ATOM      3  C   UNL     1       5.852  -0.655  -3.748  1.00  0.00     0.000 C 
BRANCH   3   4
ATOM      4  C   UNL     1       6.789  -0.392  -4.941  1.00  0.00     0.000 C 
BRANCH   4   5
ATOM      5  C   UNL     1       8.266  -0.650  -4.602  1.00  0.00     0.000 C 
BRANCH   5   6
ATOM      6  C   UNL     1       8.666  -2.122  -4.783  1.00  0.00     0.000 C 
BRANCH   6   7
ATOM      7  C   UNL     1       9.131  -2.734  -3.453  1.00  0.00     0.000 C 
BRANCH   7   8
ATOM      8  C   UNL     1       8.087  -3.680  -2.837  1.00  0.00     0.000 C 
BRANCH   8   9
ATOM      9  C   UNL     1       7.640  -3.238  -1.432  1.00  0.00     0.000 C 
BRANCH   9  10
ATOM     10  C   UNL     1       8.517  -2.098  -0.872  1.00  0.00     0.000 C 
BRANCH  10  11
ATOM     11  C   UNL     1       7.750  -1.108   0.025  1.00  0.00     0.000 C 
BRANCH  11  12
ATOM     12  C   UNL     1       6.259  -0.939  -0.326  1.00  0.00     0.006 C 
BRANCH  12  13
ATOM     13  C   UNL     1       5.619   0.344   0.229  1.00  0.00     0.053 C 
BRANCH  13  14
ATOM     14  C   UNL     1       5.930   0.541   1.682  1.00  0.00     0.041 C 
ATOM     15  O   UNL     1       6.728   1.445   2.042  1.00  0.00    -0.550 OA
ATOM     16  O   UNL     1       5.354  -0.291   2.635  1.00  0.00    -0.550 OA
ENDBRANCH  13  14
ENDBRANCH  12  13
ENDBRANCH  11  12
ENDBRANCH  10  11
ENDBRANCH   9  10
ENDBRANCH   8   9
ENDBRANCH   7   8
ENDBRANCH   6   7
ENDBRANCH   5   6
ENDBRANCH   4   5
ENDBRANCH   3   4
ENDBRANCH   2   3
ENDBRANCH   1   2
BRANCH   1  17
ATOM     17  C   UNL     1       2.625  -1.462  -5.010  1.00  0.00     0.000 C 
BRANCH  17  18
ATOM     18  C   UNL     1       3.179  -2.328  -6.155  1.00  0.00     0.000 C 
BRANCH  18  19
ATOM     19  C   UNL     1       2.403  -3.642  -6.335  1.00  0.00     0.000 C 
BRANCH  19  20
ATOM     20  C   UNL     1       3.065  -4.785  -5.551  1.00  0.00     0.000 C 
BRANCH  20  21
ATOM     21  C   UNL     1       2.200  -5.294  -4.383  1.00  0.00     0.000 C 
BRANCH  21  22
ATOM     22  C   UNL     1       0.929  -4.472  -4.099  1.00  0.00    -0.000 C 
BRANCH  22  23
ATOM     23  C   UNL     1       0.525  -4.486  -2.615  1.00  0.00    -0.000 C 
BRANCH  23  24
ATOM     24  C   UNL     1      -0.954  -4.854  -2.398  1.00  0.00    -0.000 C 
BRANCH  24  25
ATOM     25  C   UNL     1      -1.617  -5.635  -3.551  1.00  0.00    -0.000 C 
BRANCH  25  26
ATOM     26  C   UNL     1      -1.652  -7.163  -3.374  1.00  0.00    -0.000 C 
BRANCH  26  27
ATOM     27  C   UNL     1      -1.592  -7.597  -1.898  1.00  0.00    -0.000 C 
BRANCH  27  28
ATOM     28  C   UNL     1      -0.416  -8.553  -1.611  1.00  0.00    -0.000 C 
BRANCH  28  29
ATOM     29  C   UNL     1       0.920  -8.102  -2.227  1.00  0.00    -0.003 C 
ATOM     30  C   UNL     1       1.959  -7.699  -1.183  1.00  0.00     0.004 C 
ENDBRANCH  28  29
ENDBRANCH  27  28
ENDBRANCH  26  27
ENDBRANCH  25  26
ENDBRANCH  24  25
ENDBRANCH  23  24
ENDBRANCH  22  23
ENDBRANCH  21  22
ENDBRANCH  20  21
ENDBRANCH  19  20
ENDBRANCH  18  19
ENDBRANCH  17  18
ENDBRANCH   1  17
TORSDOF 26
ENDMDL
MODEL 9
REMARK VINA RESULT:    -3.975      2.419      5.660
REMARK INTER + INTRA:         -13.928
REMARK INTER:                  -9.754
REMARK INTRA:                  -4.173
REMARK UNBOUND:                -3.911
REMARK SMILES CCCCCCCCCCCCCCCCCCCCCCCCCCCC(=O)[O-]
REMARK SMILES IDX 15 1 16 2 17 3 18 4 19 5 20 6 21 7 22 8 23 9 24 10 25 11
REMARK SMILES IDX 26 12 27 13 28 14 29 15 30 16 14 17 13 18 12 19 11 20 10 21
REMARK SMILES IDX 9 22 8 23 7 24 6 25 5 26 4 27 3 28 2 29 1 30
REMARK H PARENT
REMARK Flexibility Score: inf
ROOT
ATOM      1  C   UNL     1       5.733  -1.407  -2.917  1.00  0.00     0.000 C 
ENDROOT
BRANCH   1   2
ATOM      2  C   UNL     1       5.388  -0.754  -1.566  1.00  0.00     0.000 C 
BRANCH   2   3
ATOM      3  C   UNL     1       6.322  -1.127  -0.400  1.00  0.00     0.000 C 
BRANCH   3   4
ATOM      4  C   UNL     1       7.473  -2.055  -0.829  1.00  0.00     0.000 C 
BRANCH   4   5
ATOM      5  C   UNL     1       8.856  -1.415  -0.626  1.00  0.00     0.000 C 
BRANCH   5   6
ATOM      6  C   UNL     1       9.297  -0.566  -1.829  1.00  0.00     0.000 C 
BRANCH   6   7
ATOM      7  C   UNL     1       9.339   0.925  -1.465  1.00  0.00     0.000 C 
BRANCH   7   8
ATOM      8  C   UNL     1       8.185   1.724  -2.093  1.00  0.00     0.000 C 
BRANCH   8   9
ATOM      9  C   UNL     1       7.623   2.800  -1.146  1.00  0.00     0.000 C 
BRANCH   9  10
ATOM     10  C   UNL     1       6.160   2.516  -0.744  1.00  0.00     0.000 C 
BRANCH  10  11
ATOM     11  C   UNL     1       5.720   3.236   0.545  1.00  0.00     0.000 C 
BRANCH  11  12
ATOM     12  C   UNL     1       5.091   4.626   0.327  1.00  0.00     0.006 C 
BRANCH  12  13
ATOM     13  C   UNL     1       4.178   5.094   1.473  1.00  0.00     0.053 C 
BRANCH  13  14
ATOM     14  C   UNL     1       2.940   4.257   1.580  1.00  0.00     0.041 C 
ATOM     15  O   UNL     1       2.784   3.477   2.556  1.00  0.00    -0.550 OA
ATOM     16  O   UNL     1       1.969   4.322   0.587  1.00  0.00    -0.550 OA
ENDBRANCH  13  14
ENDBRANCH  12  13
ENDBRANCH  11  12
ENDBRANCH  10  11
ENDBRANCH   9  10
ENDBRANCH   8   9
ENDBRANCH   7   8
ENDBRANCH   6   7
ENDBRANCH   5   6
ENDBRANCH   4   5
ENDBRANCH   3   4
ENDBRANCH   2   3
ENDBRANCH   1   2
BRANCH   1  17
ATOM     17  C   UNL     1       5.982  -0.376  -4.031  1.00  0.00     0.000 C 
BRANCH  17  18
ATOM     18  C   UNL     1       7.091  -0.813  -5.004  1.00  0.00     0.000 C 
BRANCH  18  19
ATOM     19  C   UNL     1       7.623  -2.223  -4.704  1.00  0.00     0.000 C 
BRANCH  19  20
ATOM     20  C   UNL     1       7.274  -3.197  -5.838  1.00  0.00     0.000 C 
BRANCH  20  21
ATOM     21  C   UNL     1       6.411  -4.384  -5.368  1.00  0.00     0.000 C 
BRANCH  21  22
ATOM     22  C   UNL     1       4.889  -4.160  -5.442  1.00  0.00    -0.000 C 
BRANCH  22  23
ATOM     23  C   UNL     1       4.489  -3.097  -6.479  1.00  0.00    -0.000 C 
BRANCH  23  24
ATOM     24  C   UNL     1       3.028  -2.636  -6.335  1.00  0.00    -0.000 C 
BRANCH  24  25
ATOM     25  C   UNL     1       2.759  -1.641  -5.188  1.00  0.00    -0.000 C 
BRANCH  25  26
ATOM     26  C   UNL     1       2.239  -2.268  -3.883  1.00  0.00    -0.000 C 
BRANCH  26  27
ATOM     27  C   UNL     1       1.546  -3.624  -4.104  1.00  0.00    -0.000 C 
BRANCH  27  28
ATOM     28  C   UNL     1       1.045  -4.253  -2.787  1.00  0.00    -0.000 C 
BRANCH  28  29
ATOM     29  C   UNL     1       1.118  -5.790  -2.762  1.00  0.00    -0.003 C 
ATOM     30  C   UNL     1       1.081  -6.372  -1.351  1.00  0.00     0.004 C 
ENDBRANCH  28  29
ENDBRANCH  27  28
ENDBRANCH  26  27
ENDBRANCH  25  26
ENDBRANCH  24  25
ENDBRANCH  23  24
ENDBRANCH  22  23
ENDBRANCH  21  22
ENDBRANCH  20  21
ENDBRANCH  19  20
ENDBRANCH  18  19
ENDBRANCH  17  18
ENDBRANCH   1  17
TORSDOF 26
ENDMDL
