MODEL 1
REMARK VINA RESULT:    -4.044      0.000      0.000
REMARK INTER + INTRA:         -10.285
REMARK INTER:                  -7.826
REMARK INTRA:                  -2.459
REMARK UNBOUND:                -2.459
REMARK SMILES CCCCCCCCCCCCCCCCCC(=O)[O-]
REMARK SMILES IDX 10 1 11 2 12 3 13 4 14 5 15 6 16 7 17 8 18 9 19 10 20 11
REMARK SMILES IDX 9 12 8 13 7 14 6 15 5 16 4 17 3 18 2 19 1 20
REMARK H PARENT
REMARK Flexibility Score: inf
ROOT
ATOM      1  C   UNL     1       4.120  75.529  67.871  1.00  0.00     0.000 C 
ENDROOT
BRANCH   1   2
ATOM      2  C   UNL     1       5.426  76.165  68.374  1.00  0.00     0.000 C 
BRANCH   2   3
ATOM      3  C   UNL     1       5.297  77.677  68.612  1.00  0.00     0.000 C 
BRANCH   3   4
ATOM      4  C   UNL     1       6.434  78.440  67.918  1.00  0.00     0.000 C 
BRANCH   4   5
ATOM      5  C   UNL     1       7.245  77.558  66.952  1.00  0.00     0.000 C 
BRANCH   5   6
ATOM      6  C   UNL     1       7.180  77.979  65.470  1.00  0.00     0.000 C 
BRANCH   6   7
ATOM      7  C   UNL     1       5.960  77.448  64.691  1.00  0.00     0.006 C 
BRANCH   7   8
ATOM      8  C   UNL     1       5.106  78.540  64.028  1.00  0.00     0.053 C 
BRANCH   8   9
ATOM      9  C   UNL     1       5.520  78.792  62.611  1.00  0.00     0.041 C 
ATOM     10  O   UNL     1       4.801  78.388  61.659  1.00  0.00    -0.550 OA
ATOM     11  O   UNL     1       6.685  79.500  62.342  1.00  0.00    -0.550 OA
ENDBRANCH   8   9
ENDBRANCH   7   8
ENDBRANCH   6   7
ENDBRANCH   5   6
ENDBRANCH   4   5
ENDBRANCH   3   4
ENDBRANCH   2   3
ENDBRANCH   1   2
BRANCH   1  12
ATOM     12  C   UNL     1       2.899  76.440  68.081  1.00  0.00     0.000 C 
BRANCH  12  13
ATOM     13  C   UNL     1       1.739  75.733  68.808  1.00  0.00    -0.000 C 
BRANCH  13  14
ATOM     14  C   UNL     1       0.451  76.566  68.956  1.00  0.00    -0.000 C 
BRANCH  14  15
ATOM     15  C   UNL     1       0.464  77.475  70.196  1.00  0.00    -0.000 C 
BRANCH  15  16
ATOM     16  C   UNL     1       0.753  78.945  69.846  1.00  0.00    -0.000 C 
BRANCH  16  17
ATOM     17  C   UNL     1       2.145  79.401  70.308  1.00  0.00    -0.000 C 
BRANCH  17  18
ATOM     18  C   UNL     1       2.803  80.301  69.255  1.00  0.00    -0.000 C 
BRANCH  18  19
ATOM     19  C   UNL     1       2.151  80.107  67.881  1.00  0.00    -0.003 C 
ATOM     20  C   UNL     1       3.197  80.110  66.769  1.00  0.00     0.004 C 
ENDBRANCH  18  19
ENDBRANCH  17  18
ENDBRANCH  16  17
ENDBRANCH  15  16
ENDBRANCH  14  15
ENDBRANCH  13  14
ENDBRANCH  12  13
ENDBRANCH   1  12
TORSDOF 16
ENDMDL
MODEL 2
REMARK VINA RESULT:    -4.025      6.304      8.777
REMARK INTER + INTRA:         -10.249
REMARK INTER:                  -9.059
REMARK INTRA:                  -1.190
REMARK UNBOUND:                -2.459
REMARK SMILES CCCCCCCCCCCCCCCCCC(=O)[O-]
REMARK SMILES IDX 10 1 11 2 12 3 13 4 14 5 15 6 16 7 17 8 18 9 19 10 20 11
REMARK SMILES IDX 9 12 8 13 7 14 6 15 5 16 4 17 3 18 2 19 1 20
REMARK H PARENT
REMARK Flexibility Score: inf
ROOT
ATOM      1  C   UNL     1       3.575  82.257  63.374  1.00  0.00     0.000 C 
ENDROOT
BRANCH   1   2
ATOM      2  C   UNL     1       3.131  83.243  64.466  1.00  0.00     0.000 C 
BRANCH   2   3
ATOM      3  C   UNL     1       4.018  84.495  64.534  1.00  0.00     0.000 C 
BRANCH   3   4
ATOM      4  C   UNL     1       4.444  84.942  63.128  1.00  0.00     0.000 C 
BRANCH   4   5
ATOM      5  C   UNL     1       3.887  86.325  62.746  1.00  0.00     0.000 C 
BRANCH   5   6
ATOM      6  C   UNL     1       4.478  86.933  61.457  1.00  0.00     0.000 C 
BRANCH   6   7
ATOM      7  C   UNL     1       3.815  88.244  60.988  1.00  0.00     0.006 C 
BRANCH   7   8
ATOM      8  C   UNL     1       3.095  89.024  62.099  1.00  0.00     0.053 C 
BRANCH   8   9
ATOM      9  C   UNL     1       1.622  89.128  61.844  1.00  0.00     0.041 C 
ATOM     10  O   UNL     1       1.167  90.053  61.122  1.00  0.00    -0.550 OA
ATOM     11  O   UNL     1       0.755  88.182  62.379  1.00  0.00    -0.550 OA
ENDBRANCH   8   9
ENDBRANCH   7   8
ENDBRANCH   6   7
ENDBRANCH   5   6
ENDBRANCH   4   5
ENDBRANCH   3   4
ENDBRANCH   2   3
ENDBRANCH   1   2
BRANCH   1  12
ATOM     12  C   UNL     1       4.157  80.956  63.952  1.00  0.00     0.000 C 
BRANCH  12  13
ATOM     13  C   UNL     1       3.791  79.712  63.121  1.00  0.00    -0.000 C 
BRANCH  13  14
ATOM     14  C   UNL     1       4.826  78.571  63.153  1.00  0.00    -0.000 C 
BRANCH  14  15
ATOM     15  C   UNL     1       6.278  79.077  63.093  1.00  0.00    -0.000 C 
BRANCH  15  16
ATOM     16  C   UNL     1       7.232  78.232  63.954  1.00  0.00    -0.000 C 
BRANCH  16  17
ATOM     17  C   UNL     1       6.526  77.573  65.149  1.00  0.00    -0.000 C 
BRANCH  17  18
ATOM     18  C   UNL     1       7.373  77.697  66.421  1.00  0.00    -0.000 C 
BRANCH  18  19
ATOM     19  C   UNL     1       6.599  78.421  67.529  1.00  0.00    -0.003 C 
ATOM     20  C   UNL     1       5.186  78.774  67.073  1.00  0.00     0.004 C 
ENDBRANCH  18  19
ENDBRANCH  17  18
ENDBRANCH  16  17
ENDBRANCH  15  16
ENDBRANCH  14  15
ENDBRANCH  13  14
ENDBRANCH  12  13
ENDBRANCH   1  12
TORSDOF 16
ENDMDL
MODEL 3
REMARK VINA RESULT:    -4.002      6.209      8.584
REMARK INTER + INTRA:         -10.205
REMARK INTER:                  -9.314
REMARK INTRA:                  -0.891
REMARK UNBOUND:                -2.459
REMARK SMILES CCCCCCCCCCCCCCCCCC(=O)[O-]
REMARK SMILES IDX 10 1 11 2 12 3 13 4 14 5 15 6 16 7 17 8 18 9 19 10 20 11
REMARK SMILES IDX 9 12 8 13 7 14 6 15 5 16 4 17 3 18 2 19 1 20
REMARK H PARENT
REMARK Flexibility Score: inf
ROOT
ATOM      1  C   UNL     1       3.743  82.439  64.399  1.00  0.00     0.000 C 
ENDROOT
BRANCH   1   2
ATOM      2  C   UNL     1       2.695  81.350  64.118  1.00  0.00     0.000 C 
BRANCH   2   3
ATOM      3  C   UNL     1       2.896  80.094  64.981  1.00  0.00     0.000 C 
BRANCH   3   4
ATOM      4  C   UNL     1       3.109  80.471  66.454  1.00  0.00     0.000 C 
BRANCH   4   5
ATOM      5  C   UNL     1       3.448  79.258  67.339  1.00  0.00     0.000 C 
BRANCH   5   6
ATOM      6  C   UNL     1       4.607  79.477  68.332  1.00  0.00     0.000 C 
BRANCH   6   7
ATOM      7  C   UNL     1       5.735  78.428  68.265  1.00  0.00     0.006 C 
BRANCH   7   8
ATOM      8  C   UNL     1       6.463  78.366  66.912  1.00  0.00     0.053 C 
BRANCH   8   9
ATOM      9  C   UNL     1       6.153  77.103  66.168  1.00  0.00     0.041 C 
ATOM     10  O   UNL     1       5.879  76.048  66.798  1.00  0.00    -0.550 OA
ATOM     11  O   UNL     1       6.136  77.100  64.779  1.00  0.00    -0.550 OA
ENDBRANCH   8   9
ENDBRANCH   7   8
ENDBRANCH   6   7
ENDBRANCH   5   6
ENDBRANCH   4   5
ENDBRANCH   3   4
ENDBRANCH   2   3
ENDBRANCH   1   2
BRANCH   1  12
ATOM     12  C   UNL     1       3.108  83.812  64.676  1.00  0.00     0.000 C 
BRANCH  12  13
ATOM     13  C   UNL     1       4.040  84.987  64.324  1.00  0.00    -0.000 C 
BRANCH  13  14
ATOM     14  C   UNL     1       4.857  84.814  63.030  1.00  0.00    -0.000 C 
BRANCH  14  15
ATOM     15  C   UNL     1       4.351  85.700  61.878  1.00  0.00    -0.000 C 
BRANCH  15  16
ATOM     16  C   UNL     1       3.815  87.055  62.369  1.00  0.00    -0.000 C 
BRANCH  16  17
ATOM     17  C   UNL     1       4.037  88.184  61.352  1.00  0.00    -0.000 C 
BRANCH  17  18
ATOM     18  C   UNL     1       3.190  89.413  61.703  1.00  0.00    -0.000 C 
BRANCH  18  19
ATOM     19  C   UNL     1       3.434  90.553  60.708  1.00  0.00    -0.003 C 
ATOM     20  C   UNL     1       4.738  90.345  59.942  1.00  0.00     0.004 C 
ENDBRANCH  18  19
ENDBRANCH  17  18
ENDBRANCH  16  17
ENDBRANCH  15  16
ENDBRANCH  14  15
ENDBRANCH  13  14
ENDBRANCH  12  13
ENDBRANCH   1  12
TORSDOF 16
ENDMDL
MODEL 4
REMARK VINA RESULT:    -3.959      5.508      7.811
REMARK INTER + INTRA:         -10.122
REMARK INTER:                  -9.054
REMARK INTRA:                  -1.069
REMARK UNBOUND:                -2.459
REMARK SMILES CCCCCCCCCCCCCCCCCC(=O)[O-]
REMARK SMILES IDX 10 1 11 2 12 3 13 4 14 5 15 6 16 7 17 8 18 9 19 10 20 11
REMARK SMILES IDX 9 12 8 13 7 14 6 15 5 16 4 17 3 18 2 19 1 20
REMARK H PARENT
REMARK Flexibility Score: inf
ROOT
ATOM      1  C   UNL     1       3.130  80.620  64.165  1.00  0.00     0.000 C 
ENDROOT
BRANCH   1   2
ATOM      2  C   UNL     1       4.144  79.547  64.594  1.00  0.00     0.000 C 
BRANCH   2   3
ATOM      3  C   UNL     1       4.772  78.812  63.401  1.00  0.00     0.000 C 
BRANCH   3   4
ATOM      4  C   UNL     1       6.279  78.607  63.615  1.00  0.00     0.000 C 
BRANCH   4   5
ATOM      5  C   UNL     1       6.593  77.524  64.663  1.00  0.00     0.000 C 
BRANCH   5   6
ATOM      6  C   UNL     1       7.477  77.988  65.838  1.00  0.00     0.000 C 
BRANCH   6   7
ATOM      7  C   UNL     1       6.928  77.660  67.241  1.00  0.00     0.006 C 
BRANCH   7   8
ATOM      8  C   UNL     1       5.834  78.620  67.735  1.00  0.00     0.053 C 
BRANCH   8   9
ATOM      9  C   UNL     1       4.630  77.884  68.239  1.00  0.00     0.041 C 
ATOM     10  O   UNL     1       4.493  76.655  68.000  1.00  0.00    -0.550 OA
ATOM     11  O   UNL     1       3.676  78.548  68.999  1.00  0.00    -0.550 OA
ENDBRANCH   8   9
ENDBRANCH   7   8
ENDBRANCH   6   7
ENDBRANCH   5   6
ENDBRANCH   4   5
ENDBRANCH   3   4
ENDBRANCH   2   3
ENDBRANCH   1   2
BRANCH   1  12
ATOM     12  C   UNL     1       3.804  81.853  63.539  1.00  0.00     0.000 C 
BRANCH  12  13
ATOM     13  C   UNL     1       3.120  83.177  63.930  1.00  0.00    -0.000 C 
BRANCH  13  14
ATOM     14  C   UNL     1       4.051  84.244  64.535  1.00  0.00    -0.000 C 
BRANCH  14  15
ATOM     15  C   UNL     1       4.205  85.484  63.637  1.00  0.00    -0.000 C 
BRANCH  15  16
ATOM     16  C   UNL     1       4.847  85.152  62.280  1.00  0.00    -0.000 C 
BRANCH  16  17
ATOM     17  C   UNL     1       4.750  86.313  61.278  1.00  0.00    -0.000 C 
BRANCH  17  18
ATOM     18  C   UNL     1       3.811  87.408  61.799  1.00  0.00    -0.000 C 
BRANCH  18  19
ATOM     19  C   UNL     1       4.049  88.732  61.062  1.00  0.00    -0.003 C 
ATOM     20  C   UNL     1       3.004  89.774  61.451  1.00  0.00     0.004 C 
ENDBRANCH  18  19
ENDBRANCH  17  18
ENDBRANCH  16  17
ENDBRANCH  15  16
ENDBRANCH  14  15
ENDBRANCH  13  14
ENDBRANCH  12  13
ENDBRANCH   1  12
TORSDOF 16
ENDMDL
MODEL 5
REMARK VINA RESULT:    -3.947      4.608      6.950
REMARK INTER + INTRA:         -10.098
REMARK INTER:                  -8.829
REMARK INTRA:                  -1.269
REMARK UNBOUND:                -2.459
REMARK SMILES CCCCCCCCCCCCCCCCCC(=O)[O-]
REMARK SMILES IDX 10 1 11 2 12 3 13 4 14 5 15 6 16 7 17 8 18 9 19 10 20 11
REMARK SMILES IDX 9 12 8 13 7 14 6 15 5 16 4 17 3 18 2 19 1 20
REMARK H PARENT
REMARK Flexibility Score: inf
ROOT
ATOM      1  C   UNL     1       4.133  79.605  64.247  1.00  0.00     0.000 C 
ENDROOT
BRANCH   1   2
ATOM      2  C   UNL     1       3.804  81.054  63.855  1.00  0.00     0.000 C 
BRANCH   2   3
ATOM      3  C   UNL     1       3.103  81.831  64.980  1.00  0.00     0.000 C 
BRANCH   3   4
ATOM      4  C   UNL     1       2.426  83.096  64.433  1.00  0.00     0.000 C 
BRANCH   4   5
ATOM      5  C   UNL     1       3.133  84.391  64.872  1.00  0.00     0.000 C 
BRANCH   5   6
ATOM      6  C   UNL     1       4.522  84.623  64.242  1.00  0.00     0.000 C 
BRANCH   6   7
ATOM      7  C   UNL     1       4.505  85.120  62.782  1.00  0.00     0.006 C 
BRANCH   7   8
ATOM      8  C   UNL     1       3.387  86.127  62.468  1.00  0.00     0.053 C 
BRANCH   8   9
ATOM      9  C   UNL     1       3.927  87.401  61.894  1.00  0.00     0.041 C 
ATOM     10  O   UNL     1       4.837  87.369  61.026  1.00  0.00    -0.550 OA
ATOM     11  O   UNL     1       3.401  88.623  62.296  1.00  0.00    -0.550 OA
ENDBRANCH   8   9
ENDBRANCH   7   8
ENDBRANCH   6   7
ENDBRANCH   5   6
ENDBRANCH   4   5
ENDBRANCH   3   4
ENDBRANCH   2   3
ENDBRANCH   1   2
BRANCH   1  12
ATOM     12  C   UNL     1       4.925  78.862  63.157  1.00  0.00     0.000 C 
BRANCH  12  13
ATOM     13  C   UNL     1       6.331  78.437  63.620  1.00  0.00    -0.000 C 
BRANCH  13  14
ATOM     14  C   UNL     1       6.363  77.408  64.766  1.00  0.00    -0.000 C 
BRANCH  14  15
ATOM     15  C   UNL     1       7.274  77.835  65.931  1.00  0.00    -0.000 C 
BRANCH  15  16
ATOM     16  C   UNL     1       6.904  77.141  67.252  1.00  0.00    -0.000 C 
BRANCH  16  17
ATOM     17  C   UNL     1       5.390  76.933  67.410  1.00  0.00    -0.000 C 
BRANCH  17  18
ATOM     18  C   UNL     1       4.842  77.766  68.575  1.00  0.00    -0.000 C 
BRANCH  18  19
ATOM     19  C   UNL     1       4.925  79.266  68.266  1.00  0.00    -0.003 C 
ATOM     20  C   UNL     1       3.645  79.985  68.682  1.00  0.00     0.004 C 
ENDBRANCH  18  19
ENDBRANCH  17  18
ENDBRANCH  16  17
ENDBRANCH  15  16
ENDBRANCH  14  15
ENDBRANCH  13  14
ENDBRANCH  12  13
ENDBRANCH   1  12
TORSDOF 16
ENDMDL
MODEL 6
REMARK VINA RESULT:    -3.927      5.372      7.258
REMARK INTER + INTRA:         -10.059
REMARK INTER:                  -8.630
REMARK INTRA:                  -1.429
REMARK UNBOUND:                -2.459
REMARK SMILES CCCCCCCCCCCCCCCCCC(=O)[O-]
REMARK SMILES IDX 10 1 11 2 12 3 13 4 14 5 15 6 16 7 17 8 18 9 19 10 20 11
REMARK SMILES IDX 9 12 8 13 7 14 6 15 5 16 4 17 3 18 2 19 1 20
REMARK H PARENT
REMARK Flexibility Score: inf
ROOT
ATOM      1  C   UNL     1       3.025  80.345  64.296  1.00  0.00     0.000 C 
ENDROOT
BRANCH   1   2
ATOM      2  C   UNL     1       3.185  81.836  63.958  1.00  0.00     0.000 C 
BRANCH   2   3
ATOM      3  C   UNL     1       2.642  82.757  65.061  1.00  0.00     0.000 C 
BRANCH   3   4
ATOM      4  C   UNL     1       2.936  84.230  64.739  1.00  0.00     0.000 C 
BRANCH   4   5
ATOM      5  C   UNL     1       4.391  84.467  64.297  1.00  0.00     0.000 C 
BRANCH   5   6
ATOM      6  C   UNL     1       4.553  85.179  62.938  1.00  0.00     0.000 C 
BRANCH   6   7
ATOM      7  C   UNL     1       3.638  86.402  62.726  1.00  0.00     0.006 C 
BRANCH   7   8
ATOM      8  C   UNL     1       4.163  87.416  61.697  1.00  0.00     0.053 C 
BRANCH   8   9
ATOM      9  C   UNL     1       3.168  88.503  61.426  1.00  0.00     0.041 C 
ATOM     10  O   UNL     1       2.049  88.226  60.921  1.00  0.00    -0.550 OA
ATOM     11  O   UNL     1       3.466  89.819  61.760  1.00  0.00    -0.550 OA
ENDBRANCH   8   9
ENDBRANCH   7   8
ENDBRANCH   6   7
ENDBRANCH   5   6
ENDBRANCH   4   5
ENDBRANCH   3   4
ENDBRANCH   2   3
ENDBRANCH   1   2
BRANCH   1  12
ATOM     12  C   UNL     1       3.747  79.952  65.596  1.00  0.00     0.000 C 
BRANCH  12  13
ATOM     13  C   UNL     1       2.790  79.412  66.676  1.00  0.00    -0.000 C 
BRANCH  13  14
ATOM     14  C   UNL     1       3.470  78.898  67.959  1.00  0.00    -0.000 C 
BRANCH  14  15
ATOM     15  C   UNL     1       4.882  79.474  68.163  1.00  0.00    -0.000 C 
BRANCH  15  16
ATOM     16  C   UNL     1       5.923  78.385  68.470  1.00  0.00    -0.000 C 
BRANCH  16  17
ATOM     17  C   UNL     1       6.109  77.397  67.307  1.00  0.00    -0.000 C 
BRANCH  17  18
ATOM     18  C   UNL     1       7.415  77.677  66.555  1.00  0.00    -0.000 C 
BRANCH  18  19
ATOM     19  C   UNL     1       7.139  78.047  65.093  1.00  0.00    -0.003 C 
ATOM     20  C   UNL     1       5.963  77.250  64.535  1.00  0.00     0.004 C 
ENDBRANCH  18  19
ENDBRANCH  17  18
ENDBRANCH  16  17
ENDBRANCH  15  16
ENDBRANCH  14  15
ENDBRANCH  13  14
ENDBRANCH  12  13
ENDBRANCH   1  12
TORSDOF 16
ENDMDL
MODEL 7
REMARK VINA RESULT:    -3.893      3.245      5.883
REMARK INTER + INTRA:          -9.993
REMARK INTER:                  -7.757
REMARK INTRA:                  -2.236
REMARK UNBOUND:                -2.459
REMARK SMILES CCCCCCCCCCCCCCCCCC(=O)[O-]
REMARK SMILES IDX 10 1 11 2 12 3 13 4 14 5 15 6 16 7 17 8 18 9 19 10 20 11
REMARK SMILES IDX 9 12 8 13 7 14 6 15 5 16 4 17 3 18 2 19 1 20
REMARK H PARENT
REMARK Flexibility Score: inf
ROOT
ATOM      1  C   UNL     1       6.381  77.244  65.313  1.00  0.00     0.000 C 
ENDROOT
BRANCH   1   2
ATOM      2  C   UNL     1       7.313  77.764  66.419  1.00  0.00     0.000 C 
BRANCH   2   3
ATOM      3  C   UNL     1       6.781  77.475  67.830  1.00  0.00     0.000 C 
BRANCH   3   4
ATOM      4  C   UNL     1       6.007  76.149  67.863  1.00  0.00     0.000 C 
BRANCH   4   5
ATOM      5  C   UNL     1       4.554  76.315  68.343  1.00  0.00     0.000 C 
BRANCH   5   6
ATOM      6  C   UNL     1       3.705  75.028  68.315  1.00  0.00     0.000 C 
BRANCH   6   7
ATOM      7  C   UNL     1       2.181  75.245  68.401  1.00  0.00     0.006 C 
BRANCH   7   8
ATOM      8  C   UNL     1       1.744  76.717  68.318  1.00  0.00     0.053 C 
BRANCH   8   9
ATOM      9  C   UNL     1       1.090  77.178  69.585  1.00  0.00     0.041 C 
ATOM     10  O   UNL     1       1.565  78.152  70.226  1.00  0.00    -0.550 OA
ATOM     11  O   UNL     1      -0.064  76.552  70.039  1.00  0.00    -0.550 OA
ENDBRANCH   8   9
ENDBRANCH   7   8
ENDBRANCH   6   7
ENDBRANCH   5   6
ENDBRANCH   4   5
ENDBRANCH   3   4
ENDBRANCH   2   3
ENDBRANCH   1   2
BRANCH   1  12
ATOM     12  C   UNL     1       6.387  78.142  64.064  1.00  0.00     0.000 C 
BRANCH  12  13
ATOM     13  C   UNL     1       4.971  78.500  63.574  1.00  0.00    -0.000 C 
BRANCH  13  14
ATOM     14  C   UNL     1       4.790  79.951  63.088  1.00  0.00    -0.000 C 
BRANCH  14  15
ATOM     15  C   UNL     1       3.420  80.542  63.460  1.00  0.00    -0.000 C 
BRANCH  15  16
ATOM     16  C   UNL     1       3.483  81.435  64.710  1.00  0.00    -0.000 C 
BRANCH  16  17
ATOM     17  C   UNL     1       2.421  81.065  65.757  1.00  0.00    -0.000 C 
BRANCH  17  18
ATOM     18  C   UNL     1       2.768  79.739  66.444  1.00  0.00    -0.000 C 
BRANCH  18  19
ATOM     19  C   UNL     1       4.153  79.805  67.099  1.00  0.00    -0.003 C 
ATOM     20  C   UNL     1       4.040  79.925  68.616  1.00  0.00     0.004 C 
ENDBRANCH  18  19
ENDBRANCH  17  18
ENDBRANCH  16  17
ENDBRANCH  15  16
ENDBRANCH  14  15
ENDBRANCH  13  14
ENDBRANCH  12  13
ENDBRANCH   1  12
TORSDOF 16
ENDMDL
MODEL 8
REMARK VINA RESULT:    -3.860      2.426      4.520
REMARK INTER + INTRA:          -9.930
REMARK INTER:                  -7.906
REMARK INTRA:                  -2.025
REMARK UNBOUND:                -2.459
REMARK SMILES CCCCCCCCCCCCCCCCCC(=O)[O-]
REMARK SMILES IDX 10 1 11 2 12 3 13 4 14 5 15 6 16 7 17 8 18 9 19 10 20 11
REMARK SMILES IDX 9 12 8 13 7 14 6 15 5 16 4 17 3 18 2 19 1 20
REMARK H PARENT
REMARK Flexibility Score: inf
ROOT
ATOM      1  C   UNL     1       6.908  77.992  66.850  1.00  0.00     0.000 C 
ENDROOT
BRANCH   1   2
ATOM      2  C   UNL     1       6.135  76.802  66.260  1.00  0.00     0.000 C 
BRANCH   2   3
ATOM      3  C   UNL     1       5.994  76.883  64.733  1.00  0.00     0.000 C 
BRANCH   3   4
ATOM      4  C   UNL     1       6.130  78.333  64.246  1.00  0.00     0.000 C 
BRANCH   4   5
ATOM      5  C   UNL     1       5.259  78.634  63.012  1.00  0.00     0.000 C 
BRANCH   5   6
ATOM      6  C   UNL     1       4.346  79.870  63.143  1.00  0.00     0.000 C 
BRANCH   6   7
ATOM      7  C   UNL     1       3.532  79.948  64.451  1.00  0.00     0.006 C 
BRANCH   7   8
ATOM      8  C   UNL     1       3.342  81.372  64.996  1.00  0.00     0.053 C 
BRANCH   8   9
ATOM      9  C   UNL     1       1.921  81.635  65.392  1.00  0.00     0.041 C 
ATOM     10  O   UNL     1       1.641  81.944  66.579  1.00  0.00    -0.550 OA
ATOM     11  O   UNL     1       0.910  81.569  64.440  1.00  0.00    -0.550 OA
ENDBRANCH   8   9
ENDBRANCH   7   8
ENDBRANCH   6   7
ENDBRANCH   5   6
ENDBRANCH   4   5
ENDBRANCH   3   4
ENDBRANCH   2   3
ENDBRANCH   1   2
BRANCH   1  12
ATOM     12  C   UNL     1       6.176  78.644  68.036  1.00  0.00     0.000 C 
BRANCH  12  13
ATOM     13  C   UNL     1       4.834  79.284  67.635  1.00  0.00    -0.000 C 
BRANCH  13  14
ATOM     14  C   UNL     1       3.996  79.841  68.801  1.00  0.00    -0.000 C 
BRANCH  14  15
ATOM     15  C   UNL     1       2.545  79.331  68.796  1.00  0.00    -0.000 C 
BRANCH  15  16
ATOM     16  C   UNL     1       2.399  77.964  69.485  1.00  0.00    -0.000 C 
BRANCH  16  17
ATOM     17  C   UNL     1       2.202  76.813  68.486  1.00  0.00    -0.000 C 
BRANCH  17  18
ATOM     18  C   UNL     1       3.449  75.923  68.424  1.00  0.00    -0.000 C 
BRANCH  18  19
ATOM     19  C   UNL     1       3.068  74.461  68.161  1.00  0.00    -0.003 C 
ATOM     20  C   UNL     1       1.580  74.227  68.408  1.00  0.00     0.004 C 
ENDBRANCH  18  19
ENDBRANCH  17  18
ENDBRANCH  16  17
ENDBRANCH  15  16
ENDBRANCH  14  15
ENDBRANCH  13  14
ENDBRANCH  12  13
ENDBRANCH   1  12
TORSDOF 16
ENDMDL
MODEL 9
REMARK VINA RESULT:    -3.789      2.948      5.963
REMARK INTER + INTRA:          -9.792
REMARK INTER:                  -7.822
REMARK INTRA:                  -1.970
REMARK UNBOUND:                -2.459
REMARK SMILES CCCCCCCCCCCCCCCCCC(=O)[O-]
REMARK SMILES IDX 10 1 11 2 12 3 13 4 14 5 15 6 16 7 17 8 18 9 19 10 20 11
REMARK SMILES IDX 9 12 8 13 7 14 6 15 5 16 4 17 3 18 2 19 1 20
REMARK H PARENT
REMARK Flexibility Score: inf
ROOT
ATOM      1  C   UNL     1       5.653  77.907  64.396  1.00  0.00     0.000 C 
ENDROOT
BRANCH   1   2
ATOM      2  C   UNL     1       5.297  78.559  63.051  1.00  0.00     0.000 C 
BRANCH   2   3
ATOM      3  C   UNL     1       4.500  79.862  63.215  1.00  0.00     0.000 C 
BRANCH   3   4
ATOM      4  C   UNL     1       2.999  79.572  63.355  1.00  0.00     0.000 C 
BRANCH   4   5
ATOM      5  C   UNL     1       2.418  80.058  64.695  1.00  0.00     0.000 C 
BRANCH   5   6
ATOM      6  C   UNL     1       3.438  80.710  65.651  1.00  0.00     0.000 C 
BRANCH   6   7
ATOM      7  C   UNL     1       3.654  79.967  66.985  1.00  0.00     0.006 C 
BRANCH   7   8
ATOM      8  C   UNL     1       2.358  79.524  67.682  1.00  0.00     0.053 C 
BRANCH   8   9
ATOM      9  C   UNL     1       2.051  80.368  68.881  1.00  0.00     0.041 C 
ATOM     10  O   UNL     1       1.971  79.842  70.022  1.00  0.00    -0.550 OA
ATOM     11  O   UNL     1       1.886  81.741  68.741  1.00  0.00    -0.550 OA
ENDBRANCH   8   9
ENDBRANCH   7   8
ENDBRANCH   6   7
ENDBRANCH   5   6
ENDBRANCH   4   5
ENDBRANCH   3   4
ENDBRANCH   2   3
ENDBRANCH   1   2
BRANCH   1  12
ATOM     12  C   UNL     1       7.113  78.161  64.809  1.00  0.00     0.000 C 
BRANCH  12  13
ATOM     13  C   UNL     1       7.424  77.688  66.242  1.00  0.00    -0.000 C 
BRANCH  13  14
ATOM     14  C   UNL     1       6.643  78.409  67.356  1.00  0.00    -0.000 C 
BRANCH  14  15
ATOM     15  C   UNL     1       6.026  77.441  68.380  1.00  0.00    -0.000 C 
BRANCH  15  16
ATOM     16  C   UNL     1       5.224  76.311  67.713  1.00  0.00    -0.000 C 
BRANCH  16  17
ATOM     17  C   UNL     1       3.814  76.156  68.304  1.00  0.00    -0.000 C 
BRANCH  17  18
ATOM     18  C   UNL     1       3.375  74.687  68.293  1.00  0.00    -0.000 C 
BRANCH  18  19
ATOM     19  C   UNL     1       1.905  74.556  67.878  1.00  0.00    -0.003 C 
ATOM     20  C   UNL     1       1.101  75.781  68.303  1.00  0.00     0.004 C 
ENDBRANCH  18  19
ENDBRANCH  17  18
ENDBRANCH  16  17
ENDBRANCH  15  16
ENDBRANCH  14  15
ENDBRANCH  13  14
ENDBRANCH  12  13
ENDBRANCH   1  12
TORSDOF 16
ENDMDL
