MODEL 1
REMARK VINA RESULT:    -3.760      0.000      0.000
REMARK INTER + INTRA:          -4.757
REMARK INTER:                  -5.299
REMARK INTRA:                   0.542
REMARK UNBOUND:                 0.542
REMARK SMILES CC1=CCC(=C(C)C)C(=O)CC(C)=CCC1
REMARK SMILES IDX 12 1 14 2 13 3 15 4 16 5 2 6 1 7 3 8 11 10 9 11 10 12 5 13
REMARK SMILES IDX 6 14 7 15 8 16 4 17
REMARK H PARENT
REMARK Flexibility Score: 60.00
ROOT
ATOM      1  C   UNL     1     -10.120  18.042  11.725  1.00  0.00    -0.070 C 
ATOM      2  C   UNL     1     -10.621  16.802  11.935  1.00  0.00    -0.027 C 
ATOM      3  C   UNL     1     -10.019  18.519  10.297  1.00  0.00     0.039 C 
ENDROOT
BRANCH   2   4
ATOM      4  C   UNL     1     -10.908  16.168  13.275  1.00  0.00     0.032 C 
BRANCH   4   5
ATOM      5  C   UNL     1     -10.091  14.882  13.509  1.00  0.00     0.034 C 
BRANCH   5   6
ATOM      6  C   UNL     1      -8.628  15.063  13.157  1.00  0.00    -0.077 C 
ATOM      7  C   UNL     1      -8.037  14.188  12.081  1.00  0.00     0.039 C 
ATOM      8  C   UNL     1      -7.812  15.950  13.772  1.00  0.00    -0.023 CG0
ATOM      9  G   UNL     1      -8.207  16.884  14.889  1.00  0.00     0.000 G0
ENDBRANCH   5   6
ENDBRANCH   4   5
ENDBRANCH   2   4
BRANCH   1  10
ATOM     10  C   UNL     1      -9.721  18.992  12.843  1.00  0.00     0.111 C 
BRANCH  10  11
ATOM     11  C   UNL     1      -8.268  18.834  13.215  1.00  0.00     0.163 C 
ATOM     12  O   UNL     1      -7.400  19.091  12.339  1.00  0.00    -0.294 OA
BRANCH  11  13
ATOM     13  C   UNL     1      -7.845  18.334  14.561  1.00  0.00    -0.002 C 
ATOM     14  C   UNL     1      -7.231  19.149  15.470  1.00  0.00    -0.069 C 
ATOM     15  C   UNL     1      -7.010  20.620  15.194  1.00  0.00     0.039 C 
ATOM     16  C   UNL     1      -6.772  18.627  16.814  1.00  0.00     0.039 C 
BRANCH  13  17
ATOM     17  C   UNL     1      -8.197  16.897  14.906  1.00  0.00     0.066 CG0
ATOM     18  G   UNL     1      -7.825  15.990  13.759  1.00  0.00     0.000 G0
ENDBRANCH  13  17
ENDBRANCH  11  13
ENDBRANCH  10  11
ENDBRANCH   1  10
TORSDOF 0
ENDMDL
MODEL 2
REMARK VINA RESULT:    -3.734      1.831      3.170
REMARK INTER + INTRA:          -4.721
REMARK INTER:                  -5.244
REMARK INTRA:                   0.523
REMARK UNBOUND:                 0.542
REMARK SMILES CC1=CCC(=C(C)C)C(=O)CC(C)=CCC1
REMARK SMILES IDX 12 1 14 2 13 3 15 4 16 5 2 6 1 7 3 8 11 10 9 11 10 12 5 13
REMARK SMILES IDX 6 14 7 15 8 16 4 17
REMARK H PARENT
REMARK Flexibility Score: 60.00
ROOT
ATOM      1  C   UNL     1      -8.433  19.085  12.847  1.00  0.00    -0.070 C 
ATOM      2  C   UNL     1      -9.653  19.188  12.268  1.00  0.00    -0.027 C 
ATOM      3  C   UNL     1      -7.769  20.362  13.302  1.00  0.00     0.039 C 
ENDROOT
BRANCH   2   4
ATOM      4  C   UNL     1     -10.538  18.043  11.837  1.00  0.00     0.032 C 
BRANCH   4   5
ATOM      5  C   UNL     1     -11.341  17.443  13.007  1.00  0.00     0.034 C 
BRANCH   5   6
ATOM      6  C   UNL     1     -11.100  15.954  13.161  1.00  0.00    -0.077 C 
ATOM      7  C   UNL     1     -11.678  15.025  12.125  1.00  0.00     0.039 C 
ATOM      8  C   UNL     1     -10.415  15.407  14.191  1.00  0.00    -0.023 CG0
ATOM      9  G   UNL     1      -9.793  16.165  15.338  1.00  0.00     0.000 G0
ENDBRANCH   5   6
ENDBRANCH   4   5
ENDBRANCH   2   4
BRANCH   1  10
ATOM     10  C   UNL     1      -7.736  17.761  13.119  1.00  0.00     0.111 C 
BRANCH  10  11
ATOM     11  C   UNL     1      -7.685  17.454  14.595  1.00  0.00     0.163 C 
ATOM     12  O   UNL     1      -7.088  18.267  15.351  1.00  0.00    -0.294 OA
BRANCH  11  13
ATOM     13  C   UNL     1      -8.269  16.199  15.163  1.00  0.00    -0.002 C 
ATOM     14  C   UNL     1      -7.481  15.156  15.564  1.00  0.00    -0.069 C 
ATOM     15  C   UNL     1      -5.971  15.242  15.524  1.00  0.00     0.039 C 
ATOM     16  C   UNL     1      -8.082  13.876  16.103  1.00  0.00     0.039 C 
BRANCH  13  17
ATOM     17  C   UNL     1      -9.776  16.161  15.347  1.00  0.00     0.066 CG0
ATOM     18  G   UNL     1     -10.415  15.424  14.195  1.00  0.00     0.000 G0
ENDBRANCH  13  17
ENDBRANCH  11  13
ENDBRANCH  10  11
ENDBRANCH   1  10
TORSDOF 0
ENDMDL
MODEL 3
REMARK VINA RESULT:    -3.653      4.596      6.650
REMARK INTER + INTRA:          -4.606
REMARK INTER:                  -5.343
REMARK INTRA:                   0.737
REMARK UNBOUND:                 0.542
REMARK SMILES CC1=CCC(=C(C)C)C(=O)CC(C)=CCC1
REMARK SMILES IDX 12 1 14 2 13 3 15 4 16 5 2 6 1 7 3 8 11 10 9 11 10 12 5 13
REMARK SMILES IDX 6 14 7 15 8 16 4 17
REMARK H PARENT
REMARK Flexibility Score: 60.00
ROOT
ATOM      1  C   UNL     1     -10.479  19.498   6.718  1.00  0.00    -0.070 C 
ATOM      2  C   UNL     1     -10.767  18.875   5.552  1.00  0.00    -0.027 C 
ATOM      3  C   UNL     1     -10.621  21.000   6.759  1.00  0.00     0.039 C 
ENDROOT
BRANCH   2   4
ATOM      4  C   UNL     1     -10.795  17.384   5.316  1.00  0.00     0.032 C 
BRANCH   4   5
ATOM      5  C   UNL     1      -9.387  16.790   5.112  1.00  0.00     0.034 C 
BRANCH   5   6
ATOM      6  C   UNL     1      -9.229  15.446   5.794  1.00  0.00    -0.077 C 
ATOM      7  C   UNL     1     -10.113  14.309   5.349  1.00  0.00     0.039 C 
ATOM      8  C   UNL     1      -8.355  15.213   6.799  1.00  0.00    -0.023 CG0
ATOM      9  G   UNL     1      -7.415  16.228   7.404  1.00  0.00     0.000 G0
ENDBRANCH   5   6
ENDBRANCH   4   5
ENDBRANCH   2   4
BRANCH   1  10
ATOM     10  C   UNL     1     -10.088  18.766   7.993  1.00  0.00     0.111 C 
BRANCH  10  11
ATOM     11  C   UNL     1      -8.623  18.407   7.999  1.00  0.00     0.163 C 
ATOM     12  O   UNL     1      -7.800  19.260   7.571  1.00  0.00    -0.294 OA
BRANCH  11  13
ATOM     13  C   UNL     1      -8.139  17.062   8.445  1.00  0.00    -0.002 C 
ATOM     14  C   UNL     1      -8.403  16.582   9.697  1.00  0.00    -0.069 C 
ATOM     15  C   UNL     1      -9.261  17.352  10.678  1.00  0.00     0.039 C 
ATOM     16  C   UNL     1      -7.879  15.238  10.153  1.00  0.00     0.039 C 
BRANCH  13  17
ATOM     17  C   UNL     1      -7.405  16.217   7.419  1.00  0.00     0.066 CG0
ATOM     18  G   UNL     1      -8.355  15.219   6.803  1.00  0.00     0.000 G0
ENDBRANCH  13  17
ENDBRANCH  11  13
ENDBRANCH  10  11
ENDBRANCH   1  10
TORSDOF 0
ENDMDL
MODEL 4
REMARK VINA RESULT:    -3.590      4.965      6.860
REMARK INTER + INTRA:          -4.518
REMARK INTER:                  -5.210
REMARK INTRA:                   0.693
REMARK UNBOUND:                 0.542
REMARK SMILES CC1=CCC(=C(C)C)C(=O)CC(C)=CCC1
REMARK SMILES IDX 12 1 14 2 13 3 15 4 16 5 2 6 1 7 3 8 11 10 9 11 10 12 5 13
REMARK SMILES IDX 6 14 7 15 8 16 4 17
REMARK H PARENT
REMARK Flexibility Score: 60.00
ROOT
ATOM      1  C   UNL     1     -10.504  17.862   5.632  1.00  0.00    -0.070 C 
ATOM      2  C   UNL     1     -10.367  16.516   5.683  1.00  0.00    -0.027 C 
ATOM      3  C   UNL     1     -10.454  18.515   4.272  1.00  0.00     0.039 C 
ENDROOT
BRANCH   2   4
ATOM      4  C   UNL     1     -10.489  15.650   6.914  1.00  0.00     0.032 C 
BRANCH   4   5
ATOM      5  C   UNL     1      -9.126  15.138   7.416  1.00  0.00     0.034 C 
BRANCH   5   6
ATOM      6  C   UNL     1      -8.632  15.914   8.621  1.00  0.00    -0.077 C 
ATOM      7  C   UNL     1      -9.053  15.451   9.992  1.00  0.00     0.039 C 
ATOM      8  C   UNL     1      -7.852  17.015   8.536  1.00  0.00    -0.023 CG0
ATOM      9  G   UNL     1      -7.357  17.650   7.259  1.00  0.00     0.000 G0
ENDBRANCH   5   6
ENDBRANCH   4   5
ENDBRANCH   2   4
BRANCH   1  10
ATOM     10  C   UNL     1     -10.769  18.731   6.851  1.00  0.00     0.111 C 
BRANCH  10  11
ATOM     11  C   UNL     1      -9.495  19.047   7.595  1.00  0.00     0.163 C 
ATOM     12  O   UNL     1      -9.588  19.467   8.780  1.00  0.00    -0.294 OA
BRANCH  11  13
ATOM     13  C   UNL     1      -8.150  18.926   6.949  1.00  0.00    -0.002 C 
ATOM     14  C   UNL     1      -7.632  19.926   6.175  1.00  0.00    -0.069 C 
ATOM     15  C   UNL     1      -8.358  21.240   5.987  1.00  0.00     0.039 C 
ATOM     16  C   UNL     1      -6.288  19.781   5.496  1.00  0.00     0.039 C 
BRANCH  13  17
ATOM     17  C   UNL     1      -7.348  17.673   7.254  1.00  0.00     0.066 CG0
ATOM     18  G   UNL     1      -7.877  17.019   8.507  1.00  0.00     0.000 G0
ENDBRANCH  13  17
ENDBRANCH  11  13
ENDBRANCH  10  11
ENDBRANCH   1  10
TORSDOF 0
ENDMDL
MODEL 5
REMARK VINA RESULT:    -3.544      4.220      6.877
REMARK INTER + INTRA:          -4.452
REMARK INTER:                  -5.234
REMARK INTRA:                   0.782
REMARK UNBOUND:                 0.542
REMARK SMILES CC1=CCC(=C(C)C)C(=O)CC(C)=CCC1
REMARK SMILES IDX 12 1 14 2 13 3 15 4 16 5 2 6 1 7 3 8 11 10 9 11 10 12 5 13
REMARK SMILES IDX 6 14 7 15 8 16 4 17
REMARK H PARENT
REMARK Flexibility Score: 60.00
ROOT
ATOM      1  C   UNL     1      -9.739  16.200   6.600  1.00  0.00    -0.070 C 
ATOM      2  C   UNL     1     -10.601  16.969   5.895  1.00  0.00    -0.027 C 
ATOM      3  C   UNL     1     -10.249  14.878   7.119  1.00  0.00     0.039 C 
ENDROOT
BRANCH   2   4
ATOM      4  C   UNL     1     -10.278  18.269   5.199  1.00  0.00     0.032 C 
BRANCH   4   5
ATOM      5  C   UNL     1     -10.891  19.491   5.909  1.00  0.00     0.034 C 
BRANCH   5   6
ATOM      6  C   UNL     1      -9.858  20.274   6.694  1.00  0.00    -0.077 C 
ATOM      7  C   UNL     1      -9.121  21.388   5.995  1.00  0.00     0.039 C 
ATOM      8  C   UNL     1      -9.541  20.016   7.983  1.00  0.00    -0.023 CG0
ATOM      9  G   UNL     1     -10.140  18.926   8.838  1.00  0.00     0.000 G0
ENDBRANCH   5   6
ENDBRANCH   4   5
ENDBRANCH   2   4
BRANCH   1  10
ATOM     10  C   UNL     1      -8.281  16.564   6.836  1.00  0.00     0.111 C 
BRANCH  10  11
ATOM     11  C   UNL     1      -8.138  17.608   7.916  1.00  0.00     0.163 C 
ATOM     12  O   UNL     1      -7.098  18.320   7.919  1.00  0.00    -0.294 OA
BRANCH  11  13
ATOM     13  C   UNL     1      -9.160  17.776   8.996  1.00  0.00    -0.002 C 
ATOM     14  C   UNL     1      -9.168  16.981  10.108  1.00  0.00    -0.069 C 
ATOM     15  C   UNL     1      -8.100  15.936  10.343  1.00  0.00     0.039 C 
ATOM     16  C   UNL     1     -10.228  17.133  11.177  1.00  0.00     0.039 C 
BRANCH  13  17
ATOM     17  C   UNL     1     -10.146  18.921   8.841  1.00  0.00     0.066 CG0
ATOM     18  G   UNL     1      -9.537  20.009   7.990  1.00  0.00     0.000 G0
ENDBRANCH  13  17
ENDBRANCH  11  13
ENDBRANCH  10  11
ENDBRANCH   1  10
TORSDOF 0
ENDMDL
MODEL 6
REMARK VINA RESULT:    -3.456      1.765      3.538
REMARK INTER + INTRA:          -4.329
REMARK INTER:                  -5.035
REMARK INTRA:                   0.706
REMARK UNBOUND:                 0.542
REMARK SMILES CC1=CCC(=C(C)C)C(=O)CC(C)=CCC1
REMARK SMILES IDX 12 1 14 2 13 3 15 4 16 5 2 6 1 7 3 8 11 10 9 11 10 12 5 13
REMARK SMILES IDX 6 14 7 15 8 16 4 17
REMARK H PARENT
REMARK Flexibility Score: 60.00
ROOT
ATOM      1  C   UNL     1     -10.816  16.475  13.133  1.00  0.00    -0.070 C 
ATOM      2  C   UNL     1     -10.314  16.141  14.344  1.00  0.00    -0.027 C 
ATOM      3  C   UNL     1     -11.443  15.375  12.311  1.00  0.00     0.039 C 
ENDROOT
BRANCH   2   4
ATOM      4  C   UNL     1      -9.742  17.090  15.369  1.00  0.00     0.032 C 
BRANCH   4   5
ATOM      5  C   UNL     1      -8.202  17.132  15.343  1.00  0.00     0.034 C 
BRANCH   5   6
ATOM      6  C   UNL     1      -7.614  16.012  14.508  1.00  0.00    -0.077 C 
ATOM      7  C   UNL     1      -7.551  14.630  15.106  1.00  0.00     0.039 C 
ATOM      8  C   UNL     1      -7.118  16.186  13.262  1.00  0.00    -0.023 CG0
ATOM      9  G   UNL     1      -7.061  17.494  12.510  1.00  0.00     0.000 G0
ENDBRANCH   5   6
ENDBRANCH   4   5
ENDBRANCH   2   4
BRANCH   1  10
ATOM     10  C   UNL     1     -10.840  17.896  12.591  1.00  0.00     0.111 C 
BRANCH  10  11
ATOM     11  C   UNL     1      -9.448  18.454  12.435  1.00  0.00     0.163 C 
ATOM     12  O   UNL     1      -9.221  19.615  12.872  1.00  0.00    -0.294 OA
BRANCH  11  13
ATOM     13  C   UNL     1      -8.363  17.694  11.738  1.00  0.00    -0.002 C 
ATOM     14  C   UNL     1      -8.501  17.267  10.447  1.00  0.00    -0.069 C 
ATOM     15  C   UNL     1      -9.729  17.600   9.628  1.00  0.00     0.039 C 
ATOM     16  C   UNL     1      -7.415  16.467   9.761  1.00  0.00     0.039 C 
BRANCH  13  17
ATOM     17  C   UNL     1      -7.067  17.484  12.501  1.00  0.00     0.066 CG0
ATOM     18  G   UNL     1      -7.125  16.180  13.259  1.00  0.00     0.000 G0
ENDBRANCH  13  17
ENDBRANCH  11  13
ENDBRANCH  10  11
ENDBRANCH   1  10
TORSDOF 0
ENDMDL
MODEL 7
REMARK VINA RESULT:    -3.436      1.721      4.180
REMARK INTER + INTRA:          -4.301
REMARK INTER:                  -4.679
REMARK INTRA:                   0.378
REMARK UNBOUND:                 0.542
REMARK SMILES CC1=CCC(=C(C)C)C(=O)CC(C)=CCC1
REMARK SMILES IDX 12 1 14 2 13 3 15 4 16 5 2 6 1 7 3 8 11 10 9 11 10 12 5 13
REMARK SMILES IDX 6 14 7 15 8 16 4 17
REMARK H PARENT
REMARK Flexibility Score: 60.00
ROOT
ATOM      1  C   UNL     1      -7.534  19.135  14.378  1.00  0.00    -0.070 C 
ATOM      2  C   UNL     1      -7.517  18.761  15.678  1.00  0.00    -0.027 C 
ATOM      3  C   UNL     1      -7.295  20.593  14.070  1.00  0.00     0.039 C 
ENDROOT
BRANCH   2   4
ATOM      4  C   UNL     1      -7.626  17.350  16.205  1.00  0.00     0.032 C 
BRANCH   4   5
ATOM      5  C   UNL     1      -9.087  16.898  16.391  1.00  0.00     0.034 C 
BRANCH   5   6
ATOM      6  C   UNL     1      -9.371  15.581  15.697  1.00  0.00    -0.077 C 
ATOM      7  C   UNL     1      -8.763  14.326  16.268  1.00  0.00     0.039 C 
ATOM      8  C   UNL     1     -10.122  15.469  14.577  1.00  0.00    -0.023 CG0
ATOM      9  G   UNL     1     -10.783  16.609  13.840  1.00  0.00     0.000 G0
ENDBRANCH   5   6
ENDBRANCH   4   5
ENDBRANCH   2   4
BRANCH   1  10
ATOM     10  C   UNL     1      -7.713  18.164  13.221  1.00  0.00     0.111 C 
BRANCH  10  11
ATOM     11  C   UNL     1      -9.120  18.201  12.678  1.00  0.00     0.163 C 
ATOM     12  O   UNL     1      -9.593  19.316  12.330  1.00  0.00    -0.294 OA
BRANCH  11  13
ATOM     13  C   UNL     1      -9.970  16.972  12.597  1.00  0.00    -0.002 C 
ATOM     14  C   UNL     1      -9.964  16.166  11.493  1.00  0.00    -0.069 C 
ATOM     15  C   UNL     1      -9.043  16.431  10.322  1.00  0.00     0.039 C 
ATOM     16  C   UNL     1     -10.854  14.946  11.404  1.00  0.00     0.039 C 
BRANCH  13  17
ATOM     17  C   UNL     1     -10.786  16.615  13.827  1.00  0.00     0.066 CG0
ATOM     18  G   UNL     1     -10.127  15.476  14.566  1.00  0.00     0.000 G0
ENDBRANCH  13  17
ENDBRANCH  11  13
ENDBRANCH  10  11
ENDBRANCH   1  10
TORSDOF 0
ENDMDL
MODEL 8
REMARK VINA RESULT:    -3.415      5.074      7.588
REMARK INTER + INTRA:          -4.270
REMARK INTER:                  -4.881
REMARK INTRA:                   0.611
REMARK UNBOUND:                 0.542
REMARK SMILES CC1=CCC(=C(C)C)C(=O)CC(C)=CCC1
REMARK SMILES IDX 12 1 14 2 13 3 15 4 16 5 2 6 1 7 3 8 11 10 9 11 10 12 5 13
REMARK SMILES IDX 6 14 7 15 8 16 4 17
REMARK H PARENT
REMARK Flexibility Score: 60.00
ROOT
ATOM      1  C   UNL     1      -7.067  19.712   5.344  1.00  0.00    -0.070 C 
ATOM      2  C   UNL     1      -8.135  20.539   5.251  1.00  0.00    -0.027 C 
ATOM      3  C   UNL     1      -6.240  19.501   4.100  1.00  0.00     0.039 C 
ENDROOT
BRANCH   2   4
ATOM      4  C   UNL     1      -9.031  20.974   6.385  1.00  0.00     0.032 C 
BRANCH   4   5
ATOM      5  C   UNL     1     -10.509  20.606   6.147  1.00  0.00     0.034 C 
BRANCH   5   6
ATOM      6  C   UNL     1     -10.694  19.125   5.884  1.00  0.00    -0.077 C 
ATOM      7  C   UNL     1     -11.381  18.705   4.610  1.00  0.00     0.039 C 
ATOM      8  C   UNL     1     -10.299  18.156   6.740  1.00  0.00    -0.023 CG0
ATOM      9  G   UNL     1      -9.629  18.377   8.074  1.00  0.00     0.000 G0
ENDBRANCH   5   6
ENDBRANCH   4   5
ENDBRANCH   2   4
BRANCH   1  10
ATOM     10  C   UNL     1      -6.625  19.046   6.638  1.00  0.00     0.111 C 
BRANCH  10  11
ATOM     11  C   UNL     1      -7.414  17.789   6.912  1.00  0.00     0.163 C 
ATOM     12  O   UNL     1      -7.355  16.855   6.068  1.00  0.00    -0.294 OA
BRANCH  11  13
ATOM     13  C   UNL     1      -8.291  17.652   8.117  1.00  0.00    -0.002 C 
ATOM     14  C   UNL     1      -7.881  16.975   9.231  1.00  0.00    -0.069 C 
ATOM     15  C   UNL     1      -6.489  16.390   9.337  1.00  0.00     0.039 C 
ATOM     16  C   UNL     1      -8.788  16.809  10.431  1.00  0.00     0.039 C 
BRANCH  13  17
ATOM     17  C   UNL     1      -9.632  18.364   8.079  1.00  0.00     0.066 CG0
ATOM     18  G   UNL     1     -10.290  18.144   6.739  1.00  0.00     0.000 G0
ENDBRANCH  13  17
ENDBRANCH  11  13
ENDBRANCH  10  11
ENDBRANCH   1  10
TORSDOF 0
ENDMDL
MODEL 9
REMARK VINA RESULT:    -3.341      5.283      7.493
REMARK INTER + INTRA:          -4.166
REMARK INTER:                  -4.635
REMARK INTRA:                   0.469
REMARK UNBOUND:                 0.542
REMARK SMILES CC1=CCC(=C(C)C)C(=O)CC(C)=CCC1
REMARK SMILES IDX 12 1 14 2 13 3 15 4 16 5 2 6 1 7 3 8 11 10 9 11 10 12 5 13
REMARK SMILES IDX 6 14 7 15 8 16 4 17
REMARK H PARENT
REMARK Flexibility Score: 60.00
ROOT
ATOM      1  C   UNL     1      -7.576  20.791   5.651  1.00  0.00    -0.070 C 
ATOM      2  C   UNL     1      -8.873  21.007   5.974  1.00  0.00    -0.027 C 
ATOM      3  C   UNL     1      -7.084  21.349   4.338  1.00  0.00     0.039 C 
ENDROOT
BRANCH   2   4
ATOM      4  C   UNL     1      -9.545  20.635   7.273  1.00  0.00     0.032 C 
BRANCH   4   5
ATOM      5  C   UNL     1     -10.125  19.207   7.252  1.00  0.00     0.034 C 
BRANCH   5   6
ATOM      6  C   UNL     1      -9.525  18.331   8.334  1.00  0.00    -0.077 C 
ATOM      7  C   UNL     1      -9.976  18.540   9.757  1.00  0.00     0.039 C 
ATOM      8  C   UNL     1      -8.588  17.384   8.099  1.00  0.00    -0.023 CG0
ATOM      9  G   UNL     1      -7.988  17.052   6.754  1.00  0.00     0.000 G0
ENDBRANCH   5   6
ENDBRANCH   4   5
ENDBRANCH   2   4
BRANCH   1  10
ATOM     10  C   UNL     1      -6.586  20.081   6.561  1.00  0.00     0.111 C 
BRANCH  10  11
ATOM     11  C   UNL     1      -6.192  18.734   6.009  1.00  0.00     0.163 C 
ATOM     12  O   UNL     1      -5.612  18.697   4.891  1.00  0.00    -0.294 OA
BRANCH  11  13
ATOM     13  C   UNL     1      -6.519  17.460   6.723  1.00  0.00    -0.002 C 
ATOM     14  C   UNL     1      -5.561  16.738   7.379  1.00  0.00    -0.069 C 
ATOM     15  C   UNL     1      -4.132  17.224   7.481  1.00  0.00     0.039 C 
ATOM     16  C   UNL     1      -5.892  15.431   8.067  1.00  0.00     0.039 C 
BRANCH  13  17
ATOM     17  C   UNL     1      -7.978  17.040   6.754  1.00  0.00     0.066 CG0
ATOM     18  G   UNL     1      -8.581  17.384   8.094  1.00  0.00     0.000 G0
ENDBRANCH  13  17
ENDBRANCH  11  13
ENDBRANCH  10  11
ENDBRANCH   1  10
TORSDOF 0
ENDMDL
