MODEL 1
REMARK VINA RESULT:    -4.793      0.000      0.000
REMARK INTER + INTRA:         -14.075
REMARK INTER:                 -10.958
REMARK INTRA:                  -3.117
REMARK UNBOUND:                -3.117
REMARK SMILES CCCCCCCCCCCCCCCCCCCCCCCC(=O)[O-]
REMARK SMILES IDX 13 1 14 2 15 3 16 4 17 5 18 6 19 7 20 8 21 9 22 10 23 11
REMARK SMILES IDX 24 12 25 13 26 14 12 15 11 16 10 17 9 18 8 19 7 20 6 21 5 22
REMARK SMILES IDX 4 23 3 24 2 25 1 26
REMARK H PARENT
REMARK Flexibility Score: inf
ROOT
ATOM      1  C   UNL     1      11.440   8.363  25.830  1.00  0.00     0.000 C 
ENDROOT
BRANCH   1   2
ATOM      2  C   UNL     1      10.885   9.073  27.070  1.00  0.00     0.000 C 
BRANCH   2   3
ATOM      3  C   UNL     1      10.264   8.065  28.051  1.00  0.00     0.000 C 
BRANCH   3   4
ATOM      4  C   UNL     1       9.766   8.724  29.347  1.00  0.00     0.000 C 
BRANCH   4   5
ATOM      5  C   UNL     1       9.044   7.734  30.280  1.00  0.00     0.000 C 
BRANCH   5   6
ATOM      6  C   UNL     1       8.929   6.320  29.670  1.00  0.00     0.000 C 
BRANCH   6   7
ATOM      7  C   UNL     1       9.584   5.220  30.524  1.00  0.00     0.000 C 
BRANCH   7   8
ATOM      8  C   UNL     1      10.267   4.134  29.678  1.00  0.00     0.000 C 
BRANCH   8   9
ATOM      9  C   UNL     1       9.913   4.285  28.191  1.00  0.00     0.000 C 
BRANCH   9  10
ATOM     10  C   UNL     1      11.136   4.617  27.320  1.00  0.00     0.006 C 
BRANCH  10  11
ATOM     11  C   UNL     1      12.284   5.246  28.122  1.00  0.00     0.053 C 
BRANCH  11  12
ATOM     12  C   UNL     1      13.423   5.607  27.220  1.00  0.00     0.041 C 
ATOM     13  O   UNL     1      14.337   6.370  27.630  1.00  0.00    -0.550 OA
ATOM     14  O   UNL     1      13.457   5.132  25.913  1.00  0.00    -0.550 OA
ENDBRANCH  11  12
ENDBRANCH  10  11
ENDBRANCH   9  10
ENDBRANCH   8   9
ENDBRANCH   7   8
ENDBRANCH   6   7
ENDBRANCH   5   6
ENDBRANCH   4   5
ENDBRANCH   3   4
ENDBRANCH   2   3
ENDBRANCH   1   2
BRANCH   1  15
ATOM     15  C   UNL     1      11.271   9.236  24.578  1.00  0.00     0.000 C 
BRANCH  15  16
ATOM     16  C   UNL     1      10.173   8.721  23.633  1.00  0.00     0.000 C 
BRANCH  16  17
ATOM     17  C   UNL     1      10.675   8.427  22.202  1.00  0.00     0.000 C 
BRANCH  17  18
ATOM     18  C   UNL     1      11.854   7.437  22.190  1.00  0.00    -0.000 C 
BRANCH  18  19
ATOM     19  C   UNL     1      13.108   8.028  21.508  1.00  0.00    -0.000 C 
BRANCH  19  20
ATOM     20  C   UNL     1      14.277   8.290  22.474  1.00  0.00    -0.000 C 
BRANCH  20  21
ATOM     21  C   UNL     1      14.456   9.781  22.799  1.00  0.00    -0.000 C 
BRANCH  21  22
ATOM     22  C   UNL     1      14.889  10.028  24.254  1.00  0.00    -0.000 C 
BRANCH  22  23
ATOM     23  C   UNL     1      15.111   8.758  25.096  1.00  0.00    -0.000 C 
BRANCH  23  24
ATOM     24  C   UNL     1      16.361   8.819  26.002  1.00  0.00    -0.000 C 
BRANCH  24  25
ATOM     25  C   UNL     1      17.666   8.701  25.199  1.00  0.00    -0.003 C 
ATOM     26  C   UNL     1      17.665   7.452  24.322  1.00  0.00     0.004 C 
ENDBRANCH  24  25
ENDBRANCH  23  24
ENDBRANCH  22  23
ENDBRANCH  21  22
ENDBRANCH  20  21
ENDBRANCH  19  20
ENDBRANCH  18  19
ENDBRANCH  17  18
ENDBRANCH  16  17
ENDBRANCH  15  16
ENDBRANCH   1  15
TORSDOF 22
ENDMDL
MODEL 2
REMARK VINA RESULT:    -4.762      2.442      5.534
REMARK INTER + INTRA:         -14.003
REMARK INTER:                 -10.588
REMARK INTRA:                  -3.415
REMARK UNBOUND:                -3.117
REMARK SMILES CCCCCCCCCCCCCCCCCCCCCCCC(=O)[O-]
REMARK SMILES IDX 13 1 14 2 15 3 16 4 17 5 18 6 19 7 20 8 21 9 22 10 23 11
REMARK SMILES IDX 24 12 25 13 26 14 12 15 11 16 10 17 9 18 8 19 7 20 6 21 5 22
REMARK SMILES IDX 4 23 3 24 2 25 1 26
REMARK H PARENT
REMARK Flexibility Score: inf
ROOT
ATOM      1  C   UNL     1       8.982   6.107  30.222  1.00  0.00     0.000 C 
ENDROOT
BRANCH   1   2
ATOM      2  C   UNL     1       9.165   7.454  30.932  1.00  0.00     0.000 C 
BRANCH   2   3
ATOM      3  C   UNL     1       9.566   8.552  29.934  1.00  0.00     0.000 C 
BRANCH   3   4
ATOM      4  C   UNL     1       9.657   8.039  28.487  1.00  0.00     0.000 C 
BRANCH   4   5
ATOM      5  C   UNL     1      10.848   8.638  27.716  1.00  0.00     0.000 C 
BRANCH   5   6
ATOM      6  C   UNL     1      10.735   8.425  26.191  1.00  0.00     0.000 C 
BRANCH   6   7
ATOM      7  C   UNL     1      11.515   9.460  25.360  1.00  0.00     0.000 C 
BRANCH   7   8
ATOM      8  C   UNL     1      11.634   9.068  23.879  1.00  0.00     0.000 C 
BRANCH   8   9
ATOM      9  C   UNL     1      10.970   7.710  23.608  1.00  0.00     0.000 C 
BRANCH   9  10
ATOM     10  C   UNL     1      11.591   6.975  22.408  1.00  0.00     0.006 C 
BRANCH  10  11
ATOM     11  C   UNL     1      11.089   7.509  21.059  1.00  0.00     0.053 C 
BRANCH  11  12
ATOM     12  C   UNL     1       9.593   7.574  21.040  1.00  0.00     0.041 C 
ATOM     13  O   UNL     1       9.009   8.691  21.043  1.00  0.00    -0.550 OA
ATOM     14  O   UNL     1       8.843   6.404  21.058  1.00  0.00    -0.550 OA
ENDBRANCH  11  12
ENDBRANCH  10  11
ENDBRANCH   9  10
ENDBRANCH   8   9
ENDBRANCH   7   8
ENDBRANCH   6   7
ENDBRANCH   5   6
ENDBRANCH   4   5
ENDBRANCH   3   4
ENDBRANCH   2   3
ENDBRANCH   1   2
BRANCH   1  15
ATOM     15  C   UNL     1       9.969   5.064  30.767  1.00  0.00     0.000 C 
BRANCH  15  16
ATOM     16  C   UNL     1      10.898   4.496  29.681  1.00  0.00     0.000 C 
BRANCH  16  17
ATOM     17  C   UNL     1      10.180   4.183  28.351  1.00  0.00     0.000 C 
BRANCH  17  18
ATOM     18  C   UNL     1      10.873   4.844  27.145  1.00  0.00    -0.000 C 
BRANCH  18  19
ATOM     19  C   UNL     1      12.300   5.330  27.485  1.00  0.00    -0.000 C 
BRANCH  19  20
ATOM     20  C   UNL     1      13.215   5.478  26.257  1.00  0.00    -0.000 C 
BRANCH  20  21
ATOM     21  C   UNL     1      13.988   6.807  26.249  1.00  0.00    -0.000 C 
BRANCH  21  22
ATOM     22  C   UNL     1      14.528   7.177  24.857  1.00  0.00    -0.000 C 
BRANCH  22  23
ATOM     23  C   UNL     1      15.458   8.404  24.821  1.00  0.00    -0.000 C 
BRANCH  23  24
ATOM     24  C   UNL     1      16.248   8.627  26.130  1.00  0.00    -0.000 C 
BRANCH  24  25
ATOM     25  C   UNL     1      17.587   9.340  25.886  1.00  0.00    -0.003 C 
ATOM     26  C   UNL     1      18.387   8.654  24.783  1.00  0.00     0.004 C 
ENDBRANCH  24  25
ENDBRANCH  23  24
ENDBRANCH  22  23
ENDBRANCH  21  22
ENDBRANCH  20  21
ENDBRANCH  19  20
ENDBRANCH  18  19
ENDBRANCH  17  18
ENDBRANCH  16  17
ENDBRANCH  15  16
ENDBRANCH   1  15
TORSDOF 22
ENDMDL
MODEL 3
REMARK VINA RESULT:    -4.694      1.737      5.872
REMARK INTER + INTRA:         -13.848
REMARK INTER:                 -10.379
REMARK INTRA:                  -3.470
REMARK UNBOUND:                -3.117
REMARK SMILES CCCCCCCCCCCCCCCCCCCCCCCC(=O)[O-]
REMARK SMILES IDX 13 1 14 2 15 3 16 4 17 5 18 6 19 7 20 8 21 9 22 10 23 11
REMARK SMILES IDX 24 12 25 13 26 14 12 15 11 16 10 17 9 18 8 19 7 20 6 21 5 22
REMARK SMILES IDX 4 23 3 24 2 25 1 26
REMARK H PARENT
REMARK Flexibility Score: inf
ROOT
ATOM      1  C   UNL     1       9.313   4.987  29.759  1.00  0.00     0.000 C 
ENDROOT
BRANCH   1   2
ATOM      2  C   UNL     1      10.565   4.121  29.947  1.00  0.00     0.000 C 
BRANCH   2   3
ATOM      3  C   UNL     1      11.831   4.886  29.528  1.00  0.00     0.000 C 
BRANCH   3   4
ATOM      4  C   UNL     1      11.861   5.212  28.026  1.00  0.00     0.000 C 
BRANCH   4   5
ATOM      5  C   UNL     1      13.262   5.618  27.532  1.00  0.00     0.000 C 
BRANCH   5   6
ATOM      6  C   UNL     1      13.517   5.203  26.067  1.00  0.00     0.000 C 
BRANCH   6   7
ATOM      7  C   UNL     1      14.036   6.349  25.179  1.00  0.00     0.000 C 
BRANCH   7   8
ATOM      8  C   UNL     1      14.327   7.633  25.971  1.00  0.00     0.000 C 
BRANCH   8   9
ATOM      9  C   UNL     1      14.187   8.878  25.083  1.00  0.00     0.000 C 
BRANCH   9  10
ATOM     10  C   UNL     1      15.545   9.444  24.637  1.00  0.00     0.006 C 
BRANCH  10  11
ATOM     11  C   UNL     1      16.655   9.212  25.671  1.00  0.00     0.053 C 
BRANCH  11  12
ATOM     12  C   UNL     1      17.619   8.173  25.188  1.00  0.00     0.041 C 
ATOM     13  O   UNL     1      17.362   7.507  24.149  1.00  0.00    -0.550 OA
ATOM     14  O   UNL     1      18.782   7.912  25.904  1.00  0.00    -0.550 OA
ENDBRANCH  11  12
ENDBRANCH  10  11
ENDBRANCH   9  10
ENDBRANCH   8   9
ENDBRANCH   7   8
ENDBRANCH   6   7
ENDBRANCH   5   6
ENDBRANCH   4   5
ENDBRANCH   3   4
ENDBRANCH   2   3
ENDBRANCH   1   2
BRANCH   1  15
ATOM     15  C   UNL     1       9.373   6.235  30.652  1.00  0.00     0.000 C 
BRANCH  15  16
ATOM     16  C   UNL     1       8.917   7.512  29.927  1.00  0.00     0.000 C 
BRANCH  16  17
ATOM     17  C   UNL     1       9.362   7.579  28.450  1.00  0.00     0.000 C 
BRANCH  17  18
ATOM     18  C   UNL     1      10.384   8.702  28.199  1.00  0.00    -0.000 C 
BRANCH  18  19
ATOM     19  C   UNL     1      11.058   8.582  26.814  1.00  0.00    -0.000 C 
BRANCH  19  20
ATOM     20  C   UNL     1      10.254   7.747  25.802  1.00  0.00    -0.000 C 
BRANCH  20  21
ATOM     21  C   UNL     1      10.470   8.204  24.350  1.00  0.00    -0.000 C 
BRANCH  21  22
ATOM     22  C   UNL     1      11.182   7.146  23.490  1.00  0.00    -0.000 C 
BRANCH  22  23
ATOM     23  C   UNL     1      11.508   7.586  22.050  1.00  0.00    -0.000 C 
BRANCH  23  24
ATOM     24  C   UNL     1      13.007   7.871  21.809  1.00  0.00    -0.000 C 
BRANCH  24  25
ATOM     25  C   UNL     1      13.266   9.339  21.435  1.00  0.00    -0.003 C 
ATOM     26  C   UNL     1      12.036   9.970  20.788  1.00  0.00     0.004 C 
ENDBRANCH  24  25
ENDBRANCH  23  24
ENDBRANCH  22  23
ENDBRANCH  21  22
ENDBRANCH  20  21
ENDBRANCH  19  20
ENDBRANCH  18  19
ENDBRANCH  17  18
ENDBRANCH  16  17
ENDBRANCH  15  16
ENDBRANCH   1  15
TORSDOF 22
ENDMDL
MODEL 4
REMARK VINA RESULT:    -4.666      9.453     13.822
REMARK INTER + INTRA:         -13.785
REMARK INTER:                 -10.701
REMARK INTRA:                  -3.084
REMARK UNBOUND:                -3.117
REMARK SMILES CCCCCCCCCCCCCCCCCCCCCCCC(=O)[O-]
REMARK SMILES IDX 13 1 14 2 15 3 16 4 17 5 18 6 19 7 20 8 21 9 22 10 23 11
REMARK SMILES IDX 24 12 25 13 26 14 12 15 11 16 10 17 9 18 8 19 7 20 6 21 5 22
REMARK SMILES IDX 4 23 3 24 2 25 1 26
REMARK H PARENT
REMARK Flexibility Score: inf
ROOT
ATOM      1  C   UNL     1       6.652   5.607  11.680  1.00  0.00     0.000 C 
ENDROOT
BRANCH   1   2
ATOM      2  C   UNL     1       7.938   6.321  12.115  1.00  0.00     0.000 C 
BRANCH   2   3
ATOM      3  C   UNL     1       7.814   7.842  11.929  1.00  0.00     0.000 C 
BRANCH   3   4
ATOM      4  C   UNL     1       8.069   8.624  13.227  1.00  0.00     0.000 C 
BRANCH   4   5
ATOM      5  C   UNL     1       8.071   7.722  14.476  1.00  0.00     0.000 C 
BRANCH   5   6
ATOM      6  C   UNL     1       7.099   8.219  15.568  1.00  0.00     0.000 C 
BRANCH   6   7
ATOM      7  C   UNL     1       6.622   7.112  16.524  1.00  0.00     0.000 C 
BRANCH   7   8
ATOM      8  C   UNL     1       5.959   7.666  17.795  1.00  0.00     0.000 C 
BRANCH   8   9
ATOM      9  C   UNL     1       6.939   8.532  18.600  1.00  0.00     0.000 C 
BRANCH   9  10
ATOM     10  C   UNL     1       7.161   8.006  20.028  1.00  0.00     0.006 C 
BRANCH  10  11
ATOM     11  C   UNL     1       6.009   7.121  20.522  1.00  0.00     0.053 C 
BRANCH  11  12
ATOM     12  C   UNL     1       5.492   7.613  21.838  1.00  0.00     0.041 C 
ATOM     13  O   UNL     1       4.994   6.803  22.665  1.00  0.00    -0.550 OA
ATOM     14  O   UNL     1       5.524   8.971  22.138  1.00  0.00    -0.550 OA
ENDBRANCH  11  12
ENDBRANCH  10  11
ENDBRANCH   9  10
ENDBRANCH   8   9
ENDBRANCH   7   8
ENDBRANCH   6   7
ENDBRANCH   5   6
ENDBRANCH   4   5
ENDBRANCH   3   4
ENDBRANCH   2   3
ENDBRANCH   1   2
BRANCH   1  15
ATOM     15  C   UNL     1       5.419   6.472  11.982  1.00  0.00     0.000 C 
BRANCH  15  16
ATOM     16  C   UNL     1       4.887   6.279  13.411  1.00  0.00     0.000 C 
BRANCH  16  17
ATOM     17  C   UNL     1       3.722   7.225  13.773  1.00  0.00     0.000 C 
BRANCH  17  18
ATOM     18  C   UNL     1       3.441   7.251  15.286  1.00  0.00    -0.000 C 
BRANCH  18  19
ATOM     19  C   UNL     1       2.912   8.623  15.760  1.00  0.00    -0.000 C 
BRANCH  19  20
ATOM     20  C   UNL     1       1.527   8.984  15.195  1.00  0.00    -0.000 C 
BRANCH  20  21
ATOM     21  C   UNL     1       0.726   9.905  16.130  1.00  0.00    -0.000 C 
BRANCH  21  22
ATOM     22  C   UNL     1      -0.436   9.182  16.831  1.00  0.00    -0.000 C 
BRANCH  22  23
ATOM     23  C   UNL     1      -0.220   8.899  18.330  1.00  0.00    -0.000 C 
BRANCH  23  24
ATOM     24  C   UNL     1       0.947   9.695  18.955  1.00  0.00    -0.000 C 
BRANCH  24  25
ATOM     25  C   UNL     1       2.154   8.800  19.276  1.00  0.00    -0.003 C 
ATOM     26  C   UNL     1       3.420   9.627  19.473  1.00  0.00     0.004 C 
ENDBRANCH  24  25
ENDBRANCH  23  24
ENDBRANCH  22  23
ENDBRANCH  21  22
ENDBRANCH  20  21
ENDBRANCH  19  20
ENDBRANCH  18  19
ENDBRANCH  17  18
ENDBRANCH  16  17
ENDBRANCH  15  16
ENDBRANCH   1  15
TORSDOF 22
ENDMDL
MODEL 5
REMARK VINA RESULT:    -4.625      2.246      6.947
REMARK INTER + INTRA:         -13.690
REMARK INTER:                  -9.212
REMARK INTRA:                  -4.477
REMARK UNBOUND:                -3.117
REMARK SMILES CCCCCCCCCCCCCCCCCCCCCCCC(=O)[O-]
REMARK SMILES IDX 13 1 14 2 15 3 16 4 17 5 18 6 19 7 20 8 21 9 22 10 23 11
REMARK SMILES IDX 24 12 25 13 26 14 12 15 11 16 10 17 9 18 8 19 7 20 6 21 5 22
REMARK SMILES IDX 4 23 3 24 2 25 1 26
REMARK H PARENT
REMARK Flexibility Score: inf
ROOT
ATOM      1  C   UNL     1      10.907   4.661  27.389  1.00  0.00     0.000 C 
ENDROOT
BRANCH   1   2
ATOM      2  C   UNL     1      12.052   5.085  28.317  1.00  0.00     0.000 C 
BRANCH   2   3
ATOM      3  C   UNL     1      13.173   5.781  27.527  1.00  0.00     0.000 C 
BRANCH   3   4
ATOM      4  C   UNL     1      13.201   5.371  26.045  1.00  0.00     0.000 C 
BRANCH   4   5
ATOM      5  C   UNL     1      13.848   6.439  25.143  1.00  0.00     0.000 C 
BRANCH   5   6
ATOM      6  C   UNL     1      14.572   7.537  25.951  1.00  0.00     0.000 C 
BRANCH   6   7
ATOM      7  C   UNL     1      14.843   8.821  25.147  1.00  0.00     0.000 C 
BRANCH   7   8
ATOM      8  C   UNL     1      14.878   8.579  23.630  1.00  0.00     0.000 C 
BRANCH   8   9
ATOM      9  C   UNL     1      14.355   9.801  22.860  1.00  0.00     0.000 C 
BRANCH   9  10
ATOM     10  C   UNL     1      13.378   9.420  21.735  1.00  0.00     0.006 C 
BRANCH  10  11
ATOM     11  C   UNL     1      13.214   7.902  21.579  1.00  0.00     0.053 C 
BRANCH  11  12
ATOM     12  C   UNL     1      12.069   7.586  20.668  1.00  0.00     0.041 C 
ATOM     13  O   UNL     1      11.580   6.425  20.645  1.00  0.00    -0.550 OA
ATOM     14  O   UNL     1      11.564   8.562  19.816  1.00  0.00    -0.550 OA
ENDBRANCH  11  12
ENDBRANCH  10  11
ENDBRANCH   9  10
ENDBRANCH   8   9
ENDBRANCH   7   8
ENDBRANCH   6   7
ENDBRANCH   5   6
ENDBRANCH   4   5
ENDBRANCH   3   4
ENDBRANCH   2   3
ENDBRANCH   1   2
BRANCH   1  15
ATOM     15  C   UNL     1       9.552   4.785  28.101  1.00  0.00     0.000 C 
BRANCH  15  16
ATOM     16  C   UNL     1       9.642   5.557  29.427  1.00  0.00     0.000 C 
BRANCH  16  17
ATOM     17  C   UNL     1       8.808   6.857  29.446  1.00  0.00     0.000 C 
BRANCH  17  18
ATOM     18  C   UNL     1       9.089   7.747  28.222  1.00  0.00    -0.000 C 
BRANCH  18  19
ATOM     19  C   UNL     1      10.472   8.431  28.301  1.00  0.00    -0.000 C 
BRANCH  19  20
ATOM     20  C   UNL     1      11.137   8.649  26.930  1.00  0.00    -0.000 C 
BRANCH  20  21
ATOM     21  C   UNL     1      10.432   7.883  25.800  1.00  0.00    -0.000 C 
BRANCH  21  22
ATOM     22  C   UNL     1      10.877   8.338  24.400  1.00  0.00    -0.000 C 
BRANCH  22  23
ATOM     23  C   UNL     1      10.671   9.835  24.102  1.00  0.00    -0.000 C 
BRANCH  23  24
ATOM     24  C   UNL     1       9.741  10.110  22.899  1.00  0.00    -0.000 C 
BRANCH  24  25
ATOM     25  C   UNL     1       9.071   8.829  22.379  1.00  0.00    -0.003 C 
ATOM     26  C   UNL     1       7.567   9.020  22.211  1.00  0.00     0.004 C 
ENDBRANCH  24  25
ENDBRANCH  23  24
ENDBRANCH  22  23
ENDBRANCH  21  22
ENDBRANCH  20  21
ENDBRANCH  19  20
ENDBRANCH  18  19
ENDBRANCH  17  18
ENDBRANCH  16  17
ENDBRANCH  15  16
ENDBRANCH   1  15
TORSDOF 22
ENDMDL
MODEL 6
REMARK VINA RESULT:    -4.449      1.922      4.725
REMARK INTER + INTRA:         -13.287
REMARK INTER:                  -9.970
REMARK INTRA:                  -3.317
REMARK UNBOUND:                -3.117
REMARK SMILES CCCCCCCCCCCCCCCCCCCCCCCC(=O)[O-]
REMARK SMILES IDX 13 1 14 2 15 3 16 4 17 5 18 6 19 7 20 8 21 9 22 10 23 11
REMARK SMILES IDX 24 12 25 13 26 14 12 15 11 16 10 17 9 18 8 19 7 20 6 21 5 22
REMARK SMILES IDX 4 23 3 24 2 25 1 26
REMARK H PARENT
REMARK Flexibility Score: inf
ROOT
ATOM      1  C   UNL     1       9.745   4.705  28.985  1.00  0.00     0.000 C 
ENDROOT
BRANCH   1   2
ATOM      2  C   UNL     1      10.063   5.464  30.279  1.00  0.00     0.000 C 
BRANCH   2   3
ATOM      3  C   UNL     1       9.227   6.751  30.382  1.00  0.00     0.000 C 
BRANCH   3   4
ATOM      4  C   UNL     1       8.935   7.383  29.012  1.00  0.00     0.000 C 
BRANCH   4   5
ATOM      5  C   UNL     1      10.105   8.235  28.486  1.00  0.00     0.000 C 
BRANCH   5   6
ATOM      6  C   UNL     1      10.371   8.014  26.981  1.00  0.00     0.000 C 
BRANCH   6   7
ATOM      7  C   UNL     1      11.452   8.942  26.399  1.00  0.00     0.000 C 
BRANCH   7   8
ATOM      8  C   UNL     1      11.222   9.269  24.916  1.00  0.00     0.000 C 
BRANCH   8   9
ATOM      9  C   UNL     1      10.170   8.336  24.297  1.00  0.00     0.000 C 
BRANCH   9  10
ATOM     10  C   UNL     1      10.440   8.040  22.813  1.00  0.00     0.006 C 
BRANCH  10  11
ATOM     11  C   UNL     1      11.680   7.162  22.597  1.00  0.00     0.053 C 
BRANCH  11  12
ATOM     12  C   UNL     1      12.382   7.543  21.330  1.00  0.00     0.041 C 
ATOM     13  O   UNL     1      11.777   7.473  20.227  1.00  0.00    -0.550 OA
ATOM     14  O   UNL     1      13.715   7.938  21.362  1.00  0.00    -0.550 OA
ENDBRANCH  11  12
ENDBRANCH  10  11
ENDBRANCH   9  10
ENDBRANCH   8   9
ENDBRANCH   7   8
ENDBRANCH   6   7
ENDBRANCH   5   6
ENDBRANCH   4   5
ENDBRANCH   3   4
ENDBRANCH   2   3
ENDBRANCH   1   2
BRANCH   1  15
ATOM     15  C   UNL     1      10.998   4.574  28.107  1.00  0.00     0.000 C 
BRANCH  15  16
ATOM     16  C   UNL     1      12.252   5.179  28.759  1.00  0.00     0.000 C 
BRANCH  16  17
ATOM     17  C   UNL     1      13.319   5.641  27.743  1.00  0.00     0.000 C 
BRANCH  17  18
ATOM     18  C   UNL     1      12.841   5.490  26.287  1.00  0.00    -0.000 C 
BRANCH  18  19
ATOM     19  C   UNL     1      13.854   6.070  25.275  1.00  0.00    -0.000 C 
BRANCH  19  20
ATOM     20  C   UNL     1      14.452   7.423  25.700  1.00  0.00    -0.000 C 
BRANCH  20  21
ATOM     21  C   UNL     1      14.663   8.377  24.514  1.00  0.00    -0.000 C 
BRANCH  21  22
ATOM     22  C   UNL     1      15.329   9.702  24.923  1.00  0.00    -0.000 C 
BRANCH  22  23
ATOM     23  C   UNL     1      16.760   9.906  24.392  1.00  0.00    -0.000 C 
BRANCH  23  24
ATOM     24  C   UNL     1      17.850   9.818  25.483  1.00  0.00    -0.000 C 
BRANCH  24  25
ATOM     25  C   UNL     1      18.452   8.409  25.589  1.00  0.00    -0.003 C 
ATOM     26  C   UNL     1      18.025   7.534  24.415  1.00  0.00     0.004 C 
ENDBRANCH  24  25
ENDBRANCH  23  24
ENDBRANCH  22  23
ENDBRANCH  21  22
ENDBRANCH  20  21
ENDBRANCH  19  20
ENDBRANCH  18  19
ENDBRANCH  17  18
ENDBRANCH  16  17
ENDBRANCH  15  16
ENDBRANCH   1  15
TORSDOF 22
ENDMDL
MODEL 7
REMARK VINA RESULT:    -4.375      2.462      6.156
REMARK INTER + INTRA:         -13.118
REMARK INTER:                  -9.547
REMARK INTRA:                  -3.572
REMARK UNBOUND:                -3.117
REMARK SMILES CCCCCCCCCCCCCCCCCCCCCCCC(=O)[O-]
REMARK SMILES IDX 13 1 14 2 15 3 16 4 17 5 18 6 19 7 20 8 21 9 22 10 23 11
REMARK SMILES IDX 24 12 25 13 26 14 12 15 11 16 10 17 9 18 8 19 7 20 6 21 5 22
REMARK SMILES IDX 4 23 3 24 2 25 1 26
REMARK H PARENT
REMARK Flexibility Score: inf
ROOT
ATOM      1  C   UNL     1       9.207   7.090  27.904  1.00  0.00     0.000 C 
ENDROOT
BRANCH   1   2
ATOM      2  C   UNL     1      10.133   8.281  28.179  1.00  0.00     0.000 C 
BRANCH   2   3
ATOM      3  C   UNL     1      10.998   8.603  26.949  1.00  0.00     0.000 C 
BRANCH   3   4
ATOM      4  C   UNL     1      10.493   7.915  25.670  1.00  0.00     0.000 C 
BRANCH   4   5
ATOM      5  C   UNL     1      11.174   8.451  24.396  1.00  0.00     0.000 C 
BRANCH   5   6
ATOM      6  C   UNL     1      11.467   7.338  23.368  1.00  0.00     0.000 C 
BRANCH   6   7
ATOM      7  C   UNL     1      12.467   7.752  22.273  1.00  0.00     0.000 C 
BRANCH   7   8
ATOM      8  C   UNL     1      12.329   9.227  21.866  1.00  0.00     0.000 C 
BRANCH   8   9
ATOM      9  C   UNL     1      12.082   9.366  20.356  1.00  0.00     0.000 C 
BRANCH   9  10
ATOM     10  C   UNL     1      10.589   9.299  19.991  1.00  0.00     0.006 C 
BRANCH  10  11
ATOM     11  C   UNL     1       9.684   9.899  21.075  1.00  0.00     0.053 C 
BRANCH  11  12
ATOM     12  C   UNL     1       8.639   8.913  21.496  1.00  0.00     0.041 C 
ATOM     13  O   UNL     1       8.214   8.054  20.677  1.00  0.00    -0.550 OA
ATOM     14  O   UNL     1       8.106   8.965  22.779  1.00  0.00    -0.550 OA
ENDBRANCH  11  12
ENDBRANCH  10  11
ENDBRANCH   9  10
ENDBRANCH   8   9
ENDBRANCH   7   8
ENDBRANCH   6   7
ENDBRANCH   5   6
ENDBRANCH   4   5
ENDBRANCH   3   4
ENDBRANCH   2   3
ENDBRANCH   1   2
BRANCH   1  15
ATOM     15  C   UNL     1       9.147   6.153  29.120  1.00  0.00     0.000 C 
BRANCH  15  16
ATOM     16  C   UNL     1       9.937   4.851  28.910  1.00  0.00     0.000 C 
BRANCH  16  17
ATOM     17  C   UNL     1      10.796   4.846  27.627  1.00  0.00     0.000 C 
BRANCH  17  18
ATOM     18  C   UNL     1      12.265   5.213  27.909  1.00  0.00    -0.000 C 
BRANCH  18  19
ATOM     19  C   UNL     1      13.059   5.484  26.612  1.00  0.00    -0.000 C 
BRANCH  19  20
ATOM     20  C   UNL     1      14.071   6.637  26.731  1.00  0.00    -0.000 C 
BRANCH  20  21
ATOM     21  C   UNL     1      14.504   7.190  25.364  1.00  0.00    -0.000 C 
BRANCH  21  22
ATOM     22  C   UNL     1      14.863   8.685  25.410  1.00  0.00    -0.000 C 
BRANCH  22  23
ATOM     23  C   UNL     1      15.328   9.288  24.071  1.00  0.00    -0.000 C 
BRANCH  23  24
ATOM     24  C   UNL     1      16.798   9.762  24.076  1.00  0.00    -0.000 C 
BRANCH  24  25
ATOM     25  C   UNL     1      17.524   9.386  25.377  1.00  0.00    -0.003 C 
ATOM     26  C   UNL     1      19.028   9.254  25.154  1.00  0.00     0.004 C 
ENDBRANCH  24  25
ENDBRANCH  23  24
ENDBRANCH  22  23
ENDBRANCH  21  22
ENDBRANCH  20  21
ENDBRANCH  19  20
ENDBRANCH  18  19
ENDBRANCH  17  18
ENDBRANCH  16  17
ENDBRANCH  15  16
ENDBRANCH   1  15
TORSDOF 22
ENDMDL
MODEL 8
REMARK VINA RESULT:    -4.341      3.404      7.100
REMARK INTER + INTRA:         -13.042
REMARK INTER:                 -10.062
REMARK INTRA:                  -2.980
REMARK UNBOUND:                -3.117
REMARK SMILES CCCCCCCCCCCCCCCCCCCCCCCC(=O)[O-]
REMARK SMILES IDX 13 1 14 2 15 3 16 4 17 5 18 6 19 7 20 8 21 9 22 10 23 11
REMARK SMILES IDX 24 12 25 13 26 14 12 15 11 16 10 17 9 18 8 19 7 20 6 21 5 22
REMARK SMILES IDX 4 23 3 24 2 25 1 26
REMARK H PARENT
REMARK Flexibility Score: inf
ROOT
ATOM      1  C   UNL     1      12.619   7.925  21.385  1.00  0.00     0.000 C 
ENDROOT
BRANCH   1   2
ATOM      2  C   UNL     1      12.489   8.804  22.635  1.00  0.00     0.000 C 
BRANCH   2   3
ATOM      3  C   UNL     1      13.872   9.145  23.215  1.00  0.00     0.000 C 
BRANCH   3   4
ATOM      4  C   UNL     1      13.905   9.084  24.751  1.00  0.00     0.000 C 
BRANCH   4   5
ATOM      5  C   UNL     1      14.163   7.662  25.285  1.00  0.00     0.000 C 
BRANCH   5   6
ATOM      6  C   UNL     1      13.069   7.191  26.267  1.00  0.00     0.000 C 
BRANCH   6   7
ATOM      7  C   UNL     1      11.767   6.745  25.579  1.00  0.00     0.000 C 
BRANCH   7   8
ATOM      8  C   UNL     1      10.537   7.528  26.063  1.00  0.00     0.000 C 
BRANCH   8   9
ATOM      9  C   UNL     1      10.521   7.646  27.594  1.00  0.00     0.000 C 
BRANCH   9  10
ATOM     10  C   UNL     1       9.200   7.159  28.213  1.00  0.00     0.006 C 
BRANCH  10  11
ATOM     11  C   UNL     1       9.096   5.629  28.266  1.00  0.00     0.053 C 
BRANCH  11  12
ATOM     12  C   UNL     1       9.575   5.112  29.587  1.00  0.00     0.041 C 
ATOM     13  O   UNL     1       9.557   5.858  30.602  1.00  0.00    -0.550 OA
ATOM     14  O   UNL     1      10.078   3.820  29.691  1.00  0.00    -0.550 OA
ENDBRANCH  11  12
ENDBRANCH  10  11
ENDBRANCH   9  10
ENDBRANCH   8   9
ENDBRANCH   7   8
ENDBRANCH   6   7
ENDBRANCH   5   6
ENDBRANCH   4   5
ENDBRANCH   3   4
ENDBRANCH   2   3
ENDBRANCH   1   2
BRANCH   1  15
ATOM     15  C   UNL     1      11.625   6.755  21.434  1.00  0.00     0.000 C 
BRANCH  15  16
ATOM     16  C   UNL     1      10.347   7.089  22.219  1.00  0.00     0.000 C 
BRANCH  16  17
ATOM     17  C   UNL     1       9.140   7.437  21.321  1.00  0.00     0.000 C 
BRANCH  17  18
ATOM     18  C   UNL     1       8.820   8.943  21.332  1.00  0.00    -0.000 C 
BRANCH  18  19
ATOM     19  C   UNL     1       8.365   9.435  22.724  1.00  0.00    -0.000 C 
BRANCH  19  20
ATOM     20  C   UNL     1       6.864   9.760  22.808  1.00  0.00    -0.000 C 
BRANCH  20  21
ATOM     21  C   UNL     1       6.035   8.598  23.377  1.00  0.00    -0.000 C 
BRANCH  21  22
ATOM     22  C   UNL     1       5.278   7.814  22.291  1.00  0.00    -0.000 C 
BRANCH  22  23
ATOM     23  C   UNL     1       4.276   8.643  21.465  1.00  0.00    -0.000 C 
BRANCH  23  24
ATOM     24  C   UNL     1       4.351   8.377  19.945  1.00  0.00    -0.000 C 
BRANCH  24  25
ATOM     25  C   UNL     1       5.699   8.808  19.346  1.00  0.00    -0.003 C 
ATOM     26  C   UNL     1       6.434   7.623  18.727  1.00  0.00     0.004 C 
ENDBRANCH  24  25
ENDBRANCH  23  24
ENDBRANCH  22  23
ENDBRANCH  21  22
ENDBRANCH  20  21
ENDBRANCH  19  20
ENDBRANCH  18  19
ENDBRANCH  17  18
ENDBRANCH  16  17
ENDBRANCH  15  16
ENDBRANCH   1  15
TORSDOF 22
ENDMDL
MODEL 9
REMARK VINA RESULT:    -4.339      4.474      8.268
REMARK INTER + INTRA:         -13.036
REMARK INTER:                 -10.123
REMARK INTRA:                  -2.913
REMARK UNBOUND:                -3.117
REMARK SMILES CCCCCCCCCCCCCCCCCCCCCCCC(=O)[O-]
REMARK SMILES IDX 13 1 14 2 15 3 16 4 17 5 18 6 19 7 20 8 21 9 22 10 23 11
REMARK SMILES IDX 24 12 25 13 26 14 12 15 11 16 10 17 9 18 8 19 7 20 6 21 5 22
REMARK SMILES IDX 4 23 3 24 2 25 1 26
REMARK H PARENT
REMARK Flexibility Score: inf
ROOT
ATOM      1  C   UNL     1      11.426   8.495  20.371  1.00  0.00     0.000 C 
ENDROOT
BRANCH   1   2
ATOM      2  C   UNL     1      10.817   7.243  21.013  1.00  0.00     0.000 C 
BRANCH   2   3
ATOM      3  C   UNL     1       9.358   7.491  21.429  1.00  0.00     0.000 C 
BRANCH   3   4
ATOM      4  C   UNL     1       8.997   8.985  21.472  1.00  0.00     0.000 C 
BRANCH   4   5
ATOM      5  C   UNL     1       8.399   9.415  22.825  1.00  0.00     0.000 C 
BRANCH   5   6
ATOM      6  C   UNL     1       6.902   9.780  22.723  1.00  0.00     0.000 C 
BRANCH   6   7
ATOM      7  C   UNL     1       5.963   8.727  23.336  1.00  0.00     0.000 C 
BRANCH   7   8
ATOM      8  C   UNL     1       5.552   7.637  22.333  1.00  0.00     0.000 C 
BRANCH   8   9
ATOM      9  C   UNL     1       5.311   8.230  20.937  1.00  0.00     0.000 C 
BRANCH   9  10
ATOM     10  C   UNL     1       5.586   7.222  19.809  1.00  0.00     0.006 C 
BRANCH  10  11
ATOM     11  C   UNL     1       6.636   7.721  18.807  1.00  0.00     0.053 C 
BRANCH  11  12
ATOM     12  C   UNL     1       6.109   7.646  17.408  1.00  0.00     0.041 C 
ATOM     13  O   UNL     1       4.870   7.532  17.204  1.00  0.00    -0.550 OA
ATOM     14  O   UNL     1       6.985   7.664  16.329  1.00  0.00    -0.550 OA
ENDBRANCH  11  12
ENDBRANCH  10  11
ENDBRANCH   9  10
ENDBRANCH   8   9
ENDBRANCH   7   8
ENDBRANCH   6   7
ENDBRANCH   5   6
ENDBRANCH   4   5
ENDBRANCH   3   4
ENDBRANCH   2   3
ENDBRANCH   1   2
BRANCH   1  15
ATOM     15  C   UNL     1      12.522   9.091  21.266  1.00  0.00     0.000 C 
BRANCH  15  16
ATOM     16  C   UNL     1      13.209   8.037  22.151  1.00  0.00     0.000 C 
BRANCH  16  17
ATOM     17  C   UNL     1      13.243   8.412  23.649  1.00  0.00     0.000 C 
BRANCH  17  18
ATOM     18  C   UNL     1      11.851   8.788  24.187  1.00  0.00    -0.000 C 
BRANCH  18  19
ATOM     19  C   UNL     1      11.142   7.593  24.862  1.00  0.00    -0.000 C 
BRANCH  19  20
ATOM     20  C   UNL     1      11.242   7.598  26.398  1.00  0.00    -0.000 C 
BRANCH  20  21
ATOM     21  C   UNL     1      11.565   6.211  26.976  1.00  0.00    -0.000 C 
BRANCH  21  22
ATOM     22  C   UNL     1      10.333   5.294  27.054  1.00  0.00    -0.000 C 
BRANCH  22  23
ATOM     23  C   UNL     1       9.252   5.734  28.061  1.00  0.00    -0.000 C 
BRANCH  23  24
ATOM     24  C   UNL     1       9.390   5.076  29.451  1.00  0.00    -0.000 C 
BRANCH  24  25
ATOM     25  C   UNL     1       9.350   6.110  30.588  1.00  0.00    -0.003 C 
ATOM     26  C   UNL     1       8.967   7.491  30.067  1.00  0.00     0.004 C 
ENDBRANCH  24  25
ENDBRANCH  23  24
ENDBRANCH  22  23
ENDBRANCH  21  22
ENDBRANCH  20  21
ENDBRANCH  19  20
ENDBRANCH  18  19
ENDBRANCH  17  18
ENDBRANCH  16  17
ENDBRANCH  15  16
ENDBRANCH   1  15
TORSDOF 22
ENDMDL
