MODEL 1
REMARK VINA RESULT:     0.571      0.000      0.000
REMARK INTER + INTRA:           1.145
REMARK INTER:                   0.704
REMARK INTRA:                   0.441
REMARK UNBOUND:                 0.441
REMARK SMILES O=c1c(O)c(-c2cc(O)c(O)c(O)c2)oc2cc(O)cc(O)c12
REMARK SMILES IDX 5 1 3 2 2 3 1 4 23 5 21 6 20 7 18 8 17 9 16 10 15 11 6 12
REMARK SMILES IDX 7 13 8 14 14 15 10 16 12 17 9 18 11 20 13 22 4 24 22 26
REMARK SMILES IDX 19 28
REMARK H PARENT 9 19 11 21 13 23 4 25 22 27 19 29
REMARK Flexibility Score: inf
ROOT
ATOM      1  C   UNL     1       2.481 -15.096   9.389  1.00  0.00     0.180 A 
ATOM      2  C   UNL     1       3.619 -15.082   8.558  1.00  0.00     0.208 A 
ATOM      3  C   UNL     1       3.441 -15.055   7.166  1.00  0.00     0.238 A 
ATOM      4  O   UNL     1       4.452 -15.031   6.412  1.00  0.00    -0.285 OA
ATOM      5  C   UNL     1       2.137 -15.063   6.629  1.00  0.00     0.111 A 
ATOM      6  C   UNL     1       1.872 -15.041   5.238  1.00  0.00     0.134 A 
ATOM      7  C   UNL     1       0.546 -15.061   4.783  1.00  0.00     0.093 A 
ATOM      8  C   UNL     1      -0.518 -15.102   5.689  1.00  0.00     0.123 A 
ATOM      9  C   UNL     1      -0.262 -15.123   7.062  1.00  0.00     0.094 A 
ATOM     10  C   UNL     1       1.053 -15.103   7.536  1.00  0.00     0.146 A 
ATOM     11  O   UNL     1       1.268 -15.119   8.847  1.00  0.00    -0.452 OA
ENDROOT
BRANCH   1  12
ATOM     12  C   UNL     1       2.586 -15.106  10.866  1.00  0.00     0.029 A 
ATOM     13  C   UNL     1       3.835 -15.114  11.510  1.00  0.00     0.062 A 
ATOM     14  C   UNL     1       3.917 -15.099  12.907  1.00  0.00     0.162 A 
ATOM     15  C   UNL     1       1.419 -15.048  11.641  1.00  0.00     0.062 A 
ATOM     16  C   UNL     1       2.743 -15.064  13.678  1.00  0.00     0.200 A 
ATOM     17  C   UNL     1       1.491 -15.035  13.041  1.00  0.00     0.162 A 
BRANCH  14  18
ATOM     18  O   UNL     1       5.175 -15.113  13.508  1.00  0.00    -0.504 OA
ATOM     19  H   UNL     1       5.588 -15.963  13.872  1.00  0.00     0.293 HD
ENDBRANCH  14  18
BRANCH  16  20
ATOM     20  O   UNL     1       2.834 -15.054  15.070  1.00  0.00    -0.502 OA
ATOM     21  H   UNL     1       3.453 -14.424  15.567  1.00  0.00     0.293 HD
ENDBRANCH  16  20
BRANCH  17  22
ATOM     22  O   UNL     1       0.323 -14.992  13.800  1.00  0.00    -0.504 OA
ATOM     23  H   UNL     1       0.210 -15.555  14.636  1.00  0.00     0.293 HD
ENDBRANCH  17  22
ENDBRANCH   1  12
BRANCH   2  24
ATOM     24  O   UNL     1       4.900 -15.125   9.115  1.00  0.00    -0.502 OA
ATOM     25  H   UNL     1       5.071 -15.465  10.054  1.00  0.00     0.293 HD
ENDBRANCH   2  24
BRANCH   6  26
ATOM     26  O   UNL     1       2.913 -15.001   4.310  1.00  0.00    -0.507 OA
ATOM     27  H   UNL     1       2.737 -14.951   3.313  1.00  0.00     0.293 HD
ENDBRANCH   6  26
BRANCH   8  28
ATOM     28  O   UNL     1      -1.836 -15.121   5.238  1.00  0.00    -0.508 OA
ATOM     29  H   UNL     1      -2.102 -15.628   4.402  1.00  0.00     0.293 HD
ENDBRANCH   8  28
TORSDOF 7
ENDMDL
MODEL 2
REMARK VINA RESULT:     0.907      0.869      2.002
REMARK INTER + INTRA:           1.560
REMARK INTER:                   1.049
REMARK INTRA:                   0.511
REMARK UNBOUND:                 0.441
REMARK SMILES O=c1c(O)c(-c2cc(O)c(O)c(O)c2)oc2cc(O)cc(O)c12
REMARK SMILES IDX 5 1 3 2 2 3 1 4 23 5 21 6 20 7 18 8 17 9 16 10 15 11 6 12
REMARK SMILES IDX 7 13 8 14 14 15 10 16 12 17 9 18 11 20 13 22 4 24 22 26
REMARK SMILES IDX 19 28
REMARK H PARENT 9 19 11 21 13 23 4 25 22 27 19 29
REMARK Flexibility Score: inf
ROOT
ATOM      1  C   UNL     1       2.486 -15.042   8.436  1.00  0.00     0.180 A 
ATOM      2  C   UNL     1       3.580 -15.025   7.548  1.00  0.00     0.208 A 
ATOM      3  C   UNL     1       3.333 -15.009   6.167  1.00  0.00     0.238 A 
ATOM      4  O   UNL     1       4.304 -14.982   5.363  1.00  0.00    -0.285 OA
ATOM      5  C   UNL     1       2.003 -15.030   5.696  1.00  0.00     0.111 A 
ATOM      6  C   UNL     1       1.669 -15.018   4.320  1.00  0.00     0.134 A 
ATOM      7  C   UNL     1       0.322 -15.050   3.932  1.00  0.00     0.093 A 
ATOM      8  C   UNL     1      -0.696 -15.093   4.891  1.00  0.00     0.123 A 
ATOM      9  C   UNL     1      -0.371 -15.104   6.249  1.00  0.00     0.094 A 
ATOM     10  C   UNL     1       0.966 -15.071   6.657  1.00  0.00     0.146 A 
ATOM     11  O   UNL     1       1.247 -15.077   7.955  1.00  0.00    -0.452 OA
ENDROOT
BRANCH   1  12
ATOM     12  C   UNL     1       2.665 -15.042   9.906  1.00  0.00     0.029 A 
ATOM     13  C   UNL     1       1.563 -15.063  10.777  1.00  0.00     0.062 A 
ATOM     14  C   UNL     1       1.750 -15.088  12.163  1.00  0.00     0.162 A 
ATOM     15  C   UNL     1       3.961 -15.080  10.442  1.00  0.00     0.062 A 
ATOM     16  C   UNL     1       3.051 -15.103  12.695  1.00  0.00     0.200 A 
ATOM     17  C   UNL     1       4.158 -15.102  11.830  1.00  0.00     0.162 A 
BRANCH  14  18
ATOM     18  O   UNL     1       0.631 -15.103  12.994  1.00  0.00    -0.504 OA
ATOM     19  H   UNL     1      -0.224 -14.616  12.755  1.00  0.00     0.293 HD
ENDBRANCH  14  18
BRANCH  16  20
ATOM     20  O   UNL     1       3.229 -15.122  14.078  1.00  0.00    -0.502 OA
ATOM     21  H   UNL     1       4.081 -15.460  14.509  1.00  0.00     0.293 HD
ENDBRANCH  16  20
BRANCH  17  22
ATOM     22  O   UNL     1       5.450 -15.125  12.351  1.00  0.00    -0.504 OA
ATOM     23  H   UNL     1       6.127 -15.824  12.064  1.00  0.00     0.293 HD
ENDBRANCH  17  22
ENDBRANCH   1  12
BRANCH   2  24
ATOM     24  O   UNL     1       4.888 -15.055   8.040  1.00  0.00    -0.502 OA
ATOM     25  H   UNL     1       5.099 -15.299   9.000  1.00  0.00     0.293 HD
ENDBRANCH   2  24
BRANCH   6  26
ATOM     26  O   UNL     1       2.662 -14.977   3.341  1.00  0.00    -0.507 OA
ATOM     27  H   UNL     1       3.236 -14.153   3.197  1.00  0.00     0.293 HD
ENDBRANCH   6  26
BRANCH   8  28
ATOM     28  O   UNL     1      -2.034 -15.125   4.506  1.00  0.00    -0.508 OA
ATOM     29  H   UNL     1      -2.776 -14.881   5.151  1.00  0.00     0.293 HD
ENDBRANCH   8  28
TORSDOF 7
ENDMDL
MODEL 3
REMARK VINA RESULT:     1.929      1.112      2.254
REMARK INTER + INTRA:           2.822
REMARK INTER:                   2.330
REMARK INTRA:                   0.492
REMARK UNBOUND:                 0.441
REMARK SMILES O=c1c(O)c(-c2cc(O)c(O)c(O)c2)oc2cc(O)cc(O)c12
REMARK SMILES IDX 5 1 3 2 2 3 1 4 23 5 21 6 20 7 18 8 17 9 16 10 15 11 6 12
REMARK SMILES IDX 7 13 8 14 14 15 10 16 12 17 9 18 11 20 13 22 4 24 22 26
REMARK SMILES IDX 19 28
REMARK H PARENT 9 19 11 21 13 23 4 25 22 27 19 29
REMARK Flexibility Score: inf
ROOT
ATOM      1  C   UNL     1       2.650 -14.863  10.714  1.00  0.00     0.180 A 
ATOM      2  C   UNL     1       3.897 -14.919  10.061  1.00  0.00     0.208 A 
ATOM      3  C   UNL     1       3.926 -14.985   8.660  1.00  0.00     0.238 A 
ATOM      4  O   UNL     1       5.037 -15.025   8.063  1.00  0.00    -0.285 OA
ATOM      5  C   UNL     1       2.715 -15.015   7.937  1.00  0.00     0.111 A 
ATOM      6  C   UNL     1       2.658 -15.084   6.525  1.00  0.00     0.134 A 
ATOM      7  C   UNL     1       1.412 -15.119   5.881  1.00  0.00     0.093 A 
ATOM      8  C   UNL     1       0.226 -15.086   6.621  1.00  0.00     0.123 A 
ATOM      9  C   UNL     1       0.277 -15.017   8.014  1.00  0.00     0.094 A 
ATOM     10  C   UNL     1       1.509 -14.980   8.675  1.00  0.00     0.146 A 
ATOM     11  O   UNL     1       1.529 -14.909  10.001  1.00  0.00    -0.452 OA
ENDROOT
BRANCH   1  12
ATOM     12  C   UNL     1       2.537 -14.774  12.188  1.00  0.00     0.029 A 
ATOM     13  C   UNL     1       1.297 -14.569  12.816  1.00  0.00     0.062 A 
ATOM     14  C   UNL     1       1.205 -14.512  14.210  1.00  0.00     0.162 A 
ATOM     15  C   UNL     1       3.681 -14.955  12.979  1.00  0.00     0.062 A 
ATOM     16  C   UNL     1       2.358 -14.671  14.997  1.00  0.00     0.200 A 
ATOM     17  C   UNL     1       3.599 -14.897  14.378  1.00  0.00     0.162 A 
BRANCH  14  18
ATOM     18  O   UNL     1      -0.043 -14.302  14.795  1.00  0.00    -0.504 OA
ATOM     19  H   UNL     1      -0.210 -14.459  15.782  1.00  0.00     0.293 HD
ENDBRANCH  14  18
BRANCH  16  20
ATOM     20  O   UNL     1       2.258 -14.608  16.387  1.00  0.00    -0.502 OA
ATOM     21  H   UNL     1       1.454 -14.968  16.889  1.00  0.00     0.293 HD
ENDBRANCH  16  20
BRANCH  17  22
ATOM     22  O   UNL     1       4.745 -15.063  15.152  1.00  0.00    -0.504 OA
ATOM     23  H   UNL     1       5.396 -14.302  15.311  1.00  0.00     0.293 HD
ENDBRANCH  17  22
ENDBRANCH   1  12
BRANCH   2  24
ATOM     24  O   UNL     1       5.081 -14.939  10.803  1.00  0.00    -0.502 OA
ATOM     25  H   UNL     1       5.765 -15.681  10.712  1.00  0.00     0.293 HD
ENDBRANCH   2  24
BRANCH   6  26
ATOM     26  O   UNL     1       3.824 -15.120   5.760  1.00  0.00    -0.507 OA
ATOM     27  H   UNL     1       3.905 -14.610   4.887  1.00  0.00     0.293 HD
ENDBRANCH   6  26
BRANCH   8  28
ATOM     28  O   UNL     1      -1.012 -15.121   5.981  1.00  0.00    -0.508 OA
ATOM     29  H   UNL     1      -1.837 -15.481   6.445  1.00  0.00     0.293 HD
ENDBRANCH   8  28
TORSDOF 7
ENDMDL
MODEL 4
REMARK VINA RESULT:     3.189      1.459      7.025
REMARK INTER + INTRA:           4.376
REMARK INTER:                   3.944
REMARK INTRA:                   0.432
REMARK UNBOUND:                 0.441
REMARK SMILES O=c1c(O)c(-c2cc(O)c(O)c(O)c2)oc2cc(O)cc(O)c12
REMARK SMILES IDX 5 1 3 2 2 3 1 4 23 5 21 6 20 7 18 8 17 9 16 10 15 11 6 12
REMARK SMILES IDX 7 13 8 14 14 15 10 16 12 17 9 18 11 20 13 22 4 24 22 26
REMARK SMILES IDX 19 28
REMARK H PARENT 9 19 11 21 13 23 4 25 22 27 19 29
REMARK Flexibility Score: inf
ROOT
ATOM      1  C   UNL     1       2.935 -14.858  11.031  1.00  0.00     0.180 A 
ATOM      2  C   UNL     1       4.215 -14.989  11.605  1.00  0.00     0.208 A 
ATOM      3  C   UNL     1       4.339 -14.951  13.002  1.00  0.00     0.238 A 
ATOM      4  O   UNL     1       5.478 -15.078  13.527  1.00  0.00    -0.285 OA
ATOM      5  C   UNL     1       3.190 -14.762  13.799  1.00  0.00     0.111 A 
ATOM      6  C   UNL     1       3.230 -14.708  15.213  1.00  0.00     0.134 A 
ATOM      7  C   UNL     1       2.044 -14.507  15.934  1.00  0.00     0.093 A 
ATOM      8  C   UNL     1       0.822 -14.361  15.270  1.00  0.00     0.123 A 
ATOM      9  C   UNL     1       0.778 -14.414  13.876  1.00  0.00     0.094 A 
ATOM     10  C   UNL     1       1.949 -14.614  13.138  1.00  0.00     0.146 A 
ATOM     11  O   UNL     1       1.877 -14.666  11.813  1.00  0.00    -0.452 OA
ENDROOT
BRANCH   1  12
ATOM     12  C   UNL     1       2.720 -14.907   9.566  1.00  0.00     0.029 A 
ATOM     13  C   UNL     1       3.801 -14.976   8.671  1.00  0.00     0.062 A 
ATOM     14  C   UNL     1       3.580 -15.046   7.291  1.00  0.00     0.162 A 
ATOM     15  C   UNL     1       1.412 -14.944   9.062  1.00  0.00     0.062 A 
ATOM     16  C   UNL     1       2.267 -15.060   6.790  1.00  0.00     0.200 A 
ATOM     17  C   UNL     1       1.181 -15.012   7.680  1.00  0.00     0.162 A 
BRANCH  14  18
ATOM     18  O   UNL     1       4.679 -15.107   6.435  1.00  0.00    -0.504 OA
ATOM     19  H   UNL     1       4.588 -14.993   5.433  1.00  0.00     0.293 HD
ENDBRANCH  14  18
BRANCH  16  20
ATOM     20  O   UNL     1       2.056 -15.125   5.413  1.00  0.00    -0.502 OA
ATOM     21  H   UNL     1       1.148 -14.955   4.996  1.00  0.00     0.293 HD
ENDBRANCH  16  20
BRANCH  17  22
ATOM     22  O   UNL     1      -0.123 -15.033   7.191  1.00  0.00    -0.504 OA
ATOM     23  H   UNL     1      -0.469 -14.314   6.564  1.00  0.00     0.293 HD
ENDBRANCH  17  22
ENDBRANCH   1  12
BRANCH   2  24
ATOM     24  O   UNL     1       5.342 -15.125  10.790  1.00  0.00    -0.502 OA
ATOM     25  H   UNL     1       5.919 -14.334  10.527  1.00  0.00     0.293 HD
ENDBRANCH   2  24
BRANCH   6  26
ATOM     26  O   UNL     1       4.434 -14.849  15.903  1.00  0.00    -0.507 OA
ATOM     27  H   UNL     1       5.053 -14.061  16.064  1.00  0.00     0.293 HD
ENDBRANCH   6  26
BRANCH   8  28
ATOM     28  O   UNL     1      -0.357 -14.162  15.986  1.00  0.00    -0.508 OA
ATOM     29  H   UNL     1      -0.418 -14.376  16.975  1.00  0.00     0.293 HD
ENDBRANCH   8  28
TORSDOF 7
ENDMDL
MODEL 5
REMARK VINA RESULT:     3.196      1.560      7.272
REMARK INTER + INTRA:           4.384
REMARK INTER:                   3.903
REMARK INTRA:                   0.482
REMARK UNBOUND:                 0.441
REMARK SMILES O=c1c(O)c(-c2cc(O)c(O)c(O)c2)oc2cc(O)cc(O)c12
REMARK SMILES IDX 5 1 3 2 2 3 1 4 23 5 21 6 20 7 18 8 17 9 16 10 15 11 6 12
REMARK SMILES IDX 7 13 8 14 14 15 10 16 12 17 9 18 11 20 13 22 4 24 22 26
REMARK SMILES IDX 19 28
REMARK H PARENT 9 19 11 21 13 23 4 25 22 27 19 29
REMARK Flexibility Score: inf
ROOT
ATOM      1  C   UNL     1       2.985 -14.768  11.152  1.00  0.00     0.180 A 
ATOM      2  C   UNL     1       4.241 -14.913  11.773  1.00  0.00     0.208 A 
ATOM      3  C   UNL     1       4.324 -14.810  13.170  1.00  0.00     0.238 A 
ATOM      4  O   UNL     1       5.441 -14.948  13.738  1.00  0.00    -0.285 OA
ATOM      5  C   UNL     1       3.158 -14.545  13.920  1.00  0.00     0.111 A 
ATOM      6  C   UNL     1       3.156 -14.423  15.330  1.00  0.00     0.134 A 
ATOM      7  C   UNL     1       1.956 -14.149  16.002  1.00  0.00     0.093 A 
ATOM      8  C   UNL     1       0.761 -13.995  15.293  1.00  0.00     0.123 A 
ATOM      9  C   UNL     1       0.758 -14.116  13.902  1.00  0.00     0.094 A 
ATOM     10  C   UNL     1       1.943 -14.390  13.213  1.00  0.00     0.146 A 
ATOM     11  O   UNL     1       1.911 -14.504  11.890  1.00  0.00    -0.452 OA
ENDROOT
BRANCH   1  12
ATOM     12  C   UNL     1       2.814 -14.882   9.686  1.00  0.00     0.029 A 
ATOM     13  C   UNL     1       1.538 -14.924   9.099  1.00  0.00     0.062 A 
ATOM     14  C   UNL     1       1.395 -15.006   7.710  1.00  0.00     0.162 A 
ATOM     15  C   UNL     1       3.947 -14.889   8.859  1.00  0.00     0.062 A 
ATOM     16  C   UNL     1       2.534 -15.037   6.887  1.00  0.00     0.200 A 
ATOM     17  C   UNL     1       3.813 -14.975   7.465  1.00  0.00     0.162 A 
BRANCH  14  18
ATOM     18  O   UNL     1       0.112 -15.052   7.166  1.00  0.00    -0.504 OA
ATOM     19  H   UNL     1      -0.411 -15.916   7.091  1.00  0.00     0.293 HD
ENDBRANCH  14  18
BRANCH  16  20
ATOM     20  O   UNL     1       2.382 -15.125   5.504  1.00  0.00    -0.502 OA
ATOM     21  H   UNL     1       2.784 -14.443   4.871  1.00  0.00     0.293 HD
ENDBRANCH  16  20
BRANCH  17  22
ATOM     22  O   UNL     1       4.946 -14.996   6.655  1.00  0.00    -0.504 OA
ATOM     23  H   UNL     1       4.881 -15.138   5.653  1.00  0.00     0.293 HD
ENDBRANCH  17  22
ENDBRANCH   1  12
BRANCH   2  24
ATOM     24  O   UNL     1       5.388 -15.125  11.003  1.00  0.00    -0.502 OA
ATOM     25  H   UNL     1       6.276 -14.689  11.222  1.00  0.00     0.293 HD
ENDBRANCH   2  24
BRANCH   6  26
ATOM     26  O   UNL     1       4.333 -14.569  16.065  1.00  0.00    -0.507 OA
ATOM     27  H   UNL     1       5.168 -14.035  15.848  1.00  0.00     0.293 HD
ENDBRANCH   6  26
BRANCH   8  28
ATOM     28  O   UNL     1      -0.432 -13.723  15.960  1.00  0.00    -0.508 OA
ATOM     29  H   UNL     1      -0.518 -12.934  16.590  1.00  0.00     0.293 HD
ENDBRANCH   8  28
TORSDOF 7
ENDMDL
