MODEL 1
REMARK VINA RESULT:    -3.185      0.000      0.000
REMARK INTER + INTRA:          -8.405
REMARK INTER:                  -6.165
REMARK INTRA:                  -2.241
REMARK UNBOUND:                -2.241
REMARK SMILES CCCCCCCCCCCCCCCCCC(=O)[O-]
REMARK SMILES IDX 10 1 11 2 12 3 13 4 14 5 15 6 16 7 17 8 18 9 19 10 20 11
REMARK SMILES IDX 9 12 8 13 7 14 6 15 5 16 4 17 3 18 2 19 1 20
REMARK H PARENT
REMARK Flexibility Score: inf
ROOT
ATOM      1  C   UNL     1    -114.910  34.927  -7.679  1.00  0.00     0.000 C 
ENDROOT
BRANCH   1   2
ATOM      2  C   UNL     1    -115.163  33.804  -8.700  1.00  0.00     0.000 C 
BRANCH   2   3
ATOM      3  C   UNL     1    -116.632  33.741  -9.157  1.00  0.00     0.000 C 
BRANCH   3   4
ATOM      4  C   UNL     1    -116.814  34.179 -10.619  1.00  0.00     0.000 C 
BRANCH   4   5
ATOM      5  C   UNL     1    -115.474  34.385 -11.346  1.00  0.00     0.000 C 
BRANCH   5   6
ATOM      6  C   UNL     1    -115.653  34.919 -12.777  1.00  0.00     0.000 C 
BRANCH   6   7
ATOM      7  C   UNL     1    -114.989  34.023 -13.833  1.00  0.00     0.006 C 
BRANCH   7   8
ATOM      8  C   UNL     1    -114.696  32.632 -13.264  1.00  0.00     0.053 C 
BRANCH   8   9
ATOM      9  C   UNL     1    -115.674  31.631 -13.794  1.00  0.00     0.041 C 
ATOM     10  O   UNL     1    -116.387  30.960 -13.002  1.00  0.00    -0.550 OA
ATOM     11  O   UNL     1    -115.761  31.402 -15.162  1.00  0.00    -0.550 OA
ENDBRANCH   8   9
ENDBRANCH   7   8
ENDBRANCH   6   7
ENDBRANCH   5   6
ENDBRANCH   4   5
ENDBRANCH   3   4
ENDBRANCH   2   3
ENDBRANCH   1   2
BRANCH   1  12
ATOM     12  C   UNL     1    -116.214  35.505  -7.103  1.00  0.00     0.000 C 
BRANCH  12  13
ATOM     13  C   UNL     1    -116.508  36.930  -7.606  1.00  0.00    -0.000 C 
BRANCH  13  14
ATOM     14  C   UNL     1    -115.571  37.438  -8.720  1.00  0.00    -0.000 C 
BRANCH  14  15
ATOM     15  C   UNL     1    -116.284  38.057  -9.939  1.00  0.00    -0.000 C 
BRANCH  15  16
ATOM     16  C   UNL     1    -115.417  38.183 -11.208  1.00  0.00    -0.000 C 
BRANCH  16  17
ATOM     17  C   UNL     1    -114.154  39.048 -11.048  1.00  0.00    -0.000 C 
BRANCH  17  18
ATOM     18  C   UNL     1    -113.290  39.084 -12.316  1.00  0.00    -0.000 C 
BRANCH  18  19
ATOM     19  C   UNL     1    -114.063  38.535 -13.521  1.00  0.00    -0.003 C 
ATOM     20  C   UNL     1    -113.273  37.438 -14.229  1.00  0.00     0.004 C 
ENDBRANCH  18  19
ENDBRANCH  17  18
ENDBRANCH  16  17
ENDBRANCH  15  16
ENDBRANCH  14  15
ENDBRANCH  13  14
ENDBRANCH  12  13
ENDBRANCH   1  12
TORSDOF 16
ENDMDL
MODEL 2
REMARK VINA RESULT:    -3.111      3.960      5.707
REMARK INTER + INTRA:          -8.262
REMARK INTER:                  -6.026
REMARK INTRA:                  -2.237
REMARK UNBOUND:                -2.241
REMARK SMILES CCCCCCCCCCCCCCCCCC(=O)[O-]
REMARK SMILES IDX 10 1 11 2 12 3 13 4 14 5 15 6 16 7 17 8 18 9 19 10 20 11
REMARK SMILES IDX 9 12 8 13 7 14 6 15 5 16 4 17 3 18 2 19 1 20
REMARK H PARENT
REMARK Flexibility Score: inf
ROOT
ATOM      1  C   UNL     1    -114.888  33.863  -8.569  1.00  0.00     0.000 C 
ENDROOT
BRANCH   1   2
ATOM      2  C   UNL     1    -115.076  34.989  -7.538  1.00  0.00     0.000 C 
BRANCH   2   3
ATOM      3  C   UNL     1    -116.499  35.576  -7.558  1.00  0.00     0.000 C 
BRANCH   3   4
ATOM      4  C   UNL     1    -116.521  37.058  -7.964  1.00  0.00     0.000 C 
BRANCH   4   5
ATOM      5  C   UNL     1    -115.208  37.508  -8.630  1.00  0.00     0.000 C 
BRANCH   5   6
ATOM      6  C   UNL     1    -115.377  38.788  -9.465  1.00  0.00     0.000 C 
BRANCH   6   7
ATOM      7  C   UNL     1    -114.201  39.032 -10.423  1.00  0.00     0.006 C 
BRANCH   7   8
ATOM      8  C   UNL     1    -114.365  40.365 -11.160  1.00  0.00     0.053 C 
BRANCH   8   9
ATOM      9  C   UNL     1    -113.368  41.365 -10.663  1.00  0.00     0.041 C 
ATOM     10  O   UNL     1    -113.365  41.709  -9.452  1.00  0.00    -0.550 OA
ATOM     11  O   UNL     1    -112.475  41.955 -11.548  1.00  0.00    -0.550 OA
ENDBRANCH   8   9
ENDBRANCH   7   8
ENDBRANCH   6   7
ENDBRANCH   5   6
ENDBRANCH   4   5
ENDBRANCH   3   4
ENDBRANCH   2   3
ENDBRANCH   1   2
BRANCH   1  12
ATOM     12  C   UNL     1    -116.042  33.794  -9.584  1.00  0.00     0.000 C 
BRANCH  12  13
ATOM     13  C   UNL     1    -115.633  34.284 -10.986  1.00  0.00    -0.000 C 
BRANCH  13  14
ATOM     14  C   UNL     1    -116.393  35.526 -11.492  1.00  0.00    -0.000 C 
BRANCH  14  15
ATOM     15  C   UNL     1    -115.619  36.397 -12.503  1.00  0.00    -0.000 C 
BRANCH  15  16
ATOM     16  C   UNL     1    -115.119  35.653 -13.757  1.00  0.00    -0.000 C 
BRANCH  16  17
ATOM     17  C   UNL     1    -114.023  36.385 -14.552  1.00  0.00    -0.000 C 
BRANCH  17  18
ATOM     18  C   UNL     1    -113.590  37.704 -13.897  1.00  0.00    -0.000 C 
BRANCH  18  19
ATOM     19  C   UNL     1    -112.106  37.987 -14.163  1.00  0.00    -0.003 C 
ATOM     20  C   UNL     1    -111.494  38.820 -13.041  1.00  0.00     0.004 C 
ENDBRANCH  18  19
ENDBRANCH  17  18
ENDBRANCH  16  17
ENDBRANCH  15  16
ENDBRANCH  14  15
ENDBRANCH  13  14
ENDBRANCH  12  13
ENDBRANCH   1  12
TORSDOF 16
ENDMDL
MODEL 3
REMARK VINA RESULT:    -3.109      3.169      4.905
REMARK INTER + INTRA:          -8.257
REMARK INTER:                  -6.175
REMARK INTRA:                  -2.082
REMARK UNBOUND:                -2.241
REMARK SMILES CCCCCCCCCCCCCCCCCC(=O)[O-]
REMARK SMILES IDX 10 1 11 2 12 3 13 4 14 5 15 6 16 7 17 8 18 9 19 10 20 11
REMARK SMILES IDX 9 12 8 13 7 14 6 15 5 16 4 17 3 18 2 19 1 20
REMARK H PARENT
REMARK Flexibility Score: inf
ROOT
ATOM      1  C   UNL     1    -116.579  33.550  -9.271  1.00  0.00     0.000 C 
ENDROOT
BRANCH   1   2
ATOM      2  C   UNL     1    -116.842  33.838 -10.758  1.00  0.00     0.000 C 
BRANCH   2   3
ATOM      3  C   UNL     1    -115.763  34.739 -11.385  1.00  0.00     0.000 C 
BRANCH   3   4
ATOM      4  C   UNL     1    -116.330  35.677 -12.464  1.00  0.00     0.000 C 
BRANCH   4   5
ATOM      5  C   UNL     1    -115.626  37.045 -12.487  1.00  0.00     0.000 C 
BRANCH   5   6
ATOM      6  C   UNL     1    -114.470  37.098 -13.499  1.00  0.00     0.000 C 
BRANCH   6   7
ATOM      7  C   UNL     1    -113.888  38.511 -13.662  1.00  0.00     0.006 C 
BRANCH   7   8
ATOM      8  C   UNL     1    -112.731  38.741 -12.685  1.00  0.00     0.053 C 
BRANCH   8   9
ATOM      9  C   UNL     1    -111.426  38.773 -13.416  1.00  0.00     0.041 C 
ATOM     10  O   UNL     1    -111.136  37.864 -14.237  1.00  0.00    -0.550 OA
ATOM     11  O   UNL     1    -110.506  39.781 -13.152  1.00  0.00    -0.550 OA
ENDBRANCH   8   9
ENDBRANCH   7   8
ENDBRANCH   6   7
ENDBRANCH   5   6
ENDBRANCH   4   5
ENDBRANCH   3   4
ENDBRANCH   2   3
ENDBRANCH   1   2
BRANCH   1  12
ATOM     12  C   UNL     1    -115.131  33.863  -8.856  1.00  0.00     0.000 C 
BRANCH  12  13
ATOM     13  C   UNL     1    -115.048  34.786  -7.628  1.00  0.00    -0.000 C 
BRANCH  13  14
ATOM     14  C   UNL     1    -116.375  35.458  -7.223  1.00  0.00    -0.000 C 
BRANCH  14  15
ATOM     15  C   UNL     1    -116.433  36.981  -7.455  1.00  0.00    -0.000 C 
BRANCH  15  16
ATOM     16  C   UNL     1    -116.077  37.438  -8.884  1.00  0.00    -0.000 C 
BRANCH  16  17
ATOM     17  C   UNL     1    -114.790  38.275  -8.996  1.00  0.00    -0.000 C 
BRANCH  17  18
ATOM     18  C   UNL     1    -114.965  39.526  -9.868  1.00  0.00    -0.000 C 
BRANCH  18  19
ATOM     19  C   UNL     1    -114.505  40.783  -9.120  1.00  0.00    -0.003 C 
ATOM     20  C   UNL     1    -114.600  40.592  -7.609  1.00  0.00     0.004 C 
ENDBRANCH  18  19
ENDBRANCH  17  18
ENDBRANCH  16  17
ENDBRANCH  15  16
ENDBRANCH  14  15
ENDBRANCH  13  14
ENDBRANCH  12  13
ENDBRANCH   1  12
TORSDOF 16
ENDMDL
MODEL 4
REMARK VINA RESULT:    -3.097      3.787      5.803
REMARK INTER + INTRA:          -8.234
REMARK INTER:                  -5.871
REMARK INTRA:                  -2.362
REMARK UNBOUND:                -2.241
REMARK SMILES CCCCCCCCCCCCCCCCCC(=O)[O-]
REMARK SMILES IDX 10 1 11 2 12 3 13 4 14 5 15 6 16 7 17 8 18 9 19 10 20 11
REMARK SMILES IDX 9 12 8 13 7 14 6 15 5 16 4 17 3 18 2 19 1 20
REMARK H PARENT
REMARK Flexibility Score: inf
ROOT
ATOM      1  C   UNL     1    -115.142  33.883  -8.658  1.00  0.00     0.000 C 
ENDROOT
BRANCH   1   2
ATOM      2  C   UNL     1    -115.075  34.899  -7.505  1.00  0.00     0.000 C 
BRANCH   2   3
ATOM      3  C   UNL     1    -116.453  35.496  -7.164  1.00  0.00     0.000 C 
BRANCH   3   4
ATOM      4  C   UNL     1    -116.518  37.011  -7.413  1.00  0.00     0.000 C 
BRANCH   4   5
ATOM      5  C   UNL     1    -117.100  37.359  -8.794  1.00  0.00     0.000 C 
BRANCH   5   6
ATOM      6  C   UNL     1    -116.012  37.538  -9.866  1.00  0.00     0.000 C 
BRANCH   6   7
ATOM      7  C   UNL     1    -114.791  38.315  -9.350  1.00  0.00     0.006 C 
BRANCH   7   8
ATOM      8  C   UNL     1    -114.901  39.802  -9.701  1.00  0.00     0.053 C 
BRANCH   8   9
ATOM      9  C   UNL     1    -114.553  40.647  -8.516  1.00  0.00     0.041 C 
ATOM     10  O   UNL     1    -114.975  40.337  -7.370  1.00  0.00    -0.550 OA
ATOM     11  O   UNL     1    -113.808  41.807  -8.684  1.00  0.00    -0.550 OA
ENDBRANCH   8   9
ENDBRANCH   7   8
ENDBRANCH   6   7
ENDBRANCH   5   6
ENDBRANCH   4   5
ENDBRANCH   3   4
ENDBRANCH   2   3
ENDBRANCH   1   2
BRANCH   1  12
ATOM     12  C   UNL     1    -116.568  33.707  -9.206  1.00  0.00     0.000 C 
BRANCH  12  13
ATOM     13  C   UNL     1    -116.621  33.718 -10.745  1.00  0.00    -0.000 C 
BRANCH  13  14
ATOM     14  C   UNL     1    -115.256  33.872 -11.446  1.00  0.00    -0.000 C 
BRANCH  14  15
ATOM     15  C   UNL     1    -115.272  33.620 -12.967  1.00  0.00    -0.000 C 
BRANCH  15  16
ATOM     16  C   UNL     1    -115.425  34.884 -13.836  1.00  0.00    -0.000 C 
BRANCH  16  17
ATOM     17  C   UNL     1    -115.153  36.211 -13.105  1.00  0.00    -0.000 C 
BRANCH  17  18
ATOM     18  C   UNL     1    -114.124  37.091 -13.829  1.00  0.00    -0.000 C 
BRANCH  18  19
ATOM     19  C   UNL     1    -114.184  38.536 -13.320  1.00  0.00    -0.003 C 
ATOM     20  C   UNL     1    -112.858  38.954 -12.689  1.00  0.00     0.004 C 
ENDBRANCH  18  19
ENDBRANCH  17  18
ENDBRANCH  16  17
ENDBRANCH  15  16
ENDBRANCH  14  15
ENDBRANCH  13  14
ENDBRANCH  12  13
ENDBRANCH   1  12
TORSDOF 16
ENDMDL
MODEL 5
REMARK VINA RESULT:    -3.085      3.379      6.130
REMARK INTER + INTRA:          -8.212
REMARK INTER:                  -5.796
REMARK INTRA:                  -2.416
REMARK UNBOUND:                -2.241
REMARK SMILES CCCCCCCCCCCCCCCCCC(=O)[O-]
REMARK SMILES IDX 10 1 11 2 12 3 13 4 14 5 15 6 16 7 17 8 18 9 19 10 20 11
REMARK SMILES IDX 9 12 8 13 7 14 6 15 5 16 4 17 3 18 2 19 1 20
REMARK H PARENT
REMARK Flexibility Score: inf
ROOT
ATOM      1  C   UNL     1    -115.877  34.402 -10.799  1.00  0.00     0.000 C 
ENDROOT
BRANCH   1   2
ATOM      2  C   UNL     1    -116.153  33.746  -9.436  1.00  0.00     0.000 C 
BRANCH   2   3
ATOM      3  C   UNL     1    -114.932  33.795  -8.500  1.00  0.00     0.000 C 
BRANCH   3   4
ATOM      4  C   UNL     1    -115.010  34.949  -7.487  1.00  0.00     0.000 C 
BRANCH   4   5
ATOM      5  C   UNL     1    -116.414  35.576  -7.412  1.00  0.00     0.000 C 
BRANCH   5   6
ATOM      6  C   UNL     1    -116.442  37.025  -7.926  1.00  0.00     0.000 C 
BRANCH   6   7
ATOM      7  C   UNL     1    -115.168  37.408  -8.695  1.00  0.00     0.006 C 
BRANCH   7   8
ATOM      8  C   UNL     1    -115.480  38.426  -9.796  1.00  0.00     0.053 C 
BRANCH   8   9
ATOM      9  C   UNL     1    -114.597  39.627  -9.665  1.00  0.00     0.041 C 
ATOM     10  O   UNL     1    -114.504  40.228  -8.562  1.00  0.00    -0.550 OA
ATOM     11  O   UNL     1    -113.916  40.114 -10.774  1.00  0.00    -0.550 OA
ENDBRANCH   8   9
ENDBRANCH   7   8
ENDBRANCH   6   7
ENDBRANCH   5   6
ENDBRANCH   4   5
ENDBRANCH   3   4
ENDBRANCH   2   3
ENDBRANCH   1   2
BRANCH   1  12
ATOM     12  C   UNL     1    -117.089  35.184 -11.334  1.00  0.00     0.000 C 
BRANCH  12  13
ATOM     13  C   UNL     1    -116.750  36.043 -12.565  1.00  0.00    -0.000 C 
BRANCH  13  14
ATOM     14  C   UNL     1    -115.245  36.274 -12.807  1.00  0.00    -0.000 C 
BRANCH  14  15
ATOM     15  C   UNL     1    -114.785  36.103 -14.269  1.00  0.00    -0.000 C 
BRANCH  15  16
ATOM     16  C   UNL     1    -114.204  34.717 -14.613  1.00  0.00    -0.000 C 
BRANCH  16  17
ATOM     17  C   UNL     1    -115.000  33.922 -15.663  1.00  0.00    -0.000 C 
BRANCH  17  18
ATOM     18  C   UNL     1    -115.206  32.453 -15.270  1.00  0.00    -0.000 C 
BRANCH  18  19
ATOM     19  C   UNL     1    -115.118  32.275 -13.749  1.00  0.00    -0.003 C 
ATOM     20  C   UNL     1    -116.391  31.642 -13.194  1.00  0.00     0.004 C 
ENDBRANCH  18  19
ENDBRANCH  17  18
ENDBRANCH  16  17
ENDBRANCH  15  16
ENDBRANCH  14  15
ENDBRANCH  13  14
ENDBRANCH  12  13
ENDBRANCH   1  12
TORSDOF 16
ENDMDL
MODEL 6
REMARK VINA RESULT:    -3.079      1.369      3.262
REMARK INTER + INTRA:          -8.199
REMARK INTER:                  -5.724
REMARK INTRA:                  -2.475
REMARK UNBOUND:                -2.241
REMARK SMILES CCCCCCCCCCCCCCCCCC(=O)[O-]
REMARK SMILES IDX 10 1 11 2 12 3 13 4 14 5 15 6 16 7 17 8 18 9 19 10 20 11
REMARK SMILES IDX 9 12 8 13 7 14 6 15 5 16 4 17 3 18 2 19 1 20
REMARK H PARENT
REMARK Flexibility Score: inf
ROOT
ATOM      1  C   UNL     1    -115.685  34.618 -10.839  1.00  0.00     0.000 C 
ENDROOT
BRANCH   1   2
ATOM      2  C   UNL     1    -116.965  35.148 -11.507  1.00  0.00     0.000 C 
BRANCH   2   3
ATOM      3  C   UNL     1    -116.730  35.597 -12.960  1.00  0.00     0.000 C 
BRANCH   3   4
ATOM      4  C   UNL     1    -115.248  35.882 -13.258  1.00  0.00     0.000 C 
BRANCH   4   5
ATOM      5  C   UNL     1    -114.651  34.898 -14.279  1.00  0.00     0.000 C 
BRANCH   5   6
ATOM      6  C   UNL     1    -115.655  33.820 -14.719  1.00  0.00     0.000 C 
BRANCH   6   7
ATOM      7  C   UNL     1    -115.249  32.409 -14.267  1.00  0.00     0.006 C 
BRANCH   7   8
ATOM      8  C   UNL     1    -116.262  31.843 -13.267  1.00  0.00     0.053 C 
BRANCH   8   9
ATOM      9  C   UNL     1    -116.618  30.433 -13.623  1.00  0.00     0.041 C 
ATOM     10  O   UNL     1    -117.093  29.660 -12.750  1.00  0.00    -0.550 OA
ATOM     11  O   UNL     1    -116.375  29.958 -14.905  1.00  0.00    -0.550 OA
ENDBRANCH   8   9
ENDBRANCH   7   8
ENDBRANCH   6   7
ENDBRANCH   5   6
ENDBRANCH   4   5
ENDBRANCH   3   4
ENDBRANCH   2   3
ENDBRANCH   1   2
BRANCH   1  12
ATOM     12  C   UNL     1    -115.980  33.764  -9.593  1.00  0.00     0.000 C 
BRANCH  12  13
ATOM     13  C   UNL     1    -114.876  33.866  -8.526  1.00  0.00    -0.000 C 
BRANCH  13  14
ATOM     14  C   UNL     1    -115.059  35.004  -7.501  1.00  0.00    -0.000 C 
BRANCH  14  15
ATOM     15  C   UNL     1    -116.522  35.331  -7.143  1.00  0.00    -0.000 C 
BRANCH  15  16
ATOM     16  C   UNL     1    -116.925  36.807  -7.328  1.00  0.00    -0.000 C 
BRANCH  16  17
ATOM     17  C   UNL     1    -116.067  37.594  -8.335  1.00  0.00    -0.000 C 
BRANCH  17  18
ATOM     18  C   UNL     1    -116.870  38.084  -9.549  1.00  0.00    -0.000 C 
BRANCH  18  19
ATOM     19  C   UNL     1    -115.948  38.729 -10.590  1.00  0.00    -0.003 C 
ATOM     20  C   UNL     1    -114.500  38.749 -10.109  1.00  0.00     0.004 C 
ENDBRANCH  18  19
ENDBRANCH  17  18
ENDBRANCH  16  17
ENDBRANCH  15  16
ENDBRANCH  14  15
ENDBRANCH  13  14
ENDBRANCH  12  13
ENDBRANCH   1  12
TORSDOF 16
ENDMDL
MODEL 7
REMARK VINA RESULT:    -3.068      3.129      5.412
REMARK INTER + INTRA:          -8.179
REMARK INTER:                  -5.946
REMARK INTRA:                  -2.234
REMARK UNBOUND:                -2.241
REMARK SMILES CCCCCCCCCCCCCCCCCC(=O)[O-]
REMARK SMILES IDX 10 1 11 2 12 3 13 4 14 5 15 6 16 7 17 8 18 9 19 10 20 11
REMARK SMILES IDX 9 12 8 13 7 14 6 15 5 16 4 17 3 18 2 19 1 20
REMARK H PARENT
REMARK Flexibility Score: inf
ROOT
ATOM      1  C   UNL     1    -115.721  36.910  -8.511  1.00  0.00     0.000 C 
ENDROOT
BRANCH   1   2
ATOM      2  C   UNL     1    -117.026  37.408  -9.154  1.00  0.00     0.000 C 
BRANCH   2   3
ATOM      3  C   UNL     1    -117.059  37.179 -10.676  1.00  0.00     0.000 C 
BRANCH   3   4
ATOM      4  C   UNL     1    -115.656  37.189 -11.305  1.00  0.00     0.000 C 
BRANCH   4   5
ATOM      5  C   UNL     1    -115.321  38.530 -11.982  1.00  0.00     0.000 C 
BRANCH   5   6
ATOM      6  C   UNL     1    -114.192  39.289 -11.264  1.00  0.00     0.000 C 
BRANCH   6   7
ATOM      7  C   UNL     1    -113.094  39.769 -12.226  1.00  0.00     0.006 C 
BRANCH   7   8
ATOM      8  C   UNL     1    -112.630  38.629 -13.138  1.00  0.00     0.053 C 
BRANCH   8   9
ATOM      9  C   UNL     1    -111.231  38.873 -13.610  1.00  0.00     0.041 C 
ATOM     10  O   UNL     1    -110.773  38.231 -14.592  1.00  0.00    -0.550 OA
ATOM     11  O   UNL     1    -110.415  39.771 -12.934  1.00  0.00    -0.550 OA
ENDBRANCH   8   9
ENDBRANCH   7   8
ENDBRANCH   6   7
ENDBRANCH   5   6
ENDBRANCH   4   5
ENDBRANCH   3   4
ENDBRANCH   2   3
ENDBRANCH   1   2
BRANCH   1  12
ATOM     12  C   UNL     1    -115.960  35.792  -7.481  1.00  0.00     0.000 C 
BRANCH  12  13
ATOM     13  C   UNL     1    -114.968  34.624  -7.629  1.00  0.00    -0.000 C 
BRANCH  13  14
ATOM     14  C   UNL     1    -115.077  33.835  -8.949  1.00  0.00    -0.000 C 
BRANCH  14  15
ATOM     15  C   UNL     1    -116.513  33.455  -9.365  1.00  0.00    -0.000 C 
BRANCH  15  16
ATOM     16  C   UNL     1    -116.759  33.403 -10.886  1.00  0.00    -0.000 C 
BRANCH  16  17
ATOM     17  C   UNL     1    -115.520  33.687 -11.755  1.00  0.00    -0.000 C 
BRANCH  17  18
ATOM     18  C   UNL     1    -115.874  34.006 -13.214  1.00  0.00    -0.000 C 
BRANCH  18  19
ATOM     19  C   UNL     1    -114.610  34.285 -14.036  1.00  0.00    -0.003 C 
ATOM     20  C   UNL     1    -114.594  35.720 -14.553  1.00  0.00     0.004 C 
ENDBRANCH  18  19
ENDBRANCH  17  18
ENDBRANCH  16  17
ENDBRANCH  15  16
ENDBRANCH  14  15
ENDBRANCH  13  14
ENDBRANCH  12  13
ENDBRANCH   1  12
TORSDOF 16
ENDMDL
MODEL 8
REMARK VINA RESULT:    -3.057      2.587      3.871
REMARK INTER + INTRA:          -8.158
REMARK INTER:                  -6.266
REMARK INTRA:                  -1.892
REMARK UNBOUND:                -2.241
REMARK SMILES CCCCCCCCCCCCCCCCCC(=O)[O-]
REMARK SMILES IDX 10 1 11 2 12 3 13 4 14 5 15 6 16 7 17 8 18 9 19 10 20 11
REMARK SMILES IDX 9 12 8 13 7 14 6 15 5 16 4 17 3 18 2 19 1 20
REMARK H PARENT
REMARK Flexibility Score: inf
ROOT
ATOM      1  C   UNL     1    -116.521  33.523  -9.100  1.00  0.00     0.000 C 
ENDROOT
BRANCH   1   2
ATOM      2  C   UNL     1    -116.735  33.712 -10.611  1.00  0.00     0.000 C 
BRANCH   2   3
ATOM      3  C   UNL     1    -115.428  34.042 -11.355  1.00  0.00     0.000 C 
BRANCH   3   4
ATOM      4  C   UNL     1    -115.663  34.891 -12.615  1.00  0.00     0.000 C 
BRANCH   4   5
ATOM      5  C   UNL     1    -114.808  34.428 -13.807  1.00  0.00     0.000 C 
BRANCH   5   6
ATOM      6  C   UNL     1    -114.534  35.559 -14.812  1.00  0.00     0.000 C 
BRANCH   6   7
ATOM      7  C   UNL     1    -113.187  35.399 -15.534  1.00  0.00     0.006 C 
BRANCH   7   8
ATOM      8  C   UNL     1    -112.374  36.695 -15.467  1.00  0.00     0.053 C 
BRANCH   8   9
ATOM      9  C   UNL     1    -110.907  36.396 -15.466  1.00  0.00     0.041 C 
ATOM     10  O   UNL     1    -110.069  37.332 -15.386  1.00  0.00    -0.550 OA
ATOM     11  O   UNL     1    -110.466  35.086 -15.605  1.00  0.00    -0.550 OA
ENDBRANCH   8   9
ENDBRANCH   7   8
ENDBRANCH   6   7
ENDBRANCH   5   6
ENDBRANCH   4   5
ENDBRANCH   3   4
ENDBRANCH   2   3
ENDBRANCH   1   2
BRANCH   1  12
ATOM     12  C   UNL     1    -115.073  33.809  -8.668  1.00  0.00     0.000 C 
BRANCH  12  13
ATOM     13  C   UNL     1    -114.981  34.861  -7.548  1.00  0.00    -0.000 C 
BRANCH  13  14
ATOM     14  C   UNL     1    -116.326  35.477  -7.116  1.00  0.00    -0.000 C 
BRANCH  14  15
ATOM     15  C   UNL     1    -116.666  36.829  -7.775  1.00  0.00    -0.000 C 
BRANCH  15  16
ATOM     16  C   UNL     1    -115.509  37.486  -8.553  1.00  0.00    -0.000 C 
BRANCH  16  17
ATOM     17  C   UNL     1    -115.711  37.558 -10.077  1.00  0.00    -0.000 C 
BRANCH  17  18
ATOM     18  C   UNL     1    -114.884  38.670 -10.737  1.00  0.00    -0.000 C 
BRANCH  18  19
ATOM     19  C   UNL     1    -114.646  38.370 -12.222  1.00  0.00    -0.003 C 
ATOM     20  C   UNL     1    -113.279  38.874 -12.675  1.00  0.00     0.004 C 
ENDBRANCH  18  19
ENDBRANCH  17  18
ENDBRANCH  16  17
ENDBRANCH  15  16
ENDBRANCH  14  15
ENDBRANCH  13  14
ENDBRANCH  12  13
ENDBRANCH   1  12
TORSDOF 16
ENDMDL
MODEL 9
REMARK VINA RESULT:    -3.052      0.748      1.413
REMARK INTER + INTRA:          -8.146
REMARK INTER:                  -5.994
REMARK INTRA:                  -2.152
REMARK UNBOUND:                -2.241
REMARK SMILES CCCCCCCCCCCCCCCCCC(=O)[O-]
REMARK SMILES IDX 10 1 11 2 12 3 13 4 14 5 15 6 16 7 17 8 18 9 19 10 20 11
REMARK SMILES IDX 9 12 8 13 7 14 6 15 5 16 4 17 3 18 2 19 1 20
REMARK H PARENT
REMARK Flexibility Score: inf
ROOT
ATOM      1  C   UNL     1    -116.501  35.410  -7.136  1.00  0.00     0.000 C 
ENDROOT
BRANCH   1   2
ATOM      2  C   UNL     1    -115.108  34.984  -7.629  1.00  0.00     0.000 C 
BRANCH   2   3
ATOM      3  C   UNL     1    -115.173  33.879  -8.698  1.00  0.00     0.000 C 
BRANCH   3   4
ATOM      4  C   UNL     1    -116.610  33.583  -9.156  1.00  0.00     0.000 C 
BRANCH   4   5
ATOM      5  C   UNL     1    -116.844  33.936 -10.635  1.00  0.00     0.000 C 
BRANCH   5   6
ATOM      6  C   UNL     1    -115.629  34.625 -11.278  1.00  0.00     0.000 C 
BRANCH   6   7
ATOM      7  C   UNL     1    -115.528  34.364 -12.789  1.00  0.00     0.006 C 
BRANCH   7   8
ATOM      8  C   UNL     1    -114.627  33.159 -13.076  1.00  0.00     0.053 C 
BRANCH   8   9
ATOM      9  C   UNL     1    -115.391  32.093 -13.796  1.00  0.00     0.041 C 
ATOM     10  O   UNL     1    -116.063  31.247 -13.148  1.00  0.00    -0.550 OA
ATOM     11  O   UNL     1    -115.320  32.001 -15.180  1.00  0.00    -0.550 OA
ENDBRANCH   8   9
ENDBRANCH   7   8
ENDBRANCH   6   7
ENDBRANCH   5   6
ENDBRANCH   4   5
ENDBRANCH   3   4
ENDBRANCH   2   3
ENDBRANCH   1   2
BRANCH   1  12
ATOM     12  C   UNL     1    -116.786  36.901  -7.386  1.00  0.00     0.000 C 
BRANCH  12  13
ATOM     13  C   UNL     1    -116.320  37.372  -8.776  1.00  0.00    -0.000 C 
BRANCH  13  14
ATOM     14  C   UNL     1    -115.146  38.372  -8.769  1.00  0.00    -0.000 C 
BRANCH  14  15
ATOM     15  C   UNL     1    -114.511  38.642 -10.147  1.00  0.00    -0.000 C 
BRANCH  15  16
ATOM     16  C   UNL     1    -115.402  38.295 -11.356  1.00  0.00    -0.000 C 
BRANCH  16  17
ATOM     17  C   UNL     1    -114.936  38.888 -12.698  1.00  0.00    -0.000 C 
BRANCH  17  18
ATOM     18  C   UNL     1    -114.812  37.834 -13.807  1.00  0.00    -0.000 C 
BRANCH  18  19
ATOM     19  C   UNL     1    -113.345  37.621 -14.199  1.00  0.00    -0.003 C 
ATOM     20  C   UNL     1    -113.168  36.328 -14.991  1.00  0.00     0.004 C 
ENDBRANCH  18  19
ENDBRANCH  17  18
ENDBRANCH  16  17
ENDBRANCH  15  16
ENDBRANCH  14  15
ENDBRANCH  13  14
ENDBRANCH  12  13
ENDBRANCH   1  12
TORSDOF 16
ENDMDL
