MODEL 1
REMARK VINA RESULT:    -4.441      0.000      0.000
REMARK INTER + INTRA:          -7.192
REMARK INTER:                  -6.388
REMARK INTRA:                  -0.805
REMARK UNBOUND:                -0.805
REMARK SMILES O=C(CO)[C@@H](O)[C@H](O)[C@H](O)CO
REMARK SMILES IDX 7 1 9 2 11 3 12 4 10 6 5 8 2 9 1 10 3 11 4 12 6 14 8 16
REMARK H PARENT 12 5 10 7 4 13 6 15 8 17
REMARK Flexibility Score: inf
ROOT
ATOM      1  C   UNL     1      14.658  13.107   4.252  1.00  0.00     0.181 C 
ENDROOT
BRANCH   1   2
ATOM      2  C   UNL     1      15.461  13.652   3.039  1.00  0.00     0.171 C 
BRANCH   2   3
ATOM      3  C   UNL     1      16.686  14.470   3.481  1.00  0.00     0.190 C 
BRANCH   3   4
ATOM      4  O   UNL     1      17.782  13.625   3.706  1.00  0.00    -0.394 OA
ATOM      5  H   UNL     1      17.403  12.735   3.927  1.00  0.00     0.210 HD
ENDBRANCH   3   4
ENDBRANCH   2   3
BRANCH   2   6
ATOM      6  O   UNL     1      15.890  12.584   2.233  1.00  0.00    -0.388 OA
ATOM      7  H   UNL     1      15.531  11.752   2.640  1.00  0.00     0.211 HD
ENDBRANCH   2   6
ENDBRANCH   1   2
BRANCH   1   8
ATOM      8  C   UNL     1      13.365  13.925   4.533  1.00  0.00     0.214 C 
BRANCH   8   9
ATOM      9  C   UNL     1      12.443  13.237   5.517  1.00  0.00     0.189 C 
ATOM     10  O   UNL     1      11.910  12.180   5.212  1.00  0.00    -0.294 OA
BRANCH   9  11
ATOM     11  C   UNL     1      12.200  13.846   6.873  1.00  0.00     0.234 C 
BRANCH  11  12
ATOM     12  O   UNL     1      13.405  14.066   7.557  1.00  0.00    -0.388 OA
ATOM     13  H   UNL     1      14.129  14.022   6.878  1.00  0.00     0.211 HD
ENDBRANCH  11  12
ENDBRANCH   9  11
ENDBRANCH   8   9
BRANCH   8  14
ATOM     14  O   UNL     1      13.682  15.212   5.004  1.00  0.00    -0.382 OA
ATOM     15  H   UNL     1      14.056  15.114   5.919  1.00  0.00     0.211 HD
ENDBRANCH   8  14
ENDBRANCH   1   8
BRANCH   1  16
ATOM     16  O   UNL     1      15.463  13.091   5.407  1.00  0.00    -0.387 OA
ATOM     17  H   UNL     1      15.493  12.155   5.737  1.00  0.00     0.211 HD
ENDBRANCH   1  16
TORSDOF 10
ENDMDL
MODEL 2
REMARK VINA RESULT:    -4.258     12.084     13.378
REMARK INTER + INTRA:          -6.930
REMARK INTER:                  -6.115
REMARK INTRA:                  -0.815
REMARK UNBOUND:                -0.805
REMARK SMILES O=C(CO)[C@@H](O)[C@H](O)[C@H](O)CO
REMARK SMILES IDX 7 1 9 2 11 3 12 4 10 6 5 8 2 9 1 10 3 11 4 12 6 14 8 16
REMARK H PARENT 12 5 10 7 4 13 6 15 8 17
REMARK Flexibility Score: inf
ROOT
ATOM      1  C   UNL     1       8.094  25.104   6.495  1.00  0.00     0.181 C 
ENDROOT
BRANCH   1   2
ATOM      2  C   UNL     1       9.459  24.390   6.696  1.00  0.00     0.171 C 
BRANCH   2   3
ATOM      3  C   UNL     1      10.576  25.039   5.860  1.00  0.00     0.190 C 
BRANCH   3   4
ATOM      4  O   UNL     1      11.296  25.957   6.638  1.00  0.00    -0.394 OA
ATOM      5  H   UNL     1      11.874  25.417   7.237  1.00  0.00     0.210 HD
ENDBRANCH   3   4
ENDBRANCH   2   3
BRANCH   2   6
ATOM      6  O   UNL     1       9.821  24.427   8.052  1.00  0.00    -0.388 OA
ATOM      7  H   UNL     1      10.186  23.532   8.279  1.00  0.00     0.211 HD
ENDBRANCH   2   6
ENDBRANCH   1   2
BRANCH   1   8
ATOM      8  C   UNL     1       7.035  24.194   5.811  1.00  0.00     0.214 C 
BRANCH   8   9
ATOM      9  C   UNL     1       6.732  24.620   4.390  1.00  0.00     0.189 C 
ATOM     10  O   UNL     1       7.511  24.335   3.492  1.00  0.00    -0.294 OA
BRANCH   9  11
ATOM     11  C   UNL     1       5.464  25.376   4.084  1.00  0.00     0.234 C 
BRANCH  11  12
ATOM     12  O   UNL     1       5.620  26.749   4.324  1.00  0.00    -0.388 OA
ATOM     13  H   UNL     1       4.983  27.217   3.723  1.00  0.00     0.211 HD
ENDBRANCH  11  12
ENDBRANCH   9  11
ENDBRANCH   8   9
BRANCH   8  14
ATOM     14  O   UNL     1       7.452  22.850   5.821  1.00  0.00    -0.382 OA
ATOM     15  H   UNL     1       8.444  22.843   5.868  1.00  0.00     0.211 HD
ENDBRANCH   8  14
ENDBRANCH   1   8
BRANCH   1  16
ATOM     16  O   UNL     1       8.261  26.281   5.740  1.00  0.00    -0.387 OA
ATOM     17  H   UNL     1       8.969  26.821   6.180  1.00  0.00     0.211 HD
ENDBRANCH   1  16
TORSDOF 10
ENDMDL
MODEL 3
REMARK VINA RESULT:    -4.231     11.454     12.986
REMARK INTER + INTRA:          -6.890
REMARK INTER:                  -5.406
REMARK INTRA:                  -1.484
REMARK UNBOUND:                -0.805
REMARK SMILES O=C(CO)[C@@H](O)[C@H](O)[C@H](O)CO
REMARK SMILES IDX 7 1 9 2 11 3 12 4 10 6 5 8 2 9 1 10 3 11 4 12 6 14 8 16
REMARK H PARENT 12 5 10 7 4 13 6 15 8 17
REMARK Flexibility Score: inf
ROOT
ATOM      1  C   UNL     1       8.730  25.321   4.532  1.00  0.00     0.181 C 
ENDROOT
BRANCH   1   2
ATOM      2  C   UNL     1       7.540  24.467   4.016  1.00  0.00     0.171 C 
BRANCH   2   3
ATOM      3  C   UNL     1       6.376  24.434   5.021  1.00  0.00     0.190 C 
BRANCH   3   4
ATOM      4  O   UNL     1       6.686  23.595   6.099  1.00  0.00    -0.394 OA
ATOM      5  H   UNL     1       6.747  24.181   6.897  1.00  0.00     0.210 HD
ENDBRANCH   3   4
ENDBRANCH   2   3
BRANCH   2   6
ATOM      6  O   UNL     1       7.076  24.984   2.795  1.00  0.00    -0.388 OA
ATOM      7  H   UNL     1       7.478  24.432   2.074  1.00  0.00     0.211 HD
ENDBRANCH   2   6
ENDBRANCH   1   2
BRANCH   1   8
ATOM      8  C   UNL     1       9.947  24.456   4.966  1.00  0.00     0.214 C 
BRANCH   8   9
ATOM      9  C   UNL     1      10.586  24.949   6.246  1.00  0.00     0.189 C 
ATOM     10  O   UNL     1      11.313  25.931   6.222  1.00  0.00    -0.294 OA
BRANCH   9  11
ATOM     11  C   UNL     1      10.310  24.241   7.547  1.00  0.00     0.234 C 
BRANCH  11  12
ATOM     12  O   UNL     1       8.939  24.246   7.849  1.00  0.00    -0.388 OA
ATOM     13  H   UNL     1       8.482  23.784   7.098  1.00  0.00     0.211 HD
ENDBRANCH  11  12
ENDBRANCH   9  11
ENDBRANCH   8   9
BRANCH   8  14
ATOM     14  O   UNL     1       9.571  23.108   5.116  1.00  0.00    -0.382 OA
ATOM     15  H   UNL     1       8.718  23.087   5.623  1.00  0.00     0.211 HD
ENDBRANCH   8  14
ENDBRANCH   1   8
BRANCH   1  16
ATOM     16  O   UNL     1       8.322  26.132   5.609  1.00  0.00    -0.387 OA
ATOM     17  H   UNL     1       7.548  25.686   6.042  1.00  0.00     0.211 HD
ENDBRANCH   1  16
TORSDOF 10
ENDMDL
MODEL 4
REMARK VINA RESULT:    -4.195     11.598     12.497
REMARK INTER + INTRA:          -6.839
REMARK INTER:                  -5.356
REMARK INTRA:                  -1.483
REMARK UNBOUND:                -0.805
REMARK SMILES O=C(CO)[C@@H](O)[C@H](O)[C@H](O)CO
REMARK SMILES IDX 7 1 9 2 11 3 12 4 10 6 5 8 2 9 1 10 3 11 4 12 6 14 8 16
REMARK H PARENT 12 5 10 7 4 13 6 15 8 17
REMARK Flexibility Score: inf
ROOT
ATOM      1  C   UNL     1      10.471  24.997   5.151  1.00  0.00     0.181 C 
ENDROOT
BRANCH   1   2
ATOM      2  C   UNL     1      10.723  25.609   6.556  1.00  0.00     0.171 C 
BRANCH   2   3
ATOM      3  C   UNL     1      10.655  24.547   7.667  1.00  0.00     0.190 C 
BRANCH   3   4
ATOM      4  O   UNL     1       9.328  24.152   7.884  1.00  0.00    -0.394 OA
ATOM      5  H   UNL     1       9.373  23.290   8.373  1.00  0.00     0.210 HD
ENDBRANCH   3   4
ENDBRANCH   2   3
BRANCH   2   6
ATOM      6  O   UNL     1      11.985  26.225   6.589  1.00  0.00    -0.388 OA
ATOM      7  H   UNL     1      12.254  26.384   5.646  1.00  0.00     0.211 HD
ENDBRANCH   2   6
ENDBRANCH   1   2
BRANCH   1   8
ATOM      8  C   UNL     1       9.084  25.388   4.565  1.00  0.00     0.214 C 
BRANCH   8   9
ATOM      9  C   UNL     1       8.330  24.200   4.010  1.00  0.00     0.189 C 
ATOM     10  O   UNL     1       8.684  23.694   2.955  1.00  0.00    -0.294 OA
BRANCH   9  11
ATOM     11  C   UNL     1       7.158  23.631   4.768  1.00  0.00     0.234 C 
BRANCH  11  12
ATOM     12  O   UNL     1       7.562  23.080   5.993  1.00  0.00    -0.388 OA
ATOM     13  H   UNL     1       8.459  23.457   6.191  1.00  0.00     0.211 HD
ENDBRANCH  11  12
ENDBRANCH   9  11
ENDBRANCH   8   9
BRANCH   8  14
ATOM     14  O   UNL     1       8.297  26.034   5.537  1.00  0.00    -0.382 OA
ATOM     15  H   UNL     1       8.708  25.857   6.424  1.00  0.00     0.211 HD
ENDBRANCH   8  14
ENDBRANCH   1   8
BRANCH   1  16
ATOM     16  O   UNL     1      10.582  23.594   5.199  1.00  0.00    -0.387 OA
ATOM     17  H   UNL     1       9.755  23.244   5.623  1.00  0.00     0.211 HD
ENDBRANCH   1  16
TORSDOF 10
ENDMDL
MODEL 5
REMARK VINA RESULT:    -4.179      1.132      4.502
REMARK INTER + INTRA:          -6.816
REMARK INTER:                  -6.050
REMARK INTRA:                  -0.765
REMARK UNBOUND:                -0.805
REMARK SMILES O=C(CO)[C@@H](O)[C@H](O)[C@H](O)CO
REMARK SMILES IDX 7 1 9 2 11 3 12 4 10 6 5 8 2 9 1 10 3 11 4 12 6 14 8 16
REMARK H PARENT 12 5 10 7 4 13 6 15 8 17
REMARK Flexibility Score: inf
ROOT
ATOM      1  C   UNL     1      14.591  13.574   5.064  1.00  0.00     0.181 C 
ENDROOT
BRANCH   1   2
ATOM      2  C   UNL     1      13.129  13.071   5.210  1.00  0.00     0.171 C 
BRANCH   2   3
ATOM      3  C   UNL     1      12.470  13.585   6.501  1.00  0.00     0.190 C 
BRANCH   3   4
ATOM      4  O   UNL     1      13.448  13.981   7.424  1.00  0.00    -0.394 OA
ATOM      5  H   UNL     1      14.275  13.494   7.175  1.00  0.00     0.210 HD
ENDBRANCH   3   4
ENDBRANCH   2   3
BRANCH   2   6
ATOM      6  O   UNL     1      12.367  13.493   4.108  1.00  0.00    -0.388 OA
ATOM      7  H   UNL     1      12.557  12.861   3.365  1.00  0.00     0.211 HD
ENDBRANCH   2   6
ENDBRANCH   1   2
BRANCH   1   8
ATOM      8  C   UNL     1      15.014  13.769   3.580  1.00  0.00     0.214 C 
BRANCH   8   9
ATOM      9  C   UNL     1      16.435  14.270   3.440  1.00  0.00     0.189 C 
ATOM     10  O   UNL     1      17.369  13.523   3.692  1.00  0.00    -0.294 OA
BRANCH   9  11
ATOM     11  C   UNL     1      16.695  15.680   2.974  1.00  0.00     0.234 C 
BRANCH  11  12
ATOM     12  O   UNL     1      18.013  16.072   3.250  1.00  0.00    -0.388 OA
ATOM     13  H   UNL     1      18.131  16.973   2.850  1.00  0.00     0.211 HD
ENDBRANCH  11  12
ENDBRANCH   9  11
ENDBRANCH   8   9
BRANCH   8  14
ATOM     14  O   UNL     1      14.863  12.571   2.858  1.00  0.00    -0.382 OA
ATOM     15  H   UNL     1      15.421  12.640   2.039  1.00  0.00     0.211 HD
ENDBRANCH   8  14
ENDBRANCH   1   8
BRANCH   1  16
ATOM     16  O   UNL     1      15.483  12.684   5.694  1.00  0.00    -0.387 OA
ATOM     17  H   UNL     1      15.358  11.792   5.276  1.00  0.00     0.211 HD
ENDBRANCH   1  16
TORSDOF 10
ENDMDL
MODEL 6
REMARK VINA RESULT:    -4.170      1.438      4.372
REMARK INTER + INTRA:          -6.803
REMARK INTER:                  -5.480
REMARK INTRA:                  -1.324
REMARK UNBOUND:                -0.805
REMARK SMILES O=C(CO)[C@@H](O)[C@H](O)[C@H](O)CO
REMARK SMILES IDX 7 1 9 2 11 3 12 4 10 6 5 8 2 9 1 10 3 11 4 12 6 14 8 16
REMARK H PARENT 12 5 10 7 4 13 6 15 8 17
REMARK Flexibility Score: inf
ROOT
ATOM      1  C   UNL     1      14.367  12.882   5.088  1.00  0.00     0.181 C 
ENDROOT
BRANCH   1   2
ATOM      2  C   UNL     1      13.121  13.513   5.768  1.00  0.00     0.171 C 
BRANCH   2   3
ATOM      3  C   UNL     1      11.900  12.580   5.711  1.00  0.00     0.190 C 
BRANCH   3   4
ATOM      4  O   UNL     1      11.258  12.691   4.470  1.00  0.00    -0.394 OA
ATOM      5  H   UNL     1      10.384  13.126   4.650  1.00  0.00     0.210 HD
ENDBRANCH   3   4
ENDBRANCH   2   3
BRANCH   2   6
ATOM      6  O   UNL     1      13.409  13.808   7.111  1.00  0.00    -0.388 OA
ATOM      7  H   UNL     1      14.354  14.113   7.144  1.00  0.00     0.211 HD
ENDBRANCH   2   6
ENDBRANCH   1   2
BRANCH   1   8
ATOM      8  C   UNL     1      15.169  13.906   4.236  1.00  0.00     0.214 C 
BRANCH   8   9
ATOM      9  C   UNL     1      15.194  13.548   2.766  1.00  0.00     0.189 C 
ATOM     10  O   UNL     1      16.034  12.764   2.346  1.00  0.00    -0.294 OA
BRANCH   9  11
ATOM     11  C   UNL     1      14.175  14.142   1.828  1.00  0.00     0.234 C 
BRANCH  11  12
ATOM     12  O   UNL     1      12.868  13.840   2.239  1.00  0.00    -0.388 OA
ATOM     13  H   UNL     1      12.302  14.612   1.973  1.00  0.00     0.211 HD
ENDBRANCH  11  12
ENDBRANCH   9  11
ENDBRANCH   8   9
BRANCH   8  14
ATOM     14  O   UNL     1      14.648  15.203   4.396  1.00  0.00    -0.382 OA
ATOM     15  H   UNL     1      13.709  15.194   4.071  1.00  0.00     0.211 HD
ENDBRANCH   8  14
ENDBRANCH   1   8
BRANCH   1  16
ATOM     16  O   UNL     1      13.986  11.793   4.280  1.00  0.00    -0.387 OA
ATOM     17  H   UNL     1      13.482  12.158   3.506  1.00  0.00     0.211 HD
ENDBRANCH   1  16
TORSDOF 10
ENDMDL
MODEL 7
REMARK VINA RESULT:    -4.156      1.337      2.170
REMARK INTER + INTRA:          -6.783
REMARK INTER:                  -5.666
REMARK INTRA:                  -1.116
REMARK UNBOUND:                -0.805
REMARK SMILES O=C(CO)[C@@H](O)[C@H](O)[C@H](O)CO
REMARK SMILES IDX 7 1 9 2 11 3 12 4 10 6 5 8 2 9 1 10 3 11 4 12 6 14 8 16
REMARK H PARENT 12 5 10 7 4 13 6 15 8 17
REMARK Flexibility Score: inf
ROOT
ATOM      1  C   UNL     1      15.068  13.786   4.428  1.00  0.00     0.181 C 
ENDROOT
BRANCH   1   2
ATOM      2  C   UNL     1      15.509  13.261   3.035  1.00  0.00     0.171 C 
BRANCH   2   3
ATOM      3  C   UNL     1      14.702  13.905   1.895  1.00  0.00     0.190 C 
BRANCH   3   4
ATOM      4  O   UNL     1      13.392  13.407   1.883  1.00  0.00    -0.394 OA
ATOM      5  H   UNL     1      13.023  13.621   0.987  1.00  0.00     0.210 HD
ENDBRANCH   3   4
ENDBRANCH   2   3
BRANCH   2   6
ATOM      6  O   UNL     1      16.874  13.526   2.836  1.00  0.00    -0.388 OA
ATOM      7  H   UNL     1      16.955  14.495   2.633  1.00  0.00     0.211 HD
ENDBRANCH   2   6
ENDBRANCH   1   2
BRANCH   1   8
ATOM      8  C   UNL     1      14.079  12.825   5.148  1.00  0.00     0.214 C 
BRANCH   8   9
ATOM      9  C   UNL     1      12.735  13.465   5.416  1.00  0.00     0.189 C 
ATOM     10  O   UNL     1      11.944  13.623   4.497  1.00  0.00    -0.294 OA
BRANCH   9  11
ATOM     11  C   UNL     1      12.368  13.890   6.814  1.00  0.00     0.234 C 
BRANCH  11  12
ATOM     12  O   UNL     1      13.503  13.976   7.634  1.00  0.00    -0.388 OA
ATOM     13  H   UNL     1      14.170  13.341   7.264  1.00  0.00     0.211 HD
ENDBRANCH  11  12
ENDBRANCH   9  11
ENDBRANCH   8   9
BRANCH   8  14
ATOM     14  O   UNL     1      13.899  11.646   4.400  1.00  0.00    -0.382 OA
ATOM     15  H   UNL     1      13.042  11.730   3.906  1.00  0.00     0.211 HD
ENDBRANCH   8  14
ENDBRANCH   1   8
BRANCH   1  16
ATOM     16  O   UNL     1      14.481  15.061   4.309  1.00  0.00    -0.387 OA
ATOM     17  H   UNL     1      14.988  15.679   4.899  1.00  0.00     0.211 HD
ENDBRANCH   1  16
TORSDOF 10
ENDMDL
MODEL 8
REMARK VINA RESULT:    -4.026      2.447      4.425
REMARK INTER + INTRA:          -6.595
REMARK INTER:                  -5.448
REMARK INTRA:                  -1.148
REMARK UNBOUND:                -0.805
REMARK SMILES O=C(CO)[C@@H](O)[C@H](O)[C@H](O)CO
REMARK SMILES IDX 7 1 9 2 11 3 12 4 10 6 5 8 2 9 1 10 3 11 4 12 6 14 8 16
REMARK H PARENT 12 5 10 7 4 13 6 15 8 17
REMARK Flexibility Score: inf
ROOT
ATOM      1  C   UNL     1      11.375  13.707   5.715  1.00  0.00     0.181 C 
ENDROOT
BRANCH   1   2
ATOM      2  C   UNL     1      12.714  13.215   6.327  1.00  0.00     0.171 C 
BRANCH   2   3
ATOM      3  C   UNL     1      13.826  13.110   5.269  1.00  0.00     0.190 C 
BRANCH   3   4
ATOM      4  O   UNL     1      13.719  11.902   4.567  1.00  0.00    -0.394 OA
ATOM      5  H   UNL     1      14.020  11.192   5.192  1.00  0.00     0.210 HD
ENDBRANCH   3   4
ENDBRANCH   2   3
BRANCH   2   6
ATOM      6  O   UNL     1      13.128  14.097   7.339  1.00  0.00    -0.388 OA
ATOM      7  H   UNL     1      14.021  13.789   7.645  1.00  0.00     0.211 HD
ENDBRANCH   2   6
ENDBRANCH   1   2
BRANCH   1   8
ATOM      8  C   UNL     1      10.244  12.643   5.812  1.00  0.00     0.214 C 
BRANCH   8   9
ATOM      9  C   UNL     1      10.001  11.929   4.500  1.00  0.00     0.189 C 
ATOM     10  O   UNL     1      10.834  11.141   4.075  1.00  0.00    -0.294 OA
BRANCH   9  11
ATOM     11  C   UNL     1       8.729  12.177   3.731  1.00  0.00     0.234 C 
BRANCH  11  12
ATOM     12  O   UNL     1       8.612  13.525   3.361  1.00  0.00    -0.388 OA
ATOM     13  H   UNL     1       8.822  14.061   4.170  1.00  0.00     0.211 HD
ENDBRANCH  11  12
ENDBRANCH   9  11
ENDBRANCH   8   9
BRANCH   8  14
ATOM     14  O   UNL     1      10.533  11.700   6.815  1.00  0.00    -0.382 OA
ATOM     15  H   UNL     1      10.832  12.198   7.621  1.00  0.00     0.211 HD
ENDBRANCH   8  14
ENDBRANCH   1   8
BRANCH   1  16
ATOM     16  O   UNL     1      11.556  14.078   4.368  1.00  0.00    -0.387 OA
ATOM     17  H   UNL     1      11.926  14.999   4.360  1.00  0.00     0.211 HD
ENDBRANCH   1  16
TORSDOF 10
ENDMDL
MODEL 9
REMARK VINA RESULT:    -3.947      2.288      5.030
REMARK INTER + INTRA:          -6.482
REMARK INTER:                  -5.528
REMARK INTRA:                  -0.954
REMARK UNBOUND:                -0.805
REMARK SMILES O=C(CO)[C@@H](O)[C@H](O)[C@H](O)CO
REMARK SMILES IDX 7 1 9 2 11 3 12 4 10 6 5 8 2 9 1 10 3 11 4 12 6 14 8 16
REMARK H PARENT 12 5 10 7 4 13 6 15 8 17
REMARK Flexibility Score: inf
ROOT
ATOM      1  C   UNL     1      15.273  15.117   3.410  1.00  0.00     0.181 C 
ENDROOT
BRANCH   1   2
ATOM      2  C   UNL     1      15.158  13.712   4.063  1.00  0.00     0.171 C 
BRANCH   2   3
ATOM      3  C   UNL     1      13.776  13.484   4.698  1.00  0.00     0.190 C 
BRANCH   3   4
ATOM      4  O   UNL     1      13.785  13.882   6.042  1.00  0.00    -0.394 OA
ATOM      5  H   UNL     1      12.851  14.132   6.263  1.00  0.00     0.210 HD
ENDBRANCH   3   4
ENDBRANCH   2   3
BRANCH   2   6
ATOM      6  O   UNL     1      15.387  12.718   3.097  1.00  0.00    -0.388 OA
ATOM      7  H   UNL     1      16.038  12.078   3.489  1.00  0.00     0.211 HD
ENDBRANCH   2   6
ENDBRANCH   1   2
BRANCH   1   8
ATOM      8  C   UNL     1      16.612  15.316   2.644  1.00  0.00     0.214 C 
BRANCH   8   9
ATOM      9  C   UNL     1      17.013  16.771   2.542  1.00  0.00     0.189 C 
ATOM     10  O   UNL     1      16.156  17.628   2.380  1.00  0.00    -0.294 OA
BRANCH   9  11
ATOM     11  C   UNL     1      18.464  17.163   2.659  1.00  0.00     0.234 C 
BRANCH  11  12
ATOM     12  O   UNL     1      18.882  17.174   3.998  1.00  0.00    -0.388 OA
ATOM     13  H   UNL     1      18.454  16.392   4.436  1.00  0.00     0.211 HD
ENDBRANCH  11  12
ENDBRANCH   9  11
ENDBRANCH   8   9
BRANCH   8  14
ATOM     14  O   UNL     1      17.647  14.583   3.253  1.00  0.00    -0.382 OA
ATOM     15  H   UNL     1      17.506  13.624   3.036  1.00  0.00     0.211 HD
ENDBRANCH   8  14
ENDBRANCH   1   8
BRANCH   1  16
ATOM     16  O   UNL     1      15.134  16.124   4.384  1.00  0.00    -0.387 OA
ATOM     17  H   UNL     1      15.442  16.976   3.978  1.00  0.00     0.211 HD
ENDBRANCH   1  16
TORSDOF 10
ENDMDL
