MODEL 1
REMARK VINA RESULT:    -2.084      0.000      0.000
REMARK INTER + INTRA:          -2.473
REMARK INTER:                  -2.572
REMARK INTRA:                   0.099
REMARK UNBOUND:                 0.099
REMARK SMILES Oc1cc(O)c2cc(O)c(-c3cc(O)c(O)c(O)c3)[o+]c2c1
REMARK SMILES IDX 10 1 20 2 21 3 22 4 2 5 3 6 4 7 6 8 7 9 8 10 11 11 12 12
REMARK SMILES IDX 13 13 19 14 15 15 17 16 14 17 16 19 18 21 9 23 1 25 5 27
REMARK H PARENT 14 18 16 20 18 22 9 24 1 26 5 28
REMARK Flexibility Score: inf
ROOT
ATOM      1  C   UNL     1       2.639 -20.287  -9.709  1.00  0.00     0.402 A 
ATOM      2  O   UNL     1       2.022 -20.477 -10.873  1.00  0.00    -0.202 OA
ATOM      3  C   UNL     1       2.666 -20.594 -12.029  1.00  0.00     0.368 A 
ATOM      4  C   UNL     1       1.930 -20.795 -13.200  1.00  0.00     0.162 A 
ATOM      5  C   UNL     1       2.582 -20.924 -14.430  1.00  0.00     0.128 A 
ATOM      6  C   UNL     1       3.975 -20.852 -14.489  1.00  0.00     0.093 A 
ATOM      7  C   UNL     1       4.735 -20.651 -13.330  1.00  0.00     0.136 A 
ATOM      8  C   UNL     1       4.079 -20.517 -12.080  1.00  0.00     0.125 A 
ATOM      9  C   UNL     1       4.758 -20.300 -10.870  1.00  0.00     0.078 A 
ATOM     10  C   UNL     1       4.041 -20.173  -9.677  1.00  0.00     0.223 A 
ENDROOT
BRANCH   1  11
ATOM     11  C   UNL     1       1.812 -20.182  -8.486  1.00  0.00     0.091 A 
ATOM     12  C   UNL     1       0.529 -19.619  -8.567  1.00  0.00     0.068 A 
ATOM     13  C   UNL     1      -0.283 -19.527  -7.429  1.00  0.00     0.162 A 
ATOM     14  C   UNL     1       2.260 -20.687  -7.254  1.00  0.00     0.068 A 
ATOM     15  C   UNL     1       0.178 -20.013  -6.199  1.00  0.00     0.200 A 
ATOM     16  C   UNL     1       1.452 -20.599  -6.111  1.00  0.00     0.162 A 
BRANCH  13  17
ATOM     17  O   UNL     1      -1.551 -18.953  -7.512  1.00  0.00    -0.504 OA
ATOM     18  H   UNL     1      -1.888 -18.306  -6.809  1.00  0.00     0.293 HD
ENDBRANCH  13  17
BRANCH  15  19
ATOM     19  O   UNL     1      -0.643 -19.910  -5.075  1.00  0.00    -0.502 OA
ATOM     20  H   UNL     1      -1.255 -19.117  -4.925  1.00  0.00     0.293 HD
ENDBRANCH  15  19
BRANCH  16  21
ATOM     21  O   UNL     1       1.909 -21.097  -4.891  1.00  0.00    -0.504 OA
ATOM     22  H   UNL     1       1.302 -21.623  -4.272  1.00  0.00     0.293 HD
ENDBRANCH  16  21
ENDBRANCH   1  11
BRANCH  10  23
ATOM     23  O   UNL     1       4.712 -19.908  -8.482  1.00  0.00    -0.500 OA
ATOM     24  H   UNL     1       5.495 -20.473  -8.175  1.00  0.00     0.294 HD
ENDBRANCH  10  23
BRANCH   5  25
ATOM     25  O   UNL     1       1.854 -21.124 -15.601  1.00  0.00    -0.507 OA
ATOM     26  H   UNL     1       1.045 -20.557 -15.825  1.00  0.00     0.293 HD
ENDBRANCH   5  25
BRANCH   7  27
ATOM     27  O   UNL     1       6.125 -20.595 -13.475  1.00  0.00    -0.507 OA
ATOM     28  H   UNL     1       6.778 -21.139 -12.930  1.00  0.00     0.293 HD
ENDBRANCH   7  27
TORSDOF 7
ENDMDL
MODEL 2
REMARK VINA RESULT:    -1.964      0.131      1.793
REMARK INTER + INTRA:          -2.324
REMARK INTER:                  -2.553
REMARK INTRA:                   0.229
REMARK UNBOUND:                 0.099
REMARK SMILES Oc1cc(O)c2cc(O)c(-c3cc(O)c(O)c(O)c3)[o+]c2c1
REMARK SMILES IDX 10 1 20 2 21 3 22 4 2 5 3 6 4 7 6 8 7 9 8 10 11 11 12 12
REMARK SMILES IDX 13 13 19 14 15 15 17 16 14 17 16 19 18 21 9 23 1 25 5 27
REMARK H PARENT 14 18 16 20 18 22 9 24 1 26 5 28
REMARK Flexibility Score: inf
ROOT
ATOM      1  C   UNL     1       2.636 -20.393  -9.728  1.00  0.00     0.402 A 
ATOM      2  O   UNL     1       2.017 -20.543 -10.897  1.00  0.00    -0.202 OA
ATOM      3  C   UNL     1       2.662 -20.673 -12.052  1.00  0.00     0.368 A 
ATOM      4  C   UNL     1       1.923 -20.828 -13.229  1.00  0.00     0.162 A 
ATOM      5  C   UNL     1       2.576 -20.971 -14.457  1.00  0.00     0.128 A 
ATOM      6  C   UNL     1       3.971 -20.960 -14.509  1.00  0.00     0.093 A 
ATOM      7  C   UNL     1       4.734 -20.807 -13.344  1.00  0.00     0.136 A 
ATOM      8  C   UNL     1       4.077 -20.658 -12.095  1.00  0.00     0.125 A 
ATOM      9  C   UNL     1       4.759 -20.487 -10.879  1.00  0.00     0.078 A 
ATOM     10  C   UNL     1       4.042 -20.342  -9.688  1.00  0.00     0.223 A 
ENDROOT
BRANCH   1  11
ATOM     11  C   UNL     1       1.807 -20.267  -8.508  1.00  0.00     0.091 A 
ATOM     12  C   UNL     1       2.314 -20.715  -7.279  1.00  0.00     0.068 A 
ATOM     13  C   UNL     1       1.557 -20.588  -6.106  1.00  0.00     0.162 A 
ATOM     14  C   UNL     1       0.543 -19.654  -8.544  1.00  0.00     0.068 A 
ATOM     15  C   UNL     1       0.289 -19.996  -6.152  1.00  0.00     0.200 A 
ATOM     16  C   UNL     1      -0.218 -19.523  -7.374  1.00  0.00     0.162 A 
BRANCH  13  17
ATOM     17  O   UNL     1       2.060 -21.050  -4.891  1.00  0.00    -0.504 OA
ATOM     18  H   UNL     1       1.552 -21.720  -4.326  1.00  0.00     0.293 HD
ENDBRANCH  13  17
BRANCH  15  19
ATOM     19  O   UNL     1      -0.451 -19.880  -4.975  1.00  0.00    -0.502 OA
ATOM     20  H   UNL     1      -0.046 -20.060  -4.063  1.00  0.00     0.293 HD
ENDBRANCH  15  19
BRANCH  16  21
ATOM     21  O   UNL     1      -1.475 -18.919  -7.420  1.00  0.00    -0.504 OA
ATOM     22  H   UNL     1      -1.612 -18.013  -7.852  1.00  0.00     0.293 HD
ENDBRANCH  16  21
ENDBRANCH   1  11
BRANCH  10  23
ATOM     23  O   UNL     1       4.717 -20.121  -8.487  1.00  0.00    -0.500 OA
ATOM     24  H   UNL     1       5.641 -19.705  -8.465  1.00  0.00     0.294 HD
ENDBRANCH  10  23
BRANCH   5  25
ATOM     25  O   UNL     1       1.847 -21.125 -15.634  1.00  0.00    -0.507 OA
ATOM     26  H   UNL     1       1.103 -20.484 -15.884  1.00  0.00     0.293 HD
ENDBRANCH   5  25
BRANCH   7  27
ATOM     27  O   UNL     1       6.125 -20.810 -13.480  1.00  0.00    -0.507 OA
ATOM     28  H   UNL     1       6.612 -20.945 -14.353  1.00  0.00     0.293 HD
ENDBRANCH   7  27
TORSDOF 7
ENDMDL
MODEL 3
REMARK VINA RESULT:    -1.763     21.725     22.649
REMARK INTER + INTRA:          -2.076
REMARK INTER:                  -2.434
REMARK INTRA:                   0.358
REMARK UNBOUND:                 0.099
REMARK SMILES Oc1cc(O)c2cc(O)c(-c3cc(O)c(O)c(O)c3)[o+]c2c1
REMARK SMILES IDX 10 1 20 2 21 3 22 4 2 5 3 6 4 7 6 8 7 9 8 10 11 11 12 12
REMARK SMILES IDX 13 13 19 14 15 15 17 16 14 17 16 19 18 21 9 23 1 25 5 27
REMARK H PARENT 14 18 16 20 18 22 9 24 1 26 5 28
REMARK Flexibility Score: inf
ROOT
ATOM      1  C   UNL     1       0.991  -1.007 -20.860  1.00  0.00     0.402 A 
ATOM      2  O   UNL     1       1.546  -1.011 -22.070  1.00  0.00    -0.202 OA
ATOM      3  C   UNL     1       2.860  -0.986 -22.269  1.00  0.00     0.368 A 
ATOM      4  C   UNL     1       3.350  -0.995 -23.578  1.00  0.00     0.162 A 
ATOM      5  C   UNL     1       4.727  -0.974 -23.816  1.00  0.00     0.128 A 
ATOM      6  C   UNL     1       5.618  -0.942 -22.742  1.00  0.00     0.093 A 
ATOM      7  C   UNL     1       5.153  -0.932 -21.420  1.00  0.00     0.136 A 
ATOM      8  C   UNL     1       3.756  -0.951 -21.173  1.00  0.00     0.125 A 
ATOM      9  C   UNL     1       3.199  -0.931 -19.884  1.00  0.00     0.078 A 
ATOM     10  C   UNL     1       1.811  -0.947 -19.719  1.00  0.00     0.223 A 
ENDROOT
BRANCH   1  11
ATOM     11  C   UNL     1      -0.486  -1.046 -20.769  1.00  0.00     0.091 A 
ATOM     12  C   UNL     1      -1.254  -0.941 -21.939  1.00  0.00     0.068 A 
ATOM     13  C   UNL     1      -2.653  -0.995 -21.881  1.00  0.00     0.162 A 
ATOM     14  C   UNL     1      -1.138  -1.245 -19.539  1.00  0.00     0.068 A 
ATOM     15  C   UNL     1      -3.297  -1.172 -20.650  1.00  0.00     0.200 A 
ATOM     16  C   UNL     1      -2.537  -1.302 -19.476  1.00  0.00     0.162 A 
BRANCH  13  17
ATOM     17  O   UNL     1      -3.411  -0.875 -23.046  1.00  0.00    -0.504 OA
ATOM     18  H   UNL     1      -2.980  -0.883 -23.962  1.00  0.00     0.293 HD
ENDBRANCH  13  17
BRANCH  15  19
ATOM     19  O   UNL     1      -4.691  -1.222 -20.612  1.00  0.00    -0.502 OA
ATOM     20  H   UNL     1      -5.258  -0.387 -20.522  1.00  0.00     0.293 HD
ENDBRANCH  15  19
BRANCH  16  21
ATOM     21  O   UNL     1      -3.175  -1.492 -18.250  1.00  0.00    -0.504 OA
ATOM     22  H   UNL     1      -3.953  -2.133 -18.150  1.00  0.00     0.293 HD
ENDBRANCH  16  21
ENDBRANCH   1  11
BRANCH  10  23
ATOM     23  O   UNL     1       1.257  -0.875 -18.440  1.00  0.00    -0.500 OA
ATOM     24  H   UNL     1       0.344  -0.467 -18.278  1.00  0.00     0.294 HD
ENDBRANCH  10  23
BRANCH   5  25
ATOM     25  O   UNL     1       5.222  -0.982 -25.118  1.00  0.00    -0.507 OA
ATOM     26  H   UNL     1       5.031  -1.749 -25.753  1.00  0.00     0.293 HD
ENDBRANCH   5  25
BRANCH   7  27
ATOM     27  O   UNL     1       6.109  -0.904 -20.401  1.00  0.00    -0.507 OA
ATOM     28  H   UNL     1       5.955  -1.244 -19.464  1.00  0.00     0.293 HD
ENDBRANCH   7  27
TORSDOF 7
ENDMDL
MODEL 4
REMARK VINA RESULT:    -1.669      1.007      6.863
REMARK INTER + INTRA:          -1.960
REMARK INTER:                  -2.309
REMARK INTRA:                   0.349
REMARK UNBOUND:                 0.099
REMARK SMILES Oc1cc(O)c2cc(O)c(-c3cc(O)c(O)c(O)c3)[o+]c2c1
REMARK SMILES IDX 10 1 20 2 21 3 22 4 2 5 3 6 4 7 6 8 7 9 8 10 11 11 12 12
REMARK SMILES IDX 13 13 19 14 15 15 17 16 14 17 16 19 18 21 9 23 1 25 5 27
REMARK H PARENT 14 18 16 20 18 22 9 24 1 26 5 28
REMARK Flexibility Score: inf
ROOT
ATOM      1  C   UNL     1       2.942 -20.272  -9.965  1.00  0.00     0.402 A 
ATOM      2  O   UNL     1       1.666 -20.190  -9.596  1.00  0.00    -0.202 OA
ATOM      3  C   UNL     1       1.281 -20.019  -8.335  1.00  0.00     0.368 A 
ATOM      4  C   UNL     1      -0.084 -19.942  -8.046  1.00  0.00     0.162 A 
ATOM      5  C   UNL     1      -0.517 -19.759  -6.729  1.00  0.00     0.128 A 
ATOM      6  C   UNL     1       0.419 -19.653  -5.698  1.00  0.00     0.093 A 
ATOM      7  C   UNL     1       1.793 -19.728  -5.962  1.00  0.00     0.136 A 
ATOM      8  C   UNL     1       2.237 -19.916  -7.296  1.00  0.00     0.125 A 
ATOM      9  C   UNL     1       3.592 -20.015  -7.652  1.00  0.00     0.078 A 
ATOM     10  C   UNL     1       3.953 -20.205  -8.989  1.00  0.00     0.223 A 
ENDROOT
BRANCH   1  11
ATOM     11  C   UNL     1       3.244 -20.453 -11.403  1.00  0.00     0.091 A 
ATOM     12  C   UNL     1       2.197 -20.705 -12.302  1.00  0.00     0.068 A 
ATOM     13  C   UNL     1       2.454 -20.860 -13.671  1.00  0.00     0.162 A 
ATOM     14  C   UNL     1       4.553 -20.322 -11.897  1.00  0.00     0.068 A 
ATOM     15  C   UNL     1       3.763 -20.749 -14.155  1.00  0.00     0.200 A 
ATOM     16  C   UNL     1       4.817 -20.475 -13.266  1.00  0.00     0.162 A 
BRANCH  13  17
ATOM     17  O   UNL     1       1.411 -21.124 -14.558  1.00  0.00    -0.504 OA
ATOM     18  H   UNL     1       0.484 -20.741 -14.416  1.00  0.00     0.293 HD
ENDBRANCH  13  17
BRANCH  15  19
ATOM     19  O   UNL     1       4.001 -20.909 -15.521  1.00  0.00    -0.502 OA
ATOM     20  H   UNL     1       4.868 -20.614 -15.955  1.00  0.00     0.293 HD
ENDBRANCH  15  19
BRANCH  16  21
ATOM     21  O   UNL     1       6.120 -20.349 -13.746  1.00  0.00    -0.504 OA
ATOM     22  H   UNL     1       6.486 -19.459 -14.061  1.00  0.00     0.293 HD
ENDBRANCH  16  21
ENDBRANCH   1  11
BRANCH  10  23
ATOM     23  O   UNL     1       5.296 -20.354  -9.337  1.00  0.00    -0.500 OA
ATOM     24  H   UNL     1       5.576 -20.808 -10.199  1.00  0.00     0.294 HD
ENDBRANCH  10  23
BRANCH   5  25
ATOM     25  O   UNL     1      -1.876 -19.681  -6.433  1.00  0.00    -0.507 OA
ATOM     26  H   UNL     1      -2.283 -18.846  -6.028  1.00  0.00     0.293 HD
ENDBRANCH   5  25
BRANCH   7  27
ATOM     27  O   UNL     1       2.664 -19.609  -4.875  1.00  0.00    -0.507 OA
ATOM     28  H   UNL     1       2.412 -19.805  -3.918  1.00  0.00     0.293 HD
ENDBRANCH   7  27
TORSDOF 7
ENDMDL
MODEL 5
REMARK VINA RESULT:    -1.493      1.525      7.229
REMARK INTER + INTRA:          -1.743
REMARK INTER:                  -2.195
REMARK INTRA:                   0.452
REMARK UNBOUND:                 0.099
REMARK SMILES Oc1cc(O)c2cc(O)c(-c3cc(O)c(O)c(O)c3)[o+]c2c1
REMARK SMILES IDX 10 1 20 2 21 3 22 4 2 5 3 6 4 7 6 8 7 9 8 10 11 11 12 12
REMARK SMILES IDX 13 13 19 14 15 15 17 16 14 17 16 19 18 21 9 23 1 25 5 27
REMARK H PARENT 14 18 16 20 18 22 9 24 1 26 5 28
REMARK Flexibility Score: inf
ROOT
ATOM      1  C   UNL     1       2.840 -20.727 -10.195  1.00  0.00     0.402 A 
ATOM      2  O   UNL     1       3.837 -20.716  -9.313  1.00  0.00    -0.202 OA
ATOM      3  C   UNL     1       3.648 -20.672  -7.998  1.00  0.00     0.368 A 
ATOM      4  C   UNL     1       4.759 -20.668  -7.151  1.00  0.00     0.162 A 
ATOM      5  C   UNL     1       4.589 -20.626  -5.764  1.00  0.00     0.128 A 
ATOM      6  C   UNL     1       3.302 -20.588  -5.222  1.00  0.00     0.093 A 
ATOM      7  C   UNL     1       2.172 -20.592  -6.050  1.00  0.00     0.136 A 
ATOM      8  C   UNL     1       2.339 -20.632  -7.458  1.00  0.00     0.125 A 
ATOM      9  C   UNL     1       1.266 -20.626  -8.364  1.00  0.00     0.078 A 
ATOM     10  C   UNL     1       1.510 -20.662  -9.740  1.00  0.00     0.223 A 
ENDROOT
BRANCH   1  11
ATOM     11  C   UNL     1       3.180 -20.787 -11.634  1.00  0.00     0.091 A 
ATOM     12  C   UNL     1       2.153 -20.929 -12.581  1.00  0.00     0.068 A 
ATOM     13  C   UNL     1       2.446 -20.968 -13.950  1.00  0.00     0.162 A 
ATOM     14  C   UNL     1       4.506 -20.646 -12.079  1.00  0.00     0.068 A 
ATOM     15  C   UNL     1       3.772 -20.849 -14.386  1.00  0.00     0.200 A 
ATOM     16  C   UNL     1       4.805 -20.683 -13.449  1.00  0.00     0.162 A 
BRANCH  13  17
ATOM     17  O   UNL     1       1.424 -21.125 -14.885  1.00  0.00    -0.504 OA
ATOM     18  H   UNL     1       1.125 -20.359 -15.478  1.00  0.00     0.293 HD
ENDBRANCH  13  17
BRANCH  15  19
ATOM     19  O   UNL     1       4.045 -20.893 -15.754  1.00  0.00    -0.502 OA
ATOM     20  H   UNL     1       3.578 -20.285 -16.417  1.00  0.00     0.293 HD
ENDBRANCH  15  19
BRANCH  16  21
ATOM     21  O   UNL     1       6.124 -20.550 -13.880  1.00  0.00    -0.504 OA
ATOM     22  H   UNL     1       6.395 -20.762 -14.833  1.00  0.00     0.293 HD
ENDBRANCH  16  21
ENDBRANCH   1  11
BRANCH  10  23
ATOM     23  O   UNL     1       0.446 -20.605 -10.641  1.00  0.00    -0.500 OA
ATOM     24  H   UNL     1       0.487 -20.034 -11.478  1.00  0.00     0.294 HD
ENDBRANCH  10  23
BRANCH   5  25
ATOM     25  O   UNL     1       5.691 -20.620  -4.913  1.00  0.00    -0.507 OA
ATOM     26  H   UNL     1       6.404 -21.339  -4.965  1.00  0.00     0.293 HD
ENDBRANCH   5  25
BRANCH   7  27
ATOM     27  O   UNL     1       0.920 -20.556  -5.429  1.00  0.00    -0.507 OA
ATOM     28  H   UNL     1       0.778 -20.541  -4.430  1.00  0.00     0.293 HD
ENDBRANCH   7  27
TORSDOF 7
ENDMDL
MODEL 6
REMARK VINA RESULT:    -0.805     21.538     23.473
REMARK INTER + INTRA:          -0.894
REMARK INTER:                  -1.128
REMARK INTRA:                   0.234
REMARK UNBOUND:                 0.099
REMARK SMILES Oc1cc(O)c2cc(O)c(-c3cc(O)c(O)c(O)c3)[o+]c2c1
REMARK SMILES IDX 10 1 20 2 21 3 22 4 2 5 3 6 4 7 6 8 7 9 8 10 11 11 12 12
REMARK SMILES IDX 13 13 19 14 15 15 17 16 14 17 16 19 18 21 9 23 1 25 5 27
REMARK H PARENT 14 18 16 20 18 22 9 24 1 26 5 28
REMARK Flexibility Score: inf
ROOT
ATOM      1  C   UNL     1       0.508  -1.252 -22.123  1.00  0.00     0.402 A 
ATOM      2  O   UNL     1       0.088  -1.357 -20.864  1.00  0.00    -0.202 OA
ATOM      3  C   UNL     1      -1.193  -1.312 -20.516  1.00  0.00     0.368 A 
ATOM      4  C   UNL     1      -1.536  -1.434 -19.166  1.00  0.00     0.162 A 
ATOM      5  C   UNL     1      -2.877  -1.393 -18.773  1.00  0.00     0.128 A 
ATOM      6  C   UNL     1      -3.878  -1.229 -19.732  1.00  0.00     0.093 A 
ATOM      7  C   UNL     1      -3.561  -1.104 -21.090  1.00  0.00     0.136 A 
ATOM      8  C   UNL     1      -2.202  -1.142 -21.495  1.00  0.00     0.125 A 
ATOM      9  C   UNL     1      -1.790  -1.012 -22.831  1.00  0.00     0.078 A 
ATOM     10  C   UNL     1      -0.430  -1.055 -23.153  1.00  0.00     0.223 A 
ENDROOT
BRANCH   1  11
ATOM     11  C   UNL     1       1.962  -1.327 -22.384  1.00  0.00     0.091 A 
ATOM     12  C   UNL     1       2.866  -1.066 -21.343  1.00  0.00     0.068 A 
ATOM     13  C   UNL     1       4.248  -1.151 -21.559  1.00  0.00     0.162 A 
ATOM     14  C   UNL     1       2.461  -1.712 -23.641  1.00  0.00     0.068 A 
ATOM     15  C   UNL     1       4.738  -1.514 -22.820  1.00  0.00     0.200 A 
ATOM     16  C   UNL     1       3.842  -1.800 -23.863  1.00  0.00     0.162 A 
BRANCH  13  17
ATOM     17  O   UNL     1       5.141  -0.875 -20.525  1.00  0.00    -0.504 OA
ATOM     18  H   UNL     1       5.952  -1.458 -20.354  1.00  0.00     0.293 HD
ENDBRANCH  13  17
BRANCH  15  19
ATOM     19  O   UNL     1       6.118  -1.591 -23.018  1.00  0.00    -0.502 OA
ATOM     20  H   UNL     1       6.730  -0.800 -22.856  1.00  0.00     0.293 HD
ENDBRANCH  15  19
BRANCH  16  21
ATOM     21  O   UNL     1       4.327  -2.176 -25.116  1.00  0.00    -0.504 OA
ATOM     22  H   UNL     1       4.068  -3.058 -25.542  1.00  0.00     0.293 HD
ENDBRANCH  16  21
ENDBRANCH   1  11
BRANCH  10  23
ATOM     23  O   UNL     1      -0.017  -0.875 -24.474  1.00  0.00    -0.500 OA
ATOM     24  H   UNL     1      -0.588  -0.377 -25.146  1.00  0.00     0.294 HD
ENDBRANCH  10  23
BRANCH   5  25
ATOM     25  O   UNL     1      -3.226  -1.514 -17.430  1.00  0.00    -0.507 OA
ATOM     26  H   UNL     1      -3.271  -2.418 -16.973  1.00  0.00     0.293 HD
ENDBRANCH   5  25
BRANCH   7  27
ATOM     27  O   UNL     1      -4.622  -0.946 -21.987  1.00  0.00    -0.507 OA
ATOM     28  H   UNL     1      -4.516  -0.861 -22.987  1.00  0.00     0.293 HD
ENDBRANCH   7  27
TORSDOF 7
ENDMDL
MODEL 7
REMARK VINA RESULT:    -0.692      1.285      7.326
REMARK INTER + INTRA:          -0.755
REMARK INTER:                  -1.216
REMARK INTRA:                   0.461
REMARK UNBOUND:                 0.099
REMARK SMILES Oc1cc(O)c2cc(O)c(-c3cc(O)c(O)c(O)c3)[o+]c2c1
REMARK SMILES IDX 10 1 20 2 21 3 22 4 2 5 3 6 4 7 6 8 7 9 8 10 11 11 12 12
REMARK SMILES IDX 13 13 19 14 15 15 17 16 14 17 16 19 18 21 9 23 1 25 5 27
REMARK H PARENT 14 18 16 20 18 22 9 24 1 26 5 28
REMARK Flexibility Score: inf
ROOT
ATOM      1  C   UNL     1       1.873 -20.774 -10.807  1.00  0.00     0.402 A 
ATOM      2  O   UNL     1       2.551 -20.627  -9.671  1.00  0.00    -0.202 OA
ATOM      3  C   UNL     1       1.971 -20.576  -8.477  1.00  0.00     0.368 A 
ATOM      4  C   UNL     1       2.768 -20.421  -7.339  1.00  0.00     0.162 A 
ATOM      5  C   UNL     1       2.185 -20.369  -6.070  1.00  0.00     0.128 A 
ATOM      6  C   UNL     1       0.799 -20.471  -5.938  1.00  0.00     0.093 A 
ATOM      7  C   UNL     1      -0.023 -20.627  -7.062  1.00  0.00     0.136 A 
ATOM      8  C   UNL     1       0.564 -20.678  -8.352  1.00  0.00     0.125 A 
ATOM      9  C   UNL     1      -0.181 -20.819  -9.535  1.00  0.00     0.078 A 
ATOM     10  C   UNL     1       0.469 -20.857 -10.772  1.00  0.00     0.223 A 
ENDROOT
BRANCH   1  11
ATOM     11  C   UNL     1       2.635 -20.826 -12.075  1.00  0.00     0.091 A 
ATOM     12  C   UNL     1       1.945 -20.952 -13.291  1.00  0.00     0.068 A 
ATOM     13  C   UNL     1       2.641 -20.983 -14.506  1.00  0.00     0.162 A 
ATOM     14  C   UNL     1       4.034 -20.694 -12.094  1.00  0.00     0.068 A 
ATOM     15  C   UNL     1       4.037 -20.873 -14.517  1.00  0.00     0.200 A 
ATOM     16  C   UNL     1       4.736 -20.722 -13.307  1.00  0.00     0.162 A 
BRANCH  13  17
ATOM     17  O   UNL     1       1.951 -21.124 -15.710  1.00  0.00    -0.504 OA
ATOM     18  H   UNL     1       2.285 -21.737 -16.444  1.00  0.00     0.293 HD
ENDBRANCH  13  17
BRANCH  15  19
ATOM     19  O   UNL     1       4.714 -20.908 -15.736  1.00  0.00    -0.502 OA
ATOM     20  H   UNL     1       5.527 -20.331 -15.918  1.00  0.00     0.293 HD
ENDBRANCH  15  19
BRANCH  16  21
ATOM     21  O   UNL     1       6.125 -20.597 -13.315  1.00  0.00    -0.504 OA
ATOM     22  H   UNL     1       6.614 -20.160 -14.087  1.00  0.00     0.293 HD
ENDBRANCH  16  21
ENDBRANCH   1  11
BRANCH  10  23
ATOM     23  O   UNL     1      -0.274 -20.946 -11.950  1.00  0.00    -0.500 OA
ATOM     24  H   UNL     1      -0.281 -20.197 -12.632  1.00  0.00     0.294 HD
ENDBRANCH  10  23
BRANCH   5  25
ATOM     25  O   UNL     1       2.973 -20.214  -4.932  1.00  0.00    -0.507 OA
ATOM     26  H   UNL     1       3.871 -20.676  -4.843  1.00  0.00     0.293 HD
ENDBRANCH   5  25
BRANCH   7  27
ATOM     27  O   UNL     1      -1.400 -20.725  -6.844  1.00  0.00    -0.507 OA
ATOM     28  H   UNL     1      -2.077 -20.949  -7.558  1.00  0.00     0.293 HD
ENDBRANCH   7  27
TORSDOF 7
ENDMDL
MODEL 8
REMARK VINA RESULT:     0.130      1.311      3.253
REMARK INTER + INTRA:           0.259
REMARK INTER:                  -0.126
REMARK INTRA:                   0.384
REMARK UNBOUND:                 0.099
REMARK SMILES Oc1cc(O)c2cc(O)c(-c3cc(O)c(O)c(O)c3)[o+]c2c1
REMARK SMILES IDX 10 1 20 2 21 3 22 4 2 5 3 6 4 7 6 8 7 9 8 10 11 11 12 12
REMARK SMILES IDX 13 13 19 14 15 15 17 16 14 17 16 19 18 21 9 23 1 25 5 27
REMARK H PARENT 14 18 16 20 18 22 9 24 1 26 5 28
REMARK Flexibility Score: inf
ROOT
ATOM      1  C   UNL     1       2.286 -20.709 -10.623  1.00  0.00     0.402 A 
ATOM      2  O   UNL     1       3.438 -20.733 -11.291  1.00  0.00    -0.202 OA
ATOM      3  C   UNL     1       3.512 -20.837 -12.614  1.00  0.00     0.368 A 
ATOM      4  C   UNL     1       4.768 -20.851 -13.226  1.00  0.00     0.162 A 
ATOM      5  C   UNL     1       4.875 -20.956 -14.616  1.00  0.00     0.128 A 
ATOM      6  C   UNL     1       3.721 -21.046 -15.397  1.00  0.00     0.093 A 
ATOM      7  C   UNL     1       2.450 -21.034 -14.808  1.00  0.00     0.136 A 
ATOM      8  C   UNL     1       2.336 -20.931 -13.398  1.00  0.00     0.125 A 
ATOM      9  C   UNL     1       1.106 -20.924 -12.721  1.00  0.00     0.078 A 
ATOM     10  C   UNL     1       1.073 -20.824 -11.327  1.00  0.00     0.223 A 
ENDROOT
BRANCH   1  11
ATOM     11  C   UNL     1       2.335 -20.581  -9.150  1.00  0.00     0.091 A 
ATOM     12  C   UNL     1       3.578 -20.511  -8.503  1.00  0.00     0.068 A 
ATOM     13  C   UNL     1       3.651 -20.369  -7.111  1.00  0.00     0.162 A 
ATOM     14  C   UNL     1       1.160 -20.469  -8.386  1.00  0.00     0.068 A 
ATOM     15  C   UNL     1       2.476 -20.280  -6.353  1.00  0.00     0.200 A 
ATOM     16  C   UNL     1       1.226 -20.325  -6.993  1.00  0.00     0.162 A 
BRANCH  13  17
ATOM     17  O   UNL     1       4.889 -20.315  -6.472  1.00  0.00    -0.504 OA
ATOM     18  H   UNL     1       5.445 -19.468  -6.462  1.00  0.00     0.293 HD
ENDBRANCH  13  17
BRANCH  15  19
ATOM     19  O   UNL     1       2.568 -20.141  -4.968  1.00  0.00    -0.502 OA
ATOM     20  H   UNL     1       3.312 -20.572  -4.431  1.00  0.00     0.293 HD
ENDBRANCH  15  19
BRANCH  16  21
ATOM     21  O   UNL     1       0.055 -20.222  -6.244  1.00  0.00    -0.504 OA
ATOM     22  H   UNL     1      -0.349 -21.026  -5.777  1.00  0.00     0.293 HD
ENDBRANCH  16  21
ENDBRANCH   1  11
BRANCH  10  23
ATOM     23  O   UNL     1      -0.146 -20.868 -10.650  1.00  0.00    -0.500 OA
ATOM     24  H   UNL     1      -0.202 -21.112  -9.668  1.00  0.00     0.294 HD
ENDBRANCH  10  23
BRANCH   5  25
ATOM     25  O   UNL     1       6.124 -20.971 -15.232  1.00  0.00    -0.507 OA
ATOM     26  H   UNL     1       6.235 -21.263 -16.196  1.00  0.00     0.293 HD
ENDBRANCH   5  25
BRANCH   7  27
ATOM     27  O   UNL     1       1.345 -21.125 -15.660  1.00  0.00    -0.507 OA
ATOM     28  H   UNL     1       1.219 -21.844 -16.356  1.00  0.00     0.293 HD
ENDBRANCH   7  27
TORSDOF 7
ENDMDL
