MODEL 1
REMARK VINA RESULT:    15.799      0.000      0.000
REMARK INTER + INTRA:          27.969
REMARK INTER:                  28.730
REMARK INTRA:                  -0.761
REMARK UNBOUND:                -0.761
REMARK SMILES CCCCCCCCCCCCCC[C@H](C)C(=O)[O-]
REMARK SMILES IDX 9 1 10 2 11 3 12 4 13 5 14 6 15 7 16 8 17 9 18 10 19 11 8 12
REMARK SMILES IDX 7 13 6 14 5 15 4 16 3 17 2 18 1 19
REMARK H PARENT
REMARK Flexibility Score: inf
ROOT
ATOM      1  C   UNL     1      -5.861  11.123 -23.690  1.00  0.00     0.000 C 
ENDROOT
BRANCH   1   2
ATOM      2  C   UNL     1      -6.531  12.492 -23.910  1.00  0.00     0.000 C 
BRANCH   2   3
ATOM      3  C   UNL     1      -6.378  13.011 -25.348  1.00  0.00     0.000 C 
BRANCH   3   4
ATOM      4  C   UNL     1      -5.063  13.788 -25.514  1.00  0.00     0.000 C 
BRANCH   4   5
ATOM      5  C   UNL     1      -5.234  15.081 -26.327  1.00  0.00     0.001 C 
BRANCH   5   6
ATOM      6  C   UNL     1      -4.604  16.304 -25.631  1.00  0.00     0.009 C 
BRANCH   6   7
ATOM      7  C   UNL     1      -5.546  17.523 -25.506  1.00  0.00     0.032 C 
ATOM      8  C   UNL     1      -5.325  18.565 -26.612  1.00  0.00     0.014 C 
BRANCH   7   9
ATOM      9  C   UNL     1      -5.481  18.138 -24.132  1.00  0.00     0.044 C 
ATOM     10  O   UNL     1      -4.718  17.666 -23.247  1.00  0.00    -0.550 OA
ATOM     11  O   UNL     1      -6.310  19.207 -23.817  1.00  0.00    -0.550 OA
ENDBRANCH   7   9
ENDBRANCH   6   7
ENDBRANCH   5   6
ENDBRANCH   4   5
ENDBRANCH   3   4
ENDBRANCH   2   3
ENDBRANCH   1   2
BRANCH   1  12
ATOM     12  C   UNL     1      -5.794  10.216 -24.932  1.00  0.00     0.000 C 
BRANCH  12  13
ATOM     13  C   UNL     1      -4.875   8.998 -24.736  1.00  0.00    -0.000 C 
BRANCH  13  14
ATOM     14  C   UNL     1      -3.387   9.330 -24.946  1.00  0.00    -0.000 C 
BRANCH  14  15
ATOM     15  C   UNL     1      -2.391   8.525 -24.083  1.00  0.00    -0.000 C 
BRANCH  15  16
ATOM     16  C   UNL     1      -0.909   8.919 -24.244  1.00  0.00    -0.000 C 
BRANCH  16  17
ATOM     17  C   UNL     1      -0.546   9.421 -25.661  1.00  0.00    -0.000 C 
BRANCH  17  18
ATOM     18  C   UNL     1       0.647   8.679 -26.288  1.00  0.00    -0.003 C 
ATOM     19  C   UNL     1       0.814   7.261 -25.746  1.00  0.00     0.004 C 
ENDBRANCH  17  18
ENDBRANCH  16  17
ENDBRANCH  15  16
ENDBRANCH  14  15
ENDBRANCH  13  14
ENDBRANCH  12  13
ENDBRANCH   1  12
TORSDOF 14
ENDMDL
MODEL 2
REMARK VINA RESULT:    16.909      3.637      8.486
REMARK INTER + INTRA:          29.987
REMARK INTER:                  30.919
REMARK INTRA:                  -0.932
REMARK UNBOUND:                -0.761
REMARK SMILES CCCCCCCCCCCCCC[C@H](C)C(=O)[O-]
REMARK SMILES IDX 9 1 10 2 11 3 12 4 13 5 14 6 15 7 16 8 17 9 18 10 19 11 8 12
REMARK SMILES IDX 7 13 6 14 5 15 4 16 3 17 2 18 1 19
REMARK H PARENT
REMARK Flexibility Score: inf
ROOT
ATOM      1  C   UNL     1      -6.465  12.127 -23.761  1.00  0.00     0.000 C 
ENDROOT
BRANCH   1   2
ATOM      2  C   UNL     1      -5.771  10.753 -23.759  1.00  0.00     0.000 C 
BRANCH   2   3
ATOM      3  C   UNL     1      -5.705  10.111 -25.153  1.00  0.00     0.000 C 
BRANCH   3   4
ATOM      4  C   UNL     1      -4.629   9.015 -25.202  1.00  0.00     0.000 C 
BRANCH   4   5
ATOM      5  C   UNL     1      -3.449   9.297 -24.258  1.00  0.00     0.001 C 
BRANCH   5   6
ATOM      6  C   UNL     1      -2.261   8.342 -24.495  1.00  0.00     0.009 C 
BRANCH   6   7
ATOM      7  C   UNL     1      -0.873   9.012 -24.386  1.00  0.00     0.032 C 
ATOM      8  C   UNL     1      -0.958  10.526 -24.143  1.00  0.00     0.014 C 
BRANCH   7   9
ATOM      9  C   UNL     1      -0.001   8.680 -25.569  1.00  0.00     0.044 C 
ATOM     10  O   UNL     1       0.583   7.567 -25.651  1.00  0.00    -0.550 OA
ATOM     11  O   UNL     1       0.208   9.633 -26.559  1.00  0.00    -0.550 OA
ENDBRANCH   7   9
ENDBRANCH   6   7
ENDBRANCH   5   6
ENDBRANCH   4   5
ENDBRANCH   3   4
ENDBRANCH   2   3
ENDBRANCH   1   2
BRANCH   1  12
ATOM     12  C   UNL     1      -6.431  12.879 -25.105  1.00  0.00     0.000 C 
BRANCH  12  13
ATOM     13  C   UNL     1      -5.574  14.156 -25.056  1.00  0.00    -0.000 C 
BRANCH  13  14
ATOM     14  C   UNL     1      -5.023  14.561 -26.435  1.00  0.00    -0.000 C 
BRANCH  14  15
ATOM     15  C   UNL     1      -5.254  16.032 -26.845  1.00  0.00    -0.000 C 
BRANCH  15  16
ATOM     16  C   UNL     1      -4.775  17.084 -25.825  1.00  0.00    -0.000 C 
BRANCH  16  17
ATOM     17  C   UNL     1      -5.678  18.337 -25.748  1.00  0.00    -0.000 C 
BRANCH  17  18
ATOM     18  C   UNL     1      -6.009  18.767 -24.310  1.00  0.00    -0.003 C 
ATOM     19  C   UNL     1      -5.476  17.794 -23.262  1.00  0.00     0.004 C 
ENDBRANCH  17  18
ENDBRANCH  16  17
ENDBRANCH  15  16
ENDBRANCH  14  15
ENDBRANCH  13  14
ENDBRANCH  12  13
ENDBRANCH   1  12
TORSDOF 14
ENDMDL
MODEL 3
REMARK VINA RESULT:    17.381      1.450      2.526
REMARK INTER + INTRA:          30.846
REMARK INTER:                  31.574
REMARK INTRA:                  -0.728
REMARK UNBOUND:                -0.761
REMARK SMILES CCCCCCCCCCCCCC[C@H](C)C(=O)[O-]
REMARK SMILES IDX 9 1 10 2 11 3 12 4 13 5 14 6 15 7 16 8 17 9 18 10 19 11 8 12
REMARK SMILES IDX 7 13 6 14 5 15 4 16 3 17 2 18 1 19
REMARK H PARENT
REMARK Flexibility Score: inf
ROOT
ATOM      1  C   UNL     1      -5.728  11.188 -23.901  1.00  0.00     0.000 C 
ENDROOT
BRANCH   1   2
ATOM      2  C   UNL     1      -6.521  12.487 -24.139  1.00  0.00     0.000 C 
BRANCH   2   3
ATOM      3  C   UNL     1      -6.307  13.072 -25.544  1.00  0.00     0.000 C 
BRANCH   3   4
ATOM      4  C   UNL     1      -5.052  13.957 -25.583  1.00  0.00     0.000 C 
BRANCH   4   5
ATOM      5  C   UNL     1      -5.262  15.252 -26.384  1.00  0.00     0.001 C 
BRANCH   5   6
ATOM      6  C   UNL     1      -4.637  16.482 -25.694  1.00  0.00     0.009 C 
BRANCH   6   7
ATOM      7  C   UNL     1      -5.609  17.669 -25.507  1.00  0.00     0.032 C 
ATOM      8  C   UNL     1      -5.406  18.777 -26.552  1.00  0.00     0.014 C 
BRANCH   7   9
ATOM      9  C   UNL     1      -5.565  18.208 -24.100  1.00  0.00     0.044 C 
ATOM     10  O   UNL     1      -6.298  19.173 -23.753  1.00  0.00    -0.550 OA
ATOM     11  O   UNL     1      -4.668  17.671 -23.185  1.00  0.00    -0.550 OA
ENDBRANCH   7   9
ENDBRANCH   6   7
ENDBRANCH   5   6
ENDBRANCH   4   5
ENDBRANCH   3   4
ENDBRANCH   2   3
ENDBRANCH   1   2
BRANCH   1  12
ATOM     12  C   UNL     1      -6.028  10.045 -24.887  1.00  0.00     0.000 C 
BRANCH  12  13
ATOM     13  C   UNL     1      -4.755   9.357 -25.411  1.00  0.00    -0.000 C 
BRANCH  13  14
ATOM     14  C   UNL     1      -3.907   8.730 -24.290  1.00  0.00    -0.000 C 
BRANCH  14  15
ATOM     15  C   UNL     1      -2.382   8.947 -24.400  1.00  0.00    -0.000 C 
BRANCH  15  16
ATOM     16  C   UNL     1      -1.563   8.512 -23.168  1.00  0.00    -0.000 C 
BRANCH  16  17
ATOM     17  C   UNL     1      -2.278   7.471 -22.277  1.00  0.00    -0.000 C 
BRANCH  17  18
ATOM     18  C   UNL     1      -1.961   7.624 -20.780  1.00  0.00    -0.003 C 
ATOM     19  C   UNL     1      -3.154   7.297 -19.885  1.00  0.00     0.004 C 
ENDBRANCH  17  18
ENDBRANCH  16  17
ENDBRANCH  15  16
ENDBRANCH  14  15
ENDBRANCH  13  14
ENDBRANCH  12  13
ENDBRANCH   1  12
TORSDOF 14
ENDMDL
MODEL 4
REMARK VINA RESULT:    18.344      4.108      7.865
REMARK INTER + INTRA:          32.596
REMARK INTER:                  33.377
REMARK INTRA:                  -0.781
REMARK UNBOUND:                -0.761
REMARK SMILES CCCCCCCCCCCCCC[C@H](C)C(=O)[O-]
REMARK SMILES IDX 9 1 10 2 11 3 12 4 13 5 14 6 15 7 16 8 17 9 18 10 19 11 8 12
REMARK SMILES IDX 7 13 6 14 5 15 4 16 3 17 2 18 1 19
REMARK H PARENT
REMARK Flexibility Score: inf
ROOT
ATOM      1  C   UNL     1      -7.139  12.994 -22.532  1.00  0.00     0.000 C 
ENDROOT
BRANCH   1   2
ATOM      2  C   UNL     1      -6.618  12.085 -23.661  1.00  0.00     0.000 C 
BRANCH   2   3
ATOM      3  C   UNL     1      -6.346  12.845 -24.968  1.00  0.00     0.000 C 
BRANCH   3   4
ATOM      4  C   UNL     1      -5.732  14.224 -24.682  1.00  0.00     0.000 C 
BRANCH   4   5
ATOM      5  C   UNL     1      -5.036  14.831 -25.911  1.00  0.00     0.001 C 
BRANCH   5   6
ATOM      6  C   UNL     1      -4.439  16.224 -25.623  1.00  0.00     0.009 C 
BRANCH   6   7
ATOM      7  C   UNL     1      -5.483  17.358 -25.527  1.00  0.00     0.032 C 
ATOM      8  C   UNL     1      -5.396  18.352 -26.695  1.00  0.00     0.014 C 
BRANCH   7   9
ATOM      9  C   UNL     1      -5.428  18.054 -24.191  1.00  0.00     0.044 C 
ATOM     10  O   UNL     1      -6.105  19.095 -23.975  1.00  0.00    -0.550 OA
ATOM     11  O   UNL     1      -4.580  17.574 -23.200  1.00  0.00    -0.550 OA
ENDBRANCH   7   9
ENDBRANCH   6   7
ENDBRANCH   5   6
ENDBRANCH   4   5
ENDBRANCH   3   4
ENDBRANCH   2   3
ENDBRANCH   1   2
BRANCH   1  12
ATOM     12  C   UNL     1      -8.192  12.356 -21.608  1.00  0.00     0.000 C 
BRANCH  12  13
ATOM     13  C   UNL     1      -9.111  13.394 -20.941  1.00  0.00    -0.000 C 
BRANCH  13  14
ATOM     14  C   UNL     1      -8.382  14.258 -19.897  1.00  0.00    -0.000 C 
BRANCH  14  15
ATOM     15  C   UNL     1      -8.753  13.987 -18.423  1.00  0.00    -0.000 C 
BRANCH  15  16
ATOM     16  C   UNL     1      -9.525  15.120 -17.717  1.00  0.00    -0.000 C 
BRANCH  16  17
ATOM     17  C   UNL     1      -9.701  16.390 -18.581  1.00  0.00    -0.000 C 
BRANCH  17  18
ATOM     18  C   UNL     1     -10.248  17.594 -17.797  1.00  0.00    -0.003 C 
ATOM     19  C   UNL     1      -9.148  18.423 -17.139  1.00  0.00     0.004 C 
ENDBRANCH  17  18
ENDBRANCH  16  17
ENDBRANCH  15  16
ENDBRANCH  14  15
ENDBRANCH  13  14
ENDBRANCH  12  13
ENDBRANCH   1  12
TORSDOF 14
ENDMDL
