MODEL 1
REMARK VINA RESULT:    -5.016      0.000      0.000
REMARK INTER + INTRA:          -5.883
REMARK INTER:                  -5.603
REMARK INTRA:                  -0.281
REMARK UNBOUND:                -0.281
REMARK SMILES CC(=O)c1ccc(O)cc1O
REMARK SMILES IDX 4 1 10 2 9 3 7 4 6 5 5 6 2 7 1 8 3 9 11 10 8 12
REMARK H PARENT 11 11 8 13
REMARK Flexibility Score: inf
ROOT
ATOM      1  C   UNL     1       6.629  -2.221  48.262  1.00  0.00     0.059 A 
ATOM      2  C   UNL     1       6.055  -3.215  47.434  1.00  0.00     0.130 A 
ATOM      3  C   UNL     1       5.504  -2.860  46.192  1.00  0.00     0.093 A 
ATOM      4  C   UNL     1       5.531  -1.531  45.756  1.00  0.00     0.119 A 
ATOM      5  C   UNL     1       6.112  -0.550  46.561  1.00  0.00     0.047 A 
ATOM      6  C   UNL     1       6.658  -0.890  47.800  1.00  0.00     0.019 A 
ENDROOT
BRANCH   1   7
ATOM      7  C   UNL     1       7.213  -2.529  49.594  1.00  0.00     0.163 C 
ATOM      8  C   UNL     1       6.647  -1.979  50.868  1.00  0.00     0.093 C 
ATOM      9  O   UNL     1       8.224  -3.280  49.667  1.00  0.00    -0.294 OA
ENDBRANCH   1   7
BRANCH   2  10
ATOM     10  O   UNL     1       6.047  -4.554  47.822  1.00  0.00    -0.507 OA
ATOM     11  H   UNL     1       5.783  -5.294  47.183  1.00  0.00     0.293 HD
ENDBRANCH   2  10
BRANCH   4  12
ATOM     12  O   UNL     1       4.987  -1.175  44.524  1.00  0.00    -0.508 OA
ATOM     13  H   UNL     1       4.457  -1.836  43.968  1.00  0.00     0.293 HD
ENDBRANCH   4  12
TORSDOF 3
ENDMDL
MODEL 2
REMARK VINA RESULT:    -4.833      2.098      2.554
REMARK INTER + INTRA:          -5.679
REMARK INTER:                  -5.383
REMARK INTRA:                  -0.295
REMARK UNBOUND:                -0.281
REMARK SMILES CC(=O)c1ccc(O)cc1O
REMARK SMILES IDX 4 1 10 2 9 3 7 4 6 5 5 6 2 7 1 8 3 9 11 10 8 12
REMARK H PARENT 11 11 8 13
REMARK Flexibility Score: inf
ROOT
ATOM      1  C   UNL     1       6.561  -3.016  49.197  1.00  0.00     0.059 A 
ATOM      2  C   UNL     1       5.548  -2.394  48.428  1.00  0.00     0.130 A 
ATOM      3  C   UNL     1       5.885  -1.391  47.506  1.00  0.00     0.093 A 
ATOM      4  C   UNL     1       7.219  -1.010  47.327  1.00  0.00     0.119 A 
ATOM      5  C   UNL     1       8.223  -1.632  48.069  1.00  0.00     0.047 A 
ATOM      6  C   UNL     1       7.900  -2.627  48.994  1.00  0.00     0.019 A 
ENDROOT
BRANCH   1   7
ATOM      7  C   UNL     1       6.267  -4.072  50.202  1.00  0.00     0.163 C 
ATOM      8  C   UNL     1       6.879  -5.439  50.136  1.00  0.00     0.093 C 
ATOM      9  O   UNL     1       5.473  -3.820  51.150  1.00  0.00    -0.294 OA
ENDBRANCH   1   7
BRANCH   2  10
ATOM     10  O   UNL     1       4.214  -2.779  48.555  1.00  0.00    -0.507 OA
ATOM     11  H   UNL     1       3.459  -2.104  48.541  1.00  0.00     0.293 HD
ENDBRANCH   2  10
BRANCH   4  12
ATOM     12  O   UNL     1       7.558  -0.015  46.411  1.00  0.00    -0.508 OA
ATOM     13  H   UNL     1       8.233   0.706  46.636  1.00  0.00     0.293 HD
ENDBRANCH   4  12
TORSDOF 3
ENDMDL
MODEL 3
REMARK VINA RESULT:    -4.804      1.657      2.415
REMARK INTER + INTRA:          -5.646
REMARK INTER:                  -5.340
REMARK INTRA:                  -0.306
REMARK UNBOUND:                -0.281
REMARK SMILES CC(=O)c1ccc(O)cc1O
REMARK SMILES IDX 4 1 10 2 9 3 7 4 6 5 5 6 2 7 1 8 3 9 11 10 8 12
REMARK H PARENT 11 11 8 13
REMARK Flexibility Score: inf
ROOT
ATOM      1  C   UNL     1       6.582  -3.027  48.965  1.00  0.00     0.059 A 
ATOM      2  C   UNL     1       7.698  -2.189  48.727  1.00  0.00     0.130 A 
ATOM      3  C   UNL     1       7.581  -1.099  47.850  1.00  0.00     0.093 A 
ATOM      4  C   UNL     1       6.363  -0.821  47.220  1.00  0.00     0.119 A 
ATOM      5  C   UNL     1       5.256  -1.633  47.465  1.00  0.00     0.047 A 
ATOM      6  C   UNL     1       5.361  -2.723  48.330  1.00  0.00     0.019 A 
ENDROOT
BRANCH   1   7
ATOM      7  C   UNL     1       6.645  -4.206  49.868  1.00  0.00     0.163 C 
ATOM      8  C   UNL     1       5.625  -4.458  50.937  1.00  0.00     0.093 C 
ATOM      9  O   UNL     1       7.590  -5.033  49.740  1.00  0.00    -0.294 OA
ENDBRANCH   1   7
BRANCH   2  10
ATOM     10  O   UNL     1       8.913  -2.416  49.370  1.00  0.00    -0.507 OA
ATOM     11  H   UNL     1       9.799  -2.178  48.939  1.00  0.00     0.293 HD
ENDBRANCH   2  10
BRANCH   4  12
ATOM     12  O   UNL     1       6.243   0.262  46.350  1.00  0.00    -0.508 OA
ATOM     13  H   UNL     1       6.989   0.515  45.713  1.00  0.00     0.293 HD
ENDBRANCH   4  12
TORSDOF 3
ENDMDL
MODEL 4
REMARK VINA RESULT:    -4.803      1.819      2.506
REMARK INTER + INTRA:          -5.645
REMARK INTER:                  -5.429
REMARK INTRA:                  -0.216
REMARK UNBOUND:                -0.281
REMARK SMILES CC(=O)c1ccc(O)cc1O
REMARK SMILES IDX 4 1 10 2 9 3 7 4 6 5 5 6 2 7 1 8 3 9 11 10 8 12
REMARK H PARENT 11 11 8 13
REMARK Flexibility Score: inf
ROOT
ATOM      1  C   UNL     1       6.053  -2.251  47.911  1.00  0.00     0.059 A 
ATOM      2  C   UNL     1       5.916  -1.244  46.927  1.00  0.00     0.130 A 
ATOM      3  C   UNL     1       5.470  -1.579  45.639  1.00  0.00     0.093 A 
ATOM      4  C   UNL     1       5.141  -2.902  45.322  1.00  0.00     0.119 A 
ATOM      5  C   UNL     1       5.256  -3.895  46.294  1.00  0.00     0.047 A 
ATOM      6  C   UNL     1       5.705  -3.575  47.577  1.00  0.00     0.019 A 
ENDROOT
BRANCH   1   7
ATOM      7  C   UNL     1       6.536  -1.964  49.288  1.00  0.00     0.163 C 
ATOM      8  C   UNL     1       7.919  -2.317  49.746  1.00  0.00     0.093 C 
ATOM      9  O   UNL     1       5.761  -1.404  50.112  1.00  0.00    -0.294 OA
ENDBRANCH   1   7
BRANCH   2  10
ATOM     10  O   UNL     1       6.198   0.089  47.223  1.00  0.00    -0.507 OA
ATOM     11  H   UNL     1       6.526   0.376  48.137  1.00  0.00     0.293 HD
ENDBRANCH   2  10
BRANCH   4  12
ATOM     12  O   UNL     1       4.696  -3.238  44.045  1.00  0.00    -0.508 OA
ATOM     13  H   UNL     1       4.923  -2.668  43.238  1.00  0.00     0.293 HD
ENDBRANCH   4  12
TORSDOF 3
ENDMDL
MODEL 5
REMARK VINA RESULT:    -4.754      2.371      2.948
REMARK INTER + INTRA:          -5.591
REMARK INTER:                  -5.285
REMARK INTRA:                  -0.306
REMARK UNBOUND:                -0.281
REMARK SMILES CC(=O)c1ccc(O)cc1O
REMARK SMILES IDX 4 1 10 2 9 3 7 4 6 5 5 6 2 7 1 8 3 9 11 10 8 12
REMARK H PARENT 11 11 8 13
REMARK Flexibility Score: inf
ROOT
ATOM      1  C   UNL     1       5.149  -3.431  49.044  1.00  0.00     0.059 A 
ATOM      2  C   UNL     1       5.422  -2.054  49.223  1.00  0.00     0.130 A 
ATOM      3  C   UNL     1       5.729  -1.251  48.114  1.00  0.00     0.093 A 
ATOM      4  C   UNL     1       5.750  -1.797  46.825  1.00  0.00     0.119 A 
ATOM      5  C   UNL     1       5.464  -3.149  46.642  1.00  0.00     0.047 A 
ATOM      6  C   UNL     1       5.163  -3.960  47.739  1.00  0.00     0.019 A 
ENDROOT
BRANCH   1   7
ATOM      7  C   UNL     1       4.835  -4.338  50.180  1.00  0.00     0.163 C 
ATOM      8  C   UNL     1       3.702  -5.319  50.138  1.00  0.00     0.093 C 
ATOM      9  O   UNL     1       5.540  -4.288  51.225  1.00  0.00    -0.294 OA
ENDBRANCH   1   7
BRANCH   2  10
ATOM     10  O   UNL     1       5.370  -1.472  50.489  1.00  0.00    -0.507 OA
ATOM     11  H   UNL     1       4.490  -1.274  50.950  1.00  0.00     0.293 HD
ENDBRANCH   2  10
BRANCH   4  12
ATOM     12  O   UNL     1       6.053  -1.002  45.721  1.00  0.00    -0.508 OA
ATOM     13  H   UNL     1       5.783  -0.026  45.681  1.00  0.00     0.293 HD
ENDBRANCH   4  12
TORSDOF 3
ENDMDL
MODEL 6
REMARK VINA RESULT:    -4.602      1.824      4.514
REMARK INTER + INTRA:          -5.421
REMARK INTER:                  -5.123
REMARK INTRA:                  -0.298
REMARK UNBOUND:                -0.281
REMARK SMILES CC(=O)c1ccc(O)cc1O
REMARK SMILES IDX 4 1 10 2 9 3 7 4 6 5 5 6 2 7 1 8 3 9 11 10 8 12
REMARK H PARENT 11 11 8 13
REMARK Flexibility Score: inf
ROOT
ATOM      1  C   UNL     1       5.653  -2.241  47.799  1.00  0.00     0.059 A 
ATOM      2  C   UNL     1       6.702  -1.709  48.587  1.00  0.00     0.130 A 
ATOM      3  C   UNL     1       6.757  -1.989  49.961  1.00  0.00     0.093 A 
ATOM      4  C   UNL     1       5.790  -2.805  50.560  1.00  0.00     0.119 A 
ATOM      5  C   UNL     1       4.765  -3.346  49.784  1.00  0.00     0.047 A 
ATOM      6  C   UNL     1       4.697  -3.071  48.417  1.00  0.00     0.019 A 
ENDROOT
BRANCH   1   7
ATOM      7  C   UNL     1       5.529  -1.969  46.343  1.00  0.00     0.163 C 
ATOM      8  C   UNL     1       5.072  -3.009  45.365  1.00  0.00     0.093 C 
ATOM      9  O   UNL     1       5.818  -0.823  45.901  1.00  0.00    -0.294 OA
ENDBRANCH   1   7
BRANCH   2  10
ATOM     10  O   UNL     1       7.702  -0.925  48.013  1.00  0.00    -0.507 OA
ATOM     11  H   UNL     1       8.462  -1.333  47.483  1.00  0.00     0.293 HD
ENDBRANCH   2  10
BRANCH   4  12
ATOM     12  O   UNL     1       5.843  -3.086  51.924  1.00  0.00    -0.508 OA
ATOM     13  H   UNL     1       5.890  -2.347  52.616  1.00  0.00     0.293 HD
ENDBRANCH   4  12
TORSDOF 3
ENDMDL
MODEL 7
REMARK VINA RESULT:    -4.599      2.244      4.058
REMARK INTER + INTRA:          -5.418
REMARK INTER:                  -5.112
REMARK INTRA:                  -0.306
REMARK UNBOUND:                -0.281
REMARK SMILES CC(=O)c1ccc(O)cc1O
REMARK SMILES IDX 4 1 10 2 9 3 7 4 6 5 5 6 2 7 1 8 3 9 11 10 8 12
REMARK H PARENT 11 11 8 13
REMARK Flexibility Score: inf
ROOT
ATOM      1  C   UNL     1       5.986  -2.396  48.703  1.00  0.00     0.059 A 
ATOM      2  C   UNL     1       6.025  -2.615  50.101  1.00  0.00     0.130 A 
ATOM      3  C   UNL     1       5.174  -3.565  50.686  1.00  0.00     0.093 A 
ATOM      4  C   UNL     1       4.295  -4.315  49.895  1.00  0.00     0.119 A 
ATOM      5  C   UNL     1       4.266  -4.116  48.515  1.00  0.00     0.047 A 
ATOM      6  C   UNL     1       5.103  -3.169  47.923  1.00  0.00     0.019 A 
ENDROOT
BRANCH   1   7
ATOM      7  C   UNL     1       6.849  -1.393  48.026  1.00  0.00     0.163 C 
ATOM      8  C   UNL     1       6.301  -0.367  47.079  1.00  0.00     0.093 C 
ATOM      9  O   UNL     1       8.091  -1.395  48.247  1.00  0.00    -0.294 OA
ENDBRANCH   1   7
BRANCH   2  10
ATOM     10  O   UNL     1       6.917  -1.913  50.910  1.00  0.00    -0.507 OA
ATOM     11  H   UNL     1       7.566  -2.387  51.527  1.00  0.00     0.293 HD
ENDBRANCH   2  10
BRANCH   4  12
ATOM     12  O   UNL     1       3.450  -5.260  50.473  1.00  0.00    -0.508 OA
ATOM     13  H   UNL     1       2.678  -5.666  49.957  1.00  0.00     0.293 HD
ENDBRANCH   4  12
TORSDOF 3
ENDMDL
MODEL 8
REMARK VINA RESULT:    -4.581      1.327      1.451
REMARK INTER + INTRA:          -5.397
REMARK INTER:                  -5.093
REMARK INTRA:                  -0.304
REMARK UNBOUND:                -0.281
REMARK SMILES CC(=O)c1ccc(O)cc1O
REMARK SMILES IDX 4 1 10 2 9 3 7 4 6 5 5 6 2 7 1 8 3 9 11 10 8 12
REMARK H PARENT 11 11 8 13
REMARK Flexibility Score: inf
ROOT
ATOM      1  C   UNL     1       5.899  -3.268  48.439  1.00  0.00     0.059 A 
ATOM      2  C   UNL     1       5.632  -3.777  47.145  1.00  0.00     0.130 A 
ATOM      3  C   UNL     1       5.510  -2.898  46.058  1.00  0.00     0.093 A 
ATOM      4  C   UNL     1       5.668  -1.519  46.237  1.00  0.00     0.119 A 
ATOM      5  C   UNL     1       5.950  -1.014  47.507  1.00  0.00     0.047 A 
ATOM      6  C   UNL     1       6.067  -1.878  48.597  1.00  0.00     0.019 A 
ENDROOT
BRANCH   1   7
ATOM      7  C   UNL     1       6.022  -4.144  49.634  1.00  0.00     0.163 C 
ATOM      8  C   UNL     1       5.366  -3.820  50.942  1.00  0.00     0.093 C 
ATOM      9  O   UNL     1       6.703  -5.204  49.556  1.00  0.00    -0.294 OA
ENDBRANCH   1   7
BRANCH   2  10
ATOM     10  O   UNL     1       5.508  -5.149  46.927  1.00  0.00    -0.507 OA
ATOM     11  H   UNL     1       4.793  -5.531  46.321  1.00  0.00     0.293 HD
ENDBRANCH   2  10
BRANCH   4  12
ATOM     12  O   UNL     1       5.550  -0.644  45.160  1.00  0.00    -0.508 OA
ATOM     13  H   UNL     1       5.477  -0.982  44.207  1.00  0.00     0.293 HD
ENDBRANCH   4  12
TORSDOF 3
ENDMDL
MODEL 9
REMARK VINA RESULT:    -4.546      2.432      3.212
REMARK INTER + INTRA:          -5.359
REMARK INTER:                  -5.083
REMARK INTRA:                  -0.275
REMARK UNBOUND:                -0.281
REMARK SMILES CC(=O)c1ccc(O)cc1O
REMARK SMILES IDX 4 1 10 2 9 3 7 4 6 5 5 6 2 7 1 8 3 9 11 10 8 12
REMARK H PARENT 11 11 8 13
REMARK Flexibility Score: inf
ROOT
ATOM      1  C   UNL     1       7.731  -4.041  48.348  1.00  0.00     0.059 A 
ATOM      2  C   UNL     1       8.354  -2.838  47.939  1.00  0.00     0.130 A 
ATOM      3  C   UNL     1       7.582  -1.683  47.735  1.00  0.00     0.093 A 
ATOM      4  C   UNL     1       6.200  -1.706  47.949  1.00  0.00     0.119 A 
ATOM      5  C   UNL     1       5.583  -2.884  48.371  1.00  0.00     0.047 A 
ATOM      6  C   UNL     1       6.340  -4.040  48.571  1.00  0.00     0.019 A 
ENDROOT
BRANCH   1   7
ATOM      7  C   UNL     1       8.490  -5.301  48.565  1.00  0.00     0.163 C 
ATOM      8  C   UNL     1       8.591  -5.960  49.907  1.00  0.00     0.093 C 
ATOM      9  O   UNL     1       9.077  -5.845  47.589  1.00  0.00    -0.294 OA
ENDBRANCH   1   7
BRANCH   2  10
ATOM     10  O   UNL     1       9.735  -2.773  47.755  1.00  0.00    -0.507 OA
ATOM     11  H   UNL     1      10.146  -2.307  46.955  1.00  0.00     0.293 HD
ENDBRANCH   2  10
BRANCH   4  12
ATOM     12  O   UNL     1       5.430  -0.561  47.750  1.00  0.00    -0.508 OA
ATOM     13  H   UNL     1       4.480  -0.615  47.402  1.00  0.00     0.293 HD
ENDBRANCH   4  12
TORSDOF 3
ENDMDL
