MODEL 1
REMARK VINA RESULT:    -4.577      0.000      0.000
REMARK INTER + INTRA:         -10.488
REMARK INTER:                  -8.590
REMARK INTRA:                  -1.898
REMARK UNBOUND:                -1.898
REMARK SMILES O=C([O-])CCCCCCCCCCCCCCC(=O)[O-]
REMARK SMILES IDX 10 1 9 2 8 3 7 4 6 5 5 6 4 7 2 8 1 9 3 10 11 11 12 12 13 13
REMARK SMILES IDX 14 14 15 15 16 16 17 17 18 18 19 19 20 20
REMARK H PARENT
REMARK Flexibility Score: inf
ROOT
ATOM      1  C   UNL     1      15.715  24.772  53.611  1.00  0.00     0.000 C 
ENDROOT
BRANCH   1   2
ATOM      2  C   UNL     1      17.078  25.488  53.643  1.00  0.00     0.000 C 
BRANCH   2   3
ATOM      3  C   UNL     1      17.009  27.025  53.710  1.00  0.00     0.000 C 
BRANCH   3   4
ATOM      4  C   UNL     1      16.057  27.536  54.802  1.00  0.00     0.000 C 
BRANCH   4   5
ATOM      5  C   UNL     1      15.947  29.067  54.761  1.00  0.00     0.000 C 
BRANCH   5   6
ATOM      6  C   UNL     1      16.052  29.711  56.156  1.00  0.00     0.006 C 
BRANCH   6   7
ATOM      7  C   UNL     1      16.424  31.203  56.139  1.00  0.00     0.053 C 
BRANCH   7   8
ATOM      8  C   UNL     1      15.494  32.024  56.979  1.00  0.00     0.041 C 
ATOM      9  O   UNL     1      15.937  32.987  57.658  1.00  0.00    -0.550 OA
ATOM     10  O   UNL     1      14.133  31.745  56.984  1.00  0.00    -0.550 OA
ENDBRANCH   7   8
ENDBRANCH   6   7
ENDBRANCH   5   6
ENDBRANCH   4   5
ENDBRANCH   3   4
ENDBRANCH   2   3
ENDBRANCH   1   2
BRANCH   1  11
ATOM     11  C   UNL     1      15.505  23.938  52.335  1.00  0.00     0.000 C 
BRANCH  11  12
ATOM     12  C   UNL     1      14.738  24.709  51.247  1.00  0.00     0.000 C 
BRANCH  12  13
ATOM     13  C   UNL     1      13.662  25.639  51.834  1.00  0.00     0.000 C 
BRANCH  13  14
ATOM     14  C   UNL     1      13.894  27.114  51.471  1.00  0.00     0.000 C 
BRANCH  14  15
ATOM     15  C   UNL     1      15.116  27.318  50.561  1.00  0.00     0.000 C 
BRANCH  15  16
ATOM     16  C   UNL     1      15.550  28.791  50.546  1.00  0.00     0.006 C 
BRANCH  16  17
ATOM     17  C   UNL     1      14.663  29.668  51.440  1.00  0.00     0.053 C 
BRANCH  17  18
ATOM     18  C   UNL     1      14.267  30.940  50.755  1.00  0.00     0.041 C 
ATOM     19  O   UNL     1      14.977  31.406  49.825  1.00  0.00    -0.550 OA
ATOM     20  O   UNL     1      13.131  31.627  51.166  1.00  0.00    -0.550 OA
ENDBRANCH  17  18
ENDBRANCH  16  17
ENDBRANCH  15  16
ENDBRANCH  14  15
ENDBRANCH  13  14
ENDBRANCH  12  13
ENDBRANCH  11  12
ENDBRANCH   1  11
TORSDOF 15
ENDMDL
MODEL 2
REMARK VINA RESULT:    -4.464      1.093      5.745
REMARK INTER + INTRA:         -10.277
REMARK INTER:                  -8.612
REMARK INTRA:                  -1.665
REMARK UNBOUND:                -1.898
REMARK SMILES O=C([O-])CCCCCCCCCCCCCCC(=O)[O-]
REMARK SMILES IDX 10 1 9 2 8 3 7 4 6 5 5 6 4 7 2 8 1 9 3 10 11 11 12 12 13 13
REMARK SMILES IDX 14 14 15 15 16 16 17 17 18 18 19 19 20 20
REMARK H PARENT
REMARK Flexibility Score: inf
ROOT
ATOM      1  C   UNL     1      16.630  26.248  54.086  1.00  0.00     0.000 C 
ENDROOT
BRANCH   1   2
ATOM      2  C   UNL     1      15.865  25.474  52.997  1.00  0.00     0.000 C 
BRANCH   2   3
ATOM      3  C   UNL     1      14.538  26.112  52.548  1.00  0.00     0.000 C 
BRANCH   3   4
ATOM      4  C   UNL     1      14.582  26.637  51.105  1.00  0.00     0.000 C 
BRANCH   4   5
ATOM      5  C   UNL     1      15.977  27.176  50.758  1.00  0.00     0.000 C 
BRANCH   5   6
ATOM      6  C   UNL     1      16.092  28.701  50.941  1.00  0.00     0.006 C 
BRANCH   6   7
ATOM      7  C   UNL     1      14.750  29.414  51.179  1.00  0.00     0.053 C 
BRANCH   7   8
ATOM      8  C   UNL     1      14.667  30.715  50.442  1.00  0.00     0.041 C 
ATOM      9  O   UNL     1      14.549  30.726  49.189  1.00  0.00    -0.550 OA
ATOM     10  O   UNL     1      14.685  31.914  51.143  1.00  0.00    -0.550 OA
ENDBRANCH   7   8
ENDBRANCH   6   7
ENDBRANCH   5   6
ENDBRANCH   4   5
ENDBRANCH   3   4
ENDBRANCH   2   3
ENDBRANCH   1   2
BRANCH   1  11
ATOM     11  C   UNL     1      15.699  26.976  55.071  1.00  0.00     0.000 C 
BRANCH  11  12
ATOM     12  C   UNL     1      15.817  28.506  54.973  1.00  0.00     0.000 C 
BRANCH  12  13
ATOM     13  C   UNL     1      17.167  28.955  54.387  1.00  0.00     0.000 C 
BRANCH  13  14
ATOM     14  C   UNL     1      17.393  30.469  54.518  1.00  0.00     0.000 C 
BRANCH  14  15
ATOM     15  C   UNL     1      18.378  30.829  55.641  1.00  0.00     0.000 C 
BRANCH  15  16
ATOM     16  C   UNL     1      17.725  31.769  56.664  1.00  0.00     0.006 C 
BRANCH  16  17
ATOM     17  C   UNL     1      16.334  31.285  57.094  1.00  0.00     0.053 C 
BRANCH  17  18
ATOM     18  C   UNL     1      15.374  32.424  57.258  1.00  0.00     0.041 C 
ATOM     19  O   UNL     1      15.798  33.570  57.562  1.00  0.00    -0.550 OA
ATOM     20  O   UNL     1      14.010  32.211  57.107  1.00  0.00    -0.550 OA
ENDBRANCH  17  18
ENDBRANCH  16  17
ENDBRANCH  15  16
ENDBRANCH  14  15
ENDBRANCH  13  14
ENDBRANCH  12  13
ENDBRANCH  11  12
ENDBRANCH   1  11
TORSDOF 15
ENDMDL
MODEL 3
REMARK VINA RESULT:    -4.430      1.307      4.600
REMARK INTER + INTRA:         -10.212
REMARK INTER:                  -8.082
REMARK INTRA:                  -2.130
REMARK UNBOUND:                -1.898
REMARK SMILES O=C([O-])CCCCCCCCCCCCCCC(=O)[O-]
REMARK SMILES IDX 10 1 9 2 8 3 7 4 6 5 5 6 4 7 2 8 1 9 3 10 11 11 12 12 13 13
REMARK SMILES IDX 14 14 15 15 16 16 17 17 18 18 19 19 20 20
REMARK H PARENT
REMARK Flexibility Score: inf
ROOT
ATOM      1  C   UNL     1      14.027  25.516  51.383  1.00  0.00     0.000 C 
ENDROOT
BRANCH   1   2
ATOM      2  C   UNL     1      14.404  26.404  50.183  1.00  0.00     0.000 C 
BRANCH   2   3
ATOM      3  C   UNL     1      15.909  26.686  50.023  1.00  0.00     0.000 C 
BRANCH   3   4
ATOM      4  C   UNL     1      16.359  27.971  50.734  1.00  0.00     0.000 C 
BRANCH   4   5
ATOM      5  C   UNL     1      15.386  29.124  50.451  1.00  0.00     0.000 C 
BRANCH   5   6
ATOM      6  C   UNL     1      14.992  29.900  51.722  1.00  0.00     0.006 C 
BRANCH   6   7
ATOM      7  C   UNL     1      15.531  31.339  51.780  1.00  0.00     0.053 C 
BRANCH   7   8
ATOM      8  C   UNL     1      14.442  32.353  51.613  1.00  0.00     0.041 C 
ATOM      9  O   UNL     1      14.704  33.583  51.689  1.00  0.00    -0.550 OA
ATOM     10  O   UNL     1      13.144  31.942  51.339  1.00  0.00    -0.550 OA
ENDBRANCH   7   8
ENDBRANCH   6   7
ENDBRANCH   5   6
ENDBRANCH   4   5
ENDBRANCH   3   4
ENDBRANCH   2   3
ENDBRANCH   1   2
BRANCH   1  11
ATOM     11  C   UNL     1      15.111  24.479  51.725  1.00  0.00     0.000 C 
BRANCH  11  12
ATOM     12  C   UNL     1      15.605  24.601  53.176  1.00  0.00     0.000 C 
BRANCH  12  13
ATOM     13  C   UNL     1      16.979  25.287  53.273  1.00  0.00     0.000 C 
BRANCH  13  14
ATOM     14  C   UNL     1      16.946  26.556  54.140  1.00  0.00     0.000 C 
BRANCH  14  15
ATOM     15  C   UNL     1      15.517  27.051  54.415  1.00  0.00     0.000 C 
BRANCH  15  16
ATOM     16  C   UNL     1      15.521  28.200  55.434  1.00  0.00     0.006 C 
BRANCH  16  17
ATOM     17  C   UNL     1      16.573  29.267  55.104  1.00  0.00     0.053 C 
BRANCH  17  18
ATOM     18  C   UNL     1      16.337  30.536  55.866  1.00  0.00     0.041 C 
ATOM     19  O   UNL     1      15.850  31.542  55.285  1.00  0.00    -0.550 OA
ATOM     20  O   UNL     1      16.685  30.616  57.208  1.00  0.00    -0.550 OA
ENDBRANCH  17  18
ENDBRANCH  16  17
ENDBRANCH  15  16
ENDBRANCH  14  15
ENDBRANCH  13  14
ENDBRANCH  12  13
ENDBRANCH  11  12
ENDBRANCH   1  11
TORSDOF 15
ENDMDL
MODEL 4
REMARK VINA RESULT:    -4.396      2.596      4.869
REMARK INTER + INTRA:         -10.148
REMARK INTER:                  -7.893
REMARK INTRA:                  -2.255
REMARK UNBOUND:                -1.898
REMARK SMILES O=C([O-])CCCCCCCCCCCCCCC(=O)[O-]
REMARK SMILES IDX 10 1 9 2 8 3 7 4 6 5 5 6 4 7 2 8 1 9 3 10 11 11 12 12 13 13
REMARK SMILES IDX 14 14 15 15 16 16 17 17 18 18 19 19 20 20
REMARK H PARENT
REMARK Flexibility Score: inf
ROOT
ATOM      1  C   UNL     1      14.755  25.130  51.968  1.00  0.00     0.000 C 
ENDROOT
BRANCH   1   2
ATOM      2  C   UNL     1      13.964  26.207  51.202  1.00  0.00     0.000 C 
BRANCH   2   3
ATOM      3  C   UNL     1      14.514  27.639  51.330  1.00  0.00     0.000 C 
BRANCH   3   4
ATOM      4  C   UNL     1      15.162  28.151  50.035  1.00  0.00     0.000 C 
BRANCH   4   5
ATOM      5  C   UNL     1      15.054  29.679  49.933  1.00  0.00     0.000 C 
BRANCH   5   6
ATOM      6  C   UNL     1      14.649  30.340  51.264  1.00  0.00     0.006 C 
BRANCH   6   7
ATOM      7  C   UNL     1      14.267  31.825  51.145  1.00  0.00     0.053 C 
BRANCH   7   8
ATOM      8  C   UNL     1      15.424  32.728  51.443  1.00  0.00     0.041 C 
ATOM      9  O   UNL     1      16.391  32.312  52.134  1.00  0.00    -0.550 OA
ATOM     10  O   UNL     1      15.450  34.019  50.930  1.00  0.00    -0.550 OA
ENDBRANCH   7   8
ENDBRANCH   6   7
ENDBRANCH   5   6
ENDBRANCH   4   5
ENDBRANCH   3   4
ENDBRANCH   2   3
ENDBRANCH   1   2
BRANCH   1  11
ATOM     11  C   UNL     1      16.136  25.620  52.438  1.00  0.00     0.000 C 
BRANCH  11  12
ATOM     12  C   UNL     1      16.293  25.559  53.966  1.00  0.00     0.000 C 
BRANCH  12  13
ATOM     13  C   UNL     1      15.339  26.521  54.694  1.00  0.00     0.000 C 
BRANCH  13  14
ATOM     14  C   UNL     1      16.066  27.736  55.292  1.00  0.00     0.000 C 
BRANCH  14  15
ATOM     15  C   UNL     1      16.089  28.943  54.342  1.00  0.00     0.000 C 
BRANCH  15  16
ATOM     16  C   UNL     1      17.530  29.339  53.991  1.00  0.00     0.006 C 
BRANCH  16  17
ATOM     17  C   UNL     1      17.887  29.008  52.536  1.00  0.00     0.053 C 
BRANCH  17  18
ATOM     18  C   UNL     1      19.189  28.272  52.435  1.00  0.00     0.041 C 
ATOM     19  O   UNL     1      19.317  27.137  52.965  1.00  0.00    -0.550 OA
ATOM     20  O   UNL     1      20.269  28.856  51.786  1.00  0.00    -0.550 OA
ENDBRANCH  17  18
ENDBRANCH  16  17
ENDBRANCH  15  16
ENDBRANCH  14  15
ENDBRANCH  13  14
ENDBRANCH  12  13
ENDBRANCH  11  12
ENDBRANCH   1  11
TORSDOF 15
ENDMDL
MODEL 5
REMARK VINA RESULT:    -4.384      1.331      2.218
REMARK INTER + INTRA:         -10.126
REMARK INTER:                  -8.052
REMARK INTRA:                  -2.075
REMARK UNBOUND:                -1.898
REMARK SMILES O=C([O-])CCCCCCCCCCCCCCC(=O)[O-]
REMARK SMILES IDX 10 1 9 2 8 3 7 4 6 5 5 6 4 7 2 8 1 9 3 10 11 11 12 12 13 13
REMARK SMILES IDX 14 14 15 15 16 16 17 17 18 18 19 19 20 20
REMARK H PARENT
REMARK Flexibility Score: inf
ROOT
ATOM      1  C   UNL     1      14.130  24.341  51.605  1.00  0.00     0.000 C 
ENDROOT
BRANCH   1   2
ATOM      2  C   UNL     1      15.039  24.537  52.832  1.00  0.00     0.000 C 
BRANCH   2   3
ATOM      3  C   UNL     1      15.130  25.981  53.357  1.00  0.00     0.000 C 
BRANCH   3   4
ATOM      4  C   UNL     1      16.522  26.338  53.899  1.00  0.00     0.000 C 
BRANCH   4   5
ATOM      5  C   UNL     1      16.415  27.187  55.173  1.00  0.00     0.000 C 
BRANCH   5   6
ATOM      6  C   UNL     1      15.732  28.545  54.931  1.00  0.00     0.006 C 
BRANCH   6   7
ATOM      7  C   UNL     1      16.648  29.763  55.137  1.00  0.00     0.053 C 
BRANCH   7   8
ATOM      8  C   UNL     1      16.239  30.580  56.323  1.00  0.00     0.041 C 
ATOM      9  O   UNL     1      15.050  30.546  56.736  1.00  0.00    -0.550 OA
ATOM     10  O   UNL     1      17.179  31.353  56.993  1.00  0.00    -0.550 OA
ENDBRANCH   7   8
ENDBRANCH   6   7
ENDBRANCH   5   6
ENDBRANCH   4   5
ENDBRANCH   3   4
ENDBRANCH   2   3
ENDBRANCH   1   2
BRANCH   1  11
ATOM     11  C   UNL     1      13.502  25.655  51.108  1.00  0.00     0.000 C 
BRANCH  11  12
ATOM     12  C   UNL     1      13.992  26.048  49.704  1.00  0.00     0.000 C 
BRANCH  12  13
ATOM     13  C   UNL     1      15.437  25.591  49.436  1.00  0.00     0.000 C 
BRANCH  13  14
ATOM     14  C   UNL     1      16.451  26.739  49.555  1.00  0.00     0.000 C 
BRANCH  14  15
ATOM     15  C   UNL     1      15.780  28.116  49.674  1.00  0.00     0.000 C 
BRANCH  15  16
ATOM     16  C   UNL     1      16.053  28.742  51.049  1.00  0.00     0.006 C 
BRANCH  16  17
ATOM     17  C   UNL     1      14.875  29.592  51.545  1.00  0.00     0.053 C 
BRANCH  17  18
ATOM     18  C   UNL     1      15.171  31.059  51.457  1.00  0.00     0.041 C 
ATOM     19  O   UNL     1      15.407  31.720  52.502  1.00  0.00    -0.550 OA
ATOM     20  O   UNL     1      15.153  31.700  50.225  1.00  0.00    -0.550 OA
ENDBRANCH  17  18
ENDBRANCH  16  17
ENDBRANCH  15  16
ENDBRANCH  14  15
ENDBRANCH  13  14
ENDBRANCH  12  13
ENDBRANCH  11  12
ENDBRANCH   1  11
TORSDOF 15
ENDMDL
MODEL 6
REMARK VINA RESULT:    -4.374      2.200      5.619
REMARK INTER + INTRA:         -10.108
REMARK INTER:                  -7.878
REMARK INTRA:                  -2.230
REMARK UNBOUND:                -1.898
REMARK SMILES O=C([O-])CCCCCCCCCCCCCCC(=O)[O-]
REMARK SMILES IDX 10 1 9 2 8 3 7 4 6 5 5 6 4 7 2 8 1 9 3 10 11 11 12 12 13 13
REMARK SMILES IDX 14 14 15 15 16 16 17 17 18 18 19 19 20 20
REMARK H PARENT
REMARK Flexibility Score: inf
ROOT
ATOM      1  C   UNL     1      15.755  27.305  55.119  1.00  0.00     0.000 C 
ENDROOT
BRANCH   1   2
ATOM      2  C   UNL     1      16.727  26.434  54.302  1.00  0.00     0.000 C 
BRANCH   2   3
ATOM      3  C   UNL     1      16.078  25.606  53.178  1.00  0.00     0.000 C 
BRANCH   3   4
ATOM      4  C   UNL     1      14.602  25.961  52.945  1.00  0.00     0.000 C 
BRANCH   4   5
ATOM      5  C   UNL     1      14.138  25.502  51.556  1.00  0.00     0.000 C 
BRANCH   5   6
ATOM      6  C   UNL     1      15.127  25.885  50.439  1.00  0.00     0.006 C 
BRANCH   6   7
ATOM      7  C   UNL     1      14.461  26.350  49.133  1.00  0.00     0.053 C 
BRANCH   7   8
ATOM      8  C   UNL     1      15.288  27.369  48.412  1.00  0.00     0.041 C 
ATOM      9  O   UNL     1      16.543  27.262  48.385  1.00  0.00    -0.550 OA
ATOM     10  O   UNL     1      14.672  28.418  47.743  1.00  0.00    -0.550 OA
ENDBRANCH   7   8
ENDBRANCH   6   7
ENDBRANCH   5   6
ENDBRANCH   4   5
ENDBRANCH   3   4
ENDBRANCH   2   3
ENDBRANCH   1   2
BRANCH   1  11
ATOM     11  C   UNL     1      16.001  28.813  54.933  1.00  0.00     0.000 C 
BRANCH  11  12
ATOM     12  C   UNL     1      17.271  29.107  54.118  1.00  0.00     0.000 C 
BRANCH  12  13
ATOM     13  C   UNL     1      16.981  29.934  52.854  1.00  0.00     0.000 C 
BRANCH  13  14
ATOM     14  C   UNL     1      16.392  29.087  51.715  1.00  0.00     0.000 C 
BRANCH  14  15
ATOM     15  C   UNL     1      14.922  29.425  51.421  1.00  0.00     0.000 C 
BRANCH  15  16
ATOM     16  C   UNL     1      14.814  30.676  50.536  1.00  0.00     0.006 C 
BRANCH  16  17
ATOM     17  C   UNL     1      13.877  31.733  51.136  1.00  0.00     0.053 C 
BRANCH  17  18
ATOM     18  C   UNL     1      14.638  32.828  51.820  1.00  0.00     0.041 C 
ATOM     19  O   UNL     1      14.276  33.237  52.954  1.00  0.00    -0.550 OA
ATOM     20  O   UNL     1      15.726  33.418  51.189  1.00  0.00    -0.550 OA
ENDBRANCH  17  18
ENDBRANCH  16  17
ENDBRANCH  15  16
ENDBRANCH  14  15
ENDBRANCH  13  14
ENDBRANCH  12  13
ENDBRANCH  11  12
ENDBRANCH   1  11
TORSDOF 15
ENDMDL
MODEL 7
REMARK VINA RESULT:    -4.331      2.822      5.212
REMARK INTER + INTRA:         -10.026
REMARK INTER:                  -7.273
REMARK INTRA:                  -2.753
REMARK UNBOUND:                -1.898
REMARK SMILES O=C([O-])CCCCCCCCCCCCCCC(=O)[O-]
REMARK SMILES IDX 10 1 9 2 8 3 7 4 6 5 5 6 4 7 2 8 1 9 3 10 11 11 12 12 13 13
REMARK SMILES IDX 14 14 15 15 16 16 17 17 18 18 19 19 20 20
REMARK H PARENT
REMARK Flexibility Score: inf
ROOT
ATOM      1  C   UNL     1      16.192  28.659  55.199  1.00  0.00     0.000 C 
ENDROOT
BRANCH   1   2
ATOM      2  C   UNL     1      16.054  29.559  53.957  1.00  0.00     0.000 C 
BRANCH   2   3
ATOM      3  C   UNL     1      17.326  29.696  53.102  1.00  0.00     0.000 C 
BRANCH   3   4
ATOM      4  C   UNL     1      18.580  29.146  53.798  1.00  0.00     0.000 C 
BRANCH   4   5
ATOM      5  C   UNL     1      19.440  28.334  52.820  1.00  0.00     0.000 C 
BRANCH   5   6
ATOM      6  C   UNL     1      18.604  27.602  51.754  1.00  0.00     0.006 C 
BRANCH   6   7
ATOM      7  C   UNL     1      18.975  26.122  51.562  1.00  0.00     0.053 C 
BRANCH   7   8
ATOM      8  C   UNL     1      18.301  25.525  50.366  1.00  0.00     0.041 C 
ATOM      9  O   UNL     1      18.218  26.179  49.293  1.00  0.00    -0.550 OA
ATOM     10  O   UNL     1      17.795  24.232  50.425  1.00  0.00    -0.550 OA
ENDBRANCH   7   8
ENDBRANCH   6   7
ENDBRANCH   5   6
ENDBRANCH   4   5
ENDBRANCH   3   4
ENDBRANCH   2   3
ENDBRANCH   1   2
BRANCH   1  11
ATOM     11  C   UNL     1      15.513  27.289  55.025  1.00  0.00     0.000 C 
BRANCH  11  12
ATOM     12  C   UNL     1      16.478  26.216  54.495  1.00  0.00     0.000 C 
BRANCH  12  13
ATOM     13  C   UNL     1      15.904  25.455  53.286  1.00  0.00     0.000 C 
BRANCH  13  14
ATOM     14  C   UNL     1      14.663  26.139  52.692  1.00  0.00     0.000 C 
BRANCH  14  15
ATOM     15  C   UNL     1      14.884  26.623  51.250  1.00  0.00     0.000 C 
BRANCH  15  16
ATOM     16  C   UNL     1      14.568  28.120  51.119  1.00  0.00     0.006 C 
BRANCH  16  17
ATOM     17  C   UNL     1      15.418  28.802  50.039  1.00  0.00     0.053 C 
BRANCH  17  18
ATOM     18  C   UNL     1      15.024  30.235  49.842  1.00  0.00     0.041 C 
ATOM     19  O   UNL     1      15.341  31.101  50.699  1.00  0.00    -0.550 OA
ATOM     20  O   UNL     1      14.279  30.605  48.730  1.00  0.00    -0.550 OA
ENDBRANCH  17  18
ENDBRANCH  16  17
ENDBRANCH  15  16
ENDBRANCH  14  15
ENDBRANCH  13  14
ENDBRANCH  12  13
ENDBRANCH  11  12
ENDBRANCH   1  11
TORSDOF 15
ENDMDL
MODEL 8
REMARK VINA RESULT:    -4.322      2.880      4.894
REMARK INTER + INTRA:         -10.010
REMARK INTER:                  -7.746
REMARK INTRA:                  -2.264
REMARK UNBOUND:                -1.898
REMARK SMILES O=C([O-])CCCCCCCCCCCCCCC(=O)[O-]
REMARK SMILES IDX 10 1 9 2 8 3 7 4 6 5 5 6 4 7 2 8 1 9 3 10 11 11 12 12 13 13
REMARK SMILES IDX 14 14 15 15 16 16 17 17 18 18 19 19 20 20
REMARK H PARENT
REMARK Flexibility Score: inf
ROOT
ATOM      1  C   UNL     1      15.333  26.283  54.194  1.00  0.00     0.000 C 
ENDROOT
BRANCH   1   2
ATOM      2  C   UNL     1      16.017  27.250  55.177  1.00  0.00     0.000 C 
BRANCH   2   3
ATOM      3  C   UNL     1      15.931  28.739  54.799  1.00  0.00     0.000 C 
BRANCH   3   4
ATOM      4  C   UNL     1      17.145  29.226  53.993  1.00  0.00     0.000 C 
BRANCH   4   5
ATOM      5  C   UNL     1      16.701  29.971  52.727  1.00  0.00     0.000 C 
BRANCH   5   6
ATOM      6  C   UNL     1      15.490  29.313  52.039  1.00  0.00     0.006 C 
BRANCH   6   7
ATOM      7  C   UNL     1      14.461  30.308  51.478  1.00  0.00     0.053 C 
BRANCH   7   8
ATOM      8  C   UNL     1      14.898  30.893  50.171  1.00  0.00     0.041 C 
ATOM      9  O   UNL     1      14.832  30.208  49.117  1.00  0.00    -0.550 OA
ATOM     10  O   UNL     1      15.349  32.206  50.112  1.00  0.00    -0.550 OA
ENDBRANCH   7   8
ENDBRANCH   6   7
ENDBRANCH   5   6
ENDBRANCH   4   5
ENDBRANCH   3   4
ENDBRANCH   2   3
ENDBRANCH   1   2
BRANCH   1  11
ATOM     11  C   UNL     1      16.276  25.179  53.683  1.00  0.00     0.000 C 
BRANCH  11  12
ATOM     12  C   UNL     1      17.753  25.605  53.717  1.00  0.00     0.000 C 
BRANCH  12  13
ATOM     13  C   UNL     1      18.401  25.591  52.322  1.00  0.00     0.000 C 
BRANCH  13  14
ATOM     14  C   UNL     1      17.738  26.581  51.352  1.00  0.00     0.000 C 
BRANCH  14  15
ATOM     15  C   UNL     1      17.577  26.008  49.935  1.00  0.00     0.000 C 
BRANCH  15  16
ATOM     16  C   UNL     1      16.747  24.717  49.956  1.00  0.00     0.006 C 
BRANCH  16  17
ATOM     17  C   UNL     1      15.326  24.929  49.418  1.00  0.00     0.053 C 
BRANCH  17  18
ATOM     18  C   UNL     1      14.335  25.126  50.525  1.00  0.00     0.041 C 
ATOM     19  O   UNL     1      13.996  26.288  50.872  1.00  0.00    -0.550 OA
ATOM     20  O   UNL     1      13.812  24.027  51.194  1.00  0.00    -0.550 OA
ENDBRANCH  17  18
ENDBRANCH  16  17
ENDBRANCH  15  16
ENDBRANCH  14  15
ENDBRANCH  13  14
ENDBRANCH  12  13
ENDBRANCH  11  12
ENDBRANCH   1  11
TORSDOF 15
ENDMDL
MODEL 9
REMARK VINA RESULT:    -4.292      3.137      5.124
REMARK INTER + INTRA:          -9.954
REMARK INTER:                  -7.444
REMARK INTRA:                  -2.510
REMARK UNBOUND:                -1.898
REMARK SMILES O=C([O-])CCCCCCCCCCCCCCC(=O)[O-]
REMARK SMILES IDX 10 1 9 2 8 3 7 4 6 5 5 6 4 7 2 8 1 9 3 10 11 11 12 12 13 13
REMARK SMILES IDX 14 14 15 15 16 16 17 17 18 18 19 19 20 20
REMARK H PARENT
REMARK Flexibility Score: inf
ROOT
ATOM      1  C   UNL     1      16.145  27.108  55.032  1.00  0.00     0.000 C 
ENDROOT
BRANCH   1   2
ATOM      2  C   UNL     1      16.334  28.482  54.364  1.00  0.00     0.000 C 
BRANCH   2   3
ATOM      3  C   UNL     1      17.776  28.811  53.937  1.00  0.00     0.000 C 
BRANCH   3   4
ATOM      4  C   UNL     1      17.939  28.931  52.414  1.00  0.00     0.000 C 
BRANCH   4   5
ATOM      5  C   UNL     1      18.559  27.656  51.825  1.00  0.00     0.000 C 
BRANCH   5   6
ATOM      6  C   UNL     1      19.354  26.844  52.864  1.00  0.00     0.006 C 
BRANCH   6   7
ATOM      7  C   UNL     1      19.193  25.320  52.735  1.00  0.00     0.053 C 
BRANCH   7   8
ATOM      8  C   UNL     1      19.331  24.858  51.317  1.00  0.00     0.041 C 
ATOM      9  O   UNL     1      18.337  24.385  50.705  1.00  0.00    -0.550 OA
ATOM     10  O   UNL     1      20.549  24.981  50.660  1.00  0.00    -0.550 OA
ENDBRANCH   7   8
ENDBRANCH   6   7
ENDBRANCH   5   6
ENDBRANCH   4   5
ENDBRANCH   3   4
ENDBRANCH   2   3
ENDBRANCH   1   2
BRANCH   1  11
ATOM     11  C   UNL     1      15.879  25.980  54.019  1.00  0.00     0.000 C 
BRANCH  11  12
ATOM     12  C   UNL     1      14.841  26.375  52.956  1.00  0.00     0.000 C 
BRANCH  12  13
ATOM     13  C   UNL     1      15.299  26.029  51.529  1.00  0.00     0.000 C 
BRANCH  13  14
ATOM     14  C   UNL     1      15.016  27.159  50.527  1.00  0.00     0.000 C 
BRANCH  14  15
ATOM     15  C   UNL     1      14.650  28.485  51.213  1.00  0.00     0.000 C 
BRANCH  15  16
ATOM     16  C   UNL     1      14.997  29.681  50.316  1.00  0.00     0.006 C 
BRANCH  16  17
ATOM     17  C   UNL     1      14.332  30.979  50.794  1.00  0.00     0.053 C 
BRANCH  17  18
ATOM     18  C   UNL     1      15.344  32.034  51.126  1.00  0.00     0.041 C 
ATOM     19  O   UNL     1      15.741  32.832  50.237  1.00  0.00    -0.550 OA
ATOM     20  O   UNL     1      15.871  32.113  52.409  1.00  0.00    -0.550 OA
ENDBRANCH  17  18
ENDBRANCH  16  17
ENDBRANCH  15  16
ENDBRANCH  14  15
ENDBRANCH  13  14
ENDBRANCH  12  13
ENDBRANCH  11  12
ENDBRANCH   1  11
TORSDOF 15
ENDMDL
