MODEL 1
REMARK VINA RESULT:    -5.556      0.000      0.000
REMARK INTER + INTRA:          -9.221
REMARK INTER:                  -8.642
REMARK INTRA:                  -0.579
REMARK UNBOUND:                -0.579
REMARK SMILES COc1cc(CNC(=O)CCCCC=CC(C)C)ccc1O
REMARK SMILES IDX 11 1 12 2 13 3 14 4 15 5 16 6 17 7 18 8 10 9 8 10 9 11 7 12
REMARK SMILES IDX 6 14 5 15 4 16 19 17 3 18 20 19 21 20 2 21 1 22 22 23
REMARK H PARENT 7 13 22 24
REMARK Flexibility Score: inf
ROOT
ATOM      1  C   UNL     1     115.138 258.658 338.506  1.00  0.00     0.010 C 
ENDROOT
BRANCH   1   2
ATOM      2  C   UNL     1     114.230 259.889 338.320  1.00  0.00     0.005 C 
BRANCH   2   3
ATOM      3  C   UNL     1     113.161 259.741 337.225  1.00  0.00     0.027 C 
BRANCH   3   4
ATOM      4  C   UNL     1     113.255 260.835 336.189  1.00  0.00    -0.031 C 
ATOM      5  C   UNL     1     113.318 260.685 334.849  1.00  0.00    -0.028 C 
BRANCH   5   6
ATOM      6  C   UNL     1     113.215 259.404 334.039  1.00  0.00     0.005 C 
ATOM      7  C   UNL     1     114.523 259.067 333.308  1.00  0.00     0.012 C 
ATOM      8  C   UNL     1     111.991 259.352 333.113  1.00  0.00     0.012 C 
ENDBRANCH   5   6
ENDBRANCH   3   4
ENDBRANCH   2   3
ENDBRANCH   1   2
BRANCH   1   9
ATOM      9  C   UNL     1     116.429 258.973 339.268  1.00  0.00     0.100 C 
BRANCH   9  10
ATOM     10  C   UNL     1     116.715 257.906 340.281  1.00  0.00     0.220 C 
ATOM     11  O   UNL     1     117.575 257.021 340.023  1.00  0.00    -0.275 OA
ATOM     12  N   UNL     1     115.982 257.870 341.517  1.00  0.00    -0.352 N 
ATOM     13  H   UNL     1     115.234 258.583 341.690  1.00  0.00     0.163 HD
BRANCH  12  14
ATOM     14  C   UNL     1     116.253 256.883 342.560  1.00  0.00     0.151 C 
BRANCH  14  15
ATOM     15  C   UNL     1     115.121 256.843 343.553  1.00  0.00    -0.025 A 
ATOM     16  C   UNL     1     115.133 257.674 344.685  1.00  0.00     0.056 A 
ATOM     17  C   UNL     1     114.028 255.989 343.337  1.00  0.00     0.009 A 
ATOM     18  C   UNL     1     114.059 257.656 345.597  1.00  0.00     0.160 A 
ATOM     19  C   UNL     1     112.963 255.967 344.239  1.00  0.00     0.050 A 
ATOM     20  C   UNL     1     112.975 256.797 345.367  1.00  0.00     0.157 A 
BRANCH  18  21
ATOM     21  O   UNL     1     114.034 258.472 346.739  1.00  0.00    -0.493 OA
ATOM     22  C   UNL     1     115.101 259.325 347.146  1.00  0.00     0.278 C 
ENDBRANCH  18  21
BRANCH  20  23
ATOM     23  O   UNL     1     111.911 256.773 346.266  1.00  0.00    -0.504 OA
ATOM     24  H   UNL     1     112.061 256.672 347.263  1.00  0.00     0.293 HD
ENDBRANCH  20  23
ENDBRANCH  14  15
ENDBRANCH  12  14
ENDBRANCH   9  10
ENDBRANCH   1   9
TORSDOF 10
ENDMDL
MODEL 2
REMARK VINA RESULT:    -5.305      2.857      9.014
REMARK INTER + INTRA:          -8.830
REMARK INTER:                  -8.392
REMARK INTRA:                  -0.437
REMARK UNBOUND:                -0.579
REMARK SMILES COc1cc(CNC(=O)CCCCC=CC(C)C)ccc1O
REMARK SMILES IDX 11 1 12 2 13 3 14 4 15 5 16 6 17 7 18 8 10 9 8 10 9 11 7 12
REMARK SMILES IDX 6 14 5 15 4 16 19 17 3 18 20 19 21 20 2 21 1 22 22 23
REMARK H PARENT 7 13 22 24
REMARK Flexibility Score: inf
ROOT
ATOM      1  C   UNL     1     117.029 257.030 341.531  1.00  0.00     0.010 C 
ENDROOT
BRANCH   1   2
ATOM      2  C   UNL     1     115.855 257.791 342.176  1.00  0.00     0.005 C 
BRANCH   2   3
ATOM      3  C   UNL     1     115.448 257.285 343.570  1.00  0.00     0.027 C 
BRANCH   3   4
ATOM      4  C   UNL     1     114.300 256.307 343.506  1.00  0.00    -0.031 C 
ATOM      5  C   UNL     1     113.108 256.408 344.132  1.00  0.00    -0.028 C 
BRANCH   5   6
ATOM      6  C   UNL     1     112.580 257.557 344.974  1.00  0.00     0.005 C 
ATOM      7  C   UNL     1     113.369 257.737 346.279  1.00  0.00     0.012 C 
ATOM      8  C   UNL     1     111.062 257.513 345.203  1.00  0.00     0.012 C 
ENDBRANCH   5   6
ENDBRANCH   3   4
ENDBRANCH   2   3
ENDBRANCH   1   2
BRANCH   1   9
ATOM      9  C   UNL     1     116.984 257.043 339.999  1.00  0.00     0.100 C 
BRANCH   9  10
ATOM     10  C   UNL     1     116.566 258.392 339.498  1.00  0.00     0.220 C 
ATOM     11  O   UNL     1     117.339 259.377 339.650  1.00  0.00    -0.275 OA
ATOM     12  N   UNL     1     115.276 258.569 338.888  1.00  0.00    -0.352 N 
ATOM     13  H   UNL     1     114.626 257.750 338.819  1.00  0.00     0.163 HD
BRANCH  12  14
ATOM     14  C   UNL     1     114.838 259.850 338.338  1.00  0.00     0.151 C 
BRANCH  14  15
ATOM     15  C   UNL     1     113.897 259.632 337.182  1.00  0.00    -0.025 A 
ATOM     16  C   UNL     1     114.352 259.751 335.859  1.00  0.00     0.056 A 
ATOM     17  C   UNL     1     112.560 259.280 337.422  1.00  0.00     0.009 A 
ATOM     18  C   UNL     1     113.478 259.517 334.778  1.00  0.00     0.160 A 
ATOM     19  C   UNL     1     111.690 259.051 336.355  1.00  0.00     0.050 A 
ATOM     20  C   UNL     1     112.145 259.167 335.035  1.00  0.00     0.157 A 
BRANCH  18  21
ATOM     21  O   UNL     1     113.895 259.626 333.442  1.00  0.00    -0.493 OA
ATOM     22  C   UNL     1     114.989 258.909 332.877  1.00  0.00     0.278 C 
ENDBRANCH  18  21
BRANCH  20  23
ATOM     23  O   UNL     1     111.275 258.937 333.971  1.00  0.00    -0.504 OA
ATOM     24  H   UNL     1     111.397 258.149 333.346  1.00  0.00     0.293 HD
ENDBRANCH  20  23
ENDBRANCH  14  15
ENDBRANCH  12  14
ENDBRANCH   9  10
ENDBRANCH   1   9
TORSDOF 10
ENDMDL
MODEL 3
REMARK VINA RESULT:    -4.828      2.699     10.234
REMARK INTER + INTRA:          -8.088
REMARK INTER:                  -7.367
REMARK INTRA:                  -0.721
REMARK UNBOUND:                -0.579
REMARK SMILES COc1cc(CNC(=O)CCCCC=CC(C)C)ccc1O
REMARK SMILES IDX 11 1 12 2 13 3 14 4 15 5 16 6 17 7 18 8 10 9 8 10 9 11 7 12
REMARK SMILES IDX 6 14 5 15 4 16 19 17 3 18 20 19 21 20 2 21 1 22 22 23
REMARK H PARENT 7 13 22 24
REMARK Flexibility Score: inf
ROOT
ATOM      1  C   UNL     1     115.259 259.030 346.924  1.00  0.00     0.010 C 
ENDROOT
BRANCH   1   2
ATOM      2  C   UNL     1     115.131 260.456 347.492  1.00  0.00     0.005 C 
BRANCH   2   3
ATOM      3  C   UNL     1     116.452 261.075 347.981  1.00  0.00     0.027 C 
BRANCH   3   4
ATOM      4  C   UNL     1     117.301 260.079 348.732  1.00  0.00    -0.031 C 
ATOM      5  C   UNL     1     117.501 260.020 350.066  1.00  0.00    -0.028 C 
BRANCH   5   6
ATOM      6  C   UNL     1     116.859 260.868 351.152  1.00  0.00     0.005 C 
ATOM      7  C   UNL     1     117.808 261.125 352.332  1.00  0.00     0.012 C 
ATOM      8  C   UNL     1     115.481 260.358 351.603  1.00  0.00     0.012 C 
ENDBRANCH   5   6
ENDBRANCH   3   4
ENDBRANCH   2   3
ENDBRANCH   1   2
BRANCH   1   9
ATOM      9  C   UNL     1     113.966 258.524 346.274  1.00  0.00     0.100 C 
BRANCH   9  10
ATOM     10  C   UNL     1     114.261 257.408 345.319  1.00  0.00     0.220 C 
ATOM     11  O   UNL     1     114.031 256.218 345.666  1.00  0.00    -0.275 OA
ATOM     12  N   UNL     1     114.842 257.691 344.034  1.00  0.00    -0.352 N 
ATOM     13  H   UNL     1     115.076 258.682 343.785  1.00  0.00     0.163 HD
BRANCH  12  14
ATOM     14  C   UNL     1     115.105 256.647 343.045  1.00  0.00     0.151 C 
BRANCH  14  15
ATOM     15  C   UNL     1     116.162 257.099 342.072  1.00  0.00    -0.025 A 
ATOM     16  C   UNL     1     115.804 257.721 340.865  1.00  0.00     0.056 A 
ATOM     17  C   UNL     1     117.520 256.925 342.381  1.00  0.00     0.009 A 
ATOM     18  C   UNL     1     116.795 258.170 339.970  1.00  0.00     0.160 A 
ATOM     19  C   UNL     1     118.505 257.366 341.496  1.00  0.00     0.050 A 
ATOM     20  C   UNL     1     118.147 257.987 340.293  1.00  0.00     0.157 A 
BRANCH  18  21
ATOM     21  O   UNL     1     116.477 258.796 338.754  1.00  0.00    -0.493 OA
ATOM     22  C   UNL     1     115.180 259.273 338.406  1.00  0.00     0.278 C 
ENDBRANCH  18  21
BRANCH  20  23
ATOM     23  O   UNL     1     119.133 258.427 339.411  1.00  0.00    -0.504 OA
ATOM     24  H   UNL     1     119.164 258.109 338.449  1.00  0.00     0.293 HD
ENDBRANCH  20  23
ENDBRANCH  14  15
ENDBRANCH  12  14
ENDBRANCH   9  10
ENDBRANCH   1   9
TORSDOF 10
ENDMDL
MODEL 4
REMARK VINA RESULT:    -4.544      4.210      7.280
REMARK INTER + INTRA:          -7.647
REMARK INTER:                  -7.139
REMARK INTRA:                  -0.508
REMARK UNBOUND:                -0.579
REMARK SMILES COc1cc(CNC(=O)CCCCC=CC(C)C)ccc1O
REMARK SMILES IDX 11 1 12 2 13 3 14 4 15 5 16 6 17 7 18 8 10 9 8 10 9 11 7 12
REMARK SMILES IDX 6 14 5 15 4 16 19 17 3 18 20 19 21 20 2 21 1 22 22 23
REMARK H PARENT 7 13 22 24
REMARK Flexibility Score: inf
ROOT
ATOM      1  C   UNL     1     114.339 256.635 344.141  1.00  0.00     0.010 C 
ENDROOT
BRANCH   1   2
ATOM      2  C   UNL     1     115.253 257.680 343.472  1.00  0.00     0.005 C 
BRANCH   2   3
ATOM      3  C   UNL     1     115.817 257.260 342.104  1.00  0.00     0.027 C 
BRANCH   3   4
ATOM      4  C   UNL     1     117.280 256.898 342.180  1.00  0.00    -0.031 C 
ATOM      5  C   UNL     1     118.300 257.483 341.517  1.00  0.00    -0.028 C 
BRANCH   5   6
ATOM      6  C   UNL     1     118.257 258.701 340.608  1.00  0.00     0.005 C 
ATOM      7  C   UNL     1     117.510 258.426 339.296  1.00  0.00     0.012 C 
ATOM      8  C   UNL     1     119.630 259.353 340.381  1.00  0.00     0.012 C 
ENDBRANCH   5   6
ENDBRANCH   3   4
ENDBRANCH   2   3
ENDBRANCH   1   2
BRANCH   1   9
ATOM      9  C   UNL     1     114.390 256.685 345.672  1.00  0.00     0.100 C 
BRANCH   9  10
ATOM     10  C   UNL     1     114.171 258.086 346.158  1.00  0.00     0.220 C 
ATOM     11  O   UNL     1     113.057 258.643 345.965  1.00  0.00    -0.275 OA
ATOM     12  N   UNL     1     115.240 258.802 346.801  1.00  0.00    -0.352 N 
ATOM     13  H   UNL     1     116.176 258.342 346.904  1.00  0.00     0.163 HD
BRANCH  12  14
ATOM     14  C   UNL     1     115.068 260.150 347.338  1.00  0.00     0.151 C 
BRANCH  14  15
ATOM     15  C   UNL     1     115.936 260.348 348.553  1.00  0.00    -0.025 A 
ATOM     16  C   UNL     1     115.365 260.655 349.798  1.00  0.00     0.056 A 
ATOM     17  C   UNL     1     117.328 260.196 348.452  1.00  0.00     0.009 A 
ATOM     18  C   UNL     1     116.176 260.810 350.940  1.00  0.00     0.160 A 
ATOM     19  C   UNL     1     118.136 260.351 349.580  1.00  0.00     0.050 A 
ATOM     20  C   UNL     1     117.565 260.656 350.822  1.00  0.00     0.157 A 
BRANCH  18  21
ATOM     21  O   UNL     1     115.643 261.117 352.202  1.00  0.00    -0.493 OA
ATOM     22  C   UNL     1     114.323 260.782 352.624  1.00  0.00     0.278 C 
ENDBRANCH  18  21
BRANCH  20  23
ATOM     23  O   UNL     1     118.374 260.810 351.946  1.00  0.00    -0.504 OA
ATOM     24  H   UNL     1     118.146 260.367 352.829  1.00  0.00     0.293 HD
ENDBRANCH  20  23
ENDBRANCH  14  15
ENDBRANCH  12  14
ENDBRANCH   9  10
ENDBRANCH   1   9
TORSDOF 10
ENDMDL
