MODEL 1
REMARK VINA RESULT:    -5.217      0.000      0.000
REMARK INTER + INTRA:          -6.063
REMARK INTER:                  -5.827
REMARK INTRA:                  -0.237
REMARK UNBOUND:                -0.237
REMARK SMILES COc1cc(C)ccc1C(C)C
REMARK SMILES IDX 6 1 5 2 4 3 3 4 9 5 8 6 7 7 2 8 1 9 10 10 11 11 12 12
REMARK H PARENT
REMARK Flexibility Score: inf
ROOT
ATOM      1  C   UNL     1     -10.197  73.372  25.999  1.00  0.00     0.044 C 
ATOM      2  C   UNL     1     -10.325  73.345  27.494  1.00  0.00    -0.047 A 
ATOM      3  C   UNL     1      -9.410  72.622  28.269  1.00  0.00     0.050 A 
ATOM      4  C   UNL     1      -9.497  72.618  29.675  1.00  0.00     0.122 A 
ATOM      5  C   UNL     1     -10.518  73.368  30.311  1.00  0.00    -0.003 A 
ATOM      6  C   UNL     1     -11.417  74.106  29.519  1.00  0.00     0.008 A 
ATOM      7  C   UNL     1     -11.317  74.100  28.128  1.00  0.00     0.004 A 
ENDROOT
BRANCH   4   8
ATOM      8  O   UNL     1      -8.590  71.886  30.459  1.00  0.00    -0.496 OA
ATOM      9  C   UNL     1      -7.797  70.801  29.987  1.00  0.00     0.278 C 
ENDBRANCH   4   8
BRANCH   5  10
ATOM     10  C   UNL     1     -10.677  73.413  31.826  1.00  0.00     0.017 C 
ATOM     11  C   UNL     1     -11.798  72.484  32.311  1.00  0.00     0.012 C 
ATOM     12  C   UNL     1     -10.868  74.846  32.339  1.00  0.00     0.012 C 
ENDBRANCH   5  10
TORSDOF 2
ENDMDL
MODEL 2
REMARK VINA RESULT:    -5.185      2.038      4.651
REMARK INTER + INTRA:          -6.029
REMARK INTER:                  -6.254
REMARK INTRA:                   0.225
REMARK UNBOUND:                -0.237
REMARK SMILES COc1cc(C)ccc1C(C)C
REMARK SMILES IDX 6 1 5 2 4 3 3 4 9 5 8 6 7 7 2 8 1 9 10 10 11 11 12 12
REMARK H PARENT
REMARK Flexibility Score: inf
ROOT
ATOM      1  C   UNL     1     -11.448  73.608  33.020  1.00  0.00     0.044 C 
ATOM      2  C   UNL     1     -10.897  73.765  31.632  1.00  0.00    -0.047 A 
ATOM      3  C   UNL     1     -11.614  73.284  30.530  1.00  0.00     0.050 A 
ATOM      4  C   UNL     1     -11.127  73.457  29.219  1.00  0.00     0.122 A 
ATOM      5  C   UNL     1      -9.900  74.138  29.017  1.00  0.00    -0.003 A 
ATOM      6  C   UNL     1      -9.202  74.632  30.134  1.00  0.00     0.008 A 
ATOM      7  C   UNL     1      -9.698  74.454  31.425  1.00  0.00     0.004 A 
ENDROOT
BRANCH   4   8
ATOM      8  O   UNL     1     -11.835  72.969  28.108  1.00  0.00    -0.496 OA
ATOM      9  C   UNL     1     -13.093  73.464  27.662  1.00  0.00     0.278 C 
ENDBRANCH   4   8
BRANCH   5  10
ATOM     10  C   UNL     1      -9.308  74.363  27.630  1.00  0.00     0.017 C 
ATOM     11  C   UNL     1     -10.212  75.245  26.759  1.00  0.00     0.012 C 
ATOM     12  C   UNL     1      -8.968  73.039  26.932  1.00  0.00     0.012 C 
ENDBRANCH   5  10
TORSDOF 2
ENDMDL
MODEL 3
REMARK VINA RESULT:    -5.112      2.066      2.948
REMARK INTER + INTRA:          -5.947
REMARK INTER:                  -5.806
REMARK INTRA:                  -0.141
REMARK UNBOUND:                -0.237
REMARK SMILES COc1cc(C)ccc1C(C)C
REMARK SMILES IDX 6 1 5 2 4 3 3 4 9 5 8 6 7 7 2 8 1 9 10 10 11 11 12 12
REMARK H PARENT
REMARK Flexibility Score: inf
ROOT
ATOM      1  C   UNL     1     -11.358  73.613  27.229  1.00  0.00     0.044 C 
ATOM      2  C   UNL     1     -11.186  73.443  28.711  1.00  0.00    -0.047 A 
ATOM      3  C   UNL     1     -10.712  74.503  29.493  1.00  0.00     0.050 A 
ATOM      4  C   UNL     1     -10.581  74.369  30.890  1.00  0.00     0.122 A 
ATOM      5  C   UNL     1     -10.946  73.147  31.509  1.00  0.00    -0.003 A 
ATOM      6  C   UNL     1     -11.440  72.099  30.710  1.00  0.00     0.008 A 
ATOM      7  C   UNL     1     -11.565  72.247  29.329  1.00  0.00     0.004 A 
ENDROOT
BRANCH   4   8
ATOM      8  O   UNL     1     -10.096  75.424  31.680  1.00  0.00    -0.496 OA
ATOM      9  C   UNL     1     -10.911  76.333  32.414  1.00  0.00     0.278 C 
ENDBRANCH   4   8
BRANCH   5  10
ATOM     10  C   UNL     1     -10.831  72.926  33.012  1.00  0.00     0.017 C 
ATOM     11  C   UNL     1     -10.300  71.526  33.345  1.00  0.00     0.012 C 
ATOM     12  C   UNL     1     -12.153  73.215  33.735  1.00  0.00     0.012 C 
ENDBRANCH   5  10
TORSDOF 2
ENDMDL
MODEL 4
REMARK VINA RESULT:    -5.058      1.148      3.956
REMARK INTER + INTRA:          -5.886
REMARK INTER:                  -5.651
REMARK INTRA:                  -0.235
REMARK UNBOUND:                -0.237
REMARK SMILES COc1cc(C)ccc1C(C)C
REMARK SMILES IDX 6 1 5 2 4 3 3 4 9 5 8 6 7 7 2 8 1 9 10 10 11 11 12 12
REMARK H PARENT
REMARK Flexibility Score: inf
ROOT
ATOM      1  C   UNL     1     -10.547  72.987  34.024  1.00  0.00     0.044 C 
ATOM      2  C   UNL     1     -10.519  73.169  32.534  1.00  0.00    -0.047 A 
ATOM      3  C   UNL     1      -9.779  72.295  31.729  1.00  0.00     0.050 A 
ATOM      4  C   UNL     1      -9.774  72.432  30.326  1.00  0.00     0.122 A 
ATOM      5  C   UNL     1     -10.539  73.463  29.725  1.00  0.00    -0.003 A 
ATOM      6  C   UNL     1     -11.294  74.320  30.547  1.00  0.00     0.008 A 
ATOM      7  C   UNL     1     -11.289  74.171  31.934  1.00  0.00     0.004 A 
ENDROOT
BRANCH   4   8
ATOM      8  O   UNL     1      -9.025  71.566  29.513  1.00  0.00    -0.496 OA
ATOM      9  C   UNL     1      -7.896  70.814  29.947  1.00  0.00     0.278 C 
ENDBRANCH   4   8
BRANCH   5  10
ATOM     10  C   UNL     1     -10.583  73.675  28.217  1.00  0.00     0.017 C 
ATOM     11  C   UNL     1      -9.792  74.919  27.791  1.00  0.00     0.012 C 
ATOM     12  C   UNL     1     -12.022  73.712  27.686  1.00  0.00     0.012 C 
ENDBRANCH   5  10
TORSDOF 2
ENDMDL
MODEL 5
REMARK VINA RESULT:    -5.035      3.346      6.480
REMARK INTER + INTRA:          -5.860
REMARK INTER:                  -5.636
REMARK INTRA:                  -0.224
REMARK UNBOUND:                -0.237
REMARK SMILES COc1cc(C)ccc1C(C)C
REMARK SMILES IDX 6 1 5 2 4 3 3 4 9 5 8 6 7 7 2 8 1 9 10 10 11 11 12 12
REMARK H PARENT
REMARK Flexibility Score: inf
ROOT
ATOM      1  C   UNL     1      -9.702  73.887  28.341  1.00  0.00     0.044 C 
ATOM      2  C   UNL     1      -9.452  73.825  26.862  1.00  0.00    -0.047 A 
ATOM      3  C   UNL     1      -8.602  72.849  26.330  1.00  0.00     0.050 A 
ATOM      4  C   UNL     1      -8.388  72.757  24.940  1.00  0.00     0.122 A 
ATOM      5  C   UNL     1      -9.052  73.659  24.072  1.00  0.00    -0.003 A 
ATOM      6  C   UNL     1      -9.920  74.621  24.622  1.00  0.00     0.008 A 
ATOM      7  C   UNL     1     -10.122  74.699  25.999  1.00  0.00     0.004 A 
ENDROOT
BRANCH   4   8
ATOM      8  O   UNL     1      -7.528  71.787  24.398  1.00  0.00    -0.496 OA
ATOM      9  C   UNL     1      -6.156  71.630  24.747  1.00  0.00     0.278 C 
ENDBRANCH   4   8
BRANCH   5  10
ATOM     10  C   UNL     1      -8.871  73.623  22.559  1.00  0.00     0.017 C 
ATOM     11  C   UNL     1      -7.547  74.268  22.127  1.00  0.00     0.012 C 
ATOM     12  C   UNL     1     -10.067  74.241  21.824  1.00  0.00     0.012 C 
ENDBRANCH   5  10
TORSDOF 2
ENDMDL
MODEL 6
REMARK VINA RESULT:    -4.831      4.341      7.400
REMARK INTER + INTRA:          -5.633
REMARK INTER:                  -5.394
REMARK INTRA:                  -0.239
REMARK UNBOUND:                -0.237
REMARK SMILES COc1cc(C)ccc1C(C)C
REMARK SMILES IDX 6 1 5 2 4 3 3 4 9 5 8 6 7 7 2 8 1 9 10 10 11 11 12 12
REMARK H PARENT
REMARK Flexibility Score: inf
ROOT
ATOM      1  C   UNL     1     -10.485  74.687  27.022  1.00  0.00     0.044 C 
ATOM      2  C   UNL     1      -9.710  74.075  25.891  1.00  0.00    -0.047 A 
ATOM      3  C   UNL     1      -9.769  74.638  24.610  1.00  0.00     0.050 A 
ATOM      4  C   UNL     1      -9.018  74.096  23.547  1.00  0.00     0.122 A 
ATOM      5  C   UNL     1      -8.185  72.974  23.784  1.00  0.00    -0.003 A 
ATOM      6  C   UNL     1      -8.122  72.434  25.083  1.00  0.00     0.008 A 
ATOM      7  C   UNL     1      -8.870  72.982  26.124  1.00  0.00     0.004 A 
ENDROOT
BRANCH   4   8
ATOM      8  O   UNL     1      -9.080  74.648  22.257  1.00  0.00    -0.496 OA
ATOM      9  C   UNL     1     -10.104  74.378  21.304  1.00  0.00     0.278 C 
ENDBRANCH   4   8
BRANCH   5  10
ATOM     10  C   UNL     1      -7.345  72.332  22.687  1.00  0.00     0.017 C 
ATOM     11  C   UNL     1      -7.207  70.817  22.885  1.00  0.00     0.012 C 
ATOM     12  C   UNL     1      -5.976  73.010  22.544  1.00  0.00     0.012 C 
ENDBRANCH   5  10
TORSDOF 2
ENDMDL
MODEL 7
REMARK VINA RESULT:    -4.759      4.322      7.659
REMARK INTER + INTRA:          -5.552
REMARK INTER:                  -5.297
REMARK INTRA:                  -0.255
REMARK UNBOUND:                -0.237
REMARK SMILES COc1cc(C)ccc1C(C)C
REMARK SMILES IDX 6 1 5 2 4 3 3 4 9 5 8 6 7 7 2 8 1 9 10 10 11 11 12 12
REMARK H PARENT
REMARK Flexibility Score: inf
ROOT
ATOM      1  C   UNL     1      -9.286  73.218  26.994  1.00  0.00     0.044 C 
ATOM      2  C   UNL     1      -9.223  73.390  25.504  1.00  0.00    -0.047 A 
ATOM      3  C   UNL     1      -8.582  72.431  24.710  1.00  0.00     0.050 A 
ATOM      4  C   UNL     1      -8.547  72.562  23.307  1.00  0.00     0.122 A 
ATOM      5  C   UNL     1      -9.180  73.672  22.695  1.00  0.00    -0.003 A 
ATOM      6  C   UNL     1      -9.838  74.615  23.507  1.00  0.00     0.008 A 
ATOM      7  C   UNL     1      -9.864  74.472  24.894  1.00  0.00     0.004 A 
ENDROOT
BRANCH   4   8
ATOM      8  O   UNL     1      -7.897  71.611  22.503  1.00  0.00    -0.496 OA
ATOM      9  C   UNL     1      -6.489  71.544  22.298  1.00  0.00     0.278 C 
ENDBRANCH   4   8
BRANCH   5  10
ATOM     10  C   UNL     1      -9.185  73.882  21.186  1.00  0.00     0.017 C 
ATOM     11  C   UNL     1      -7.903  74.573  20.701  1.00  0.00     0.012 C 
ATOM     12  C   UNL     1     -10.441  74.627  20.716  1.00  0.00     0.012 C 
ENDBRANCH   5  10
TORSDOF 2
ENDMDL
MODEL 8
REMARK VINA RESULT:    -4.750      2.237      3.429
REMARK INTER + INTRA:          -5.542
REMARK INTER:                  -5.310
REMARK INTRA:                  -0.232
REMARK UNBOUND:                -0.237
REMARK SMILES COc1cc(C)ccc1C(C)C
REMARK SMILES IDX 6 1 5 2 4 3 3 4 9 5 8 6 7 7 2 8 1 9 10 10 11 11 12 12
REMARK H PARENT
REMARK Flexibility Score: inf
ROOT
ATOM      1  C   UNL     1      -9.363  74.095  24.722  1.00  0.00     0.044 C 
ATOM      2  C   UNL     1      -9.858  74.071  26.139  1.00  0.00    -0.047 A 
ATOM      3  C   UNL     1     -11.206  73.810  26.412  1.00  0.00     0.050 A 
ATOM      4  C   UNL     1     -11.677  73.748  27.739  1.00  0.00     0.122 A 
ATOM      5  C   UNL     1     -10.768  73.941  28.809  1.00  0.00    -0.003 A 
ATOM      6  C   UNL     1      -9.412  74.182  28.518  1.00  0.00     0.008 A 
ATOM      7  C   UNL     1      -8.962  74.240  27.200  1.00  0.00     0.004 A 
ENDROOT
BRANCH   4   8
ATOM      8  O   UNL     1     -13.030  73.497  28.020  1.00  0.00    -0.496 OA
ATOM      9  C   UNL     1     -14.080  73.518  27.058  1.00  0.00     0.278 C 
ENDBRANCH   4   8
BRANCH   5  10
ATOM     10  C   UNL     1     -11.202  73.890  30.269  1.00  0.00     0.017 C 
ATOM     11  C   UNL     1     -10.409  74.878  31.136  1.00  0.00     0.012 C 
ATOM     12  C   UNL     1     -11.138  72.465  30.835  1.00  0.00     0.012 C 
ENDBRANCH   5  10
TORSDOF 2
ENDMDL
MODEL 9
REMARK VINA RESULT:    -4.697      2.217      5.036
REMARK INTER + INTRA:          -5.483
REMARK INTER:                  -5.254
REMARK INTRA:                  -0.229
REMARK UNBOUND:                -0.237
REMARK SMILES COc1cc(C)ccc1C(C)C
REMARK SMILES IDX 6 1 5 2 4 3 3 4 9 5 8 6 7 7 2 8 1 9 10 10 11 11 12 12
REMARK H PARENT
REMARK Flexibility Score: inf
ROOT
ATOM      1  C   UNL     1     -10.674  72.006  35.028  1.00  0.00     0.044 C 
ATOM      2  C   UNL     1     -10.818  72.519  33.625  1.00  0.00    -0.047 A 
ATOM      3  C   UNL     1     -10.792  73.896  33.371  1.00  0.00     0.050 A 
ATOM      4  C   UNL     1     -10.889  74.390  32.055  1.00  0.00     0.122 A 
ATOM      5  C   UNL     1     -11.003  73.478  30.975  1.00  0.00    -0.003 A 
ATOM      6  C   UNL     1     -11.007  72.097  31.247  1.00  0.00     0.008 A 
ATOM      7  C   UNL     1     -10.909  71.623  32.554  1.00  0.00     0.004 A 
ENDROOT
BRANCH   4   8
ATOM      8  O   UNL     1     -10.875  75.770  31.792  1.00  0.00    -0.496 OA
ATOM      9  C   UNL     1     -10.875  76.788  32.788  1.00  0.00     0.278 C 
ENDBRANCH   4   8
BRANCH   5  10
ATOM     10  C   UNL     1     -11.114  73.936  29.526  1.00  0.00     0.017 C 
ATOM     11  C   UNL     1     -11.992  72.992  28.694  1.00  0.00     0.012 C 
ATOM     12  C   UNL     1      -9.736  74.139  28.884  1.00  0.00     0.012 C 
ENDBRANCH   5  10
TORSDOF 2
ENDMDL
