MODEL 1
REMARK VINA RESULT:    -9.188      0.000      0.000
REMARK INTER + INTRA:         -12.633
REMARK INTER:                 -12.411
REMARK INTRA:                  -0.223
REMARK UNBOUND:                -0.223
REMARK SMILES O=c1c(-c2ccc(O)cc2)coc2c([C@@H]3O[C@H](CO)[C@@H](O)[C@@H](O)[C@H]3O)c(O)ccc12
REMARK SMILES IDX 3 1 11 2 12 3 13 4 30 5 2 6 1 7 29 8 28 9 26 10 14 11 4 12
REMARK SMILES IDX 5 13 6 14 7 15 10 16 9 17 8 18 15 20 24 21 16 22 22 23 17 24
REMARK SMILES IDX 20 25 25 26 23 28 18 30 19 31 21 33 27 35
REMARK H PARENT 8 19 25 27 23 29 19 32 21 34 27 36
REMARK Flexibility Score: inf
ROOT
ATOM      1  C   UNL     1     125.590 134.432 112.544  1.00  0.00     0.065 A 
ATOM      2  C   UNL     1     126.789 134.782 113.176  1.00  0.00     0.208 A 
ATOM      3  O   UNL     1     127.901 134.959 112.476  1.00  0.00    -0.463 OA
ATOM      4  C   UNL     1     127.973 134.823 111.158  1.00  0.00     0.147 A 
ATOM      5  C   UNL     1     126.804 134.465 110.439  1.00  0.00     0.066 A 
ATOM      6  C   UNL     1     125.605 134.263 111.150  1.00  0.00     0.200 A 
ATOM      7  O   UNL     1     124.557 133.912 110.543  1.00  0.00    -0.288 OA
ATOM      8  C   UNL     1     126.861 134.314 109.047  1.00  0.00     0.020 A 
ATOM      9  C   UNL     1     128.054 134.523 108.369  1.00  0.00     0.047 A 
ATOM     10  C   UNL     1     129.216 134.877 109.061  1.00  0.00     0.125 A 
ATOM     11  C   UNL     1     129.207 135.018 110.469  1.00  0.00     0.069 A 
ENDROOT
BRANCH   1  12
ATOM     12  C   UNL     1     124.355 134.251 113.347  1.00  0.00    -0.011 A 
ATOM     13  C   UNL     1     123.259 135.116 113.182  1.00  0.00     0.013 A 
ATOM     14  C   UNL     1     122.100 134.944 113.945  1.00  0.00     0.047 A 
ATOM     15  C   UNL     1     122.026 133.911 114.887  1.00  0.00     0.115 A 
ATOM     16  C   UNL     1     124.274 133.221 114.300  1.00  0.00     0.013 A 
ATOM     17  C   UNL     1     123.115 133.054 115.063  1.00  0.00     0.047 A 
BRANCH  15  18
ATOM     18  O   UNL     1     120.875 133.728 115.651  1.00  0.00    -0.508 OA
ATOM     19  H   UNL     1     119.976 134.086 115.350  1.00  0.00     0.293 HD
ENDBRANCH  15  18
ENDBRANCH   1  12
BRANCH  11  20
ATOM     20  C   UNL     1     130.544 135.401 111.134  1.00  0.00     0.188 C 
ATOM     21  C   UNL     1     130.644 135.585 112.674  1.00  0.00     0.179 C 
ATOM     22  O   UNL     1     131.603 134.577 110.675  1.00  0.00    -0.362 OA
ATOM     23  C   UNL     1     130.822 134.232 113.427  1.00  0.00     0.177 C 
ATOM     24  C   UNL     1     131.604 133.250 111.200  1.00  0.00     0.176 C 
ATOM     25  C   UNL     1     130.743 133.023 112.478  1.00  0.00     0.177 C 
BRANCH  21  26
ATOM     26  O   UNL     1     131.697 136.470 112.980  1.00  0.00    -0.387 OA
ATOM     27  H   UNL     1     132.365 135.978 113.526  1.00  0.00     0.211 HD
ENDBRANCH  21  26
BRANCH  23  28
ATOM     28  O   UNL     1     132.046 134.190 114.125  1.00  0.00    -0.387 OA
ATOM     29  H   UNL     1     132.678 133.667 113.566  1.00  0.00     0.211 HD
ENDBRANCH  23  28
BRANCH  24  30
ATOM     30  C   UNL     1     131.227 132.272 110.077  1.00  0.00     0.191 C 
BRANCH  30  31
ATOM     31  O   UNL     1     132.368 131.614 109.597  1.00  0.00    -0.394 OA
ATOM     32  H   UNL     1     132.751 131.126 110.372  1.00  0.00     0.210 HD
ENDBRANCH  30  31
ENDBRANCH  24  30
BRANCH  25  33
ATOM     33  O   UNL     1     131.184 131.872 113.158  1.00  0.00    -0.388 OA
ATOM     34  H   UNL     1     131.900 132.150 113.785  1.00  0.00     0.211 HD
ENDBRANCH  25  33
ENDBRANCH  11  20
BRANCH  10  35
ATOM     35  O   UNL     1     130.393 135.093 108.343  1.00  0.00    -0.507 OA
ATOM     36  H   UNL     1     131.107 135.734 108.667  1.00  0.00     0.293 HD
ENDBRANCH  10  35
TORSDOF 9
ENDMDL
MODEL 2
REMARK VINA RESULT:    -8.661      3.635      5.821
REMARK INTER + INTRA:         -11.921
REMARK INTER:                 -11.598
REMARK INTRA:                  -0.323
REMARK UNBOUND:                -0.223
REMARK SMILES O=c1c(-c2ccc(O)cc2)coc2c([C@@H]3O[C@H](CO)[C@@H](O)[C@@H](O)[C@H]3O)c(O)ccc12
REMARK SMILES IDX 3 1 11 2 12 3 13 4 30 5 2 6 1 7 29 8 28 9 26 10 14 11 4 12
REMARK SMILES IDX 5 13 6 14 7 15 10 16 9 17 8 18 15 20 24 21 16 22 22 23 17 24
REMARK SMILES IDX 20 25 25 26 23 28 18 30 19 31 21 33 27 35
REMARK H PARENT 8 19 25 27 23 29 19 32 21 34 27 36
REMARK Flexibility Score: inf
ROOT
ATOM      1  C   UNL     1     130.552 134.744 116.522  1.00  0.00     0.065 A 
ATOM      2  C   UNL     1     131.701 134.756 115.724  1.00  0.00     0.208 A 
ATOM      3  O   UNL     1     131.613 134.815 114.402  1.00  0.00    -0.463 OA
ATOM      4  C   UNL     1     130.462 134.866 113.742  1.00  0.00     0.147 A 
ATOM      5  C   UNL     1     129.248 134.854 114.474  1.00  0.00     0.066 A 
ATOM      6  C   UNL     1     129.303 134.785 115.879  1.00  0.00     0.200 A 
ATOM      7  O   UNL     1     128.241 134.739 116.557  1.00  0.00    -0.288 OA
ATOM      8  C   UNL     1     128.023 134.903 113.794  1.00  0.00     0.020 A 
ATOM      9  C   UNL     1     127.995 134.975 112.408  1.00  0.00     0.047 A 
ATOM     10  C   UNL     1     129.182 134.990 111.670  1.00  0.00     0.125 A 
ATOM     11  C   UNL     1     130.440 134.918 112.316  1.00  0.00     0.069 A 
ENDROOT
BRANCH   1  12
ATOM     12  C   UNL     1     130.676 134.689 118.000  1.00  0.00    -0.011 A 
ATOM     13  C   UNL     1     130.308 133.532 118.708  1.00  0.00     0.013 A 
ATOM     14  C   UNL     1     130.422 133.489 120.101  1.00  0.00     0.047 A 
ATOM     15  C   UNL     1     130.897 134.603 120.803  1.00  0.00     0.115 A 
ATOM     16  C   UNL     1     131.145 135.806 118.713  1.00  0.00     0.013 A 
ATOM     17  C   UNL     1     131.255 135.760 120.106  1.00  0.00     0.047 A 
BRANCH  15  18
ATOM     18  O   UNL     1     131.017 134.571 122.190  1.00  0.00    -0.508 OA
ATOM     19  H   UNL     1     131.334 133.740 122.676  1.00  0.00     0.293 HD
ENDBRANCH  15  18
ENDBRANCH   1  12
BRANCH  11  20
ATOM     20  C   UNL     1     131.685 134.930 111.408  1.00  0.00     0.188 C 
ATOM     21  C   UNL     1     133.110 134.769 112.009  1.00  0.00     0.179 C 
ATOM     22  O   UNL     1     131.525 134.059 110.301  1.00  0.00    -0.362 OA
ATOM     23  C   UNL     1     133.487 133.278 112.262  1.00  0.00     0.177 C 
ATOM     24  C   UNL     1     131.635 132.669 110.607  1.00  0.00     0.176 C 
ATOM     25  C   UNL     1     132.316 132.324 111.965  1.00  0.00     0.177 C 
BRANCH  21  26
ATOM     26  O   UNL     1     134.054 135.387 111.164  1.00  0.00    -0.387 OA
ATOM     27  H   UNL     1     133.559 135.902 110.474  1.00  0.00     0.211 HD
ENDBRANCH  21  26
BRANCH  23  28
ATOM     28  O   UNL     1     134.602 132.892 111.492  1.00  0.00    -0.387 OA
ATOM     29  H   UNL     1     134.978 132.078 111.918  1.00  0.00     0.211 HD
ENDBRANCH  23  28
BRANCH  24  30
ATOM     30  C   UNL     1     130.247 132.022 110.485  1.00  0.00     0.191 C 
BRANCH  30  31
ATOM     31  O   UNL     1     129.750 132.174 109.183  1.00  0.00    -0.394 OA
ATOM     32  H   UNL     1     130.475 132.606 108.660  1.00  0.00     0.210 HD
ENDBRANCH  30  31
ENDBRANCH  24  30
BRANCH  25  33
ATOM     33  O   UNL     1     132.794 131.000 111.941  1.00  0.00    -0.388 OA
ATOM     34  H   UNL     1     132.029 130.401 112.143  1.00  0.00     0.211 HD
ENDBRANCH  25  33
ENDBRANCH  11  20
BRANCH  10  35
ATOM     35  O   UNL     1     129.114 135.077 110.278  1.00  0.00    -0.507 OA
ATOM     36  H   UNL     1     129.037 134.253 109.694  1.00  0.00     0.293 HD
ENDBRANCH  10  35
TORSDOF 9
ENDMDL
MODEL 3
REMARK VINA RESULT:    -8.616      5.008      6.851
REMARK INTER + INTRA:         -11.861
REMARK INTER:                 -11.448
REMARK INTRA:                  -0.413
REMARK UNBOUND:                -0.223
REMARK SMILES O=c1c(-c2ccc(O)cc2)coc2c([C@@H]3O[C@H](CO)[C@@H](O)[C@@H](O)[C@H]3O)c(O)ccc12
REMARK SMILES IDX 3 1 11 2 12 3 13 4 30 5 2 6 1 7 29 8 28 9 26 10 14 11 4 12
REMARK SMILES IDX 5 13 6 14 7 15 10 16 9 17 8 18 15 20 24 21 16 22 22 23 17 24
REMARK SMILES IDX 20 25 25 26 23 28 18 30 19 31 21 33 27 35
REMARK H PARENT 8 19 25 27 23 29 19 32 21 34 27 36
REMARK Flexibility Score: inf
ROOT
ATOM      1  C   UNL     1     129.796 135.060 118.785  1.00  0.00     0.065 A 
ATOM      2  C   UNL     1     130.727 135.608 117.895  1.00  0.00     0.208 A 
ATOM      3  O   UNL     1     130.573 135.482 116.584  1.00  0.00    -0.463 OA
ATOM      4  C   UNL     1     129.555 134.844 116.019  1.00  0.00     0.147 A 
ATOM      5  C   UNL     1     128.567 134.255 116.849  1.00  0.00     0.066 A 
ATOM      6  C   UNL     1     128.701 134.363 118.246  1.00  0.00     0.200 A 
ATOM      7  O   UNL     1     127.857 133.822 119.012  1.00  0.00    -0.288 OA
ATOM      8  C   UNL     1     127.486 133.575 116.271  1.00  0.00     0.020 A 
ATOM      9  C   UNL     1     127.374 133.486 114.891  1.00  0.00     0.047 A 
ATOM     10  C   UNL     1     128.337 134.061 114.057  1.00  0.00     0.125 A 
ATOM     11  C   UNL     1     129.456 134.737 114.600  1.00  0.00     0.069 A 
ENDROOT
BRANCH   1  12
ATOM     12  C   UNL     1     129.984 135.224 120.248  1.00  0.00    -0.011 A 
ATOM     13  C   UNL     1     130.250 134.112 121.066  1.00  0.00     0.013 A 
ATOM     14  C   UNL     1     130.420 134.273 122.445  1.00  0.00     0.047 A 
ATOM     15  C   UNL     1     130.318 135.544 123.023  1.00  0.00     0.115 A 
ATOM     16  C   UNL     1     129.875 136.495 120.837  1.00  0.00     0.013 A 
ATOM     17  C   UNL     1     130.043 136.651 122.216  1.00  0.00     0.047 A 
BRANCH  15  18
ATOM     18  O   UNL     1     130.488 135.716 124.395  1.00  0.00    -0.508 OA
ATOM     19  H   UNL     1     129.696 135.842 125.015  1.00  0.00     0.293 HD
ENDBRANCH  15  18
ENDBRANCH   1  12
BRANCH  11  20
ATOM     20  C   UNL     1     130.464 135.326 113.593  1.00  0.00     0.188 C 
ATOM     21  C   UNL     1     131.715 136.107 114.083  1.00  0.00     0.179 C 
ATOM     22  O   UNL     1     130.842 134.366 112.620  1.00  0.00    -0.362 OA
ATOM     23  C   UNL     1     132.889 135.163 114.486  1.00  0.00     0.177 C 
ATOM     24  C   UNL     1     131.740 133.358 113.086  1.00  0.00     0.176 C 
ATOM     25  C   UNL     1     132.492 133.678 114.412  1.00  0.00     0.177 C 
BRANCH  21  26
ATOM     26  O   UNL     1     132.125 137.019 113.090  1.00  0.00    -0.387 OA
ATOM     27  H   UNL     1     131.355 137.183 112.485  1.00  0.00     0.211 HD
ENDBRANCH  21  26
BRANCH  23  28
ATOM     28  O   UNL     1     134.022 135.378 113.676  1.00  0.00    -0.387 OA
ATOM     29  H   UNL     1     134.716 134.735 113.975  1.00  0.00     0.211 HD
ENDBRANCH  23  28
BRANCH  24  30
ATOM     30  C   UNL     1     130.987 132.022 113.166  1.00  0.00     0.191 C 
BRANCH  30  31
ATOM     31  O   UNL     1     131.875 130.950 113.000  1.00  0.00    -0.394 OA
ATOM     32  H   UNL     1     131.446 130.167 113.433  1.00  0.00     0.210 HD
ENDBRANCH  30  31
ENDBRANCH  24  30
BRANCH  25  33
ATOM     33  O   UNL     1     133.651 132.885 114.511  1.00  0.00    -0.388 OA
ATOM     34  H   UNL     1     133.412 132.067 115.019  1.00  0.00     0.211 HD
ENDBRANCH  25  33
ENDBRANCH  11  20
BRANCH  10  35
ATOM     35  O   UNL     1     128.183 133.963 112.673  1.00  0.00    -0.507 OA
ATOM     36  H   UNL     1     128.446 134.717 112.051  1.00  0.00     0.293 HD
ENDBRANCH  10  35
TORSDOF 9
ENDMDL
MODEL 4
REMARK VINA RESULT:    -8.502      2.858      3.523
REMARK INTER + INTRA:         -11.707
REMARK INTER:                 -11.326
REMARK INTRA:                  -0.381
REMARK UNBOUND:                -0.223
REMARK SMILES O=c1c(-c2ccc(O)cc2)coc2c([C@@H]3O[C@H](CO)[C@@H](O)[C@@H](O)[C@H]3O)c(O)ccc12
REMARK SMILES IDX 3 1 11 2 12 3 13 4 30 5 2 6 1 7 29 8 28 9 26 10 14 11 4 12
REMARK SMILES IDX 5 13 6 14 7 15 10 16 9 17 8 18 15 20 24 21 16 22 22 23 17 24
REMARK SMILES IDX 20 25 25 26 23 28 18 30 19 31 21 33 27 35
REMARK H PARENT 8 19 25 27 23 29 19 32 21 34 27 36
REMARK Flexibility Score: inf
ROOT
ATOM      1  C   UNL     1     128.248 133.565 115.347  1.00  0.00     0.065 A 
ATOM      2  C   UNL     1     129.629 133.754 115.477  1.00  0.00     0.208 A 
ATOM      3  O   UNL     1     130.352 134.217 114.467  1.00  0.00    -0.463 OA
ATOM      4  C   UNL     1     129.845 134.532 113.281  1.00  0.00     0.147 A 
ATOM      5  C   UNL     1     128.454 134.367 113.062  1.00  0.00     0.066 A 
ATOM      6  C   UNL     1     127.656 133.871 114.110  1.00  0.00     0.200 A 
ATOM      7  O   UNL     1     126.421 133.682 113.936  1.00  0.00    -0.288 OA
ATOM      8  C   UNL     1     127.901 134.691 111.815  1.00  0.00     0.020 A 
ATOM      9  C   UNL     1     128.709 135.182 110.799  1.00  0.00     0.047 A 
ATOM     10  C   UNL     1     130.082 135.353 110.997  1.00  0.00     0.125 A 
ATOM     11  C   UNL     1     130.684 135.016 112.233  1.00  0.00     0.069 A 
ENDROOT
BRANCH   1  12
ATOM     12  C   UNL     1     127.458 133.056 116.495  1.00  0.00    -0.011 A 
ATOM     13  C   UNL     1     127.271 133.847 117.643  1.00  0.00     0.013 A 
ATOM     14  C   UNL     1     126.530 133.359 118.725  1.00  0.00     0.047 A 
ATOM     15  C   UNL     1     125.975 132.075 118.675  1.00  0.00     0.115 A 
ATOM     16  C   UNL     1     126.905 131.765 116.457  1.00  0.00     0.013 A 
ATOM     17  C   UNL     1     126.167 131.280 117.541  1.00  0.00     0.047 A 
BRANCH  15  18
ATOM     18  O   UNL     1     125.233 131.579 119.745  1.00  0.00    -0.508 OA
ATOM     19  H   UNL     1     125.680 131.128 120.535  1.00  0.00     0.293 HD
ENDBRANCH  15  18
ENDBRANCH   1  12
BRANCH  11  20
ATOM     20  C   UNL     1     132.206 135.232 112.342  1.00  0.00     0.188 C 
ATOM     21  C   UNL     1     132.959 134.939 113.670  1.00  0.00     0.179 C 
ATOM     22  O   UNL     1     132.892 134.634 111.255  1.00  0.00    -0.362 OA
ATOM     23  C   UNL     1     133.307 133.429 113.839  1.00  0.00     0.177 C 
ATOM     24  C   UNL     1     132.987 133.211 111.312  1.00  0.00     0.176 C 
ATOM     25  C   UNL     1     132.723 132.567 112.706  1.00  0.00     0.177 C 
BRANCH  21  26
ATOM     26  O   UNL     1     134.123 135.732 113.742  1.00  0.00    -0.387 OA
ATOM     27  H   UNL     1     133.957 136.463 114.393  1.00  0.00     0.211 HD
ENDBRANCH  21  26
BRANCH  23  28
ATOM     28  O   UNL     1     134.700 133.227 113.900  1.00  0.00    -0.387 OA
ATOM     29  H   UNL     1     135.117 133.916 113.320  1.00  0.00     0.211 HD
ENDBRANCH  23  28
BRANCH  24  30
ATOM     30  C   UNL     1     132.082 132.609 110.226  1.00  0.00     0.191 C 
BRANCH  30  31
ATOM     31  O   UNL     1     132.726 131.537 109.592  1.00  0.00    -0.394 OA
ATOM     32  H   UNL     1     132.608 130.753 110.189  1.00  0.00     0.210 HD
ENDBRANCH  30  31
ENDBRANCH  24  30
BRANCH  25  33
ATOM     33  O   UNL     1     133.296 131.283 112.760  1.00  0.00    -0.388 OA
ATOM     34  H   UNL     1     133.406 130.964 111.827  1.00  0.00     0.211 HD
ENDBRANCH  25  33
ENDBRANCH  11  20
BRANCH  10  35
ATOM     35  O   UNL     1     130.860 135.862 109.956  1.00  0.00    -0.507 OA
ATOM     36  H   UNL     1     131.043 135.329 109.115  1.00  0.00     0.293 HD
ENDBRANCH  10  35
TORSDOF 9
ENDMDL
MODEL 5
REMARK VINA RESULT:    -8.452      2.495      3.231
REMARK INTER + INTRA:         -11.640
REMARK INTER:                 -11.546
REMARK INTRA:                  -0.094
REMARK UNBOUND:                -0.223
REMARK SMILES O=c1c(-c2ccc(O)cc2)coc2c([C@@H]3O[C@H](CO)[C@@H](O)[C@@H](O)[C@H]3O)c(O)ccc12
REMARK SMILES IDX 3 1 11 2 12 3 13 4 30 5 2 6 1 7 29 8 28 9 26 10 14 11 4 12
REMARK SMILES IDX 5 13 6 14 7 15 10 16 9 17 8 18 15 20 24 21 16 22 22 23 17 24
REMARK SMILES IDX 20 25 25 26 23 28 18 30 19 31 21 33 27 35
REMARK H PARENT 8 19 25 27 23 29 19 32 21 34 27 36
REMARK Flexibility Score: inf
ROOT
ATOM      1  C   UNL     1     127.206 133.924 114.424  1.00  0.00     0.065 A 
ATOM      2  C   UNL     1     128.554 134.029 114.062  1.00  0.00     0.208 A 
ATOM      3  O   UNL     1     128.904 134.385 112.834  1.00  0.00    -0.463 OA
ATOM      4  C   UNL     1     128.034 134.664 111.871  1.00  0.00     0.147 A 
ATOM      5  C   UNL     1     126.647 134.579 112.151  1.00  0.00     0.066 A 
ATOM      6  C   UNL     1     126.238 134.197 113.443  1.00  0.00     0.200 A 
ATOM      7  O   UNL     1     125.012 134.079 113.715  1.00  0.00    -0.288 OA
ATOM      8  C   UNL     1     125.713 134.866 111.146  1.00  0.00     0.020 A 
ATOM      9  C   UNL     1     126.141 135.245 109.881  1.00  0.00     0.047 A 
ATOM     10  C   UNL     1     127.505 135.336 109.587  1.00  0.00     0.125 A 
ATOM     11  C   UNL     1     128.481 135.032 110.567  1.00  0.00     0.069 A 
ENDROOT
BRANCH   1  12
ATOM     12  C   UNL     1     126.839 133.535 115.808  1.00  0.00    -0.011 A 
ATOM     13  C   UNL     1     127.586 133.997 116.906  1.00  0.00     0.013 A 
ATOM     14  C   UNL     1     127.238 133.622 118.207  1.00  0.00     0.047 A 
ATOM     15  C   UNL     1     126.145 132.774 118.426  1.00  0.00     0.115 A 
ATOM     16  C   UNL     1     125.748 132.678 116.037  1.00  0.00     0.013 A 
ATOM     17  C   UNL     1     125.405 132.303 117.339  1.00  0.00     0.047 A 
BRANCH  15  18
ATOM     18  O   UNL     1     125.788 132.396 119.718  1.00  0.00    -0.508 OA
ATOM     19  H   UNL     1     125.152 131.625 119.888  1.00  0.00     0.293 HD
ENDBRANCH  15  18
ENDBRANCH   1  12
BRANCH  11  20
ATOM     20  C   UNL     1     129.955 135.154 110.134  1.00  0.00     0.188 C 
ATOM     21  C   UNL     1     131.105 134.953 111.161  1.00  0.00     0.179 C 
ATOM     22  O   UNL     1     130.214 134.398 108.963  1.00  0.00    -0.362 OA
ATOM     23  C   UNL     1     131.447 133.450 111.389  1.00  0.00     0.177 C 
ATOM     24  C   UNL     1     130.282 132.986 109.160  1.00  0.00     0.176 C 
ATOM     25  C   UNL     1     130.488 132.514 110.631  1.00  0.00     0.177 C 
BRANCH  21  26
ATOM     26  O   UNL     1     132.246 135.668 110.742  1.00  0.00    -0.387 OA
ATOM     27  H   UNL     1     132.922 135.012 110.427  1.00  0.00     0.211 HD
ENDBRANCH  21  26
BRANCH  23  28
ATOM     28  O   UNL     1     132.772 133.160 111.006  1.00  0.00    -0.387 OA
ATOM     29  H   UNL     1     132.983 132.258 111.362  1.00  0.00     0.211 HD
ENDBRANCH  23  28
BRANCH  24  30
ATOM     30  C   UNL     1     129.046 132.335 108.521  1.00  0.00     0.191 C 
BRANCH  30  31
ATOM     31  O   UNL     1     128.707 132.995 107.332  1.00  0.00    -0.394 OA
ATOM     32  H   UNL     1     127.974 132.466 106.922  1.00  0.00     0.210 HD
ENDBRANCH  30  31
ENDBRANCH  24  30
BRANCH  25  33
ATOM     33  O   UNL     1     131.009 131.206 110.648  1.00  0.00    -0.388 OA
ATOM     34  H   UNL     1     131.860 131.215 110.138  1.00  0.00     0.211 HD
ENDBRANCH  25  33
ENDBRANCH  11  20
BRANCH  10  35
ATOM     35  O   UNL     1     127.897 135.733 108.308  1.00  0.00    -0.507 OA
ATOM     36  H   UNL     1     128.151 135.062 107.593  1.00  0.00     0.293 HD
ENDBRANCH  10  35
TORSDOF 9
ENDMDL
MODEL 6
REMARK VINA RESULT:    -8.428      4.080      9.013
REMARK INTER + INTRA:         -11.607
REMARK INTER:                 -12.922
REMARK INTRA:                   1.315
REMARK UNBOUND:                -0.223
REMARK SMILES O=c1c(-c2ccc(O)cc2)coc2c([C@@H]3O[C@H](CO)[C@@H](O)[C@@H](O)[C@H]3O)c(O)ccc12
REMARK SMILES IDX 3 1 11 2 12 3 13 4 30 5 2 6 1 7 29 8 28 9 26 10 14 11 4 12
REMARK SMILES IDX 5 13 6 14 7 15 10 16 9 17 8 18 15 20 24 21 16 22 22 23 17 24
REMARK SMILES IDX 20 25 25 26 23 28 18 30 19 31 21 33 27 35
REMARK H PARENT 8 19 25 27 23 29 19 32 21 34 27 36
REMARK Flexibility Score: inf
ROOT
ATOM      1  C   UNL     1     134.938 134.542 113.597  1.00  0.00     0.065 A 
ATOM      2  C   UNL     1     134.002 135.427 114.147  1.00  0.00     0.208 A 
ATOM      3  O   UNL     1     132.727 135.381 113.786  1.00  0.00    -0.463 OA
ATOM      4  C   UNL     1     132.242 134.520 112.899  1.00  0.00     0.147 A 
ATOM      5  C   UNL     1     133.123 133.591 112.290  1.00  0.00     0.066 A 
ATOM      6  C   UNL     1     134.486 133.614 112.644  1.00  0.00     0.200 A 
ATOM      7  O   UNL     1     135.300 132.823 112.096  1.00  0.00    -0.288 OA
ATOM      8  C   UNL     1     132.630 132.676 111.349  1.00  0.00     0.020 A 
ATOM      9  C   UNL     1     131.281 132.670 111.020  1.00  0.00     0.047 A 
ATOM     10  C   UNL     1     130.398 133.577 111.612  1.00  0.00     0.125 A 
ATOM     11  C   UNL     1     130.859 134.533 112.549  1.00  0.00     0.069 A 
ENDROOT
BRANCH   1  12
ATOM     12  C   UNL     1     136.357 134.605 114.025  1.00  0.00    -0.011 A 
ATOM     13  C   UNL     1     137.393 134.622 113.074  1.00  0.00     0.013 A 
ATOM     14  C   UNL     1     138.729 134.676 113.484  1.00  0.00     0.047 A 
ATOM     15  C   UNL     1     139.045 134.704 114.848  1.00  0.00     0.115 A 
ATOM     16  C   UNL     1     136.684 134.626 115.392  1.00  0.00     0.013 A 
ATOM     17  C   UNL     1     138.021 134.676 115.797  1.00  0.00     0.047 A 
BRANCH  15  18
ATOM     18  O   UNL     1     140.373 134.759 115.268  1.00  0.00    -0.508 OA
ATOM     19  H   UNL     1     141.109 135.087 114.654  1.00  0.00     0.293 HD
ENDBRANCH  15  18
ENDBRANCH   1  12
BRANCH  11  20
ATOM     20  C   UNL     1     129.804 135.493 113.133  1.00  0.00     0.188 C 
ATOM     21  C   UNL     1     128.286 135.222 112.937  1.00  0.00     0.179 C 
ATOM     22  O   UNL     1     130.071 135.788 114.494  1.00  0.00    -0.362 OA
ATOM     23  C   UNL     1     127.722 134.203 113.972  1.00  0.00     0.177 C 
ATOM     24  C   UNL     1     129.768 134.735 115.409  1.00  0.00     0.176 C 
ATOM     25  C   UNL     1     128.824 133.618 114.872  1.00  0.00     0.177 C 
BRANCH  21  26
ATOM     26  O   UNL     1     127.575 136.439 112.993  1.00  0.00    -0.387 OA
ATOM     27  H   UNL     1     128.197 137.144 113.313  1.00  0.00     0.211 HD
ENDBRANCH  21  26
BRANCH  23  28
ATOM     28  O   UNL     1     126.729 134.790 114.782  1.00  0.00    -0.387 OA
ATOM     29  H   UNL     1     127.023 135.720 114.969  1.00  0.00     0.211 HD
ENDBRANCH  23  28
BRANCH  24  30
ATOM     30  C   UNL     1     131.083 134.157 115.953  1.00  0.00     0.191 C 
BRANCH  30  31
ATOM     31  O   UNL     1     131.772 135.125 116.697  1.00  0.00    -0.394 OA
ATOM     32  H   UNL     1     132.367 134.625 117.315  1.00  0.00     0.210 HD
ENDBRANCH  30  31
ENDBRANCH  24  30
BRANCH  25  33
ATOM     33  O   UNL     1     128.227 132.934 115.948  1.00  0.00    -0.388 OA
ATOM     34  H   UNL     1     127.872 133.615 116.577  1.00  0.00     0.211 HD
ENDBRANCH  25  33
ENDBRANCH  11  20
BRANCH  10  35
ATOM     35  O   UNL     1     129.046 133.532 111.266  1.00  0.00    -0.507 OA
ATOM     36  H   UNL     1     128.325 133.888 111.881  1.00  0.00     0.293 HD
ENDBRANCH  10  35
TORSDOF 9
ENDMDL
MODEL 7
REMARK VINA RESULT:    -8.204      2.998      3.960
REMARK INTER + INTRA:         -11.305
REMARK INTER:                 -10.792
REMARK INTRA:                  -0.512
REMARK UNBOUND:                -0.223
REMARK SMILES O=c1c(-c2ccc(O)cc2)coc2c([C@@H]3O[C@H](CO)[C@@H](O)[C@@H](O)[C@H]3O)c(O)ccc12
REMARK SMILES IDX 3 1 11 2 12 3 13 4 30 5 2 6 1 7 29 8 28 9 26 10 14 11 4 12
REMARK SMILES IDX 5 13 6 14 7 15 10 16 9 17 8 18 15 20 24 21 16 22 22 23 17 24
REMARK SMILES IDX 20 25 25 26 23 28 18 30 19 31 21 33 27 35
REMARK H PARENT 8 19 25 27 23 29 19 32 21 34 27 36
REMARK Flexibility Score: inf
ROOT
ATOM      1  C   UNL     1     126.425 132.818 116.304  1.00  0.00     0.065 A 
ATOM      2  C   UNL     1     127.753 133.258 116.262  1.00  0.00     0.208 A 
ATOM      3  O   UNL     1     128.211 133.945 115.225  1.00  0.00    -0.463 OA
ATOM      4  C   UNL     1     127.474 134.263 114.168  1.00  0.00     0.147 A 
ATOM      5  C   UNL     1     126.118 133.852 114.126  1.00  0.00     0.066 A 
ATOM      6  C   UNL     1     125.598 133.115 115.208  1.00  0.00     0.200 A 
ATOM      7  O   UNL     1     124.405 132.707 115.186  1.00  0.00    -0.288 OA
ATOM      8  C   UNL     1     125.324 134.176 113.017  1.00  0.00     0.020 A 
ATOM      9  C   UNL     1     125.859 134.907 111.965  1.00  0.00     0.047 A 
ATOM     10  C   UNL     1     127.193 135.322 111.989  1.00  0.00     0.125 A 
ATOM     11  C   UNL     1     128.035 134.996 113.080  1.00  0.00     0.069 A 
ENDROOT
BRANCH   1  12
ATOM     12  C   UNL     1     125.931 132.061 117.481  1.00  0.00    -0.011 A 
ATOM     13  C   UNL     1     125.737 130.671 117.410  1.00  0.00     0.013 A 
ATOM     14  C   UNL     1     125.266 129.964 118.522  1.00  0.00     0.047 A 
ATOM     15  C   UNL     1     124.976 130.640 119.713  1.00  0.00     0.115 A 
ATOM     16  C   UNL     1     125.630 132.732 118.679  1.00  0.00     0.013 A 
ATOM     17  C   UNL     1     125.157 132.023 119.787  1.00  0.00     0.047 A 
BRANCH  15  18
ATOM     18  O   UNL     1     124.509 129.946 120.827  1.00  0.00    -0.508 OA
ATOM     19  H   UNL     1     124.691 128.957 120.950  1.00  0.00     0.293 HD
ENDBRANCH  15  18
ENDBRANCH   1  12
BRANCH  11  20
ATOM     20  C   UNL     1     129.492 135.494 113.001  1.00  0.00     0.188 C 
ATOM     21  C   UNL     1     130.482 135.244 114.173  1.00  0.00     0.179 C 
ATOM     22  O   UNL     1     130.096 135.130 111.771  1.00  0.00    -0.362 OA
ATOM     23  C   UNL     1     131.117 133.821 114.126  1.00  0.00     0.177 C 
ATOM     24  C   UNL     1     130.452 133.753 111.659  1.00  0.00     0.176 C 
ATOM     25  C   UNL     1     130.528 132.958 112.996  1.00  0.00     0.177 C 
BRANCH  21  26
ATOM     26  O   UNL     1     131.481 136.239 114.170  1.00  0.00    -0.387 OA
ATOM     27  H   UNL     1     132.236 135.915 113.613  1.00  0.00     0.211 HD
ENDBRANCH  21  26
BRANCH  23  28
ATOM     28  O   UNL     1     132.516 133.888 113.972  1.00  0.00    -0.387 OA
ATOM     29  H   UNL     1     132.893 134.111 114.863  1.00  0.00     0.211 HD
ENDBRANCH  23  28
BRANCH  24  30
ATOM     30  C   UNL     1     129.512 133.078 110.648  1.00  0.00     0.191 C 
BRANCH  30  31
ATOM     31  O   UNL     1     130.118 131.937 110.103  1.00  0.00    -0.394 OA
ATOM     32  H   UNL     1     129.867 131.182 110.695  1.00  0.00     0.210 HD
ENDBRANCH  30  31
ENDBRANCH  24  30
BRANCH  25  33
ATOM     33  O   UNL     1     131.323 131.809 112.830  1.00  0.00    -0.388 OA
ATOM     34  H   UNL     1     130.723 131.020 112.864  1.00  0.00     0.211 HD
ENDBRANCH  25  33
ENDBRANCH  11  20
BRANCH  10  35
ATOM     35  O   UNL     1     127.691 136.067 110.919  1.00  0.00    -0.507 OA
ATOM     36  H   UNL     1     128.640 136.421 110.910  1.00  0.00     0.293 HD
ENDBRANCH  10  35
TORSDOF 9
ENDMDL
MODEL 8
REMARK VINA RESULT:    -8.179      2.694      6.418
REMARK INTER + INTRA:         -11.271
REMARK INTER:                 -11.426
REMARK INTRA:                   0.156
REMARK UNBOUND:                -0.223
REMARK SMILES O=c1c(-c2ccc(O)cc2)coc2c([C@@H]3O[C@H](CO)[C@@H](O)[C@@H](O)[C@H]3O)c(O)ccc12
REMARK SMILES IDX 3 1 11 2 12 3 13 4 30 5 2 6 1 7 29 8 28 9 26 10 14 11 4 12
REMARK SMILES IDX 5 13 6 14 7 15 10 16 9 17 8 18 15 20 24 21 16 22 22 23 17 24
REMARK SMILES IDX 20 25 25 26 23 28 18 30 19 31 21 33 27 35
REMARK H PARENT 8 19 25 27 23 29 19 32 21 34 27 36
REMARK Flexibility Score: inf
ROOT
ATOM      1  C   UNL     1     129.929 134.171 113.527  1.00  0.00     0.065 A 
ATOM      2  C   UNL     1     128.556 134.385 113.357  1.00  0.00     0.208 A 
ATOM      3  O   UNL     1     127.986 134.243 112.168  1.00  0.00    -0.463 OA
ATOM      4  C   UNL     1     128.647 133.898 111.070  1.00  0.00     0.147 A 
ATOM      5  C   UNL     1     130.044 133.666 111.152  1.00  0.00     0.066 A 
ATOM      6  C   UNL     1     130.684 133.813 112.397  1.00  0.00     0.200 A 
ATOM      7  O   UNL     1     131.931 133.646 112.496  1.00  0.00    -0.288 OA
ATOM      8  C   UNL     1     130.759 133.304 110.002  1.00  0.00     0.020 A 
ATOM      9  C   UNL     1     130.104 133.161 108.787  1.00  0.00     0.047 A 
ATOM     10  C   UNL     1     128.728 133.384 108.687  1.00  0.00     0.125 A 
ATOM     11  C   UNL     1     127.972 133.773 109.819  1.00  0.00     0.069 A 
ENDROOT
BRANCH   1  12
ATOM     12  C   UNL     1     130.543 134.324 114.869  1.00  0.00    -0.011 A 
ATOM     13  C   UNL     1     131.925 134.539 115.005  1.00  0.00     0.013 A 
ATOM     14  C   UNL     1     132.499 134.677 116.274  1.00  0.00     0.047 A 
ATOM     15  C   UNL     1     131.698 134.593 117.419  1.00  0.00     0.115 A 
ATOM     16  C   UNL     1     129.748 134.234 116.025  1.00  0.00     0.013 A 
ATOM     17  C   UNL     1     130.325 134.369 117.291  1.00  0.00     0.047 A 
BRANCH  15  18
ATOM     18  O   UNL     1     132.258 134.731 118.688  1.00  0.00    -0.508 OA
ATOM     19  H   UNL     1     131.891 135.396 119.359  1.00  0.00     0.293 HD
ENDBRANCH  15  18
ENDBRANCH   1  12
BRANCH  11  20
ATOM     20  C   UNL     1     126.464 134.004 109.597  1.00  0.00     0.188 C 
ATOM     21  C   UNL     1     125.535 134.391 110.782  1.00  0.00     0.179 C 
ATOM     22  O   UNL     1     126.230 134.867 108.497  1.00  0.00    -0.362 OA
ATOM     23  C   UNL     1     125.575 135.917 111.099  1.00  0.00     0.177 C 
ATOM     24  C   UNL     1     126.509 136.245 108.742  1.00  0.00     0.176 C 
ATOM     25  C   UNL     1     126.611 136.662 110.239  1.00  0.00     0.177 C 
BRANCH  21  26
ATOM     26  O   UNL     1     124.217 133.971 110.509  1.00  0.00    -0.387 OA
ATOM     27  H   UNL     1     124.164 133.728 109.548  1.00  0.00     0.211 HD
ENDBRANCH  21  26
BRANCH  23  28
ATOM     28  O   UNL     1     124.311 136.512 110.917  1.00  0.00    -0.387 OA
ATOM     29  H   UNL     1     124.472 137.468 110.701  1.00  0.00     0.211 HD
ENDBRANCH  23  28
BRANCH  24  30
ATOM     30  C   UNL     1     127.765 136.645 107.952  1.00  0.00     0.191 C 
BRANCH  30  31
ATOM     31  O   UNL     1     128.011 138.019 108.088  1.00  0.00    -0.394 OA
ATOM     32  H   UNL     1     127.276 138.479 107.606  1.00  0.00     0.210 HD
ENDBRANCH  30  31
ENDBRANCH  24  30
BRANCH  25  33
ATOM     33  O   UNL     1     126.406 138.049 110.367  1.00  0.00    -0.388 OA
ATOM     34  H   UNL     1     126.874 138.347 111.190  1.00  0.00     0.211 HD
ENDBRANCH  25  33
ENDBRANCH  11  20
BRANCH  10  35
ATOM     35  O   UNL     1     128.101 133.216 107.451  1.00  0.00    -0.507 OA
ATOM     36  H   UNL     1     127.502 133.930 107.055  1.00  0.00     0.293 HD
ENDBRANCH  10  35
TORSDOF 9
ENDMDL
MODEL 9
REMARK VINA RESULT:    -8.056      5.738     10.370
REMARK INTER + INTRA:         -11.105
REMARK INTER:                 -10.383
REMARK INTRA:                  -0.722
REMARK UNBOUND:                -0.223
REMARK SMILES O=c1c(-c2ccc(O)cc2)coc2c([C@@H]3O[C@H](CO)[C@@H](O)[C@@H](O)[C@H]3O)c(O)ccc12
REMARK SMILES IDX 3 1 11 2 12 3 13 4 30 5 2 6 1 7 29 8 28 9 26 10 14 11 4 12
REMARK SMILES IDX 5 13 6 14 7 15 10 16 9 17 8 18 15 20 24 21 16 22 22 23 17 24
REMARK SMILES IDX 20 25 25 26 23 28 18 30 19 31 21 33 27 35
REMARK H PARENT 8 19 25 27 23 29 19 32 21 34 27 36
REMARK Flexibility Score: inf
ROOT
ATOM      1  C   UNL     1     126.291 131.961 117.024  1.00  0.00     0.065 A 
ATOM      2  C   UNL     1     126.541 130.678 117.523  1.00  0.00     0.208 A 
ATOM      3  O   UNL     1     125.547 129.833 117.761  1.00  0.00    -0.463 OA
ATOM      4  C   UNL     1     124.268 130.122 117.553  1.00  0.00     0.147 A 
ATOM      5  C   UNL     1     123.925 131.404 117.052  1.00  0.00     0.066 A 
ATOM      6  C   UNL     1     124.955 132.329 116.794  1.00  0.00     0.200 A 
ATOM      7  O   UNL     1     124.680 133.488 116.380  1.00  0.00    -0.288 OA
ATOM      8  C   UNL     1     122.580 131.729 116.830  1.00  0.00     0.020 A 
ATOM      9  C   UNL     1     121.584 130.797 117.088  1.00  0.00     0.047 A 
ATOM     10  C   UNL     1     121.903 129.529 117.581  1.00  0.00     0.125 A 
ATOM     11  C   UNL     1     123.247 129.168 117.841  1.00  0.00     0.069 A 
ENDROOT
BRANCH   1  12
ATOM     12  C   UNL     1     127.421 132.885 116.755  1.00  0.00    -0.011 A 
ATOM     13  C   UNL     1     127.998 132.957 115.475  1.00  0.00     0.013 A 
ATOM     14  C   UNL     1     129.067 133.826 115.229  1.00  0.00     0.047 A 
ATOM     15  C   UNL     1     129.575 134.625 116.260  1.00  0.00     0.115 A 
ATOM     16  C   UNL     1     127.942 133.685 117.786  1.00  0.00     0.013 A 
ATOM     17  C   UNL     1     129.012 134.550 117.537  1.00  0.00     0.047 A 
BRANCH  15  18
ATOM     18  O   UNL     1     130.637 135.495 116.027  1.00  0.00    -0.508 OA
ATOM     19  H   UNL     1     131.473 135.477 116.599  1.00  0.00     0.293 HD
ENDBRANCH  15  18
ENDBRANCH   1  12
BRANCH  11  20
ATOM     20  C   UNL     1     123.487 127.749 118.393  1.00  0.00     0.188 C 
ATOM     21  C   UNL     1     124.928 127.238 118.674  1.00  0.00     0.179 C 
ATOM     22  O   UNL     1     122.653 127.480 119.508  1.00  0.00    -0.362 OA
ATOM     23  C   UNL     1     125.472 127.712 120.056  1.00  0.00     0.177 C 
ATOM     24  C   UNL     1     123.038 128.128 120.720  1.00  0.00     0.176 C 
ATOM     25  C   UNL     1     124.499 128.669 120.766  1.00  0.00     0.177 C 
BRANCH  21  26
ATOM     26  O   UNL     1     124.960 125.832 118.579  1.00  0.00    -0.387 OA
ATOM     27  H   UNL     1     125.635 125.584 117.894  1.00  0.00     0.211 HD
ENDBRANCH  21  26
BRANCH  23  28
ATOM     28  O   UNL     1     125.744 126.619 120.903  1.00  0.00    -0.387 OA
ATOM     29  H   UNL     1     125.251 126.780 121.749  1.00  0.00     0.211 HD
ENDBRANCH  23  28
BRANCH  24  30
ATOM     30  C   UNL     1     122.014 129.226 121.043  1.00  0.00     0.191 C 
BRANCH  30  31
ATOM     31  O   UNL     1     122.638 130.481 121.085  1.00  0.00    -0.394 OA
ATOM     32  H   UNL     1     121.946 131.124 121.388  1.00  0.00     0.210 HD
ENDBRANCH  30  31
ENDBRANCH  24  30
BRANCH  25  33
ATOM     33  O   UNL     1     124.908 128.835 122.103  1.00  0.00    -0.388 OA
ATOM     34  H   UNL     1     124.096 128.794 122.673  1.00  0.00     0.211 HD
ENDBRANCH  25  33
ENDBRANCH  11  20
BRANCH  10  35
ATOM     35  O   UNL     1     120.875 128.614 117.816  1.00  0.00    -0.507 OA
ATOM     36  H   UNL     1     120.583 128.367 118.753  1.00  0.00     0.293 HD
ENDBRANCH  10  35
TORSDOF 9
ENDMDL
