MODEL 1
REMARK VINA RESULT:    -6.611      0.000      0.000
REMARK INTER + INTRA:          -9.119
REMARK INTER:                  -8.350
REMARK INTRA:                  -0.769
REMARK UNBOUND:                -0.769
REMARK SMILES O=C(C=Cc1ccc(O)cc1)c1ccc(O)cc1O
REMARK SMILES IDX 4 1 3 2 5 3 6 4 7 5 8 6 11 7 10 8 9 9 2 11 1 12 12 13 18 14
REMARK SMILES IDX 13 15 17 16 14 17 15 18 19 19 16 21
REMARK H PARENT 9 10 19 20 16 22
REMARK Flexibility Score: inf
ROOT
ATOM      1  C   UNL     1      -8.990  -7.935  68.413  1.00  0.00     0.012 C 
ATOM      2  C   UNL     1      -7.684  -7.944  68.109  1.00  0.00     0.053 C 
ENDROOT
BRANCH   1   3
ATOM      3  C   UNL     1      -9.556  -8.563  69.633  1.00  0.00    -0.025 A 
ATOM      4  C   UNL     1     -10.937  -8.788  69.798  1.00  0.00     0.012 A 
ATOM      5  C   UNL     1     -11.423  -9.373  70.973  1.00  0.00     0.047 A 
ATOM      6  C   UNL     1     -10.544  -9.731  71.998  1.00  0.00     0.115 A 
ATOM      7  C   UNL     1      -8.682  -8.911  70.677  1.00  0.00     0.012 A 
ATOM      8  C   UNL     1      -9.172  -9.497  71.848  1.00  0.00     0.047 A 
BRANCH   6   9
ATOM      9  O   UNL     1     -11.043 -10.313  73.161  1.00  0.00    -0.508 OA
ATOM     10  H   UNL     1     -11.785 -11.003  73.131  1.00  0.00     0.293 HD
ENDBRANCH   6   9
ENDBRANCH   1   3
BRANCH   2  11
ATOM     11  C   UNL     1      -7.154  -7.290  66.890  1.00  0.00     0.189 C 
ATOM     12  O   UNL     1      -6.334  -7.906  66.158  1.00  0.00    -0.289 OA
BRANCH  11  13
ATOM     13  C   UNL     1      -7.583  -5.919  66.512  1.00  0.00     0.064 A 
ATOM     14  C   UNL     1      -8.307  -5.689  65.321  1.00  0.00     0.130 A 
ATOM     15  C   UNL     1      -7.252  -4.822  67.329  1.00  0.00     0.020 A 
ATOM     16  C   UNL     1      -8.687  -4.385  64.973  1.00  0.00     0.093 A 
ATOM     17  C   UNL     1      -7.638  -3.528  66.975  1.00  0.00     0.047 A 
ATOM     18  C   UNL     1      -8.357  -3.306  65.796  1.00  0.00     0.119 A 
BRANCH  14  19
ATOM     19  O   UNL     1      -8.662  -6.754  64.492  1.00  0.00    -0.507 OA
ATOM     20  H   UNL     1      -8.097  -7.016  63.693  1.00  0.00     0.293 HD
ENDBRANCH  14  19
BRANCH  18  21
ATOM     21  O   UNL     1      -8.746  -2.018  65.432  1.00  0.00    -0.508 OA
ATOM     22  H   UNL     1      -9.722  -1.774  65.311  1.00  0.00     0.293 HD
ENDBRANCH  18  21
ENDBRANCH  11  13
ENDBRANCH   2  11
TORSDOF 6
ENDMDL
MODEL 2
REMARK VINA RESULT:    -6.593      3.468      5.028
REMARK INTER + INTRA:          -9.096
REMARK INTER:                  -8.549
REMARK INTRA:                  -0.547
REMARK UNBOUND:                -0.769
REMARK SMILES O=C(C=Cc1ccc(O)cc1)c1ccc(O)cc1O
REMARK SMILES IDX 4 1 3 2 5 3 6 4 7 5 8 6 11 7 10 8 9 9 2 11 1 12 12 13 18 14
REMARK SMILES IDX 13 15 17 16 14 17 15 18 19 19 16 21
REMARK H PARENT 9 10 19 20 16 22
REMARK Flexibility Score: inf
ROOT
ATOM      1  C   UNL     1      -7.091  -7.146  66.084  1.00  0.00     0.012 C 
ATOM      2  C   UNL     1      -6.715  -8.432  66.025  1.00  0.00     0.053 C 
ENDROOT
BRANCH   1   3
ATOM      3  C   UNL     1      -7.272  -6.399  67.353  1.00  0.00    -0.025 A 
ATOM      4  C   UNL     1      -7.485  -7.044  68.588  1.00  0.00     0.012 A 
ATOM      5  C   UNL     1      -7.663  -6.294  69.756  1.00  0.00     0.047 A 
ATOM      6  C   UNL     1      -7.640  -4.898  69.708  1.00  0.00     0.115 A 
ATOM      7  C   UNL     1      -7.268  -4.995  67.313  1.00  0.00     0.012 A 
ATOM      8  C   UNL     1      -7.444  -4.250  68.483  1.00  0.00     0.047 A 
BRANCH   6   9
ATOM      9  O   UNL     1      -7.817  -4.167  70.880  1.00  0.00    -0.508 OA
ATOM     10  H   UNL     1      -7.400  -3.250  71.000  1.00  0.00     0.293 HD
ENDBRANCH   6   9
ENDBRANCH   1   3
BRANCH   2  11
ATOM     11  C   UNL     1      -6.526  -9.140  64.737  1.00  0.00     0.189 C 
ATOM     12  O   UNL     1      -6.145 -10.342  64.736  1.00  0.00    -0.289 OA
BRANCH  11  13
ATOM     13  C   UNL     1      -6.790  -8.457  63.445  1.00  0.00     0.064 A 
ATOM     14  C   UNL     1      -8.105  -8.344  62.941  1.00  0.00     0.130 A 
ATOM     15  C   UNL     1      -5.725  -7.930  62.691  1.00  0.00     0.020 A 
ATOM     16  C   UNL     1      -8.331  -7.711  61.709  1.00  0.00     0.093 A 
ATOM     17  C   UNL     1      -5.961  -7.298  61.469  1.00  0.00     0.047 A 
ATOM     18  C   UNL     1      -7.265  -7.187  60.975  1.00  0.00     0.119 A 
BRANCH  14  19
ATOM     19  O   UNL     1      -9.187  -8.846  63.666  1.00  0.00    -0.507 OA
ATOM     20  H   UNL     1      -9.544  -8.371  64.485  1.00  0.00     0.293 HD
ENDBRANCH  14  19
BRANCH  18  21
ATOM     21  O   UNL     1      -7.511  -6.560  59.755  1.00  0.00    -0.508 OA
ATOM     22  H   UNL     1      -6.755  -6.266  59.148  1.00  0.00     0.293 HD
ENDBRANCH  18  21
ENDBRANCH  11  13
ENDBRANCH   2  11
TORSDOF 6
ENDMDL
MODEL 3
REMARK VINA RESULT:    -6.569      3.346      6.859
REMARK INTER + INTRA:          -9.066
REMARK INTER:                  -8.482
REMARK INTRA:                  -0.584
REMARK UNBOUND:                -0.769
REMARK SMILES O=C(C=Cc1ccc(O)cc1)c1ccc(O)cc1O
REMARK SMILES IDX 4 1 3 2 5 3 6 4 7 5 8 6 11 7 10 8 9 9 2 11 1 12 12 13 18 14
REMARK SMILES IDX 13 15 17 16 14 17 15 18 19 19 16 21
REMARK H PARENT 9 10 19 20 16 22
REMARK Flexibility Score: inf
ROOT
ATOM      1  C   UNL     1      -8.242  -7.237  65.449  1.00  0.00     0.012 C 
ATOM      2  C   UNL     1      -8.573  -8.400  66.030  1.00  0.00     0.053 C 
ENDROOT
BRANCH   1   3
ATOM      3  C   UNL     1      -8.097  -7.062  63.983  1.00  0.00    -0.025 A 
ATOM      4  C   UNL     1      -7.864  -8.143  63.110  1.00  0.00     0.012 A 
ATOM      5  C   UNL     1      -7.723  -7.925  61.735  1.00  0.00     0.047 A 
ATOM      6  C   UNL     1      -7.802  -6.630  61.215  1.00  0.00     0.115 A 
ATOM      7  C   UNL     1      -8.159  -5.763  63.452  1.00  0.00     0.012 A 
ATOM      8  C   UNL     1      -8.019  -5.548  62.077  1.00  0.00     0.047 A 
BRANCH   6   9
ATOM      9  O   UNL     1      -7.661  -6.429  59.844  1.00  0.00    -0.508 OA
ATOM     10  H   UNL     1      -7.878  -5.537  59.414  1.00  0.00     0.293 HD
ENDBRANCH   6   9
ENDBRANCH   1   3
BRANCH   2  11
ATOM     11  C   UNL     1      -8.725  -8.532  67.498  1.00  0.00     0.189 C 
ATOM     12  O   UNL     1      -9.038  -9.649  67.994  1.00  0.00    -0.289 OA
BRANCH  11  13
ATOM     13  C   UNL     1      -8.507  -7.370  68.396  1.00  0.00     0.064 A 
ATOM     14  C   UNL     1      -7.212  -7.048  68.862  1.00  0.00     0.130 A 
ATOM     15  C   UNL     1      -9.596  -6.583  68.814  1.00  0.00     0.020 A 
ATOM     16  C   UNL     1      -7.030  -5.957  69.724  1.00  0.00     0.093 A 
ATOM     17  C   UNL     1      -9.403  -5.497  69.670  1.00  0.00     0.047 A 
ATOM     18  C   UNL     1      -8.119  -5.181  70.126  1.00  0.00     0.119 A 
BRANCH  14  19
ATOM     19  O   UNL     1      -6.108  -7.800  68.459  1.00  0.00    -0.507 OA
ATOM     20  H   UNL     1      -6.212  -8.640  67.902  1.00  0.00     0.293 HD
ENDBRANCH  14  19
BRANCH  18  21
ATOM     21  O   UNL     1      -7.915  -4.099  70.982  1.00  0.00    -0.508 OA
ATOM     22  H   UNL     1      -8.529  -3.924  71.769  1.00  0.00     0.293 HD
ENDBRANCH  18  21
ENDBRANCH  11  13
ENDBRANCH   2  11
TORSDOF 6
ENDMDL
MODEL 4
REMARK VINA RESULT:    -6.484      4.585      7.204
REMARK INTER + INTRA:          -8.958
REMARK INTER:                  -8.224
REMARK INTRA:                  -0.734
REMARK UNBOUND:                -0.769
REMARK SMILES O=C(C=Cc1ccc(O)cc1)c1ccc(O)cc1O
REMARK SMILES IDX 4 1 3 2 5 3 6 4 7 5 8 6 11 7 10 8 9 9 2 11 1 12 12 13 18 14
REMARK SMILES IDX 13 15 17 16 14 17 15 18 19 19 16 21
REMARK H PARENT 9 10 19 20 16 22
REMARK Flexibility Score: inf
ROOT
ATOM      1  C   UNL     1      -6.577  -8.996  63.516  1.00  0.00     0.012 C 
ATOM      2  C   UNL     1      -7.855  -8.858  63.897  1.00  0.00     0.053 C 
ENDROOT
BRANCH   1   3
ATOM      3  C   UNL     1      -6.091 -10.097  62.649  1.00  0.00    -0.025 A 
ATOM      4  C   UNL     1      -6.911 -10.723  61.688  1.00  0.00     0.012 A 
ATOM      5  C   UNL     1      -6.410 -11.767  60.902  1.00  0.00     0.047 A 
ATOM      6  C   UNL     1      -5.093 -12.205  61.068  1.00  0.00     0.115 A 
ATOM      7  C   UNL     1      -4.774 -10.557  62.819  1.00  0.00     0.012 A 
ATOM      8  C   UNL     1      -4.277 -11.599  62.030  1.00  0.00     0.047 A 
BRANCH   6   9
ATOM      9  O   UNL     1      -4.609 -13.244  60.277  1.00  0.00    -0.508 OA
ATOM     10  H   UNL     1      -5.187 -14.043  60.039  1.00  0.00     0.293 HD
ENDBRANCH   6   9
ENDBRANCH   1   3
BRANCH   2  11
ATOM     11  C   UNL     1      -8.306  -7.734  64.749  1.00  0.00     0.189 C 
ATOM     12  O   UNL     1      -9.095  -7.955  65.708  1.00  0.00    -0.289 OA
BRANCH  11  13
ATOM     13  C   UNL     1      -7.835  -6.348  64.497  1.00  0.00     0.064 A 
ATOM     14  C   UNL     1      -7.152  -5.622  65.498  1.00  0.00     0.130 A 
ATOM     15  C   UNL     1      -8.085  -5.728  63.258  1.00  0.00     0.020 A 
ATOM     16  C   UNL     1      -6.731  -4.307  65.246  1.00  0.00     0.093 A 
ATOM     17  C   UNL     1      -7.659  -4.421  63.017  1.00  0.00     0.047 A 
ATOM     18  C   UNL     1      -6.981  -3.707  64.010  1.00  0.00     0.119 A 
BRANCH  14  19
ATOM     19  O   UNL     1      -6.878  -6.207  66.735  1.00  0.00    -0.507 OA
ATOM     20  H   UNL     1      -7.119  -7.171  66.931  1.00  0.00     0.293 HD
ENDBRANCH  14  19
BRANCH  18  21
ATOM     21  O   UNL     1      -6.553  -2.401  63.780  1.00  0.00    -0.508 OA
ATOM     22  H   UNL     1      -6.215  -1.814  64.533  1.00  0.00     0.293 HD
ENDBRANCH  18  21
ENDBRANCH  11  13
ENDBRANCH   2  11
TORSDOF 6
ENDMDL
MODEL 5
REMARK VINA RESULT:    -6.399      4.700      7.732
REMARK INTER + INTRA:          -8.852
REMARK INTER:                  -8.188
REMARK INTRA:                  -0.663
REMARK UNBOUND:                -0.769
REMARK SMILES O=C(C=Cc1ccc(O)cc1)c1ccc(O)cc1O
REMARK SMILES IDX 4 1 3 2 5 3 6 4 7 5 8 6 11 7 10 8 9 9 2 11 1 12 12 13 18 14
REMARK SMILES IDX 13 15 17 16 14 17 15 18 19 19 16 21
REMARK H PARENT 9 10 19 20 16 22
REMARK Flexibility Score: inf
ROOT
ATOM      1  C   UNL     1      -6.202  -7.711  62.171  1.00  0.00     0.012 C 
ATOM      2  C   UNL     1      -7.483  -7.322  62.257  1.00  0.00     0.053 C 
ENDROOT
BRANCH   1   3
ATOM      3  C   UNL     1      -5.778  -9.039  61.664  1.00  0.00    -0.025 A 
ATOM      4  C   UNL     1      -4.544  -9.243  61.015  1.00  0.00     0.012 A 
ATOM      5  C   UNL     1      -4.194 -10.514  60.543  1.00  0.00     0.047 A 
ATOM      6  C   UNL     1      -5.069 -11.591  60.703  1.00  0.00     0.115 A 
ATOM      7  C   UNL     1      -6.657 -10.126  61.805  1.00  0.00     0.012 A 
ATOM      8  C   UNL     1      -6.304 -11.393  61.333  1.00  0.00     0.047 A 
BRANCH   6   9
ATOM      9  O   UNL     1      -4.706 -12.849  60.229  1.00  0.00    -0.508 OA
ATOM     10  H   UNL     1      -4.063 -12.957  59.452  1.00  0.00     0.293 HD
ENDBRANCH   6   9
ENDBRANCH   1   3
BRANCH   2  11
ATOM     11  C   UNL     1      -7.867  -5.980  62.752  1.00  0.00     0.189 C 
ATOM     12  O   UNL     1      -8.410  -5.157  61.966  1.00  0.00    -0.289 OA
BRANCH  11  13
ATOM     13  C   UNL     1      -7.631  -5.591  64.166  1.00  0.00     0.064 A 
ATOM     14  C   UNL     1      -7.262  -4.269  64.502  1.00  0.00     0.130 A 
ATOM     15  C   UNL     1      -7.750  -6.546  65.193  1.00  0.00     0.020 A 
ATOM     16  C   UNL     1      -7.026  -3.927  65.841  1.00  0.00     0.093 A 
ATOM     17  C   UNL     1      -7.516  -6.194  66.524  1.00  0.00     0.047 A 
ATOM     18  C   UNL     1      -7.154  -4.883  66.851  1.00  0.00     0.119 A 
BRANCH  14  19
ATOM     19  O   UNL     1      -7.144  -3.294  63.510  1.00  0.00    -0.507 OA
ATOM     20  H   UNL     1      -7.476  -3.453  62.567  1.00  0.00     0.293 HD
ENDBRANCH  14  19
BRANCH  18  21
ATOM     21  O   UNL     1      -6.917  -4.522  68.176  1.00  0.00    -0.508 OA
ATOM     22  H   UNL     1      -6.156  -4.928  68.708  1.00  0.00     0.293 HD
ENDBRANCH  18  21
ENDBRANCH  11  13
ENDBRANCH   2  11
TORSDOF 6
ENDMDL
MODEL 6
REMARK VINA RESULT:    -6.373      3.628      6.126
REMARK INTER + INTRA:          -8.818
REMARK INTER:                  -8.254
REMARK INTRA:                  -0.564
REMARK UNBOUND:                -0.769
REMARK SMILES O=C(C=Cc1ccc(O)cc1)c1ccc(O)cc1O
REMARK SMILES IDX 4 1 3 2 5 3 6 4 7 5 8 6 11 7 10 8 9 9 2 11 1 12 12 13 18 14
REMARK SMILES IDX 13 15 17 16 14 17 15 18 19 19 16 21
REMARK H PARENT 9 10 19 20 16 22
REMARK Flexibility Score: inf
ROOT
ATOM      1  C   UNL     1      -7.194  -6.217  65.032  1.00  0.00     0.012 C 
ATOM      2  C   UNL     1      -8.007  -5.789  64.056  1.00  0.00     0.053 C 
ENDROOT
BRANCH   1   3
ATOM      3  C   UNL     1      -7.281  -5.755  66.439  1.00  0.00    -0.025 A 
ATOM      4  C   UNL     1      -7.589  -6.625  67.505  1.00  0.00     0.012 A 
ATOM      5  C   UNL     1      -7.672  -6.138  68.814  1.00  0.00     0.047 A 
ATOM      6  C   UNL     1      -7.461  -4.782  69.077  1.00  0.00     0.115 A 
ATOM      7  C   UNL     1      -7.087  -4.391  66.713  1.00  0.00     0.012 A 
ATOM      8  C   UNL     1      -7.170  -3.908  68.022  1.00  0.00     0.047 A 
BRANCH   6   9
ATOM      9  O   UNL     1      -7.546  -4.314  70.385  1.00  0.00    -0.508 OA
ATOM     10  H   UNL     1      -8.348  -4.519  70.971  1.00  0.00     0.293 HD
ENDBRANCH   6   9
ENDBRANCH   1   3
BRANCH   2  11
ATOM     11  C   UNL     1      -7.901  -6.287  62.665  1.00  0.00     0.189 C 
ATOM     12  O   UNL     1      -8.376  -5.603  61.719  1.00  0.00    -0.289 OA
BRANCH  11  13
ATOM     13  C   UNL     1      -7.234  -7.581  62.367  1.00  0.00     0.064 A 
ATOM     14  C   UNL     1      -7.900  -8.807  62.592  1.00  0.00     0.130 A 
ATOM     15  C   UNL     1      -5.915  -7.602  61.876  1.00  0.00     0.020 A 
ATOM     16  C   UNL     1      -7.246 -10.018  62.321  1.00  0.00     0.093 A 
ATOM     17  C   UNL     1      -5.275  -8.813  61.607  1.00  0.00     0.047 A 
ATOM     18  C   UNL     1      -5.939 -10.024  61.828  1.00  0.00     0.119 A 
BRANCH  14  19
ATOM     19  O   UNL     1      -9.211  -8.824  63.068  1.00  0.00    -0.507 OA
ATOM     20  H   UNL     1      -9.430  -9.120  64.012  1.00  0.00     0.293 HD
ENDBRANCH  14  19
BRANCH  18  21
ATOM     21  O   UNL     1      -5.308 -11.239  61.564  1.00  0.00    -0.508 OA
ATOM     22  H   UNL     1      -5.323 -11.653  60.639  1.00  0.00     0.293 HD
ENDBRANCH  18  21
ENDBRANCH  11  13
ENDBRANCH   2  11
TORSDOF 6
ENDMDL
MODEL 7
REMARK VINA RESULT:    -6.373      3.657      7.451
REMARK INTER + INTRA:          -8.818
REMARK INTER:                  -8.059
REMARK INTRA:                  -0.759
REMARK UNBOUND:                -0.769
REMARK SMILES O=C(C=Cc1ccc(O)cc1)c1ccc(O)cc1O
REMARK SMILES IDX 4 1 3 2 5 3 6 4 7 5 8 6 11 7 10 8 9 9 2 11 1 12 12 13 18 14
REMARK SMILES IDX 13 15 17 16 14 17 15 18 19 19 16 21
REMARK H PARENT 9 10 19 20 16 22
REMARK Flexibility Score: inf
ROOT
ATOM      1  C   UNL     1      -6.182  -5.985  64.412  1.00  0.00     0.012 C 
ATOM      2  C   UNL     1      -7.040  -5.001  64.104  1.00  0.00     0.053 C 
ENDROOT
BRANCH   1   3
ATOM      3  C   UNL     1      -5.593  -6.908  63.411  1.00  0.00    -0.025 A 
ATOM      4  C   UNL     1      -4.395  -7.613  63.644  1.00  0.00     0.012 A 
ATOM      5  C   UNL     1      -3.873  -8.464  62.662  1.00  0.00     0.047 A 
ATOM      6  C   UNL     1      -4.529  -8.613  61.438  1.00  0.00     0.115 A 
ATOM      7  C   UNL     1      -6.236  -7.054  62.171  1.00  0.00     0.012 A 
ATOM      8  C   UNL     1      -5.711  -7.905  61.193  1.00  0.00     0.047 A 
BRANCH   6   9
ATOM      9  O   UNL     1      -3.997  -9.464  60.472  1.00  0.00    -0.508 OA
ATOM     10  H   UNL     1      -4.425  -9.561  59.558  1.00  0.00     0.293 HD
ENDBRANCH   6   9
ENDBRANCH   1   3
BRANCH   2  11
ATOM     11  C   UNL     1      -7.594  -4.087  65.129  1.00  0.00     0.189 C 
ATOM     12  O   UNL     1      -7.716  -2.859  64.870  1.00  0.00    -0.289 OA
BRANCH  11  13
ATOM     13  C   UNL     1      -8.017  -4.598  66.458  1.00  0.00     0.064 A 
ATOM     14  C   UNL     1      -7.293  -4.266  67.626  1.00  0.00     0.130 A 
ATOM     15  C   UNL     1      -9.137  -5.443  66.569  1.00  0.00     0.020 A 
ATOM     16  C   UNL     1      -7.698  -4.774  68.869  1.00  0.00     0.093 A 
ATOM     17  C   UNL     1      -9.533  -5.940  67.812  1.00  0.00     0.047 A 
ATOM     18  C   UNL     1      -8.815  -5.606  68.965  1.00  0.00     0.119 A 
BRANCH  14  19
ATOM     19  O   UNL     1      -6.183  -3.423  67.554  1.00  0.00    -0.507 OA
ATOM     20  H   UNL     1      -5.435  -3.471  68.235  1.00  0.00     0.293 HD
ENDBRANCH  14  19
BRANCH  18  21
ATOM     21  O   UNL     1      -9.202  -6.098  70.210  1.00  0.00    -0.508 OA
ATOM     22  H   UNL     1      -8.786  -6.935  70.602  1.00  0.00     0.293 HD
ENDBRANCH  18  21
ENDBRANCH  11  13
ENDBRANCH   2  11
TORSDOF 6
ENDMDL
MODEL 8
REMARK VINA RESULT:    -6.354      1.671      2.505
REMARK INTER + INTRA:          -8.794
REMARK INTER:                  -8.095
REMARK INTRA:                  -0.699
REMARK UNBOUND:                -0.769
REMARK SMILES O=C(C=Cc1ccc(O)cc1)c1ccc(O)cc1O
REMARK SMILES IDX 4 1 3 2 5 3 6 4 7 5 8 6 11 7 10 8 9 9 2 11 1 12 12 13 18 14
REMARK SMILES IDX 13 15 17 16 14 17 15 18 19 19 16 21
REMARK H PARENT 9 10 19 20 16 22
REMARK Flexibility Score: inf
ROOT
ATOM      1  C   UNL     1      -9.274  -6.169  69.195  1.00  0.00     0.012 C 
ATOM      2  C   UNL     1      -7.986  -5.952  68.891  1.00  0.00     0.053 C 
ENDROOT
BRANCH   1   3
ATOM      3  C   UNL     1      -9.730  -7.200  70.159  1.00  0.00    -0.025 A 
ATOM      4  C   UNL     1     -10.985  -7.138  70.798  1.00  0.00     0.012 A 
ATOM      5  C   UNL     1     -11.364  -8.130  71.710  1.00  0.00     0.047 A 
ATOM      6  C   UNL     1     -10.498  -9.186  72.003  1.00  0.00     0.115 A 
ATOM      7  C   UNL     1      -8.860  -8.258  70.474  1.00  0.00     0.012 A 
ATOM      8  C   UNL     1      -9.244  -9.247  71.385  1.00  0.00     0.047 A 
BRANCH   6   9
ATOM      9  O   UNL     1     -10.891 -10.165  72.912  1.00  0.00    -0.508 OA
ATOM     10  H   UNL     1     -10.315 -10.410  73.710  1.00  0.00     0.293 HD
ENDBRANCH   6   9
ENDBRANCH   1   3
BRANCH   2  11
ATOM     11  C   UNL     1      -7.568  -4.900  67.936  1.00  0.00     0.189 C 
ATOM     12  O   UNL     1      -6.946  -3.886  68.357  1.00  0.00    -0.289 OA
BRANCH  11  13
ATOM     13  C   UNL     1      -7.861  -5.025  66.485  1.00  0.00     0.064 A 
ATOM     14  C   UNL     1      -8.266  -3.902  65.729  1.00  0.00     0.130 A 
ATOM     15  C   UNL     1      -7.762  -6.276  65.848  1.00  0.00     0.020 A 
ATOM     16  C   UNL     1      -8.556  -4.046  64.364  1.00  0.00     0.093 A 
ATOM     17  C   UNL     1      -8.050  -6.406  64.488  1.00  0.00     0.047 A 
ATOM     18  C   UNL     1      -8.447  -5.291  63.742  1.00  0.00     0.119 A 
BRANCH  14  19
ATOM     19  O   UNL     1      -8.365  -2.645  66.326  1.00  0.00    -0.507 OA
ATOM     20  H   UNL     1      -8.064  -1.805  65.849  1.00  0.00     0.293 HD
ENDBRANCH  14  19
BRANCH  18  21
ATOM     21  O   UNL     1      -8.738  -5.411  62.385  1.00  0.00    -0.508 OA
ATOM     22  H   UNL     1      -8.028  -5.271  61.676  1.00  0.00     0.293 HD
ENDBRANCH  18  21
ENDBRANCH  11  13
ENDBRANCH   2  11
TORSDOF 6
ENDMDL
MODEL 9
REMARK VINA RESULT:    -6.342      2.334      7.201
REMARK INTER + INTRA:          -8.779
REMARK INTER:                  -8.214
REMARK INTRA:                  -0.565
REMARK UNBOUND:                -0.769
REMARK SMILES O=C(C=Cc1ccc(O)cc1)c1ccc(O)cc1O
REMARK SMILES IDX 4 1 3 2 5 3 6 4 7 5 8 6 11 7 10 8 9 9 2 11 1 12 12 13 18 14
REMARK SMILES IDX 13 15 17 16 14 17 15 18 19 19 16 21
REMARK H PARENT 9 10 19 20 16 22
REMARK Flexibility Score: inf
ROOT
ATOM      1  C   UNL     1      -8.320  -6.146  66.069  1.00  0.00     0.012 C 
ATOM      2  C   UNL     1      -7.447  -5.479  66.839  1.00  0.00     0.053 C 
ENDROOT
BRANCH   1   3
ATOM      3  C   UNL     1      -8.218  -6.226  64.591  1.00  0.00    -0.025 A 
ATOM      4  C   UNL     1      -7.924  -7.428  63.916  1.00  0.00     0.012 A 
ATOM      5  C   UNL     1      -7.827  -7.450  62.520  1.00  0.00     0.047 A 
ATOM      6  C   UNL     1      -8.012  -6.278  61.782  1.00  0.00     0.115 A 
ATOM      7  C   UNL     1      -8.386  -5.051  63.840  1.00  0.00     0.012 A 
ATOM      8  C   UNL     1      -8.290  -5.077  62.446  1.00  0.00     0.047 A 
BRANCH   6   9
ATOM      9  O   UNL     1      -7.913  -6.317  60.393  1.00  0.00    -0.508 OA
ATOM     10  H   UNL     1      -7.070  -6.022  59.914  1.00  0.00     0.293 HD
ENDBRANCH   6   9
ENDBRANCH   1   3
BRANCH   2  11
ATOM     11  C   UNL     1      -7.571  -5.436  68.315  1.00  0.00     0.189 C 
ATOM     12  O   UNL     1      -7.195  -4.410  68.943  1.00  0.00    -0.289 OA
BRANCH  11  13
ATOM     13  C   UNL     1      -8.141  -6.584  69.066  1.00  0.00     0.064 A 
ATOM     14  C   UNL     1      -7.376  -7.750  69.297  1.00  0.00     0.130 A 
ATOM     15  C   UNL     1      -9.465  -6.533  69.541  1.00  0.00     0.020 A 
ATOM     16  C   UNL     1      -7.939  -8.830  69.993  1.00  0.00     0.093 A 
ATOM     17  C   UNL     1     -10.014  -7.612  70.236  1.00  0.00     0.047 A 
ATOM     18  C   UNL     1      -9.252  -8.763  70.464  1.00  0.00     0.119 A 
BRANCH  14  19
ATOM     19  O   UNL     1      -6.057  -7.831  68.849  1.00  0.00    -0.507 OA
ATOM     20  H   UNL     1      -5.559  -8.712  68.820  1.00  0.00     0.293 HD
ENDBRANCH  14  19
BRANCH  18  21
ATOM     21  O   UNL     1      -9.791  -9.847  71.155  1.00  0.00    -0.508 OA
ATOM     22  H   UNL     1      -9.206 -10.480  71.688  1.00  0.00     0.293 HD
ENDBRANCH  18  21
ENDBRANCH  11  13
ENDBRANCH   2  11
TORSDOF 6
ENDMDL
