MODEL 1
REMARK VINA RESULT:    -3.386      0.000      0.000
REMARK INTER + INTRA:         -11.493
REMARK INTER:                  -7.741
REMARK INTRA:                  -3.753
REMARK UNBOUND:                -3.753
REMARK SMILES CCCCCCCCCCCCCCCCCCCCCCCC(=O)[O-]
REMARK SMILES IDX 13 1 14 2 15 3 16 4 17 5 18 6 19 7 20 8 21 9 22 10 23 11
REMARK SMILES IDX 24 12 25 13 26 14 12 15 11 16 10 17 9 18 8 19 7 20 6 21 5 22
REMARK SMILES IDX 4 23 3 24 2 25 1 26
REMARK H PARENT
REMARK Flexibility Score: inf
ROOT
ATOM      1  C   UNL     1      26.184  60.761  82.515  1.00  0.00     0.000 C 
ENDROOT
BRANCH   1   2
ATOM      2  C   UNL     1      27.393  61.704  82.409  1.00  0.00     0.000 C 
BRANCH   2   3
ATOM      3  C   UNL     1      27.627  62.225  80.971  1.00  0.00     0.000 C 
BRANCH   3   4
ATOM      4  C   UNL     1      26.694  61.569  79.928  1.00  0.00     0.000 C 
BRANCH   4   5
ATOM      5  C   UNL     1      27.440  60.704  78.895  1.00  0.00     0.000 C 
BRANCH   5   6
ATOM      6  C   UNL     1      27.940  59.381  79.496  1.00  0.00     0.000 C 
BRANCH   6   7
ATOM      7  C   UNL     1      29.453  59.184  79.289  1.00  0.00     0.000 C 
BRANCH   7   8
ATOM      8  C   UNL     1      30.195  58.757  80.574  1.00  0.00     0.000 C 
BRANCH   8   9
ATOM      9  C   UNL     1      29.239  58.485  81.762  1.00  0.00     0.000 C 
BRANCH   9  10
ATOM     10  C   UNL     1      29.843  57.517  82.789  1.00  0.00     0.006 C 
BRANCH  10  11
ATOM     11  C   UNL     1      30.106  58.221  84.127  1.00  0.00     0.053 C 
BRANCH  11  12
ATOM     12  C   UNL     1      31.336  57.670  84.787  1.00  0.00     0.041 C 
ATOM     13  O   UNL     1      32.283  57.227  84.087  1.00  0.00    -0.550 OA
ATOM     14  O   UNL     1      31.433  57.644  86.175  1.00  0.00    -0.550 OA
ENDBRANCH  11  12
ENDBRANCH  10  11
ENDBRANCH   9  10
ENDBRANCH   8   9
ENDBRANCH   7   8
ENDBRANCH   6   7
ENDBRANCH   5   6
ENDBRANCH   4   5
ENDBRANCH   3   4
ENDBRANCH   2   3
ENDBRANCH   1   2
BRANCH   1  15
ATOM     15  C   UNL     1      25.469  60.902  83.874  1.00  0.00     0.000 C 
BRANCH  15  16
ATOM     16  C   UNL     1      25.268  59.549  84.579  1.00  0.00     0.000 C 
BRANCH  16  17
ATOM     17  C   UNL     1      26.325  58.532  84.108  1.00  0.00     0.000 C 
BRANCH  17  18
ATOM     18  C   UNL     1      26.216  57.184  84.837  1.00  0.00    -0.000 C 
BRANCH  18  19
ATOM     19  C   UNL     1      25.086  57.190  85.883  1.00  0.00    -0.000 C 
BRANCH  19  20
ATOM     20  C   UNL     1      25.612  57.070  87.322  1.00  0.00    -0.000 C 
BRANCH  20  21
ATOM     21  C   UNL     1      25.465  58.383  88.114  1.00  0.00    -0.000 C 
BRANCH  21  22
ATOM     22  C   UNL     1      26.823  58.892  88.648  1.00  0.00    -0.000 C 
BRANCH  22  23
ATOM     23  C   UNL     1      28.022  58.525  87.753  1.00  0.00    -0.000 C 
BRANCH  23  24
ATOM     24  C   UNL     1      28.656  59.742  87.057  1.00  0.00    -0.000 C 
BRANCH  24  25
ATOM     25  C   UNL     1      27.687  60.932  86.953  1.00  0.00    -0.003 C 
ATOM     26  C   UNL     1      28.099  62.111  87.831  1.00  0.00     0.004 C 
ENDBRANCH  24  25
ENDBRANCH  23  24
ENDBRANCH  22  23
ENDBRANCH  21  22
ENDBRANCH  20  21
ENDBRANCH  19  20
ENDBRANCH  18  19
ENDBRANCH  17  18
ENDBRANCH  16  17
ENDBRANCH  15  16
ENDBRANCH   1  15
TORSDOF 22
ENDMDL
MODEL 2
REMARK VINA RESULT:    -3.355      3.200      7.659
REMARK INTER + INTRA:         -11.422
REMARK INTER:                  -8.346
REMARK INTRA:                  -3.076
REMARK UNBOUND:                -3.753
REMARK SMILES CCCCCCCCCCCCCCCCCCCCCCCC(=O)[O-]
REMARK SMILES IDX 13 1 14 2 15 3 16 4 17 5 18 6 19 7 20 8 21 9 22 10 23 11
REMARK SMILES IDX 24 12 25 13 26 14 12 15 11 16 10 17 9 18 8 19 7 20 6 21 5 22
REMARK SMILES IDX 4 23 3 24 2 25 1 26
REMARK H PARENT
REMARK Flexibility Score: inf
ROOT
ATOM      1  C   UNL     1      26.324  61.363  83.128  1.00  0.00     0.000 C 
ENDROOT
BRANCH   1   2
ATOM      2  C   UNL     1      27.436  60.338  83.401  1.00  0.00     0.000 C 
BRANCH   2   3
ATOM      3  C   UNL     1      27.036  58.896  83.009  1.00  0.00     0.000 C 
BRANCH   3   4
ATOM      4  C   UNL     1      28.205  58.085  82.406  1.00  0.00     0.000 C 
BRANCH   4   5
ATOM      5  C   UNL     1      29.329  58.964  81.829  1.00  0.00     0.000 C 
BRANCH   5   6
ATOM      6  C   UNL     1      30.708  58.596  82.400  1.00  0.00     0.000 C 
BRANCH   6   7
ATOM      7  C   UNL     1      30.636  57.398  83.365  1.00  0.00     0.000 C 
BRANCH   7   8
ATOM      8  C   UNL     1      31.541  57.556  84.606  1.00  0.00     0.000 C 
BRANCH   8   9
ATOM      9  C   UNL     1      30.740  57.657  85.928  1.00  0.00     0.000 C 
BRANCH   9  10
ATOM     10  C   UNL     1      29.779  58.854  85.940  1.00  0.00     0.006 C 
BRANCH  10  11
ATOM     11  C   UNL     1      28.403  58.454  86.490  1.00  0.00     0.053 C 
BRANCH  11  12
ATOM     12  C   UNL     1      27.711  59.634  87.107  1.00  0.00     0.041 C 
ATOM     13  O   UNL     1      28.348  60.699  87.318  1.00  0.00    -0.550 OA
ATOM     14  O   UNL     1      26.366  59.555  87.451  1.00  0.00    -0.550 OA
ENDBRANCH  11  12
ENDBRANCH  10  11
ENDBRANCH   9  10
ENDBRANCH   8   9
ENDBRANCH   7   8
ENDBRANCH   6   7
ENDBRANCH   5   6
ENDBRANCH   4   5
ENDBRANCH   3   4
ENDBRANCH   2   3
ENDBRANCH   1   2
BRANCH   1  15
ATOM     15  C   UNL     1      26.102  61.574  81.616  1.00  0.00     0.000 C 
BRANCH  15  16
ATOM     16  C   UNL     1      27.295  62.266  80.934  1.00  0.00     0.000 C 
BRANCH  16  17
ATOM     17  C   UNL     1      27.686  61.521  79.643  1.00  0.00     0.000 C 
BRANCH  17  18
ATOM     18  C   UNL     1      26.833  60.265  79.404  1.00  0.00    -0.000 C 
BRANCH  18  19
ATOM     19  C   UNL     1      25.994  60.380  78.119  1.00  0.00    -0.000 C 
BRANCH  19  20
ATOM     20  C   UNL     1      26.130  61.754  77.444  1.00  0.00    -0.000 C 
BRANCH  20  21
ATOM     21  C   UNL     1      24.856  62.608  77.585  1.00  0.00    -0.000 C 
BRANCH  21  22
ATOM     22  C   UNL     1      24.773  63.707  76.500  1.00  0.00    -0.000 C 
BRANCH  22  23
ATOM     23  C   UNL     1      26.135  64.072  75.879  1.00  0.00    -0.000 C 
BRANCH  23  24
ATOM     24  C   UNL     1      26.179  65.501  75.310  1.00  0.00    -0.000 C 
BRANCH  24  25
ATOM     25  C   UNL     1      25.300  66.481  76.107  1.00  0.00    -0.003 C 
ATOM     26  C   UNL     1      25.801  67.921  76.033  1.00  0.00     0.004 C 
ENDBRANCH  24  25
ENDBRANCH  23  24
ENDBRANCH  22  23
ENDBRANCH  21  22
ENDBRANCH  20  21
ENDBRANCH  19  20
ENDBRANCH  18  19
ENDBRANCH  17  18
ENDBRANCH  16  17
ENDBRANCH  15  16
ENDBRANCH   1  15
TORSDOF 22
ENDMDL
MODEL 3
REMARK VINA RESULT:    -3.344      1.578      6.396
REMARK INTER + INTRA:         -11.397
REMARK INTER:                  -7.182
REMARK INTRA:                  -4.215
REMARK UNBOUND:                -3.753
REMARK SMILES CCCCCCCCCCCCCCCCCCCCCCCC(=O)[O-]
REMARK SMILES IDX 13 1 14 2 15 3 16 4 17 5 18 6 19 7 20 8 21 9 22 10 23 11
REMARK SMILES IDX 24 12 25 13 26 14 12 15 11 16 10 17 9 18 8 19 7 20 6 21 5 22
REMARK SMILES IDX 4 23 3 24 2 25 1 26
REMARK H PARENT
REMARK Flexibility Score: inf
ROOT
ATOM      1  C   UNL     1      27.641  61.454  83.031  1.00  0.00     0.000 C 
ENDROOT
BRANCH   1   2
ATOM      2  C   UNL     1      26.596  60.412  83.460  1.00  0.00     0.000 C 
BRANCH   2   3
ATOM      3  C   UNL     1      26.449  60.303  84.995  1.00  0.00     0.000 C 
BRANCH   3   4
ATOM      4  C   UNL     1      27.165  61.441  85.757  1.00  0.00     0.000 C 
BRANCH   4   5
ATOM      5  C   UNL     1      27.796  60.988  87.086  1.00  0.00     0.000 C 
BRANCH   5   6
ATOM      6  C   UNL     1      27.303  59.599  87.521  1.00  0.00     0.000 C 
BRANCH   6   7
ATOM      7  C   UNL     1      28.406  58.530  87.409  1.00  0.00     0.000 C 
BRANCH   7   8
ATOM      8  C   UNL     1      27.992  57.312  86.555  1.00  0.00     0.000 C 
BRANCH   8   9
ATOM      9  C   UNL     1      28.750  57.233  85.206  1.00  0.00     0.000 C 
BRANCH   9  10
ATOM     10  C   UNL     1      29.735  58.395  85.021  1.00  0.00     0.006 C 
BRANCH  10  11
ATOM     11  C   UNL     1      29.989  58.675  83.533  1.00  0.00     0.053 C 
BRANCH  11  12
ATOM     12  C   UNL     1      31.128  57.843  83.020  1.00  0.00     0.041 C 
ATOM     13  O   UNL     1      31.205  57.566  81.794  1.00  0.00    -0.550 OA
ATOM     14  O   UNL     1      32.099  57.371  83.897  1.00  0.00    -0.550 OA
ENDBRANCH  11  12
ENDBRANCH  10  11
ENDBRANCH   9  10
ENDBRANCH   8   9
ENDBRANCH   7   8
ENDBRANCH   6   7
ENDBRANCH   5   6
ENDBRANCH   4   5
ENDBRANCH   3   4
ENDBRANCH   2   3
ENDBRANCH   1   2
BRANCH   1  15
ATOM     15  C   UNL     1      27.255  62.134  81.701  1.00  0.00     0.000 C 
BRANCH  15  16
ATOM     16  C   UNL     1      25.776  61.920  81.336  1.00  0.00     0.000 C 
BRANCH  16  17
ATOM     17  C   UNL     1      25.573  62.043  79.813  1.00  0.00     0.000 C 
BRANCH  17  18
ATOM     18  C   UNL     1      25.113  60.726  79.169  1.00  0.00    -0.000 C 
BRANCH  18  19
ATOM     19  C   UNL     1      25.284  59.532  80.125  1.00  0.00    -0.000 C 
BRANCH  19  20
ATOM     20  C   UNL     1      25.560  58.215  79.383  1.00  0.00    -0.000 C 
BRANCH  20  21
ATOM     21  C   UNL     1      27.042  57.801  79.451  1.00  0.00    -0.000 C 
BRANCH  21  22
ATOM     22  C   UNL     1      27.879  58.781  80.305  1.00  0.00    -0.000 C 
BRANCH  22  23
ATOM     23  C   UNL     1      29.110  59.350  79.574  1.00  0.00    -0.000 C 
BRANCH  23  24
ATOM     24  C   UNL     1      28.794  60.603  78.738  1.00  0.00    -0.000 C 
BRANCH  24  25
ATOM     25  C   UNL     1      28.451  60.266  77.277  1.00  0.00    -0.003 C 
ATOM     26  C   UNL     1      29.591  59.558  76.548  1.00  0.00     0.004 C 
ENDBRANCH  24  25
ENDBRANCH  23  24
ENDBRANCH  22  23
ENDBRANCH  21  22
ENDBRANCH  20  21
ENDBRANCH  19  20
ENDBRANCH  18  19
ENDBRANCH  17  18
ENDBRANCH  16  17
ENDBRANCH  15  16
ENDBRANCH   1  15
TORSDOF 22
ENDMDL
MODEL 4
REMARK VINA RESULT:    -3.306      2.559      7.286
REMARK INTER + INTRA:         -11.312
REMARK INTER:                  -7.344
REMARK INTRA:                  -3.968
REMARK UNBOUND:                -3.753
REMARK SMILES CCCCCCCCCCCCCCCCCCCCCCCC(=O)[O-]
REMARK SMILES IDX 13 1 14 2 15 3 16 4 17 5 18 6 19 7 20 8 21 9 22 10 23 11
REMARK SMILES IDX 24 12 25 13 26 14 12 15 11 16 10 17 9 18 8 19 7 20 6 21 5 22
REMARK SMILES IDX 4 23 3 24 2 25 1 26
REMARK H PARENT
REMARK Flexibility Score: inf
ROOT
ATOM      1  C   UNL     1      27.631  60.986  82.483  1.00  0.00     0.000 C 
ENDROOT
BRANCH   1   2
ATOM      2  C   UNL     1      26.460  60.022  82.731  1.00  0.00     0.000 C 
BRANCH   2   3
ATOM      3  C   UNL     1      26.777  58.567  82.313  1.00  0.00     0.000 C 
BRANCH   3   4
ATOM      4  C   UNL     1      27.909  58.470  81.264  1.00  0.00     0.000 C 
BRANCH   4   5
ATOM      5  C   UNL     1      29.098  57.605  81.723  1.00  0.00     0.000 C 
BRANCH   5   6
ATOM      6  C   UNL     1      30.277  58.454  82.223  1.00  0.00     0.000 C 
BRANCH   6   7
ATOM      7  C   UNL     1      30.421  58.402  83.756  1.00  0.00     0.000 C 
BRANCH   7   8
ATOM      8  C   UNL     1      29.639  57.239  84.404  1.00  0.00     0.000 C 
BRANCH   8   9
ATOM      9  C   UNL     1      28.895  57.657  85.697  1.00  0.00     0.000 C 
BRANCH   9  10
ATOM     10  C   UNL     1      28.418  59.115  85.651  1.00  0.00     0.006 C 
BRANCH  10  11
ATOM     11  C   UNL     1      28.483  59.763  87.041  1.00  0.00     0.053 C 
BRANCH  11  12
ATOM     12  C   UNL     1      27.878  61.137  87.018  1.00  0.00     0.041 C 
ATOM     13  O   UNL     1      28.064  61.925  87.982  1.00  0.00    -0.550 OA
ATOM     14  O   UNL     1      27.109  61.544  85.933  1.00  0.00    -0.550 OA
ENDBRANCH  11  12
ENDBRANCH  10  11
ENDBRANCH   9  10
ENDBRANCH   8   9
ENDBRANCH   7   8
ENDBRANCH   6   7
ENDBRANCH   5   6
ENDBRANCH   4   5
ENDBRANCH   3   4
ENDBRANCH   2   3
ENDBRANCH   1   2
BRANCH   1  15
ATOM     15  C   UNL     1      27.249  62.100  81.486  1.00  0.00     0.000 C 
BRANCH  15  16
ATOM     16  C   UNL     1      25.735  62.163  81.221  1.00  0.00     0.000 C 
BRANCH  16  17
ATOM     17  C   UNL     1      25.448  62.080  79.709  1.00  0.00     0.000 C 
BRANCH  17  18
ATOM     18  C   UNL     1      25.293  60.634  79.214  1.00  0.00    -0.000 C 
BRANCH  18  19
ATOM     19  C   UNL     1      26.331  60.285  78.132  1.00  0.00    -0.000 C 
BRANCH  19  20
ATOM     20  C   UNL     1      27.361  61.406  77.917  1.00  0.00    -0.000 C 
BRANCH  20  21
ATOM     21  C   UNL     1      28.796  60.958  78.251  1.00  0.00    -0.000 C 
BRANCH  21  22
ATOM     22  C   UNL     1      29.003  59.446  78.004  1.00  0.00    -0.000 C 
BRANCH  22  23
ATOM     23  C   UNL     1      29.986  59.131  76.860  1.00  0.00    -0.000 C 
BRANCH  23  24
ATOM     24  C   UNL     1      29.380  58.229  75.770  1.00  0.00    -0.000 C 
BRANCH  24  25
ATOM     25  C   UNL     1      28.825  59.032  74.581  1.00  0.00    -0.003 C 
ATOM     26  C   UNL     1      27.333  59.328  74.710  1.00  0.00     0.004 C 
ENDBRANCH  24  25
ENDBRANCH  23  24
ENDBRANCH  22  23
ENDBRANCH  21  22
ENDBRANCH  20  21
ENDBRANCH  19  20
ENDBRANCH  18  19
ENDBRANCH  17  18
ENDBRANCH  16  17
ENDBRANCH  15  16
ENDBRANCH   1  15
TORSDOF 22
ENDMDL
MODEL 5
REMARK VINA RESULT:    -3.275      2.945      5.237
REMARK INTER + INTRA:         -11.239
REMARK INTER:                  -6.717
REMARK INTRA:                  -4.522
REMARK UNBOUND:                -3.753
REMARK SMILES CCCCCCCCCCCCCCCCCCCCCCCC(=O)[O-]
REMARK SMILES IDX 13 1 14 2 15 3 16 4 17 5 18 6 19 7 20 8 21 9 22 10 23 11
REMARK SMILES IDX 24 12 25 13 26 14 12 15 11 16 10 17 9 18 8 19 7 20 6 21 5 22
REMARK SMILES IDX 4 23 3 24 2 25 1 26
REMARK H PARENT
REMARK Flexibility Score: inf
ROOT
ATOM      1  C   UNL     1      26.910  61.349  83.850  1.00  0.00     0.000 C 
ENDROOT
BRANCH   1   2
ATOM      2  C   UNL     1      25.717  60.660  84.532  1.00  0.00     0.000 C 
BRANCH   2   3
ATOM      3  C   UNL     1      24.407  60.777  83.717  1.00  0.00     0.000 C 
BRANCH   3   4
ATOM      4  C   UNL     1      24.244  62.150  83.025  1.00  0.00     0.000 C 
BRANCH   4   5
ATOM      5  C   UNL     1      24.173  62.058  81.489  1.00  0.00     0.000 C 
BRANCH   5   6
ATOM      6  C   UNL     1      24.446  60.635  80.978  1.00  0.00     0.000 C 
BRANCH   6   7
ATOM      7  C   UNL     1      25.693  60.570  80.078  1.00  0.00     0.000 C 
BRANCH   7   8
ATOM      8  C   UNL     1      26.478  61.900  80.024  1.00  0.00     0.000 C 
BRANCH   8   9
ATOM      9  C   UNL     1      27.851  61.763  79.321  1.00  0.00     0.000 C 
BRANCH   9  10
ATOM     10  C   UNL     1      27.741  61.081  77.950  1.00  0.00     0.006 C 
BRANCH  10  11
ATOM     11  C   UNL     1      28.956  60.183  77.678  1.00  0.00     0.053 C 
BRANCH  11  12
ATOM     12  C   UNL     1      28.522  58.795  77.311  1.00  0.00     0.041 C 
ATOM     13  O   UNL     1      29.199  58.116  76.494  1.00  0.00    -0.550 OA
ATOM     14  O   UNL     1      27.368  58.252  77.868  1.00  0.00    -0.550 OA
ENDBRANCH  11  12
ENDBRANCH  10  11
ENDBRANCH   9  10
ENDBRANCH   8   9
ENDBRANCH   7   8
ENDBRANCH   6   7
ENDBRANCH   5   6
ENDBRANCH   4   5
ENDBRANCH   3   4
ENDBRANCH   2   3
ENDBRANCH   1   2
BRANCH   1  15
ATOM     15  C   UNL     1      27.794  60.337  83.092  1.00  0.00     0.000 C 
BRANCH  15  16
ATOM     16  C   UNL     1      27.199  58.918  83.089  1.00  0.00     0.000 C 
BRANCH  16  17
ATOM     17  C   UNL     1      27.929  58.029  82.063  1.00  0.00     0.000 C 
BRANCH  17  18
ATOM     18  C   UNL     1      28.854  58.833  81.136  1.00  0.00    -0.000 C 
BRANCH  18  19
ATOM     19  C   UNL     1      30.294  58.285  81.150  1.00  0.00    -0.000 C 
BRANCH  19  20
ATOM     20  C   UNL     1      31.002  58.517  82.494  1.00  0.00    -0.000 C 
BRANCH  20  21
ATOM     21  C   UNL     1      31.338  57.199  83.217  1.00  0.00    -0.000 C 
BRANCH  21  22
ATOM     22  C   UNL     1      30.597  57.075  84.568  1.00  0.00    -0.000 C 
BRANCH  22  23
ATOM     23  C   UNL     1      30.246  58.430  85.213  1.00  0.00    -0.000 C 
BRANCH  23  24
ATOM     24  C   UNL     1      29.063  58.348  86.193  1.00  0.00    -0.000 C 
BRANCH  24  25
ATOM     25  C   UNL     1      28.654  59.727  86.740  1.00  0.00    -0.003 C 
ATOM     26  C   UNL     1      27.464  59.658  87.694  1.00  0.00     0.004 C 
ENDBRANCH  24  25
ENDBRANCH  23  24
ENDBRANCH  22  23
ENDBRANCH  21  22
ENDBRANCH  20  21
ENDBRANCH  19  20
ENDBRANCH  18  19
ENDBRANCH  17  18
ENDBRANCH  16  17
ENDBRANCH  15  16
ENDBRANCH   1  15
TORSDOF 22
ENDMDL
MODEL 6
REMARK VINA RESULT:    -3.271      2.002      7.319
REMARK INTER + INTRA:         -11.230
REMARK INTER:                  -7.964
REMARK INTRA:                  -3.266
REMARK UNBOUND:                -3.753
REMARK SMILES CCCCCCCCCCCCCCCCCCCCCCCC(=O)[O-]
REMARK SMILES IDX 13 1 14 2 15 3 16 4 17 5 18 6 19 7 20 8 21 9 22 10 23 11
REMARK SMILES IDX 24 12 25 13 26 14 12 15 11 16 10 17 9 18 8 19 7 20 6 21 5 22
REMARK SMILES IDX 4 23 3 24 2 25 1 26
REMARK H PARENT
REMARK Flexibility Score: inf
ROOT
ATOM      1  C   UNL     1      27.586  61.642  82.917  1.00  0.00     0.000 C 
ENDROOT
BRANCH   1   2
ATOM      2  C   UNL     1      26.590  60.603  83.455  1.00  0.00     0.000 C 
BRANCH   2   3
ATOM      3  C   UNL     1      26.103  60.921  84.889  1.00  0.00     0.000 C 
BRANCH   3   4
ATOM      4  C   UNL     1      25.629  59.668  85.661  1.00  0.00     0.000 C 
BRANCH   4   5
ATOM      5  C   UNL     1      26.522  59.314  86.864  1.00  0.00     0.000 C 
BRANCH   5   6
ATOM      6  C   UNL     1      27.915  59.956  86.764  1.00  0.00     0.000 C 
BRANCH   6   7
ATOM      7  C   UNL     1      29.028  58.905  86.597  1.00  0.00     0.000 C 
BRANCH   7   8
ATOM      8  C   UNL     1      29.477  58.718  85.131  1.00  0.00     0.000 C 
BRANCH   8   9
ATOM      9  C   UNL     1      28.618  57.682  84.363  1.00  0.00     0.000 C 
BRANCH   9  10
ATOM     10  C   UNL     1      28.994  57.597  82.878  1.00  0.00     0.006 C 
BRANCH  10  11
ATOM     11  C   UNL     1      29.870  58.786  82.458  1.00  0.00     0.053 C 
BRANCH  11  12
ATOM     12  C   UNL     1      31.210  58.316  81.974  1.00  0.00     0.041 C 
ATOM     13  O   UNL     1      31.935  59.079  81.283  1.00  0.00    -0.550 OA
ATOM     14  O   UNL     1      31.656  57.035  82.283  1.00  0.00    -0.550 OA
ENDBRANCH  11  12
ENDBRANCH  10  11
ENDBRANCH   9  10
ENDBRANCH   8   9
ENDBRANCH   7   8
ENDBRANCH   6   7
ENDBRANCH   5   6
ENDBRANCH   4   5
ENDBRANCH   3   4
ENDBRANCH   2   3
ENDBRANCH   1   2
BRANCH   1  15
ATOM     15  C   UNL     1      27.341  61.945  81.425  1.00  0.00     0.000 C 
BRANCH  15  16
ATOM     16  C   UNL     1      25.913  62.448  81.150  1.00  0.00     0.000 C 
BRANCH  16  17
ATOM     17  C   UNL     1      25.409  61.925  79.791  1.00  0.00     0.000 C 
BRANCH  17  18
ATOM     18  C   UNL     1      26.345  60.873  79.177  1.00  0.00    -0.000 C 
BRANCH  18  19
ATOM     19  C   UNL     1      27.226  61.472  78.065  1.00  0.00    -0.000 C 
BRANCH  19  20
ATOM     20  C   UNL     1      28.659  60.916  78.083  1.00  0.00    -0.000 C 
BRANCH  20  21
ATOM     21  C   UNL     1      28.818  59.730  79.053  1.00  0.00    -0.000 C 
BRANCH  21  22
ATOM     22  C   UNL     1      29.757  58.641  78.487  1.00  0.00    -0.000 C 
BRANCH  22  23
ATOM     23  C   UNL     1      29.372  58.160  77.074  1.00  0.00    -0.000 C 
BRANCH  23  24
ATOM     24  C   UNL     1      30.390  58.567  75.995  1.00  0.00    -0.000 C 
BRANCH  24  25
ATOM     25  C   UNL     1      29.720  58.922  74.656  1.00  0.00    -0.003 C 
ATOM     26  C   UNL     1      28.233  59.235  74.802  1.00  0.00     0.004 C 
ENDBRANCH  24  25
ENDBRANCH  23  24
ENDBRANCH  22  23
ENDBRANCH  21  22
ENDBRANCH  20  21
ENDBRANCH  19  20
ENDBRANCH  18  19
ENDBRANCH  17  18
ENDBRANCH  16  17
ENDBRANCH  15  16
ENDBRANCH   1  15
TORSDOF 22
ENDMDL
MODEL 7
REMARK VINA RESULT:    -3.234      1.683      2.950
REMARK INTER + INTRA:         -11.146
REMARK INTER:                  -7.879
REMARK INTRA:                  -3.267
REMARK UNBOUND:                -3.753
REMARK SMILES CCCCCCCCCCCCCCCCCCCCCCCC(=O)[O-]
REMARK SMILES IDX 13 1 14 2 15 3 16 4 17 5 18 6 19 7 20 8 21 9 22 10 23 11
REMARK SMILES IDX 24 12 25 13 26 14 12 15 11 16 10 17 9 18 8 19 7 20 6 21 5 22
REMARK SMILES IDX 4 23 3 24 2 25 1 26
REMARK H PARENT
REMARK Flexibility Score: inf
ROOT
ATOM      1  C   UNL     1      26.987  62.159  81.160  1.00  0.00     0.000 C 
ENDROOT
BRANCH   1   2
ATOM      2  C   UNL     1      25.528  61.875  80.770  1.00  0.00     0.000 C 
BRANCH   2   3
ATOM      3  C   UNL     1      24.814  63.106  80.165  1.00  0.00     0.000 C 
BRANCH   3   4
ATOM      4  C   UNL     1      24.475  62.937  78.667  1.00  0.00     0.000 C 
BRANCH   4   5
ATOM      5  C   UNL     1      25.125  61.696  78.027  1.00  0.00     0.000 C 
BRANCH   5   6
ATOM      6  C   UNL     1      26.436  62.035  77.300  1.00  0.00     0.000 C 
BRANCH   6   7
ATOM      7  C   UNL     1      27.271  60.779  76.991  1.00  0.00     0.000 C 
BRANCH   7   8
ATOM      8  C   UNL     1      28.488  60.609  77.926  1.00  0.00     0.000 C 
BRANCH   8   9
ATOM      9  C   UNL     1      28.478  59.263  78.693  1.00  0.00     0.000 C 
BRANCH   9  10
ATOM     10  C   UNL     1      29.876  58.856  79.178  1.00  0.00     0.006 C 
BRANCH  10  11
ATOM     11  C   UNL     1      29.796  58.039  80.476  1.00  0.00     0.053 C 
BRANCH  11  12
ATOM     12  C   UNL     1      30.722  58.599  81.516  1.00  0.00     0.041 C 
ATOM     13  O   UNL     1      30.363  58.647  82.721  1.00  0.00    -0.550 OA
ATOM     14  O   UNL     1      31.980  59.070  81.152  1.00  0.00    -0.550 OA
ENDBRANCH  11  12
ENDBRANCH  10  11
ENDBRANCH   9  10
ENDBRANCH   8   9
ENDBRANCH   7   8
ENDBRANCH   6   7
ENDBRANCH   5   6
ENDBRANCH   4   5
ENDBRANCH   3   4
ENDBRANCH   2   3
ENDBRANCH   1   2
BRANCH   1  15
ATOM     15  C   UNL     1      27.722  60.874  81.591  1.00  0.00     0.000 C 
BRANCH  15  16
ATOM     16  C   UNL     1      27.000  60.134  82.732  1.00  0.00     0.000 C 
BRANCH  16  17
ATOM     17  C   UNL     1      27.015  60.982  84.019  1.00  0.00     0.000 C 
BRANCH  17  18
ATOM     18  C   UNL     1      25.687  60.913  84.788  1.00  0.00    -0.000 C 
BRANCH  18  19
ATOM     19  C   UNL     1      24.789  59.771  84.277  1.00  0.00    -0.000 C 
BRANCH  19  20
ATOM     20  C   UNL     1      24.883  58.510  85.149  1.00  0.00    -0.000 C 
BRANCH  20  21
ATOM     21  C   UNL     1      24.538  58.787  86.624  1.00  0.00    -0.000 C 
BRANCH  21  22
ATOM     22  C   UNL     1      25.715  58.452  87.568  1.00  0.00    -0.000 C 
BRANCH  22  23
ATOM     23  C   UNL     1      27.030  58.129  86.832  1.00  0.00    -0.000 C 
BRANCH  23  24
ATOM     24  C   UNL     1      28.159  59.127  87.140  1.00  0.00    -0.000 C 
BRANCH  24  25
ATOM     25  C   UNL     1      27.700  60.271  88.061  1.00  0.00    -0.003 C 
ATOM     26  C   UNL     1      28.089  61.650  87.533  1.00  0.00     0.004 C 
ENDBRANCH  24  25
ENDBRANCH  23  24
ENDBRANCH  22  23
ENDBRANCH  21  22
ENDBRANCH  20  21
ENDBRANCH  19  20
ENDBRANCH  18  19
ENDBRANCH  17  18
ENDBRANCH  16  17
ENDBRANCH  15  16
ENDBRANCH   1  15
TORSDOF 22
ENDMDL
MODEL 8
REMARK VINA RESULT:    -3.206      1.760      3.521
REMARK INTER + INTRA:         -11.082
REMARK INTER:                  -7.762
REMARK INTRA:                  -3.320
REMARK UNBOUND:                -3.753
REMARK SMILES CCCCCCCCCCCCCCCCCCCCCCCC(=O)[O-]
REMARK SMILES IDX 13 1 14 2 15 3 16 4 17 5 18 6 19 7 20 8 21 9 22 10 23 11
REMARK SMILES IDX 24 12 25 13 26 14 12 15 11 16 10 17 9 18 8 19 7 20 6 21 5 22
REMARK SMILES IDX 4 23 3 24 2 25 1 26
REMARK H PARENT
REMARK Flexibility Score: inf
ROOT
ATOM      1  C   UNL     1      27.285  61.395  77.736  1.00  0.00     0.000 C 
ENDROOT
BRANCH   1   2
ATOM      2  C   UNL     1      28.748  60.983  77.961  1.00  0.00     0.000 C 
BRANCH   2   3
ATOM      3  C   UNL     1      29.215  59.867  76.997  1.00  0.00     0.000 C 
BRANCH   3   4
ATOM      4  C   UNL     1      28.138  59.469  75.961  1.00  0.00     0.000 C 
BRANCH   4   5
ATOM      5  C   UNL     1      27.550  58.066  76.197  1.00  0.00     0.000 C 
BRANCH   5   6
ATOM      6  C   UNL     1      28.150  57.383  77.435  1.00  0.00     0.000 C 
BRANCH   6   7
ATOM      7  C   UNL     1      27.230  57.498  78.665  1.00  0.00     0.000 C 
BRANCH   7   8
ATOM      8  C   UNL     1      28.001  57.674  79.991  1.00  0.00     0.000 C 
BRANCH   8   9
ATOM      9  C   UNL     1      29.538  57.718  79.796  1.00  0.00     0.000 C 
BRANCH   9  10
ATOM     10  C   UNL     1      30.255  58.425  80.954  1.00  0.00     0.006 C 
BRANCH  10  11
ATOM     11  C   UNL     1      30.566  57.445  82.094  1.00  0.00     0.053 C 
BRANCH  11  12
ATOM     12  C   UNL     1      31.967  57.638  82.596  1.00  0.00     0.041 C 
ATOM     13  O   UNL     1      32.846  58.130  81.841  1.00  0.00    -0.550 OA
ATOM     14  O   UNL     1      32.300  57.272  83.896  1.00  0.00    -0.550 OA
ENDBRANCH  11  12
ENDBRANCH  10  11
ENDBRANCH   9  10
ENDBRANCH   8   9
ENDBRANCH   7   8
ENDBRANCH   6   7
ENDBRANCH   5   6
ENDBRANCH   4   5
ENDBRANCH   3   4
ENDBRANCH   2   3
ENDBRANCH   1   2
BRANCH   1  15
ATOM     15  C   UNL     1      26.492  61.424  79.059  1.00  0.00     0.000 C 
BRANCH  15  16
ATOM     16  C   UNL     1      27.366  61.815  80.264  1.00  0.00     0.000 C 
BRANCH  16  17
ATOM     17  C   UNL     1      27.135  60.841  81.436  1.00  0.00     0.000 C 
BRANCH  17  18
ATOM     18  C   UNL     1      27.173  61.542  82.803  1.00  0.00    -0.000 C 
BRANCH  18  19
ATOM     19  C   UNL     1      27.094  60.533  83.964  1.00  0.00    -0.000 C 
BRANCH  19  20
ATOM     20  C   UNL     1      27.719  59.175  83.611  1.00  0.00    -0.000 C 
BRANCH  20  21
ATOM     21  C   UNL     1      27.540  58.135  84.734  1.00  0.00    -0.000 C 
BRANCH  21  22
ATOM     22  C   UNL     1      28.591  58.307  85.855  1.00  0.00    -0.000 C 
BRANCH  22  23
ATOM     23  C   UNL     1      28.009  58.189  87.277  1.00  0.00    -0.000 C 
BRANCH  23  24
ATOM     24  C   UNL     1      27.590  59.543  87.875  1.00  0.00    -0.000 C 
BRANCH  24  25
ATOM     25  C   UNL     1      28.374  60.722  87.274  1.00  0.00    -0.003 C 
ATOM     26  C   UNL     1      27.988  62.066  87.887  1.00  0.00     0.004 C 
ENDBRANCH  24  25
ENDBRANCH  23  24
ENDBRANCH  22  23
ENDBRANCH  21  22
ENDBRANCH  20  21
ENDBRANCH  19  20
ENDBRANCH  18  19
ENDBRANCH  17  18
ENDBRANCH  16  17
ENDBRANCH  15  16
ENDBRANCH   1  15
TORSDOF 22
ENDMDL
MODEL 9
REMARK VINA RESULT:    -3.186      2.531      5.041
REMARK INTER + INTRA:         -11.037
REMARK INTER:                  -6.644
REMARK INTRA:                  -4.393
REMARK UNBOUND:                -3.753
REMARK SMILES CCCCCCCCCCCCCCCCCCCCCCCC(=O)[O-]
REMARK SMILES IDX 13 1 14 2 15 3 16 4 17 5 18 6 19 7 20 8 21 9 22 10 23 11
REMARK SMILES IDX 24 12 25 13 26 14 12 15 11 16 10 17 9 18 8 19 7 20 6 21 5 22
REMARK SMILES IDX 4 23 3 24 2 25 1 26
REMARK H PARENT
REMARK Flexibility Score: inf
ROOT
ATOM      1  C   UNL     1      27.563  58.812  82.379  1.00  0.00     0.000 C 
ENDROOT
BRANCH   1   2
ATOM      2  C   UNL     1      28.382  59.970  82.971  1.00  0.00     0.000 C 
BRANCH   2   3
ATOM      3  C   UNL     1      27.606  61.308  82.994  1.00  0.00     0.000 C 
BRANCH   3   4
ATOM      4  C   UNL     1      26.616  61.415  84.177  1.00  0.00     0.000 C 
BRANCH   4   5
ATOM      5  C   UNL     1      25.139  61.330  83.751  1.00  0.00     0.000 C 
BRANCH   5   6
ATOM      6  C   UNL     1      24.854  62.136  82.474  1.00  0.00     0.000 C 
BRANCH   6   7
ATOM      7  C   UNL     1      24.139  61.292  81.402  1.00  0.00     0.000 C 
BRANCH   7   8
ATOM      8  C   UNL     1      25.102  60.690  80.355  1.00  0.00     0.000 C 
BRANCH   8   9
ATOM      9  C   UNL     1      26.143  61.712  79.833  1.00  0.00     0.000 C 
BRANCH   9  10
ATOM     10  C   UNL     1      26.832  61.238  78.546  1.00  0.00     0.006 C 
BRANCH  10  11
ATOM     11  C   UNL     1      28.306  60.894  78.801  1.00  0.00     0.053 C 
BRANCH  11  12
ATOM     12  C   UNL     1      28.562  59.434  78.567  1.00  0.00     0.041 C 
ATOM     13  O   UNL     1      27.683  58.584  78.868  1.00  0.00    -0.550 OA
ATOM     14  O   UNL     1      29.770  59.014  78.021  1.00  0.00    -0.550 OA
ENDBRANCH  11  12
ENDBRANCH  10  11
ENDBRANCH   9  10
ENDBRANCH   8   9
ENDBRANCH   7   8
ENDBRANCH   6   7
ENDBRANCH   5   6
ENDBRANCH   4   5
ENDBRANCH   3   4
ENDBRANCH   2   3
ENDBRANCH   1   2
BRANCH   1  15
ATOM     15  C   UNL     1      27.178  57.778  83.456  1.00  0.00     0.000 C 
BRANCH  15  16
ATOM     16  C   UNL     1      25.661  57.721  83.706  1.00  0.00     0.000 C 
BRANCH  16  17
ATOM     17  C   UNL     1      25.350  57.947  85.198  1.00  0.00     0.000 C 
BRANCH  17  18
ATOM     18  C   UNL     1      26.583  57.755  86.095  1.00  0.00    -0.000 C 
BRANCH  18  19
ATOM     19  C   UNL     1      26.907  59.026  86.901  1.00  0.00    -0.000 C 
BRANCH  19  20
ATOM     20  C   UNL     1      28.401  59.384  86.865  1.00  0.00    -0.000 C 
BRANCH  20  21
ATOM     21  C   UNL     1      29.296  58.152  86.633  1.00  0.00    -0.000 C 
BRANCH  21  22
ATOM     22  C   UNL     1      30.312  58.381  85.491  1.00  0.00    -0.000 C 
BRANCH  22  23
ATOM     23  C   UNL     1      31.493  57.391  85.501  1.00  0.00    -0.000 C 
BRANCH  23  24
ATOM     24  C   UNL     1      32.088  57.141  84.104  1.00  0.00    -0.000 C 
BRANCH  24  25
ATOM     25  C   UNL     1      31.039  57.263  82.986  1.00  0.00    -0.003 C 
ATOM     26  C   UNL     1      31.497  58.159  81.837  1.00  0.00     0.004 C 
ENDBRANCH  24  25
ENDBRANCH  23  24
ENDBRANCH  22  23
ENDBRANCH  21  22
ENDBRANCH  20  21
ENDBRANCH  19  20
ENDBRANCH  18  19
ENDBRANCH  17  18
ENDBRANCH  16  17
ENDBRANCH  15  16
ENDBRANCH   1  15
TORSDOF 22
ENDMDL
