MODEL 1
REMARK VINA RESULT:    -2.877      0.000      0.000
REMARK INTER + INTRA:          -3.278
REMARK INTER:                  -3.213
REMARK INTRA:                  -0.064
REMARK UNBOUND:                -0.064
REMARK SMILES CCCC(=O)[O-]
REMARK SMILES IDX 3 1 4 2 5 3 6 4 2 5 1 6
REMARK H PARENT
REMARK Flexibility Score: inf
ROOT
ATOM      1  C   UNL     1     -35.079 -55.635  29.509  1.00  0.00     0.052 C 
ENDROOT
BRANCH   1   2
ATOM      2  C   UNL     1     -36.217 -54.796  29.014  1.00  0.00     0.041 C 
ATOM      3  O   UNL     1     -37.275 -54.702  29.689  1.00  0.00    -0.550 OA
ATOM      4  O   UNL     1     -36.095 -54.090  27.823  1.00  0.00    -0.550 OA
ENDBRANCH   1   2
BRANCH   1   5
ATOM      5  C   UNL     1     -33.775 -54.831  29.599  1.00  0.00     0.003 C 
ATOM      6  C   UNL     1     -33.765 -53.872  30.788  1.00  0.00     0.004 C 
ENDBRANCH   1   5
TORSDOF 2
ENDMDL
MODEL 2
REMARK VINA RESULT:    -2.814      2.231      2.756
REMARK INTER + INTRA:          -3.207
REMARK INTER:                  -3.138
REMARK INTRA:                  -0.070
REMARK UNBOUND:                -0.064
REMARK SMILES CCCC(=O)[O-]
REMARK SMILES IDX 3 1 4 2 5 3 6 4 2 5 1 6
REMARK H PARENT
REMARK Flexibility Score: inf
ROOT
ATOM      1  C   UNL     1     -36.207 -54.293  28.956  1.00  0.00     0.052 C 
ENDROOT
BRANCH   1   2
ATOM      2  C   UNL     1     -35.142 -55.309  29.236  1.00  0.00     0.041 C 
ATOM      3  O   UNL     1     -35.137 -56.407  28.621  1.00  0.00    -0.550 OA
ATOM      4  O   UNL     1     -34.136 -55.027  30.152  1.00  0.00    -0.550 OA
ENDBRANCH   1   2
BRANCH   1   5
ATOM      5  C   UNL     1     -35.612 -52.919  28.623  1.00  0.00     0.003 C 
ATOM      6  C   UNL     1     -34.808 -52.934  27.324  1.00  0.00     0.004 C 
ENDBRANCH   1   5
TORSDOF 2
ENDMDL
MODEL 3
REMARK VINA RESULT:    -2.796      1.952      2.260
REMARK INTER + INTRA:          -3.188
REMARK INTER:                  -3.116
REMARK INTRA:                  -0.072
REMARK UNBOUND:                -0.064
REMARK SMILES CCCC(=O)[O-]
REMARK SMILES IDX 3 1 4 2 5 3 6 4 2 5 1 6
REMARK H PARENT
REMARK Flexibility Score: inf
ROOT
ATOM      1  C   UNL     1     -34.869 -53.837  29.759  1.00  0.00     0.052 C 
ENDROOT
BRANCH   1   2
ATOM      2  C   UNL     1     -35.803 -54.948  29.391  1.00  0.00     0.041 C 
ATOM      3  O   UNL     1     -37.048 -54.793  29.501  1.00  0.00    -0.550 OA
ATOM      4  O   UNL     1     -35.300 -56.144  28.893  1.00  0.00    -0.550 OA
ENDBRANCH   1   2
BRANCH   1   5
ATOM      5  C   UNL     1     -35.083 -52.598  28.879  1.00  0.00     0.003 C 
ATOM      6  C   UNL     1     -34.860 -52.892  27.396  1.00  0.00     0.004 C 
ENDBRANCH   1   5
TORSDOF 2
ENDMDL
MODEL 4
REMARK VINA RESULT:    -2.716      1.683      2.367
REMARK INTER + INTRA:          -3.097
REMARK INTER:                  -3.064
REMARK INTRA:                  -0.034
REMARK UNBOUND:                -0.064
REMARK SMILES CCCC(=O)[O-]
REMARK SMILES IDX 3 1 4 2 5 3 6 4 2 5 1 6
REMARK H PARENT
REMARK Flexibility Score: inf
ROOT
ATOM      1  C   UNL     1     -36.355 -54.608  28.399  1.00  0.00     0.052 C 
ENDROOT
BRANCH   1   2
ATOM      2  C   UNL     1     -35.542 -53.407  28.024  1.00  0.00     0.041 C 
ATOM      3  O   UNL     1     -34.790 -53.441  27.015  1.00  0.00    -0.550 OA
ATOM      4  O   UNL     1     -35.642 -52.239  28.770  1.00  0.00    -0.550 OA
ENDBRANCH   1   2
BRANCH   1   5
ATOM      5  C   UNL     1     -35.487 -55.717  29.006  1.00  0.00     0.003 C 
ATOM      6  C   UNL     1     -34.539 -55.189  30.082  1.00  0.00     0.004 C 
ENDBRANCH   1   5
TORSDOF 2
ENDMDL
MODEL 5
REMARK VINA RESULT:    -2.639      2.350      3.077
REMARK INTER + INTRA:          -3.012
REMARK INTER:                  -2.940
REMARK INTRA:                  -0.071
REMARK UNBOUND:                -0.064
REMARK SMILES CCCC(=O)[O-]
REMARK SMILES IDX 3 1 4 2 5 3 6 4 2 5 1 6
REMARK H PARENT
REMARK Flexibility Score: inf
ROOT
ATOM      1  C   UNL     1     -35.634 -53.251  28.906  1.00  0.00     0.052 C 
ENDROOT
BRANCH   1   2
ATOM      2  C   UNL     1     -34.510 -53.201  27.918  1.00  0.00     0.041 C 
ATOM      3  O   UNL     1     -34.751 -53.222  26.682  1.00  0.00    -0.550 OA
ATOM      4  O   UNL     1     -33.197 -53.097  28.361  1.00  0.00    -0.550 OA
ENDBRANCH   1   2
BRANCH   1   5
ATOM      5  C   UNL     1     -36.367 -54.599  28.868  1.00  0.00     0.003 C 
ATOM      6  C   UNL     1     -35.428 -55.778  29.117  1.00  0.00     0.004 C 
ENDBRANCH   1   5
TORSDOF 2
ENDMDL
MODEL 6
REMARK VINA RESULT:    -2.611      9.788     10.211
REMARK INTER + INTRA:          -2.980
REMARK INTER:                  -2.945
REMARK INTRA:                  -0.035
REMARK UNBOUND:                -0.064
REMARK SMILES CCCC(=O)[O-]
REMARK SMILES IDX 3 1 4 2 5 3 6 4 2 5 1 6
REMARK H PARENT
REMARK Flexibility Score: inf
ROOT
ATOM      1  C   UNL     1     -35.301 -43.875  29.611  1.00  0.00     0.052 C 
ENDROOT
BRANCH   1   2
ATOM      2  C   UNL     1     -36.288 -44.760  28.914  1.00  0.00     0.041 C 
ATOM      3  O   UNL     1     -36.283 -44.850  27.658  1.00  0.00    -0.550 OA
ATOM      4  O   UNL     1     -37.192 -45.513  29.654  1.00  0.00    -0.550 OA
ENDBRANCH   1   2
BRANCH   1   5
ATOM      5  C   UNL     1     -35.371 -44.033  31.136  1.00  0.00     0.003 C 
ATOM      6  C   UNL     1     -34.132 -44.722  31.706  1.00  0.00     0.004 C 
ENDBRANCH   1   5
TORSDOF 2
ENDMDL
MODEL 7
REMARK VINA RESULT:    -2.604      2.190      3.154
REMARK INTER + INTRA:          -2.973
REMARK INTER:                  -2.902
REMARK INTRA:                  -0.070
REMARK UNBOUND:                -0.064
REMARK SMILES CCCC(=O)[O-]
REMARK SMILES IDX 3 1 4 2 5 3 6 4 2 5 1 6
REMARK H PARENT
REMARK Flexibility Score: inf
ROOT
ATOM      1  C   UNL     1     -33.931 -54.745  29.121  1.00  0.00     0.052 C 
ENDROOT
BRANCH   1   2
ATOM      2  C   UNL     1     -33.820 -53.608  30.091  1.00  0.00     0.041 C 
ATOM      3  O   UNL     1     -33.870 -52.419  29.680  1.00  0.00    -0.550 OA
ATOM      4  O   UNL     1     -33.695 -53.863  31.451  1.00  0.00    -0.550 OA
ENDBRANCH   1   2
BRANCH   1   5
ATOM      5  C   UNL     1     -35.173 -55.605  29.392  1.00  0.00     0.003 C 
ATOM      6  C   UNL     1     -36.472 -54.823  29.209  1.00  0.00     0.004 C 
ENDBRANCH   1   5
TORSDOF 2
ENDMDL
MODEL 8
REMARK VINA RESULT:    -2.580     10.196     10.760
REMARK INTER + INTRA:          -2.946
REMARK INTER:                  -2.907
REMARK INTRA:                  -0.039
REMARK UNBOUND:                -0.064
REMARK SMILES CCCC(=O)[O-]
REMARK SMILES IDX 3 1 4 2 5 3 6 4 2 5 1 6
REMARK H PARENT
REMARK Flexibility Score: inf
ROOT
ATOM      1  C   UNL     1     -36.335 -44.777  28.667  1.00  0.00     0.052 C 
ENDROOT
BRANCH   1   2
ATOM      2  C   UNL     1     -35.491 -43.775  29.394  1.00  0.00     0.041 C 
ATOM      3  O   UNL     1     -34.919 -42.850  28.759  1.00  0.00    -0.550 OA
ATOM      4  O   UNL     1     -35.365 -43.843  30.775  1.00  0.00    -0.550 OA
ENDBRANCH   1   2
BRANCH   1   5
ATOM      5  C   UNL     1     -36.004 -44.822  27.169  1.00  0.00     0.003 C 
ATOM      6  C   UNL     1     -35.026 -45.944  26.824  1.00  0.00     0.004 C 
ENDBRANCH   1   5
TORSDOF 2
ENDMDL
MODEL 9
REMARK VINA RESULT:    -2.513      8.915      9.537
REMARK INTER + INTRA:          -2.871
REMARK INTER:                  -2.837
REMARK INTRA:                  -0.034
REMARK UNBOUND:                -0.064
REMARK SMILES CCCC(=O)[O-]
REMARK SMILES IDX 3 1 4 2 5 3 6 4 2 5 1 6
REMARK H PARENT
REMARK Flexibility Score: inf
ROOT
ATOM      1  C   UNL     1     -29.610 -53.997  22.639  1.00  0.00     0.052 C 
ENDROOT
BRANCH   1   2
ATOM      2  C   UNL     1     -28.222 -54.210  23.162  1.00  0.00     0.041 C 
ATOM      3  O   UNL     1     -27.466 -53.225  23.371  1.00  0.00    -0.550 OA
ATOM      4  O   UNL     1     -27.777 -55.494  23.452  1.00  0.00    -0.550 OA
ENDBRANCH   1   2
BRANCH   1   5
ATOM      5  C   UNL     1     -29.913 -52.509  22.417  1.00  0.00     0.003 C 
ATOM      6  C   UNL     1     -31.056 -52.011  23.299  1.00  0.00     0.004 C 
ENDBRANCH   1   5
TORSDOF 2
ENDMDL
