MODEL 1
REMARK VINA RESULT:    -3.967      0.000      0.000
REMARK INTER + INTRA:          -5.895
REMARK INTER:                  -5.590
REMARK INTRA:                  -0.305
REMARK UNBOUND:                -0.305
REMARK SMILES CCCCCCCCC(=O)[O-]
REMARK SMILES IDX 6 1 7 2 8 3 9 4 10 5 11 6 5 7 4 8 3 9 2 10 1 11
REMARK H PARENT
REMARK Flexibility Score: inf
ROOT
ATOM      1  C   UNL     1      13.761  33.758  56.522  1.00  0.00     0.000 C 
ENDROOT
BRANCH   1   2
ATOM      2  C   UNL     1      12.805  34.957  56.608  1.00  0.00     0.006 C 
BRANCH   2   3
ATOM      3  C   UNL     1      13.493  36.225  57.131  1.00  0.00     0.053 C 
BRANCH   3   4
ATOM      4  C   UNL     1      12.618  36.921  58.125  1.00  0.00     0.041 C 
ATOM      5  O   UNL     1      11.474  36.466  58.391  1.00  0.00    -0.550 OA
ATOM      6  O   UNL     1      13.085  38.045  58.794  1.00  0.00    -0.550 OA
ENDBRANCH   3   4
ENDBRANCH   2   3
ENDBRANCH   1   2
BRANCH   1   7
ATOM      7  C   UNL     1      15.080  33.996  57.274  1.00  0.00     0.000 C 
BRANCH   7   8
ATOM      8  C   UNL     1      15.913  32.708  57.341  1.00  0.00    -0.000 C 
BRANCH   8   9
ATOM      9  C   UNL     1      15.327  31.568  56.488  1.00  0.00    -0.000 C 
BRANCH   9  10
ATOM     10  C   UNL     1      16.373  30.667  55.807  1.00  0.00    -0.003 C 
ATOM     11  C   UNL     1      15.963  29.195  55.773  1.00  0.00     0.004 C 
ENDBRANCH   9  10
ENDBRANCH   8   9
ENDBRANCH   7   8
ENDBRANCH   1   7
TORSDOF 7
ENDMDL
MODEL 2
REMARK VINA RESULT:    -3.888      3.487      5.539
REMARK INTER + INTRA:          -5.784
REMARK INTER:                  -5.474
REMARK INTRA:                  -0.310
REMARK UNBOUND:                -0.305
REMARK SMILES CCCCCCCCC(=O)[O-]
REMARK SMILES IDX 6 1 7 2 8 3 9 4 10 5 11 6 5 7 4 8 3 9 2 10 1 11
REMARK H PARENT
REMARK Flexibility Score: inf
ROOT
ATOM      1  C   UNL     1      16.254  30.002  54.834  1.00  0.00     0.000 C 
ENDROOT
BRANCH   1   2
ATOM      2  C   UNL     1      15.762  30.127  56.285  1.00  0.00     0.006 C 
BRANCH   2   3
ATOM      3  C   UNL     1      16.501  31.221  57.066  1.00  0.00     0.053 C 
BRANCH   3   4
ATOM      4  C   UNL     1      15.621  32.418  57.247  1.00  0.00     0.041 C 
ATOM      5  O   UNL     1      14.379  32.325  57.063  1.00  0.00    -0.550 OA
ATOM      6  O   UNL     1      16.167  33.624  57.668  1.00  0.00    -0.550 OA
ENDBRANCH   3   4
ENDBRANCH   2   3
ENDBRANCH   1   2
BRANCH   1   7
ATOM      7  C   UNL     1      16.811  28.606  54.516  1.00  0.00     0.000 C 
BRANCH   7   8
ATOM      8  C   UNL     1      16.073  27.525  55.320  1.00  0.00    -0.000 C 
BRANCH   8   9
ATOM      9  C   UNL     1      15.512  26.397  54.436  1.00  0.00    -0.000 C 
BRANCH   9  10
ATOM     10  C   UNL     1      16.578  25.490  53.794  1.00  0.00    -0.003 C 
ATOM     11  C   UNL     1      16.334  25.242  52.306  1.00  0.00     0.004 C 
ENDBRANCH   9  10
ENDBRANCH   8   9
ENDBRANCH   7   8
ENDBRANCH   1   7
TORSDOF 7
ENDMDL
MODEL 3
REMARK VINA RESULT:    -3.845      5.915      8.485
REMARK INTER + INTRA:          -5.723
REMARK INTER:                  -5.472
REMARK INTRA:                  -0.251
REMARK UNBOUND:                -0.305
REMARK SMILES CCCCCCCCC(=O)[O-]
REMARK SMILES IDX 6 1 7 2 8 3 9 4 10 5 11 6 5 7 4 8 3 9 2 10 1 11
REMARK H PARENT
REMARK Flexibility Score: inf
ROOT
ATOM      1  C   UNL     1      16.051  28.898  55.399  1.00  0.00     0.000 C 
ENDROOT
BRANCH   1   2
ATOM      2  C   UNL     1      15.881  27.914  54.231  1.00  0.00     0.006 C 
BRANCH   2   3
ATOM      3  C   UNL     1      15.943  26.449  54.680  1.00  0.00     0.053 C 
BRANCH   3   4
ATOM      4  C   UNL     1      15.472  25.546  53.583  1.00  0.00     0.041 C 
ATOM      5  O   UNL     1      15.662  24.304  53.659  1.00  0.00    -0.550 OA
ATOM      6  O   UNL     1      14.779  26.072  52.500  1.00  0.00    -0.550 OA
ENDBRANCH   3   4
ENDBRANCH   2   3
ENDBRANCH   1   2
BRANCH   1   7
ATOM      7  C   UNL     1      16.590  30.265  54.948  1.00  0.00     0.000 C 
BRANCH   7   8
ATOM      8  C   UNL     1      17.340  30.963  56.093  1.00  0.00    -0.000 C 
BRANCH   8   9
ATOM      9  C   UNL     1      16.436  31.284  57.296  1.00  0.00    -0.000 C 
BRANCH   9  10
ATOM     10  C   UNL     1      15.219  32.169  56.971  1.00  0.00    -0.003 C 
ATOM     11  C   UNL     1      15.425  33.634  57.357  1.00  0.00     0.004 C 
ENDBRANCH   9  10
ENDBRANCH   8   9
ENDBRANCH   7   8
ENDBRANCH   1   7
TORSDOF 7
ENDMDL
MODEL 4
REMARK VINA RESULT:    -3.816      7.489     10.308
REMARK INTER + INTRA:          -5.683
REMARK INTER:                  -5.177
REMARK INTRA:                  -0.506
REMARK UNBOUND:                -0.305
REMARK SMILES CCCCCCCCC(=O)[O-]
REMARK SMILES IDX 6 1 7 2 8 3 9 4 10 5 11 6 5 7 4 8 3 9 2 10 1 11
REMARK H PARENT
REMARK Flexibility Score: inf
ROOT
ATOM      1  C   UNL     1      15.545  24.086  52.126  1.00  0.00     0.000 C 
ENDROOT
BRANCH   1   2
ATOM      2  C   UNL     1      14.058  23.926  51.773  1.00  0.00     0.006 C 
BRANCH   2   3
ATOM      3  C   UNL     1      13.319  25.269  51.707  1.00  0.00     0.053 C 
BRANCH   3   4
ATOM      4  C   UNL     1      13.981  26.180  50.721  1.00  0.00     0.041 C 
ATOM      5  O   UNL     1      13.932  25.924  49.489  1.00  0.00    -0.550 OA
ATOM      6  O   UNL     1      14.609  27.339  51.159  1.00  0.00    -0.550 OA
ENDBRANCH   3   4
ENDBRANCH   2   3
ENDBRANCH   1   2
BRANCH   1   7
ATOM      7  C   UNL     1      15.760  24.694  53.521  1.00  0.00     0.000 C 
BRANCH   7   8
ATOM      8  C   UNL     1      17.094  25.453  53.587  1.00  0.00    -0.000 C 
BRANCH   8   9
ATOM      9  C   UNL     1      16.918  26.948  53.911  1.00  0.00    -0.000 C 
BRANCH   9  10
ATOM     10  C   UNL     1      15.800  27.262  54.921  1.00  0.00    -0.003 C 
ATOM     11  C   UNL     1      15.817  28.713  55.400  1.00  0.00     0.004 C 
ENDBRANCH   9  10
ENDBRANCH   8   9
ENDBRANCH   7   8
ENDBRANCH   1   7
TORSDOF 7
ENDMDL
MODEL 5
REMARK VINA RESULT:    -3.784      3.455      6.232
REMARK INTER + INTRA:          -5.637
REMARK INTER:                  -5.388
REMARK INTRA:                  -0.249
REMARK UNBOUND:                -0.305
REMARK SMILES CCCCCCCCC(=O)[O-]
REMARK SMILES IDX 6 1 7 2 8 3 9 4 10 5 11 6 5 7 4 8 3 9 2 10 1 11
REMARK H PARENT
REMARK Flexibility Score: inf
ROOT
ATOM      1  C   UNL     1      13.469  33.908  55.939  1.00  0.00     0.000 C 
ENDROOT
BRANCH   1   2
ATOM      2  C   UNL     1      13.826  32.797  56.938  1.00  0.00     0.006 C 
BRANCH   2   3
ATOM      3  C   UNL     1      15.325  32.751  57.259  1.00  0.00     0.053 C 
BRANCH   3   4
ATOM      4  C   UNL     1      15.956  31.547  56.633  1.00  0.00     0.041 C 
ATOM      5  O   UNL     1      15.891  31.373  55.387  1.00  0.00    -0.550 OA
ATOM      6  O   UNL     1      16.660  30.644  57.419  1.00  0.00    -0.550 OA
ENDBRANCH   3   4
ENDBRANCH   2   3
ENDBRANCH   1   2
BRANCH   1   7
ATOM      7  C   UNL     1      12.761  35.099  56.605  1.00  0.00     0.000 C 
BRANCH   7   8
ATOM      8  C   UNL     1      13.771  36.002  57.328  1.00  0.00    -0.000 C 
BRANCH   8   9
ATOM      9  C   UNL     1      13.451  37.500  57.180  1.00  0.00    -0.000 C 
BRANCH   9  10
ATOM     10  C   UNL     1      13.038  38.204  58.485  1.00  0.00    -0.003 C 
ATOM     11  C   UNL     1      11.655  37.784  58.981  1.00  0.00     0.004 C 
ENDBRANCH   9  10
ENDBRANCH   8   9
ENDBRANCH   7   8
ENDBRANCH   1   7
TORSDOF 7
ENDMDL
MODEL 6
REMARK VINA RESULT:    -3.762      6.877      9.872
REMARK INTER + INTRA:          -5.606
REMARK INTER:                  -5.463
REMARK INTRA:                  -0.143
REMARK UNBOUND:                -0.305
REMARK SMILES CCCCCCCCC(=O)[O-]
REMARK SMILES IDX 6 1 7 2 8 3 9 4 10 5 11 6 5 7 4 8 3 9 2 10 1 11
REMARK H PARENT
REMARK Flexibility Score: inf
ROOT
ATOM      1  C   UNL     1      15.632  26.545  54.409  1.00  0.00     0.000 C 
ENDROOT
BRANCH   1   2
ATOM      2  C   UNL     1      16.369  25.438  53.640  1.00  0.00     0.006 C 
BRANCH   2   3
ATOM      3  C   UNL     1      15.472  24.230  53.340  1.00  0.00     0.053 C 
BRANCH   3   4
ATOM      4  C   UNL     1      14.907  24.330  51.957  1.00  0.00     0.041 C 
ATOM      5  O   UNL     1      13.780  24.860  51.770  1.00  0.00    -0.550 OA
ATOM      6  O   UNL     1      15.647  23.882  50.871  1.00  0.00    -0.550 OA
ENDBRANCH   3   4
ENDBRANCH   2   3
ENDBRANCH   1   2
BRANCH   1   7
ATOM      7  C   UNL     1      16.533  27.749  54.723  1.00  0.00     0.000 C 
BRANCH   7   8
ATOM      8  C   UNL     1      15.751  28.840  55.470  1.00  0.00    -0.000 C 
BRANCH   8   9
ATOM      9  C   UNL     1      16.551  30.144  55.638  1.00  0.00    -0.000 C 
BRANCH   9  10
ATOM     10  C   UNL     1      16.509  30.750  57.052  1.00  0.00    -0.003 C 
ATOM     11  C   UNL     1      15.798  32.101  57.104  1.00  0.00     0.004 C 
ENDBRANCH   9  10
ENDBRANCH   8   9
ENDBRANCH   7   8
ENDBRANCH   1   7
TORSDOF 7
ENDMDL
MODEL 7
REMARK VINA RESULT:    -3.736      5.139      7.241
REMARK INTER + INTRA:          -5.570
REMARK INTER:                  -4.925
REMARK INTRA:                  -0.644
REMARK UNBOUND:                -0.305
REMARK SMILES CCCCCCCCC(=O)[O-]
REMARK SMILES IDX 6 1 7 2 8 3 9 4 10 5 11 6 5 7 4 8 3 9 2 10 1 11
REMARK H PARENT
REMARK Flexibility Score: inf
ROOT
ATOM      1  C   UNL     1      16.106  27.241  55.161  1.00  0.00     0.000 C 
ENDROOT
BRANCH   1   2
ATOM      2  C   UNL     1      15.762  28.698  54.816  1.00  0.00     0.006 C 
BRANCH   2   3
ATOM      3  C   UNL     1      16.878  29.676  55.204  1.00  0.00     0.053 C 
BRANCH   3   4
ATOM      4  C   UNL     1      16.427  30.566  56.320  1.00  0.00     0.041 C 
ATOM      5  O   UNL     1      15.227  30.548  56.700  1.00  0.00    -0.550 OA
ATOM      6  O   UNL     1      17.344  31.380  56.973  1.00  0.00    -0.550 OA
ENDBRANCH   3   4
ENDBRANCH   2   3
ENDBRANCH   1   2
BRANCH   1   7
ATOM      7  C   UNL     1      15.403  26.232  54.240  1.00  0.00     0.000 C 
BRANCH   7   8
ATOM      8  C   UNL     1      16.407  25.569  53.285  1.00  0.00    -0.000 C 
BRANCH   8   9
ATOM      9  C   UNL     1      17.854  25.619  53.807  1.00  0.00    -0.000 C 
BRANCH   9  10
ATOM     10  C   UNL     1      18.881  26.186  52.810  1.00  0.00    -0.003 C 
ATOM     11  C   UNL     1      18.740  27.693  52.597  1.00  0.00     0.004 C 
ENDBRANCH   9  10
ENDBRANCH   8   9
ENDBRANCH   7   8
ENDBRANCH   1   7
TORSDOF 7
ENDMDL
MODEL 8
REMARK VINA RESULT:    -3.720      8.476     10.055
REMARK INTER + INTRA:          -5.547
REMARK INTER:                  -4.704
REMARK INTRA:                  -0.843
REMARK UNBOUND:                -0.305
REMARK SMILES CCCCCCCCC(=O)[O-]
REMARK SMILES IDX 6 1 7 2 8 3 9 4 10 5 11 6 5 7 4 8 3 9 2 10 1 11
REMARK H PARENT
REMARK Flexibility Score: inf
ROOT
ATOM      1  C   UNL     1      13.903  24.825  51.767  1.00  0.00     0.000 C 
ENDROOT
BRANCH   1   2
ATOM      2  C   UNL     1      14.175  25.877  50.681  1.00  0.00     0.006 C 
BRANCH   2   3
ATOM      3  C   UNL     1      14.469  27.265  51.264  1.00  0.00     0.053 C 
BRANCH   3   4
ATOM      4  C   UNL     1      15.648  27.880  50.578  1.00  0.00     0.041 C 
ATOM      5  O   UNL     1      15.608  29.081  50.203  1.00  0.00    -0.550 OA
ATOM      6  O   UNL     1      16.810  27.140  50.396  1.00  0.00    -0.550 OA
ENDBRANCH   3   4
ENDBRANCH   2   3
ENDBRANCH   1   2
BRANCH   1   7
ATOM      7  C   UNL     1      15.157  24.017  52.137  1.00  0.00     0.000 C 
BRANCH   7   8
ATOM      8  C   UNL     1      15.689  24.431  53.516  1.00  0.00    -0.000 C 
BRANCH   8   9
ATOM      9  C   UNL     1      16.911  25.364  53.433  1.00  0.00    -0.000 C 
BRANCH   9  10
ATOM     10  C   UNL     1      16.769  26.686  54.208  1.00  0.00    -0.003 C 
ATOM     11  C   UNL     1      15.403  26.844  54.876  1.00  0.00     0.004 C 
ENDBRANCH   9  10
ENDBRANCH   8   9
ENDBRANCH   7   8
ENDBRANCH   1   7
TORSDOF 7
ENDMDL
MODEL 9
REMARK VINA RESULT:    -3.648      6.985      8.391
REMARK INTER + INTRA:          -5.445
REMARK INTER:                  -4.816
REMARK INTRA:                  -0.629
REMARK UNBOUND:                -0.305
REMARK SMILES CCCCCCCCC(=O)[O-]
REMARK SMILES IDX 6 1 7 2 8 3 9 4 10 5 11 6 5 7 4 8 3 9 2 10 1 11
REMARK H PARENT
REMARK Flexibility Score: inf
ROOT
ATOM      1  C   UNL     1      14.605  27.393  51.255  1.00  0.00     0.000 C 
ENDROOT
BRANCH   1   2
ATOM      2  C   UNL     1      15.528  28.568  50.895  1.00  0.00     0.006 C 
BRANCH   2   3
ATOM      3  C   UNL     1      14.976  29.918  51.370  1.00  0.00     0.053 C 
BRANCH   3   4
ATOM      4  C   UNL     1      14.945  30.897  50.237  1.00  0.00     0.041 C 
ATOM      5  O   UNL     1      14.551  30.534  49.097  1.00  0.00    -0.550 OA
ATOM      6  O   UNL     1      15.303  32.221  50.454  1.00  0.00    -0.550 OA
ENDBRANCH   3   4
ENDBRANCH   2   3
ENDBRANCH   1   2
BRANCH   1   7
ATOM      7  C   UNL     1      15.379  26.166  51.761  1.00  0.00     0.000 C 
BRANCH   7   8
ATOM      8  C   UNL     1      16.627  26.592  52.549  1.00  0.00    -0.000 C 
BRANCH   8   9
ATOM      9  C   UNL     1      16.569  26.186  54.032  1.00  0.00    -0.000 C 
BRANCH   9  10
ATOM     10  C   UNL     1      15.499  26.919  54.861  1.00  0.00    -0.003 C 
ATOM     11  C   UNL     1      15.829  28.393  55.095  1.00  0.00     0.004 C 
ENDBRANCH   9  10
ENDBRANCH   8   9
ENDBRANCH   7   8
ENDBRANCH   1   7
TORSDOF 7
ENDMDL
