MODEL 1
REMARK VINA RESULT:    -5.221      0.000      0.000
REMARK INTER + INTRA:          -9.000
REMARK INTER:                  -7.968
REMARK INTRA:                  -1.032
REMARK UNBOUND:                -1.032
REMARK SMILES CCCCCCCCCCC(=O)[O-]
REMARK SMILES IDX 7 1 8 2 9 3 10 4 11 5 12 6 13 7 6 8 5 9 4 10 3 11 2 12 1 13
REMARK H PARENT
REMARK Flexibility Score: inf
ROOT
ATOM      1  C   UNL     1     -18.174 -11.406  -0.141  1.00  0.00     0.000 C 
ENDROOT
BRANCH   1   2
ATOM      2  C   UNL     1     -18.507 -10.524  -1.352  1.00  0.00     0.000 C 
BRANCH   2   3
ATOM      3  C   UNL     1     -17.325 -10.364  -2.326  1.00  0.00     0.006 C 
BRANCH   3   4
ATOM      4  C   UNL     1     -17.038  -8.907  -2.728  1.00  0.00     0.053 C 
BRANCH   4   5
ATOM      5  C   UNL     1     -16.295  -8.798  -4.024  1.00  0.00     0.041 C 
ATOM      6  O   UNL     1     -16.709  -8.031  -4.933  1.00  0.00    -0.550 OA
ATOM      7  O   UNL     1     -15.126  -9.523  -4.218  1.00  0.00    -0.550 OA
ENDBRANCH   4   5
ENDBRANCH   3   4
ENDBRANCH   2   3
ENDBRANCH   1   2
BRANCH   1   8
ATOM      8  C   UNL     1     -16.771 -12.015  -0.274  1.00  0.00     0.000 C 
BRANCH   8   9
ATOM      9  C   UNL     1     -16.775 -13.496   0.136  1.00  0.00    -0.000 C 
BRANCH   9  10
ATOM     10  C   UNL     1     -16.070 -14.397  -0.891  1.00  0.00    -0.000 C 
BRANCH  10  11
ATOM     11  C   UNL     1     -16.393 -14.003  -2.343  1.00  0.00    -0.000 C 
BRANCH  11  12
ATOM     12  C   UNL     1     -17.602 -14.767  -2.905  1.00  0.00    -0.003 C 
ATOM     13  C   UNL     1     -18.887 -13.940  -2.885  1.00  0.00     0.004 C 
ENDBRANCH  11  12
ENDBRANCH  10  11
ENDBRANCH   9  10
ENDBRANCH   8   9
ENDBRANCH   1   8
TORSDOF 9
ENDMDL
MODEL 2
REMARK VINA RESULT:    -5.202      2.141      3.802
REMARK INTER + INTRA:          -8.971
REMARK INTER:                  -7.859
REMARK INTRA:                  -1.111
REMARK UNBOUND:                -1.032
REMARK SMILES CCCCCCCCCCC(=O)[O-]
REMARK SMILES IDX 7 1 8 2 9 3 10 4 11 5 12 6 13 7 6 8 5 9 4 10 3 11 2 12 1 13
REMARK H PARENT
REMARK Flexibility Score: inf
ROOT
ATOM      1  C   UNL     1     -15.520  -8.972   0.558  1.00  0.00     0.000 C 
ENDROOT
BRANCH   1   2
ATOM      2  C   UNL     1     -15.018  -9.172  -0.879  1.00  0.00     0.000 C 
BRANCH   2   3
ATOM      3  C   UNL     1     -15.363  -7.993  -1.809  1.00  0.00     0.006 C 
BRANCH   3   4
ATOM      4  C   UNL     1     -16.528  -8.278  -2.773  1.00  0.00     0.053 C 
BRANCH   4   5
ATOM      5  C   UNL     1     -16.066  -8.569  -4.168  1.00  0.00     0.041 C 
ATOM      6  O   UNL     1     -16.583  -7.969  -5.148  1.00  0.00    -0.550 OA
ATOM      7  O   UNL     1     -15.042  -9.481  -4.386  1.00  0.00    -0.550 OA
ENDBRANCH   4   5
ENDBRANCH   3   4
ENDBRANCH   2   3
ENDBRANCH   1   2
BRANCH   1   8
ATOM      8  C   UNL     1     -16.339  -7.680   0.679  1.00  0.00     0.000 C 
BRANCH   8   9
ATOM      9  C   UNL     1     -17.747  -7.971   1.221  1.00  0.00    -0.000 C 
BRANCH   9  10
ATOM     10  C   UNL     1     -18.263  -9.360   0.814  1.00  0.00    -0.000 C 
BRANCH  10  11
ATOM     11  C   UNL     1     -19.000  -9.344  -0.537  1.00  0.00    -0.000 C 
BRANCH  11  12
ATOM     12  C   UNL     1     -18.781 -10.634  -1.343  1.00  0.00    -0.003 C 
ATOM     13  C   UNL     1     -17.921 -11.658  -0.602  1.00  0.00     0.004 C 
ENDBRANCH  11  12
ENDBRANCH  10  11
ENDBRANCH   9  10
ENDBRANCH   8   9
ENDBRANCH   1   8
TORSDOF 9
ENDMDL
MODEL 3
REMARK VINA RESULT:    -5.190      3.077      5.430
REMARK INTER + INTRA:          -8.952
REMARK INTER:                  -8.216
REMARK INTRA:                  -0.736
REMARK UNBOUND:                -1.032
REMARK SMILES CCCCCCCCCCC(=O)[O-]
REMARK SMILES IDX 7 1 8 2 9 3 10 4 11 5 12 6 13 7 6 8 5 9 4 10 3 11 2 12 1 13
REMARK H PARENT
REMARK Flexibility Score: inf
ROOT
ATOM      1  C   UNL     1     -19.080 -11.592  -0.188  1.00  0.00     0.000 C 
ENDROOT
BRANCH   1   2
ATOM      2  C   UNL     1     -18.758 -12.805  -1.072  1.00  0.00     0.000 C 
BRANCH   2   3
ATOM      3  C   UNL     1     -17.436 -13.497  -0.688  1.00  0.00     0.006 C 
BRANCH   3   4
ATOM      4  C   UNL     1     -16.520 -12.641   0.204  1.00  0.00     0.053 C 
BRANCH   4   5
ATOM      5  C   UNL     1     -15.414 -13.436   0.829  1.00  0.00     0.041 C 
ATOM      6  O   UNL     1     -14.278 -13.483   0.286  1.00  0.00    -0.550 OA
ATOM      7  O   UNL     1     -15.627 -14.100   2.030  1.00  0.00    -0.550 OA
ENDBRANCH   4   5
ENDBRANCH   3   4
ENDBRANCH   2   3
ENDBRANCH   1   2
BRANCH   1   8
ATOM      8  C   UNL     1     -19.207 -10.315  -1.031  1.00  0.00     0.000 C 
BRANCH   8   9
ATOM      9  C   UNL     1     -18.434  -9.154  -0.387  1.00  0.00    -0.000 C 
BRANCH   9  10
ATOM     10  C   UNL     1     -17.020  -8.988  -0.968  1.00  0.00    -0.000 C 
BRANCH  10  11
ATOM     11  C   UNL     1     -16.969  -9.254  -2.483  1.00  0.00    -0.000 C 
BRANCH  11  12
ATOM     12  C   UNL     1     -16.278  -8.120  -3.256  1.00  0.00    -0.003 C 
ATOM     13  C   UNL     1     -16.597  -8.140  -4.750  1.00  0.00     0.004 C 
ENDBRANCH  11  12
ENDBRANCH  10  11
ENDBRANCH   9  10
ENDBRANCH   8   9
ENDBRANCH   1   8
TORSDOF 9
ENDMDL
MODEL 4
REMARK VINA RESULT:    -5.146      2.682      4.969
REMARK INTER + INTRA:          -8.886
REMARK INTER:                  -7.720
REMARK INTRA:                  -1.166
REMARK UNBOUND:                -1.032
REMARK SMILES CCCCCCCCCCC(=O)[O-]
REMARK SMILES IDX 7 1 8 2 9 3 10 4 11 5 12 6 13 7 6 8 5 9 4 10 3 11 2 12 1 13
REMARK H PARENT
REMARK Flexibility Score: inf
ROOT
ATOM      1  C   UNL     1     -18.380  -9.286  -0.928  1.00  0.00     0.000 C 
ENDROOT
BRANCH   1   2
ATOM      2  C   UNL     1     -18.690 -10.602  -1.655  1.00  0.00     0.000 C 
BRANCH   2   3
ATOM      3  C   UNL     1     -17.426 -11.411  -2.004  1.00  0.00     0.006 C 
BRANCH   3   4
ATOM      4  C   UNL     1     -17.556 -12.920  -1.735  1.00  0.00     0.053 C 
BRANCH   4   5
ATOM      5  C   UNL     1     -17.999 -13.688  -2.942  1.00  0.00     0.041 C 
ATOM      6  O   UNL     1     -17.150 -14.177  -3.733  1.00  0.00    -0.550 OA
ATOM      7  O   UNL     1     -19.353 -13.892  -3.178  1.00  0.00    -0.550 OA
ENDBRANCH   4   5
ENDBRANCH   3   4
ENDBRANCH   2   3
ENDBRANCH   1   2
BRANCH   1   8
ATOM      8  C   UNL     1     -17.093  -9.406  -0.099  1.00  0.00     0.000 C 
BRANCH   8   9
ATOM      9  C   UNL     1     -16.261  -8.118  -0.189  1.00  0.00    -0.000 C 
BRANCH   9  10
ATOM     10  C   UNL     1     -15.965  -7.703  -1.640  1.00  0.00    -0.000 C 
BRANCH  10  11
ATOM     11  C   UNL     1     -14.895  -8.588  -2.302  1.00  0.00    -0.000 C 
BRANCH  11  12
ATOM     12  C   UNL     1     -15.255  -8.964  -3.748  1.00  0.00    -0.003 C 
ATOM     13  C   UNL     1     -16.567  -8.336  -4.216  1.00  0.00     0.004 C 
ENDBRANCH  11  12
ENDBRANCH  10  11
ENDBRANCH   9  10
ENDBRANCH   8   9
ENDBRANCH   1   8
TORSDOF 9
ENDMDL
MODEL 5
REMARK VINA RESULT:    -5.086      1.719      1.962
REMARK INTER + INTRA:          -8.794
REMARK INTER:                  -7.696
REMARK INTRA:                  -1.098
REMARK UNBOUND:                -1.032
REMARK SMILES CCCCCCCCCCC(=O)[O-]
REMARK SMILES IDX 7 1 8 2 9 3 10 4 11 5 12 6 13 7 6 8 5 9 4 10 3 11 2 12 1 13
REMARK H PARENT
REMARK Flexibility Score: inf
ROOT
ATOM      1  C   UNL     1     -18.220 -11.071  -0.243  1.00  0.00     0.000 C 
ENDROOT
BRANCH   1   2
ATOM      2  C   UNL     1     -18.421  -9.983  -1.307  1.00  0.00     0.000 C 
BRANCH   2   3
ATOM      3  C   UNL     1     -17.220  -9.843  -2.261  1.00  0.00     0.006 C 
BRANCH   3   4
ATOM      4  C   UNL     1     -16.715  -8.399  -2.422  1.00  0.00     0.053 C 
BRANCH   4   5
ATOM      5  C   UNL     1     -15.649  -8.044  -1.432  1.00  0.00     0.041 C 
ATOM      6  O   UNL     1     -14.432  -8.148  -1.742  1.00  0.00    -0.550 OA
ATOM      7  O   UNL     1     -15.998  -7.567  -0.175  1.00  0.00    -0.550 OA
ENDBRANCH   4   5
ENDBRANCH   3   4
ENDBRANCH   2   3
ENDBRANCH   1   2
BRANCH   1   8
ATOM      8  C   UNL     1     -16.731 -11.257   0.080  1.00  0.00     0.000 C 
BRANCH   8   9
ATOM      9  C   UNL     1     -16.366 -12.748   0.147  1.00  0.00    -0.000 C 
BRANCH   9  10
ATOM     10  C   UNL     1     -17.359 -13.637  -0.618  1.00  0.00    -0.000 C 
BRANCH  10  11
ATOM     11  C   UNL     1     -16.724 -14.310  -1.848  1.00  0.00    -0.000 C 
BRANCH  11  12
ATOM     12  C   UNL     1     -17.512 -14.038  -3.140  1.00  0.00    -0.003 C 
ATOM     13  C   UNL     1     -18.986 -13.729  -2.882  1.00  0.00     0.004 C 
ENDBRANCH  11  12
ENDBRANCH  10  11
ENDBRANCH   9  10
ENDBRANCH   8   9
ENDBRANCH   1   8
TORSDOF 9
ENDMDL
MODEL 6
REMARK VINA RESULT:    -5.067      2.421      3.191
REMARK INTER + INTRA:          -8.764
REMARK INTER:                  -7.871
REMARK INTRA:                  -0.894
REMARK UNBOUND:                -1.032
REMARK SMILES CCCCCCCCCCC(=O)[O-]
REMARK SMILES IDX 7 1 8 2 9 3 10 4 11 5 12 6 13 7 6 8 5 9 4 10 3 11 2 12 1 13
REMARK H PARENT
REMARK Flexibility Score: inf
ROOT
ATOM      1  C   UNL     1     -17.187 -10.845  -2.502  1.00  0.00     0.000 C 
ENDROOT
BRANCH   1   2
ATOM      2  C   UNL     1     -16.589  -9.503  -2.949  1.00  0.00     0.000 C 
BRANCH   2   3
ATOM      3  C   UNL     1     -16.912  -8.347  -1.983  1.00  0.00     0.006 C 
BRANCH   3   4
ATOM      4  C   UNL     1     -15.719  -7.901  -1.121  1.00  0.00     0.053 C 
BRANCH   4   5
ATOM      5  C   UNL     1     -15.706  -8.549   0.230  1.00  0.00     0.041 C 
ATOM      6  O   UNL     1     -16.249  -7.980   1.214  1.00  0.00    -0.550 OA
ATOM      7  O   UNL     1     -15.120  -9.797   0.397  1.00  0.00    -0.550 OA
ENDBRANCH   4   5
ENDBRANCH   3   4
ENDBRANCH   2   3
ENDBRANCH   1   2
BRANCH   1   8
ATOM      8  C   UNL     1     -18.365 -10.629  -1.541  1.00  0.00     0.000 C 
BRANCH   8   9
ATOM      9  C   UNL     1     -18.241 -11.537  -0.308  1.00  0.00    -0.000 C 
BRANCH   9  10
ATOM     10  C   UNL     1     -18.208 -13.030  -0.672  1.00  0.00    -0.000 C 
BRANCH  10  11
ATOM     11  C   UNL     1     -16.882 -13.706  -0.278  1.00  0.00    -0.000 C 
BRANCH  11  12
ATOM     12  C   UNL     1     -16.432 -14.760  -1.300  1.00  0.00    -0.003 C 
ATOM     13  C   UNL     1     -17.211 -14.685  -2.613  1.00  0.00     0.004 C 
ENDBRANCH  11  12
ENDBRANCH  10  11
ENDBRANCH   9  10
ENDBRANCH   8   9
ENDBRANCH   1   8
TORSDOF 9
ENDMDL
MODEL 7
REMARK VINA RESULT:    -5.033      2.962      3.769
REMARK INTER + INTRA:          -8.712
REMARK INTER:                  -7.500
REMARK INTRA:                  -1.212
REMARK UNBOUND:                -1.032
REMARK SMILES CCCCCCCCCCC(=O)[O-]
REMARK SMILES IDX 7 1 8 2 9 3 10 4 11 5 12 6 13 7 6 8 5 9 4 10 3 11 2 12 1 13
REMARK H PARENT
REMARK Flexibility Score: inf
ROOT
ATOM      1  C   UNL     1     -18.979 -12.861  -1.025  1.00  0.00     0.000 C 
ENDROOT
BRANCH   1   2
ATOM      2  C   UNL     1     -18.650 -11.789   0.024  1.00  0.00     0.000 C 
BRANCH   2   3
ATOM      3  C   UNL     1     -18.183 -10.460  -0.598  1.00  0.00     0.006 C 
BRANCH   3   4
ATOM      4  C   UNL     1     -16.897  -9.894   0.029  1.00  0.00     0.053 C 
BRANCH   4   5
ATOM      5  C   UNL     1     -17.143  -8.661   0.843  1.00  0.00     0.041 C 
ATOM      6  O   UNL     1     -18.312  -8.358   1.202  1.00  0.00    -0.550 OA
ATOM      7  O   UNL     1     -16.077  -7.861   1.233  1.00  0.00    -0.550 OA
ENDBRANCH   4   5
ENDBRANCH   3   4
ENDBRANCH   2   3
ENDBRANCH   1   2
BRANCH   1   8
ATOM      8  C   UNL     1     -17.877 -12.944  -2.090  1.00  0.00     0.000 C 
BRANCH   8   9
ATOM      9  C   UNL     1     -17.273 -14.356  -2.146  1.00  0.00    -0.000 C 
BRANCH   9  10
ATOM     10  C   UNL     1     -16.181 -14.576  -1.086  1.00  0.00    -0.000 C 
BRANCH  10  11
ATOM     11  C   UNL     1     -15.219 -13.380  -0.972  1.00  0.00    -0.000 C 
BRANCH  11  12
ATOM     12  C   UNL     1     -14.856 -13.053   0.485  1.00  0.00    -0.003 C 
ATOM     13  C   UNL     1     -15.620 -13.910   1.494  1.00  0.00     0.004 C 
ENDBRANCH  11  12
ENDBRANCH  10  11
ENDBRANCH   9  10
ENDBRANCH   8   9
ENDBRANCH   1   8
TORSDOF 9
ENDMDL
MODEL 8
REMARK VINA RESULT:    -4.986      3.071      5.176
REMARK INTER + INTRA:          -8.642
REMARK INTER:                  -7.525
REMARK INTRA:                  -1.116
REMARK UNBOUND:                -1.032
REMARK SMILES CCCCCCCCCCC(=O)[O-]
REMARK SMILES IDX 7 1 8 2 9 3 10 4 11 5 12 6 13 7 6 8 5 9 4 10 3 11 2 12 1 13
REMARK H PARENT
REMARK Flexibility Score: inf
ROOT
ATOM      1  C   UNL     1     -18.268  -9.851  -0.177  1.00  0.00     0.000 C 
ENDROOT
BRANCH   1   2
ATOM      2  C   UNL     1     -18.540 -10.279  -1.627  1.00  0.00     0.000 C 
BRANCH   2   3
ATOM      3  C   UNL     1     -17.892 -11.630  -1.987  1.00  0.00     0.006 C 
BRANCH   3   4
ATOM      4  C   UNL     1     -18.313 -12.790  -1.069  1.00  0.00     0.053 C 
BRANCH   4   5
ATOM      5  C   UNL     1     -17.145 -13.571  -0.549  1.00  0.00     0.041 C 
ATOM      6  O   UNL     1     -16.759 -14.612  -1.144  1.00  0.00    -0.550 OA
ATOM      7  O   UNL     1     -16.460 -13.131   0.578  1.00  0.00    -0.550 OA
ENDBRANCH   4   5
ENDBRANCH   3   4
ENDBRANCH   2   3
ENDBRANCH   1   2
BRANCH   1   8
ATOM      8  C   UNL     1     -16.771  -9.600   0.051  1.00  0.00     0.000 C 
BRANCH   8   9
ATOM      9  C   UNL     1     -16.455  -8.096   0.018  1.00  0.00    -0.000 C 
BRANCH   9  10
ATOM     10  C   UNL     1     -16.003  -7.616  -1.371  1.00  0.00    -0.000 C 
BRANCH  10  11
ATOM     11  C   UNL     1     -14.841  -8.452  -1.936  1.00  0.00    -0.000 C 
BRANCH  11  12
ATOM     12  C   UNL     1     -15.133  -8.988  -3.346  1.00  0.00    -0.003 C 
ATOM     13  C   UNL     1     -16.376  -8.359  -3.975  1.00  0.00     0.004 C 
ENDBRANCH  11  12
ENDBRANCH  10  11
ENDBRANCH   9  10
ENDBRANCH   8   9
ENDBRANCH   1   8
TORSDOF 9
ENDMDL
MODEL 9
REMARK VINA RESULT:    -4.977      1.520      2.894
REMARK INTER + INTRA:          -8.627
REMARK INTER:                  -7.360
REMARK INTRA:                  -1.267
REMARK UNBOUND:                -1.032
REMARK SMILES CCCCCCCCCCC(=O)[O-]
REMARK SMILES IDX 7 1 8 2 9 3 10 4 11 5 12 6 13 7 6 8 5 9 4 10 3 11 2 12 1 13
REMARK H PARENT
REMARK Flexibility Score: inf
ROOT
ATOM      1  C   UNL     1     -18.808 -12.890  -0.991  1.00  0.00     0.000 C 
ENDROOT
BRANCH   1   2
ATOM      2  C   UNL     1     -18.824 -11.403  -0.608  1.00  0.00     0.000 C 
BRANCH   2   3
ATOM      3  C   UNL     1     -17.544 -10.955   0.125  1.00  0.00     0.006 C 
BRANCH   3   4
ATOM      4  C   UNL     1     -16.959  -9.630  -0.393  1.00  0.00     0.053 C 
BRANCH   4   5
ATOM      5  C   UNL     1     -16.602  -9.684  -1.848  1.00  0.00     0.041 C 
ATOM      6  O   UNL     1     -15.820 -10.571  -2.279  1.00  0.00    -0.550 OA
ATOM      7  O   UNL     1     -17.159  -8.770  -2.734  1.00  0.00    -0.550 OA
ENDBRANCH   4   5
ENDBRANCH   3   4
ENDBRANCH   2   3
ENDBRANCH   1   2
BRANCH   1   8
ATOM      8  C   UNL     1     -18.334 -13.080  -2.438  1.00  0.00     0.000 C 
BRANCH   8   9
ATOM      9  C   UNL     1     -17.446 -14.328  -2.564  1.00  0.00    -0.000 C 
BRANCH   9  10
ATOM     10  C   UNL     1     -16.627 -14.605  -1.293  1.00  0.00    -0.000 C 
BRANCH  10  11
ATOM     11  C   UNL     1     -15.229 -13.964  -1.338  1.00  0.00    -0.000 C 
BRANCH  11  12
ATOM     12  C   UNL     1     -14.760 -13.476   0.041  1.00  0.00    -0.003 C 
ATOM     13  C   UNL     1     -15.661 -13.956   1.179  1.00  0.00     0.004 C 
ENDBRANCH  11  12
ENDBRANCH  10  11
ENDBRANCH   9  10
ENDBRANCH   8   9
ENDBRANCH   1   8
TORSDOF 9
ENDMDL
