MODEL 1
REMARK VINA RESULT:    -4.525      0.000      0.000
REMARK INTER + INTRA:          -5.829
REMARK INTER:                  -5.583
REMARK INTRA:                  -0.245
REMARK UNBOUND:                -0.245
REMARK SMILES CCCCC=CC(C)=O
REMARK SMILES IDX 4 1 3 2 2 3 1 4 5 5 6 6 7 7 9 8 8 9
REMARK H PARENT
REMARK Flexibility Score: inf
ROOT
ATOM      1  C   UNL     1      12.811 -33.086 -32.237  1.00  0.00     0.027 C 
ENDROOT
BRANCH   1   2
ATOM      2  C   UNL     1      13.969 -32.308 -31.596  1.00  0.00     0.004 C 
BRANCH   2   3
ATOM      3  C   UNL     1      14.902 -31.689 -32.646  1.00  0.00    -0.003 C 
ATOM      4  C   UNL     1      15.890 -32.720 -33.181  1.00  0.00     0.004 C 
ENDBRANCH   2   3
ENDBRANCH   1   2
BRANCH   1   5
ATOM      5  C   UNL     1      12.487 -34.350 -31.489  1.00  0.00    -0.023 C 
ATOM      6  C   UNL     1      13.335 -35.384 -31.466  1.00  0.00     0.042 C 
BRANCH   6   7
ATOM      7  C   UNL     1      13.060 -36.643 -30.744  1.00  0.00     0.152 C 
ATOM      8  O   UNL     1      12.537 -37.600 -31.375  1.00  0.00    -0.295 OA
ATOM      9  C   UNL     1      13.378 -36.821 -29.289  1.00  0.00     0.093 C 
ENDBRANCH   6   7
ENDBRANCH   1   5
TORSDOF 4
ENDMDL
MODEL 2
REMARK VINA RESULT:    -4.216      2.402      5.077
REMARK INTER + INTRA:          -5.447
REMARK INTER:                  -5.280
REMARK INTRA:                  -0.167
REMARK UNBOUND:                -0.245
REMARK SMILES CCCCC=CC(C)=O
REMARK SMILES IDX 4 1 3 2 2 3 1 4 5 5 6 6 7 7 9 8 8 9
REMARK H PARENT
REMARK Flexibility Score: inf
ROOT
ATOM      1  C   UNL     1      12.668 -35.337 -31.333  1.00  0.00     0.027 C 
ENDROOT
BRANCH   1   2
ATOM      2  C   UNL     1      13.290 -36.562 -30.647  1.00  0.00     0.004 C 
BRANCH   2   3
ATOM      3  C   UNL     1      13.083 -36.540 -29.126  1.00  0.00    -0.003 C 
ATOM      4  C   UNL     1      14.359 -36.937 -28.390  1.00  0.00     0.004 C 
ENDBRANCH   2   3
ENDBRANCH   1   2
BRANCH   1   5
ATOM      5  C   UNL     1      13.676 -34.253 -31.593  1.00  0.00    -0.023 C 
ATOM      6  C   UNL     1      13.332 -32.960 -31.576  1.00  0.00     0.042 C 
BRANCH   6   7
ATOM      7  C   UNL     1      14.288 -31.862 -31.823  1.00  0.00     0.152 C 
ATOM      8  O   UNL     1      14.709 -31.195 -30.841  1.00  0.00    -0.295 OA
ATOM      9  C   UNL     1      14.774 -31.513 -33.199  1.00  0.00     0.093 C 
ENDBRANCH   6   7
ENDBRANCH   1   5
TORSDOF 4
ENDMDL
MODEL 3
REMARK VINA RESULT:    -4.209      3.208      3.407
REMARK INTER + INTRA:          -5.439
REMARK INTER:                  -5.285
REMARK INTRA:                  -0.154
REMARK UNBOUND:                -0.245
REMARK SMILES CCCCC=CC(C)=O
REMARK SMILES IDX 4 1 3 2 2 3 1 4 5 5 6 6 7 7 9 8 8 9
REMARK H PARENT
REMARK Flexibility Score: inf
ROOT
ATOM      1  C   UNL     1      12.151 -33.103 -30.945  1.00  0.00     0.027 C 
ENDROOT
BRANCH   1   2
ATOM      2  C   UNL     1      13.517 -33.279 -31.625  1.00  0.00     0.004 C 
BRANCH   2   3
ATOM      3  C   UNL     1      14.299 -31.960 -31.703  1.00  0.00    -0.003 C 
ATOM      4  C   UNL     1      15.316 -31.989 -32.839  1.00  0.00     0.004 C 
ENDBRANCH   2   3
ENDBRANCH   1   2
BRANCH   1   5
ATOM      5  C   UNL     1      12.274 -32.885 -29.462  1.00  0.00    -0.023 C 
ATOM      6  C   UNL     1      12.273 -33.911 -28.603  1.00  0.00     0.042 C 
BRANCH   6   7
ATOM      7  C   UNL     1      12.394 -33.745 -27.141  1.00  0.00     0.152 C 
ATOM      8  O   UNL     1      11.421 -34.079 -26.413  1.00  0.00    -0.295 OA
ATOM      9  C   UNL     1      13.629 -33.193 -26.493  1.00  0.00     0.093 C 
ENDBRANCH   6   7
ENDBRANCH   1   5
TORSDOF 4
ENDMDL
MODEL 4
REMARK VINA RESULT:    -4.187      2.330      4.733
REMARK INTER + INTRA:          -5.411
REMARK INTER:                  -5.144
REMARK INTRA:                  -0.267
REMARK UNBOUND:                -0.245
REMARK SMILES CCCCC=CC(C)=O
REMARK SMILES IDX 4 1 3 2 2 3 1 4 5 5 6 6 7 7 9 8 8 9
REMARK H PARENT
REMARK Flexibility Score: inf
ROOT
ATOM      1  C   UNL     1      11.995 -35.129 -31.405  1.00  0.00     0.027 C 
ENDROOT
BRANCH   1   2
ATOM      2  C   UNL     1      13.146 -36.144 -31.346  1.00  0.00     0.004 C 
BRANCH   2   3
ATOM      3  C   UNL     1      13.284 -36.782 -29.956  1.00  0.00    -0.003 C 
ATOM      4  C   UNL     1      13.199 -35.729 -28.856  1.00  0.00     0.004 C 
ENDBRANCH   2   3
ENDBRANCH   1   2
BRANCH   1   5
ATOM      5  C   UNL     1      12.433 -33.798 -31.949  1.00  0.00    -0.023 C 
ATOM      6  C   UNL     1      13.715 -33.415 -31.909  1.00  0.00     0.042 C 
BRANCH   6   7
ATOM      7  C   UNL     1      14.191 -32.119 -32.432  1.00  0.00     0.152 C 
ATOM      8  O   UNL     1      13.858 -31.779 -33.599  1.00  0.00    -0.295 OA
ATOM      9  C   UNL     1      15.055 -31.194 -31.627  1.00  0.00     0.093 C 
ENDBRANCH   6   7
ENDBRANCH   1   5
TORSDOF 4
ENDMDL
MODEL 5
REMARK VINA RESULT:    -4.097      3.418      4.248
REMARK INTER + INTRA:          -5.301
REMARK INTER:                  -5.053
REMARK INTRA:                  -0.248
REMARK UNBOUND:                -0.245
REMARK SMILES CCCCC=CC(C)=O
REMARK SMILES IDX 4 1 3 2 2 3 1 4 5 5 6 6 7 7 9 8 8 9
REMARK H PARENT
REMARK Flexibility Score: inf
ROOT
ATOM      1  C   UNL     1      11.973 -33.067 -30.706  1.00  0.00     0.027 C 
ENDROOT
BRANCH   1   2
ATOM      2  C   UNL     1      13.020 -33.911 -31.448  1.00  0.00     0.004 C 
BRANCH   2   3
ATOM      3  C   UNL     1      12.516 -35.331 -31.741  1.00  0.00    -0.003 C 
ATOM      4  C   UNL     1      13.396 -36.378 -31.066  1.00  0.00     0.004 C 
ENDBRANCH   2   3
ENDBRANCH   1   2
BRANCH   1   5
ATOM      5  C   UNL     1      12.320 -32.869 -29.256  1.00  0.00    -0.023 C 
ATOM      6  C   UNL     1      12.060 -33.809 -28.341  1.00  0.00     0.042 C 
BRANCH   6   7
ATOM      7  C   UNL     1      12.385 -33.659 -26.908  1.00  0.00     0.152 C 
ATOM      8  O   UNL     1      13.529 -33.236 -26.589  1.00  0.00    -0.295 OA
ATOM      9  C   UNL     1      11.406 -33.991 -25.822  1.00  0.00     0.093 C 
ENDBRANCH   6   7
ENDBRANCH   1   5
TORSDOF 4
ENDMDL
MODEL 6
REMARK VINA RESULT:    -4.084      2.976      3.985
REMARK INTER + INTRA:          -5.285
REMARK INTER:                  -5.101
REMARK INTRA:                  -0.183
REMARK UNBOUND:                -0.245
REMARK SMILES CCCCC=CC(C)=O
REMARK SMILES IDX 4 1 3 2 2 3 1 4 5 5 6 6 7 7 9 8 8 9
REMARK H PARENT
REMARK Flexibility Score: inf
ROOT
ATOM      1  C   UNL     1      13.220 -36.472 -30.038  1.00  0.00     0.027 C 
ENDROOT
BRANCH   1   2
ATOM      2  C   UNL     1      13.444 -36.092 -31.509  1.00  0.00     0.004 C 
BRANCH   2   3
ATOM      3  C   UNL     1      12.803 -34.743 -31.862  1.00  0.00    -0.003 C 
ATOM      4  C   UNL     1      13.849 -33.636 -31.934  1.00  0.00     0.004 C 
ENDBRANCH   2   3
ENDBRANCH   1   2
BRANCH   1   5
ATOM      5  C   UNL     1      12.254 -35.550 -29.349  1.00  0.00    -0.023 C 
ATOM      6  C   UNL     1      12.595 -34.880 -28.242  1.00  0.00     0.042 C 
BRANCH   6   7
ATOM      7  C   UNL     1      11.680 -33.963 -27.534  1.00  0.00     0.152 C 
ATOM      8  O   UNL     1      10.988 -33.157 -28.212  1.00  0.00    -0.295 OA
ATOM      9  C   UNL     1      11.547 -33.955 -26.040  1.00  0.00     0.093 C 
ENDBRANCH   6   7
ENDBRANCH   1   5
TORSDOF 4
ENDMDL
MODEL 7
REMARK VINA RESULT:    -3.889      2.657      4.456
REMARK INTER + INTRA:          -5.044
REMARK INTER:                  -4.810
REMARK INTRA:                  -0.234
REMARK UNBOUND:                -0.245
REMARK SMILES CCCCC=CC(C)=O
REMARK SMILES IDX 4 1 3 2 2 3 1 4 5 5 6 6 7 7 9 8 8 9
REMARK H PARENT
REMARK Flexibility Score: inf
ROOT
ATOM      1  C   UNL     1      11.171 -33.720 -31.849  1.00  0.00     0.027 C 
ENDROOT
BRANCH   1   2
ATOM      2  C   UNL     1      11.329 -34.193 -30.397  1.00  0.00     0.004 C 
BRANCH   2   3
ATOM      3  C   UNL     1      11.128 -33.050 -29.391  1.00  0.00    -0.003 C 
ATOM      4  C   UNL     1      12.403 -32.782 -28.599  1.00  0.00     0.004 C 
ENDBRANCH   2   3
ENDBRANCH   1   2
BRANCH   1   5
ATOM      5  C   UNL     1      12.382 -32.981 -32.346  1.00  0.00    -0.023 C 
ATOM      6  C   UNL     1      13.617 -33.325 -31.961  1.00  0.00     0.042 C 
BRANCH   6   7
ATOM      7  C   UNL     1      14.834 -32.629 -32.424  1.00  0.00     0.152 C 
ATOM      8  O   UNL     1      15.689 -33.280 -33.082  1.00  0.00    -0.295 OA
ATOM      9  C   UNL     1      15.089 -31.179 -32.138  1.00  0.00     0.093 C 
ENDBRANCH   6   7
ENDBRANCH   1   5
TORSDOF 4
ENDMDL
MODEL 8
REMARK VINA RESULT:    -3.831      3.086      3.642
REMARK INTER + INTRA:          -4.973
REMARK INTER:                  -4.733
REMARK INTRA:                  -0.240
REMARK UNBOUND:                -0.245
REMARK SMILES CCCCC=CC(C)=O
REMARK SMILES IDX 4 1 3 2 2 3 1 4 5 5 6 6 7 7 9 8 8 9
REMARK H PARENT
REMARK Flexibility Score: inf
ROOT
ATOM      1  C   UNL     1      11.589 -32.799 -28.895  1.00  0.00     0.027 C 
ENDROOT
BRANCH   1   2
ATOM      2  C   UNL     1      10.348 -32.453 -29.731  1.00  0.00     0.004 C 
BRANCH   2   3
ATOM      3  C   UNL     1      10.158 -33.415 -30.912  1.00  0.00    -0.003 C 
ATOM      4  C   UNL     1      10.221 -32.674 -32.243  1.00  0.00     0.004 C 
ENDBRANCH   2   3
ENDBRANCH   1   2
BRANCH   1   5
ATOM      5  C   UNL     1      12.343 -33.975 -29.451  1.00  0.00    -0.023 C 
ATOM      6  C   UNL     1      12.576 -35.067 -28.713  1.00  0.00     0.042 C 
BRANCH   6   7
ATOM      7  C   UNL     1      13.310 -36.245 -29.217  1.00  0.00     0.152 C 
ATOM      8  O   UNL     1      14.056 -36.878 -28.423  1.00  0.00    -0.295 OA
ATOM      9  C   UNL     1      13.199 -36.714 -30.637  1.00  0.00     0.093 C 
ENDBRANCH   6   7
ENDBRANCH   1   5
TORSDOF 4
ENDMDL
MODEL 9
REMARK VINA RESULT:    -3.813      3.312      4.863
REMARK INTER + INTRA:          -4.951
REMARK INTER:                  -4.751
REMARK INTRA:                  -0.200
REMARK UNBOUND:                -0.245
REMARK SMILES CCCCC=CC(C)=O
REMARK SMILES IDX 4 1 3 2 2 3 1 4 5 5 6 6 7 7 9 8 8 9
REMARK H PARENT
REMARK Flexibility Score: inf
ROOT
ATOM      1  C   UNL     1      12.837 -32.241 -28.695  1.00  0.00     0.027 C 
ENDROOT
BRANCH   1   2
ATOM      2  C   UNL     1      13.040 -33.215 -27.526  1.00  0.00     0.004 C 
BRANCH   2   3
ATOM      3  C   UNL     1      11.825 -34.130 -27.317  1.00  0.00    -0.003 C 
ATOM      4  C   UNL     1      11.308 -34.041 -25.885  1.00  0.00     0.004 C 
ENDBRANCH   2   3
ENDBRANCH   1   2
BRANCH   1   5
ATOM      5  C   UNL     1      11.951 -32.811 -29.768  1.00  0.00    -0.023 C 
ATOM      6  C   UNL     1      12.456 -33.282 -30.914  1.00  0.00     0.042 C 
BRANCH   6   7
ATOM      7  C   UNL     1      11.625 -33.852 -31.993  1.00  0.00     0.152 C 
ATOM      8  O   UNL     1      11.077 -33.067 -32.812  1.00  0.00    -0.295 OA
ATOM      9  C   UNL     1      11.411 -35.328 -32.148  1.00  0.00     0.093 C 
ENDBRANCH   6   7
ENDBRANCH   1   5
TORSDOF 4
ENDMDL
