MODEL 1
REMARK VINA RESULT:    -4.475      0.000      0.000
REMARK INTER + INTRA:          -6.377
REMARK INTER:                  -5.522
REMARK INTRA:                  -0.855
REMARK UNBOUND:                -0.855
REMARK SMILES CC(C)=CCC[C@@H](C)c1ccc(C)cc1
REMARK SMILES IDX 6 1 7 2 8 3 9 4 13 5 12 6 11 7 14 8 10 9 15 10 5 11 4 12
REMARK SMILES IDX 2 13 1 14 3 15
REMARK H PARENT
REMARK Flexibility Score: inf
ROOT
ATOM      1  C   UNL     1       4.457 -18.957  11.135  1.00  0.00     0.012 C 
ENDROOT
BRANCH   1   2
ATOM      2  C   UNL     1       3.632 -18.085  12.112  1.00  0.00     0.016 C 
ATOM      3  C   UNL     1       3.798 -18.525  13.575  1.00  0.00     0.013 C 
BRANCH   2   4
ATOM      4  C   UNL     1       4.008 -16.623  11.952  1.00  0.00    -0.045 A 
ATOM      5  C   UNL     1       5.087 -12.457  11.567  1.00  0.00     0.044 C 
ATOM      6  C   UNL     1       4.723 -13.908  11.673  1.00  0.00    -0.051 A 
ATOM      7  C   UNL     1       5.626 -14.824  12.231  1.00  0.00     0.004 A 
ATOM      8  C   UNL     1       3.450 -14.348  11.282  1.00  0.00     0.004 A 
ATOM      9  C   UNL     1       5.274 -16.170  12.364  1.00  0.00     0.004 A 
ATOM     10  C   UNL     1       3.097 -15.694  11.415  1.00  0.00     0.004 A 
ENDBRANCH   2   4
ENDBRANCH   1   2
BRANCH   1  11
ATOM     11  C   UNL     1       3.653 -19.500   9.939  1.00  0.00     0.028 C 
BRANCH  11  12
ATOM     12  C   UNL     1       2.259 -18.923   9.875  1.00  0.00    -0.028 C 
ATOM     13  C   UNL     1       1.145 -19.557  10.304  1.00  0.00    -0.080 C 
ATOM     14  C   UNL     1      -0.183 -18.863  10.137  1.00  0.00     0.039 C 
ATOM     15  C   UNL     1       1.196 -20.916  10.961  1.00  0.00     0.039 C 
ENDBRANCH  11  12
ENDBRANCH   1  11
TORSDOF 4
ENDMDL
MODEL 2
REMARK VINA RESULT:    -4.300      1.225      6.245
REMARK INTER + INTRA:          -6.161
REMARK INTER:                  -5.579
REMARK INTRA:                  -0.582
REMARK UNBOUND:                -0.855
REMARK SMILES CC(C)=CCC[C@@H](C)c1ccc(C)cc1
REMARK SMILES IDX 6 1 7 2 8 3 9 4 13 5 12 6 11 7 14 8 10 9 15 10 5 11 4 12
REMARK SMILES IDX 2 13 1 14 3 15
REMARK H PARENT
REMARK Flexibility Score: inf
ROOT
ATOM      1  C   UNL     1       3.407 -15.121  11.560  1.00  0.00     0.012 C 
ENDROOT
BRANCH   1   2
ATOM      2  C   UNL     1       4.151 -16.442  11.869  1.00  0.00     0.016 C 
ATOM      3  C   UNL     1       4.668 -16.500  13.316  1.00  0.00     0.013 C 
BRANCH   2   4
ATOM      4  C   UNL     1       3.250 -17.630  11.580  1.00  0.00    -0.045 A 
ATOM      5  C   UNL     1       0.745 -21.049  10.748  1.00  0.00     0.044 C 
ATOM      6  C   UNL     1       1.593 -19.850  11.053  1.00  0.00    -0.051 A 
ATOM      7  C   UNL     1       2.465 -19.863  12.151  1.00  0.00     0.004 A 
ATOM      8  C   UNL     1       1.572 -18.736  10.203  1.00  0.00     0.004 A 
ATOM      9  C   UNL     1       3.283 -18.760  12.415  1.00  0.00     0.004 A 
ATOM     10  C   UNL     1       2.389 -17.632  10.466  1.00  0.00     0.004 A 
ENDBRANCH   2   4
ENDBRANCH   1   2
BRANCH   1  11
ATOM     11  C   UNL     1       4.204 -14.135  10.687  1.00  0.00     0.028 C 
BRANCH  11  12
ATOM     12  C   UNL     1       5.029 -13.175  11.513  1.00  0.00    -0.028 C 
ATOM     13  C   UNL     1       4.695 -11.888  11.757  1.00  0.00    -0.080 C 
ATOM     14  C   UNL     1       5.643 -11.044  12.569  1.00  0.00     0.039 C 
ATOM     15  C   UNL     1       3.400 -11.287  11.264  1.00  0.00     0.039 C 
ENDBRANCH  11  12
ENDBRANCH   1  11
TORSDOF 4
ENDMDL
MODEL 3
REMARK VINA RESULT:    -4.287      1.176      2.283
REMARK INTER + INTRA:          -6.145
REMARK INTER:                  -5.245
REMARK INTRA:                  -0.900
REMARK UNBOUND:                -0.855
REMARK SMILES CC(C)=CCC[C@@H](C)c1ccc(C)cc1
REMARK SMILES IDX 6 1 7 2 8 3 9 4 13 5 12 6 11 7 14 8 10 9 15 10 5 11 4 12
REMARK SMILES IDX 2 13 1 14 3 15
REMARK H PARENT
REMARK Flexibility Score: inf
ROOT
ATOM      1  C   UNL     1       4.952 -18.871  12.547  1.00  0.00     0.012 C 
ENDROOT
BRANCH   1   2
ATOM      2  C   UNL     1       5.496 -18.133  11.300  1.00  0.00     0.016 C 
ATOM      3  C   UNL     1       5.075 -18.812   9.986  1.00  0.00     0.013 C 
BRANCH   2   4
ATOM      4  C   UNL     1       5.049 -16.683  11.315  1.00  0.00    -0.045 A 
ATOM      5  C   UNL     1       3.792 -12.550  11.286  1.00  0.00     0.044 C 
ATOM      6  C   UNL     1       4.210 -13.990  11.319  1.00  0.00    -0.051 A 
ATOM      7  C   UNL     1       3.552 -14.934  10.518  1.00  0.00     0.004 A 
ATOM      8  C   UNL     1       5.306 -14.390  12.096  1.00  0.00     0.004 A 
ATOM      9  C   UNL     1       3.965 -16.270  10.520  1.00  0.00     0.004 A 
ATOM     10  C   UNL     1       5.720 -15.725  12.099  1.00  0.00     0.004 A 
ENDBRANCH   2   4
ENDBRANCH   1   2
BRANCH   1  11
ATOM     11  C   UNL     1       3.440 -18.698  12.776  1.00  0.00     0.028 C 
BRANCH  11  12
ATOM     12  C   UNL     1       2.644 -19.881  12.278  1.00  0.00    -0.028 C 
ATOM     13  C   UNL     1       1.655 -19.811  11.359  1.00  0.00    -0.080 C 
ATOM     14  C   UNL     1       0.927 -21.079  10.991  1.00  0.00     0.039 C 
ATOM     15  C   UNL     1       1.281 -18.514  10.680  1.00  0.00     0.039 C 
ENDBRANCH  11  12
ENDBRANCH   1  11
TORSDOF 4
ENDMDL
MODEL 4
REMARK VINA RESULT:    -4.226      1.205      6.360
REMARK INTER + INTRA:          -6.069
REMARK INTER:                  -5.490
REMARK INTRA:                  -0.579
REMARK UNBOUND:                -0.855
REMARK SMILES CC(C)=CCC[C@@H](C)c1ccc(C)cc1
REMARK SMILES IDX 6 1 7 2 8 3 9 4 13 5 12 6 11 7 14 8 10 9 15 10 5 11 4 12
REMARK SMILES IDX 2 13 1 14 3 15
REMARK H PARENT
REMARK Flexibility Score: inf
ROOT
ATOM      1  C   UNL     1       3.482 -15.127  11.700  1.00  0.00     0.012 C 
ENDROOT
BRANCH   1   2
ATOM      2  C   UNL     1       4.222 -16.449  12.018  1.00  0.00     0.016 C 
ATOM      3  C   UNL     1       4.682 -16.527  13.482  1.00  0.00     0.013 C 
BRANCH   2   4
ATOM      4  C   UNL     1       3.340 -17.637  11.674  1.00  0.00    -0.045 A 
ATOM      5  C   UNL     1       0.774 -20.974  10.704  1.00  0.00     0.044 C 
ATOM      6  C   UNL     1       1.687 -19.828  11.025  1.00  0.00    -0.051 A 
ATOM      7  C   UNL     1       1.679 -18.674  10.227  1.00  0.00     0.004 A 
ATOM      8  C   UNL     1       2.502 -19.871  12.164  1.00  0.00     0.004 A 
ATOM      9  C   UNL     1       2.502 -17.591  10.546  1.00  0.00     0.004 A 
ATOM     10  C   UNL     1       3.326 -18.788  12.484  1.00  0.00     0.004 A 
ENDBRANCH   2   4
ENDBRANCH   1   2
BRANCH   1  11
ATOM     11  C   UNL     1       4.306 -14.124  10.872  1.00  0.00     0.028 C 
BRANCH  11  12
ATOM     12  C   UNL     1       5.153 -13.223  11.740  1.00  0.00    -0.028 C 
ATOM     13  C   UNL     1       4.918 -11.907  11.939  1.00  0.00    -0.080 C 
ATOM     14  C   UNL     1       5.877 -11.131  12.805  1.00  0.00     0.039 C 
ATOM     15  C   UNL     1       3.720 -11.206  11.343  1.00  0.00     0.039 C 
ENDBRANCH  11  12
ENDBRANCH   1  11
TORSDOF 4
ENDMDL
MODEL 5
REMARK VINA RESULT:    -4.067      2.419      6.742
REMARK INTER + INTRA:          -5.873
REMARK INTER:                  -5.453
REMARK INTRA:                  -0.421
REMARK UNBOUND:                -0.855
REMARK SMILES CC(C)=CCC[C@@H](C)c1ccc(C)cc1
REMARK SMILES IDX 6 1 7 2 8 3 9 4 13 5 12 6 11 7 14 8 10 9 15 10 5 11 4 12
REMARK SMILES IDX 2 13 1 14 3 15
REMARK H PARENT
REMARK Flexibility Score: inf
ROOT
ATOM      1  C   UNL     1       3.196 -13.250  11.338  1.00  0.00     0.012 C 
ENDROOT
BRANCH   1   2
ATOM      2  C   UNL     1       4.443 -14.157  11.195  1.00  0.00     0.016 C 
ATOM      3  C   UNL     1       5.661 -13.605  11.953  1.00  0.00     0.013 C 
BRANCH   2   4
ATOM      4  C   UNL     1       4.120 -15.565  11.661  1.00  0.00    -0.045 A 
ATOM      5  C   UNL     1       3.134 -19.553  12.998  1.00  0.00     0.044 C 
ATOM      6  C   UNL     1       3.498 -18.180  12.516  1.00  0.00    -0.051 A 
ATOM      7  C   UNL     1       2.844 -17.623  11.408  1.00  0.00     0.004 A 
ATOM      8  C   UNL     1       4.444 -17.414  13.213  1.00  0.00     0.004 A 
ATOM      9  C   UNL     1       3.156 -16.330  10.981  1.00  0.00     0.004 A 
ATOM     10  C   UNL     1       4.757 -16.120  12.787  1.00  0.00     0.004 A 
ENDBRANCH   2   4
ENDBRANCH   1   2
BRANCH   1  11
ATOM     11  C   UNL     1       3.503 -11.742  11.296  1.00  0.00     0.028 C 
BRANCH  11  12
ATOM     12  C   UNL     1       2.254 -10.906  11.143  1.00  0.00    -0.028 C 
ATOM     13  C   UNL     1       2.127  -9.629  11.569  1.00  0.00    -0.080 C 
ATOM     14  C   UNL     1       0.801  -8.939  11.376  1.00  0.00     0.039 C 
ATOM     15  C   UNL     1       3.272  -8.877  12.204  1.00  0.00     0.039 C 
ENDBRANCH  11  12
ENDBRANCH   1  11
TORSDOF 4
ENDMDL
MODEL 6
REMARK VINA RESULT:    -4.020      3.189      5.530
REMARK INTER + INTRA:          -5.815
REMARK INTER:                  -5.265
REMARK INTRA:                  -0.550
REMARK UNBOUND:                -0.855
REMARK SMILES CC(C)=CCC[C@@H](C)c1ccc(C)cc1
REMARK SMILES IDX 6 1 7 2 8 3 9 4 13 5 12 6 11 7 14 8 10 9 15 10 5 11 4 12
REMARK SMILES IDX 2 13 1 14 3 15
REMARK H PARENT
REMARK Flexibility Score: inf
ROOT
ATOM      1  C   UNL     1       3.376 -13.537  11.374  1.00  0.00     0.012 C 
ENDROOT
BRANCH   1   2
ATOM      2  C   UNL     1       4.138 -12.190  11.372  1.00  0.00     0.016 C 
ATOM      3  C   UNL     1       5.361 -12.208  10.441  1.00  0.00     0.013 C 
BRANCH   2   4
ATOM      4  C   UNL     1       3.199 -11.058  10.993  1.00  0.00    -0.045 A 
ATOM      5  C   UNL     1       0.487  -7.887   9.875  1.00  0.00     0.044 C 
ATOM      6  C   UNL     1       1.436  -8.973  10.288  1.00  0.00    -0.051 A 
ATOM      7  C   UNL     1       0.969 -10.080  11.011  1.00  0.00     0.004 A 
ATOM      8  C   UNL     1       2.780  -8.926   9.894  1.00  0.00     0.004 A 
ATOM      9  C   UNL     1       1.845 -11.111  11.365  1.00  0.00     0.004 A 
ATOM     10  C   UNL     1       3.656  -9.956  10.247  1.00  0.00     0.004 A 
ENDBRANCH   2   4
ENDBRANCH   1   2
BRANCH   1  11
ATOM     11  C   UNL     1       4.059 -14.652  10.561  1.00  0.00     0.028 C 
BRANCH  11  12
ATOM     12  C   UNL     1       3.132 -15.812  10.286  1.00  0.00    -0.028 C 
ATOM     13  C   UNL     1       3.063 -16.935  11.036  1.00  0.00    -0.080 C 
ATOM     14  C   UNL     1       2.111 -18.023  10.610  1.00  0.00     0.039 C 
ATOM     15  C   UNL     1       3.887 -17.116  12.289  1.00  0.00     0.039 C 
ENDBRANCH  11  12
ENDBRANCH   1  11
TORSDOF 4
ENDMDL
MODEL 7
REMARK VINA RESULT:    -3.981      3.150      5.591
REMARK INTER + INTRA:          -5.767
REMARK INTER:                  -5.231
REMARK INTRA:                  -0.537
REMARK UNBOUND:                -0.855
REMARK SMILES CC(C)=CCC[C@@H](C)c1ccc(C)cc1
REMARK SMILES IDX 6 1 7 2 8 3 9 4 13 5 12 6 11 7 14 8 10 9 15 10 5 11 4 12
REMARK SMILES IDX 2 13 1 14 3 15
REMARK H PARENT
REMARK Flexibility Score: inf
ROOT
ATOM      1  C   UNL     1       3.325 -13.633  11.377  1.00  0.00     0.012 C 
ENDROOT
BRANCH   1   2
ATOM      2  C   UNL     1       4.090 -12.287  11.386  1.00  0.00     0.016 C 
ATOM      3  C   UNL     1       5.332 -12.311  10.481  1.00  0.00     0.013 C 
BRANCH   2   4
ATOM      4  C   UNL     1       3.161 -11.156  10.984  1.00  0.00    -0.045 A 
ATOM      5  C   UNL     1       0.559  -7.891   9.875  1.00  0.00     0.044 C 
ATOM      6  C   UNL     1       1.455  -9.038  10.235  1.00  0.00    -0.051 A 
ATOM      7  C   UNL     1       2.810  -9.016   9.875  1.00  0.00     0.004 A 
ATOM      8  C   UNL     1       0.962 -10.108  10.994  1.00  0.00     0.004 A 
ATOM      9  C   UNL     1       3.654 -10.068  10.241  1.00  0.00     0.004 A 
ATOM     10  C   UNL     1       1.805 -11.161  11.362  1.00  0.00     0.004 A 
ENDBRANCH   2   4
ENDBRANCH   1   2
BRANCH   1  11
ATOM     11  C   UNL     1       4.152 -14.827  10.867  1.00  0.00     0.028 C 
BRANCH  11  12
ATOM     12  C   UNL     1       4.473 -15.814  11.964  1.00  0.00    -0.028 C 
ATOM     13  C   UNL     1       3.868 -17.013  12.120  1.00  0.00    -0.080 C 
ATOM     14  C   UNL     1       4.274 -17.873  13.290  1.00  0.00     0.039 C 
ATOM     15  C   UNL     1       2.826 -17.519  11.151  1.00  0.00     0.039 C 
ENDBRANCH  11  12
ENDBRANCH   1  11
TORSDOF 4
ENDMDL
MODEL 8
REMARK VINA RESULT:    -3.821      3.296      7.232
REMARK INTER + INTRA:          -5.570
REMARK INTER:                  -4.985
REMARK INTRA:                  -0.585
REMARK UNBOUND:                -0.855
REMARK SMILES CC(C)=CCC[C@@H](C)c1ccc(C)cc1
REMARK SMILES IDX 6 1 7 2 8 3 9 4 13 5 12 6 11 7 14 8 10 9 15 10 5 11 4 12
REMARK SMILES IDX 2 13 1 14 3 15
REMARK H PARENT
REMARK Flexibility Score: inf
ROOT
ATOM      1  C   UNL     1       3.767 -10.590  11.422  1.00  0.00     0.012 C 
ENDROOT
BRANCH   1   2
ATOM      2  C   UNL     1       4.687 -11.522  10.596  1.00  0.00     0.016 C 
ATOM      3  C   UNL     1       6.124 -10.986  10.492  1.00  0.00     0.013 C 
BRANCH   2   4
ATOM      4  C   UNL     1       4.682 -12.920  11.188  1.00  0.00    -0.045 A 
ATOM      5  C   UNL     1       4.620 -16.876  12.922  1.00  0.00     0.044 C 
ATOM      6  C   UNL     1       4.649 -15.514  12.294  1.00  0.00    -0.051 A 
ATOM      7  C   UNL     1       3.475 -14.953  11.771  1.00  0.00     0.004 A 
ATOM      8  C   UNL     1       5.833 -14.764  12.287  1.00  0.00     0.004 A 
ATOM      9  C   UNL     1       3.493 -13.669  11.219  1.00  0.00     0.004 A 
ATOM     10  C   UNL     1       5.852 -13.480  11.735  1.00  0.00     0.004 A 
ENDBRANCH   2   4
ENDBRANCH   1   2
BRANCH   1  11
ATOM     11  C   UNL     1       2.439 -10.235  10.728  1.00  0.00     0.028 C 
BRANCH  11  12
ATOM     12  C   UNL     1       1.247 -10.424  11.637  1.00  0.00    -0.028 C 
ATOM     13  C   UNL     1       0.287  -9.496  11.848  1.00  0.00    -0.080 C 
ATOM     14  C   UNL     1      -0.822  -9.821  12.816  1.00  0.00     0.039 C 
ATOM     15  C   UNL     1       0.283  -8.168  11.130  1.00  0.00     0.039 C 
ENDBRANCH  11  12
ENDBRANCH   1  11
TORSDOF 4
ENDMDL
MODEL 9
REMARK VINA RESULT:    -3.636     23.364     24.999
REMARK INTER + INTRA:          -5.342
REMARK INTER:                  -4.822
REMARK INTRA:                  -0.520
REMARK UNBOUND:                -0.855
REMARK SMILES CC(C)=CCC[C@@H](C)c1ccc(C)cc1
REMARK SMILES IDX 6 1 7 2 8 3 9 4 13 5 12 6 11 7 14 8 10 9 15 10 5 11 4 12
REMARK SMILES IDX 2 13 1 14 3 15
REMARK H PARENT
REMARK Flexibility Score: inf
ROOT
ATOM      1  C   UNL     1     -14.100 -13.559  28.634  1.00  0.00     0.012 C 
ENDROOT
BRANCH   1   2
ATOM      2  C   UNL     1     -12.813 -14.413  28.742  1.00  0.00     0.016 C 
ATOM      3  C   UNL     1     -12.141 -14.291  30.119  1.00  0.00     0.013 C 
BRANCH   2   4
ATOM      4  C   UNL     1     -13.123 -15.865  28.428  1.00  0.00    -0.045 A 
ATOM      5  C   UNL     1     -14.073 -19.981  27.523  1.00  0.00     0.044 C 
ATOM      6  C   UNL     1     -13.715 -18.557  27.828  1.00  0.00    -0.051 A 
ATOM      7  C   UNL     1     -13.899 -17.560  26.860  1.00  0.00     0.004 A 
ATOM      8  C   UNL     1     -13.262 -18.201  29.106  1.00  0.00     0.004 A 
ATOM      9  C   UNL     1     -13.600 -16.227  27.156  1.00  0.00     0.004 A 
ATOM     10  C   UNL     1     -12.963 -16.868  29.403  1.00  0.00     0.004 A 
ENDBRANCH   2   4
ENDBRANCH   1   2
BRANCH   1  11
ATOM     11  C   UNL     1     -14.046 -12.232  29.413  1.00  0.00     0.028 C 
BRANCH  11  12
ATOM     12  C   UNL     1     -14.124 -11.028  28.504  1.00  0.00    -0.028 C 
ATOM     13  C   UNL     1     -13.524  -9.842  28.747  1.00  0.00    -0.080 C 
ATOM     14  C   UNL     1     -13.728  -8.721  27.759  1.00  0.00     0.039 C 
ATOM     15  C   UNL     1     -12.645  -9.618  29.954  1.00  0.00     0.039 C 
ENDBRANCH  11  12
ENDBRANCH   1  11
TORSDOF 4
ENDMDL
