MODEL 1
REMARK VINA RESULT:    -1.263      0.000      0.000
REMARK INTER + INTRA:          -1.263
REMARK INTER:                  -1.263
REMARK INTRA:                   0.000
REMARK UNBOUND:                 0.000
REMARK SMILES CC(=O)[O-]
REMARK SMILES IDX 1 1 2 2 3 3 4 4
REMARK H PARENT
REMARK Flexibility Score: inf
ROOT
ATOM      1  C   UNL     1     100.876  11.933  14.971  1.00  0.00     0.063 C 
ATOM      2  C   UNL     1     102.162  12.541  14.523  1.00  0.00     0.038 C 
ATOM      3  O   UNL     1     103.197  12.422  15.228  1.00  0.00    -0.550 OA
ATOM      4  O   UNL     1     102.233  13.194  13.299  1.00  0.00    -0.550 OA
ENDROOT
TORSDOF 0
ENDMDL
MODEL 2
REMARK VINA RESULT:    -1.262      0.995      1.819
REMARK INTER + INTRA:          -1.262
REMARK INTER:                  -1.262
REMARK INTRA:                   0.000
REMARK UNBOUND:                 0.000
REMARK SMILES CC(=O)[O-]
REMARK SMILES IDX 1 1 2 2 3 3 4 4
REMARK H PARENT
REMARK Flexibility Score: inf
ROOT
ATOM      1  C   UNL     1     100.875  12.051  14.792  1.00  0.00     0.063 C 
ATOM      2  C   UNL     1     102.336  12.100  15.088  1.00  0.00     0.038 C 
ATOM      3  O   UNL     1     103.155  12.393  14.179  1.00  0.00    -0.550 OA
ATOM      4  O   UNL     1     102.792  11.875  16.381  1.00  0.00    -0.550 OA
ENDROOT
TORSDOF 0
ENDMDL
MODEL 3
REMARK VINA RESULT:    -1.173     19.901     20.333
REMARK INTER + INTRA:          -1.173
REMARK INTER:                  -1.173
REMARK INTRA:                   0.000
REMARK UNBOUND:                 0.000
REMARK SMILES CC(=O)[O-]
REMARK SMILES IDX 1 1 2 2 3 3 4 4
REMARK H PARENT
REMARK Flexibility Score: inf
ROOT
ATOM      1  C   UNL     1     116.281  14.122  26.884  1.00  0.00     0.063 C 
ATOM      2  C   UNL     1     117.051  14.180  28.160  1.00  0.00     0.038 C 
ATOM      3  O   UNL     1     117.825  15.145  28.387  1.00  0.00    -0.550 OA
ATOM      4  O   UNL     1     116.875  13.197  29.125  1.00  0.00    -0.550 OA
ENDROOT
TORSDOF 0
ENDMDL
MODEL 4
REMARK VINA RESULT:    -1.171     20.077     20.534
REMARK INTER + INTRA:          -1.171
REMARK INTER:                  -1.171
REMARK INTRA:                   0.000
REMARK UNBOUND:                 0.000
REMARK SMILES CC(=O)[O-]
REMARK SMILES IDX 1 1 2 2 3 3 4 4
REMARK H PARENT
REMARK Flexibility Score: inf
ROOT
ATOM      1  C   UNL     1     116.476  14.442  26.937  1.00  0.00     0.063 C 
ATOM      2  C   UNL     1     117.260  14.477  28.204  1.00  0.00     0.038 C 
ATOM      3  O   UNL     1     117.136  13.553  29.049  1.00  0.00    -0.550 OA
ATOM      4  O   UNL     1     118.170  15.501  28.432  1.00  0.00    -0.550 OA
ENDROOT
TORSDOF 0
ENDMDL
MODEL 5
REMARK VINA RESULT:    -1.163     19.795     20.329
REMARK INTER + INTRA:          -1.163
REMARK INTER:                  -1.163
REMARK INTRA:                   0.000
REMARK UNBOUND:                 0.000
REMARK SMILES CC(=O)[O-]
REMARK SMILES IDX 1 1 2 2 3 3 4 4
REMARK H PARENT
REMARK Flexibility Score: inf
ROOT
ATOM      1  C   UNL     1     116.508  13.172  29.125  1.00  0.00     0.063 C 
ATOM      2  C   UNL     1     116.991  14.281  28.253  1.00  0.00     0.038 C 
ATOM      3  O   UNL     1     117.768  15.155  28.716  1.00  0.00    -0.550 OA
ATOM      4  O   UNL     1     116.626  14.322  26.914  1.00  0.00    -0.550 OA
ENDROOT
TORSDOF 0
ENDMDL
MODEL 6
REMARK VINA RESULT:    -1.156     20.948     21.535
REMARK INTER + INTRA:          -1.156
REMARK INTER:                  -1.156
REMARK INTRA:                   0.000
REMARK UNBOUND:                 0.000
REMARK SMILES CC(=O)[O-]
REMARK SMILES IDX 1 1 2 2 3 3 4 4
REMARK H PARENT
REMARK Flexibility Score: inf
ROOT
ATOM      1  C   UNL     1     117.428  14.917  28.257  1.00  0.00     0.063 C 
ATOM      2  C   UNL     1     118.501  15.941  28.107  1.00  0.00     0.038 C 
ATOM      3  O   UNL     1     119.074  16.410  29.125  1.00  0.00    -0.550 OA
ATOM      4  O   UNL     1     118.910  16.341  26.841  1.00  0.00    -0.550 OA
ENDROOT
TORSDOF 0
ENDMDL
MODEL 7
REMARK VINA RESULT:    -1.150      1.858      1.919
REMARK INTER + INTRA:          -1.150
REMARK INTER:                  -1.150
REMARK INTRA:                   0.000
REMARK UNBOUND:                 0.000
REMARK SMILES CC(=O)[O-]
REMARK SMILES IDX 1 1 2 2 3 3 4 4
REMARK H PARENT
REMARK Flexibility Score: inf
ROOT
ATOM      1  C   UNL     1     100.875  12.254  14.625  1.00  0.00     0.063 C 
ATOM      2  C   UNL     1     101.058  13.347  13.628  1.00  0.00     0.038 C 
ATOM      3  O   UNL     1     101.412  14.494  14.006  1.00  0.00    -0.550 OA
ATOM      4  O   UNL     1     100.890  13.089  12.273  1.00  0.00    -0.550 OA
ENDROOT
TORSDOF 0
ENDMDL
MODEL 8
REMARK VINA RESULT:    -1.141     20.985     21.606
REMARK INTER + INTRA:          -1.141
REMARK INTER:                  -1.141
REMARK INTRA:                   0.000
REMARK UNBOUND:                 0.000
REMARK SMILES CC(=O)[O-]
REMARK SMILES IDX 1 1 2 2 3 3 4 4
REMARK H PARENT
REMARK Flexibility Score: inf
ROOT
ATOM      1  C   UNL     1     118.683  16.473  26.668  1.00  0.00     0.063 C 
ATOM      2  C   UNL     1     118.465  15.934  28.042  1.00  0.00     0.038 C 
ATOM      3  O   UNL     1     117.712  14.942  28.219  1.00  0.00    -0.550 OA
ATOM      4  O   UNL     1     119.136  16.492  29.123  1.00  0.00    -0.550 OA
ENDROOT
TORSDOF 0
ENDMDL
MODEL 9
REMARK VINA RESULT:    -1.136     17.301     17.630
REMARK INTER + INTRA:          -1.136
REMARK INTER:                  -1.136
REMARK INTRA:                   0.000
REMARK UNBOUND:                 0.000
REMARK SMILES CC(=O)[O-]
REMARK SMILES IDX 1 1 2 2 3 3 4 4
REMARK H PARENT
REMARK Flexibility Score: inf
ROOT
ATOM      1  C   UNL     1     116.323  12.109  24.178  1.00  0.00     0.063 C 
ATOM      2  C   UNL     1     115.883  12.923  25.347  1.00  0.00     0.038 C 
ATOM      3  O   UNL     1     114.931  12.528  26.069  1.00  0.00    -0.550 OA
ATOM      4  O   UNL     1     116.557  14.092  25.674  1.00  0.00    -0.550 OA
ENDROOT
TORSDOF 0
ENDMDL
