MODEL 1
REMARK VINA RESULT:    -5.283      0.000      0.000
REMARK INTER + INTRA:          -5.994
REMARK INTER:                  -5.746
REMARK INTRA:                  -0.248
REMARK UNBOUND:                -0.248
REMARK SMILES O=C([O-])c1ccccc1O
REMARK SMILES IDX 4 1 9 2 5 3 8 4 6 5 7 6 2 7 1 8 3 9 10 10
REMARK H PARENT 10 11
REMARK Flexibility Score: inf
ROOT
ATOM      1  C   UNL     1      -9.555  -3.636  16.712  1.00  0.00     0.039 A 
ATOM      2  C   UNL     1     -10.711  -2.929  17.121  1.00  0.00     0.124 A 
ATOM      3  C   UNL     1      -9.711  -4.792  15.920  1.00  0.00     0.014 A 
ATOM      4  C   UNL     1     -11.982  -3.382  16.733  1.00  0.00     0.047 A 
ATOM      5  C   UNL     1     -10.982  -5.232  15.543  1.00  0.00     0.001 A 
ATOM      6  C   UNL     1     -12.115  -4.529  15.948  1.00  0.00     0.004 A 
ENDROOT
BRANCH   1   7
ATOM      7  C   UNL     1      -8.190  -3.192  17.099  1.00  0.00     0.075 C 
ATOM      8  O   UNL     1      -7.897  -3.020  18.312  1.00  0.00    -0.545 OA
ATOM      9  O   UNL     1      -7.213  -2.957  16.139  1.00  0.00    -0.545 OA
ENDBRANCH   1   7
BRANCH   2  10
ATOM     10  O   UNL     1     -10.606  -1.781  17.905  1.00  0.00    -0.507 OA
ATOM     11  H   UNL     1     -11.389  -1.152  18.037  1.00  0.00     0.293 HD
ENDBRANCH   2  10
TORSDOF 2
ENDMDL
MODEL 2
REMARK VINA RESULT:    -5.216      6.068      7.424
REMARK INTER + INTRA:          -5.922
REMARK INTER:                  -5.673
REMARK INTRA:                  -0.248
REMARK UNBOUND:                -0.248
REMARK SMILES O=C([O-])c1ccccc1O
REMARK SMILES IDX 4 1 9 2 5 3 8 4 6 5 7 6 2 7 1 8 3 9 10 10
REMARK H PARENT 10 11
REMARK Flexibility Score: inf
ROOT
ATOM      1  C   UNL     1     -11.744  -5.559  10.941  1.00  0.00     0.039 A 
ATOM      2  C   UNL     1     -10.463  -5.549  10.339  1.00  0.00     0.124 A 
ATOM      3  C   UNL     1     -11.853  -5.923  12.299  1.00  0.00     0.014 A 
ATOM      4  C   UNL     1      -9.332  -5.895  11.094  1.00  0.00     0.047 A 
ATOM      5  C   UNL     1     -10.718  -6.267  13.038  1.00  0.00     0.001 A 
ATOM      6  C   UNL     1      -9.460  -6.253  12.437  1.00  0.00     0.004 A 
ENDROOT
BRANCH   1   7
ATOM      7  C   UNL     1     -12.968  -5.199  10.179  1.00  0.00     0.075 C 
ATOM      8  O   UNL     1     -13.248  -5.796   9.105  1.00  0.00    -0.545 OA
ATOM      9  O   UNL     1     -13.827  -4.203  10.630  1.00  0.00    -0.545 OA
ENDBRANCH   1   7
BRANCH   2  10
ATOM     10  O   UNL     1     -10.307  -5.196   8.999  1.00  0.00    -0.507 OA
ATOM     11  H   UNL     1     -10.741  -4.366   8.612  1.00  0.00     0.293 HD
ENDBRANCH   2  10
TORSDOF 2
ENDMDL
MODEL 3
REMARK VINA RESULT:    -5.025      0.962      2.417
REMARK INTER + INTRA:          -5.714
REMARK INTER:                  -5.468
REMARK INTRA:                  -0.246
REMARK UNBOUND:                -0.248
REMARK SMILES O=C([O-])c1ccccc1O
REMARK SMILES IDX 4 1 9 2 5 3 8 4 6 5 7 6 2 7 1 8 3 9 10 10
REMARK H PARENT 10 11
REMARK Flexibility Score: inf
ROOT
ATOM      1  C   UNL     1      -9.570  -3.699  16.705  1.00  0.00     0.039 A 
ATOM      2  C   UNL     1      -9.681  -4.852  15.891  1.00  0.00     0.124 A 
ATOM      3  C   UNL     1     -10.743  -3.000  17.056  1.00  0.00     0.014 A 
ATOM      4  C   UNL     1     -10.944  -5.279  15.451  1.00  0.00     0.047 A 
ATOM      5  C   UNL     1     -11.993  -3.436  16.610  1.00  0.00     0.001 A 
ATOM      6  C   UNL     1     -12.094  -4.573  15.809  1.00  0.00     0.004 A 
ENDROOT
BRANCH   1   7
ATOM      7  C   UNL     1      -8.254  -3.213  17.194  1.00  0.00     0.075 C 
ATOM      8  O   UNL     1      -7.332  -2.944  16.377  1.00  0.00    -0.545 OA
ATOM      9  O   UNL     1      -8.010  -3.044  18.552  1.00  0.00    -0.545 OA
ENDBRANCH   1   7
BRANCH   2  10
ATOM     10  O   UNL     1      -8.549  -5.575  15.519  1.00  0.00    -0.507 OA
ATOM     11  H   UNL     1      -8.492  -6.579  15.646  1.00  0.00     0.293 HD
ENDBRANCH   2  10
TORSDOF 2
ENDMDL
MODEL 4
REMARK VINA RESULT:    -5.019      5.896      6.962
REMARK INTER + INTRA:          -5.707
REMARK INTER:                  -5.456
REMARK INTRA:                  -0.251
REMARK UNBOUND:                -0.248
REMARK SMILES O=C([O-])c1ccccc1O
REMARK SMILES IDX 4 1 9 2 5 3 8 4 6 5 7 6 2 7 1 8 3 9 10 10
REMARK H PARENT 10 11
REMARK Flexibility Score: inf
ROOT
ATOM      1  C   UNL     1     -11.681  -5.606  10.989  1.00  0.00     0.039 A 
ATOM      2  C   UNL     1     -11.895  -5.902  12.357  1.00  0.00     0.124 A 
ATOM      3  C   UNL     1     -10.361  -5.603  10.494  1.00  0.00     0.014 A 
ATOM      4  C   UNL     1     -10.802  -6.187  13.191  1.00  0.00     0.047 A 
ATOM      5  C   UNL     1      -9.283  -5.887  11.336  1.00  0.00     0.001 A 
ATOM      6  C   UNL     1      -9.503  -6.178  12.682  1.00  0.00     0.004 A 
ENDROOT
BRANCH   1   7
ATOM      7  C   UNL     1     -12.808  -5.300  10.071  1.00  0.00     0.075 C 
ATOM      8  O   UNL     1     -13.658  -4.421  10.378  1.00  0.00    -0.545 OA
ATOM      9  O   UNL     1     -12.951  -5.969   8.861  1.00  0.00    -0.545 OA
ENDBRANCH   1   7
BRANCH   2  10
ATOM     10  O   UNL     1     -13.183  -5.917  12.891  1.00  0.00    -0.507 OA
ATOM     11  H   UNL     1     -13.984  -5.599  12.360  1.00  0.00     0.293 HD
ENDBRANCH   2  10
TORSDOF 2
ENDMDL
MODEL 5
REMARK VINA RESULT:    -4.966      2.354      4.043
REMARK INTER + INTRA:          -5.649
REMARK INTER:                  -5.401
REMARK INTRA:                  -0.248
REMARK UNBOUND:                -0.248
REMARK SMILES O=C([O-])c1ccccc1O
REMARK SMILES IDX 4 1 9 2 5 3 8 4 6 5 7 6 2 7 1 8 3 9 10 10
REMARK H PARENT 10 11
REMARK Flexibility Score: inf
ROOT
ATOM      1  C   UNL     1     -10.998  -3.382  16.457  1.00  0.00     0.039 A 
ATOM      2  C   UNL     1      -9.918  -4.064  15.849  1.00  0.00     0.124 A 
ATOM      3  C   UNL     1     -10.765  -2.665  17.648  1.00  0.00     0.014 A 
ATOM      4  C   UNL     1      -8.643  -4.018  16.435  1.00  0.00     0.047 A 
ATOM      5  C   UNL     1      -9.491  -2.629  18.220  1.00  0.00     0.001 A 
ATOM      6  C   UNL     1      -8.432  -3.303  17.615  1.00  0.00     0.004 A 
ENDROOT
BRANCH   1   7
ATOM      7  C   UNL     1     -12.365  -3.403  15.871  1.00  0.00     0.075 C 
ATOM      8  O   UNL     1     -13.351  -3.753  16.573  1.00  0.00    -0.545 OA
ATOM      9  O   UNL     1     -12.584  -3.042  14.547  1.00  0.00    -0.545 OA
ENDBRANCH   1   7
BRANCH   2  10
ATOM     10  O   UNL     1     -10.101  -4.785  14.670  1.00  0.00    -0.507 OA
ATOM     11  H   UNL     1     -10.885  -4.609  14.053  1.00  0.00     0.293 HD
ENDBRANCH   2  10
TORSDOF 2
ENDMDL
MODEL 6
REMARK VINA RESULT:    -4.839      4.943      6.142
REMARK INTER + INTRA:          -5.512
REMARK INTER:                  -5.264
REMARK INTRA:                  -0.248
REMARK UNBOUND:                -0.248
REMARK SMILES O=C([O-])c1ccccc1O
REMARK SMILES IDX 4 1 9 2 5 3 8 4 6 5 7 6 2 7 1 8 3 9 10 10
REMARK H PARENT 10 11
REMARK Flexibility Score: inf
ROOT
ATOM      1  C   UNL     1     -11.139  -5.519  11.967  1.00  0.00     0.039 A 
ATOM      2  C   UNL     1     -10.105  -5.569  11.001  1.00  0.00     0.124 A 
ATOM      3  C   UNL     1     -12.479  -5.535  11.530  1.00  0.00     0.014 A 
ATOM      4  C   UNL     1     -10.426  -5.636   9.636  1.00  0.00     0.047 A 
ATOM      5  C   UNL     1     -12.783  -5.601  10.168  1.00  0.00     0.001 A 
ATOM      6  C   UNL     1     -11.759  -5.651   9.223  1.00  0.00     0.004 A 
ENDROOT
BRANCH   1   7
ATOM      7  C   UNL     1     -10.845  -5.449  13.423  1.00  0.00     0.075 C 
ATOM      8  O   UNL     1     -11.562  -6.076  14.247  1.00  0.00    -0.545 OA
ATOM      9  O   UNL     1      -9.781  -4.695  13.904  1.00  0.00    -0.545 OA
ENDBRANCH   1   7
BRANCH   2  10
ATOM     10  O   UNL     1      -8.766  -5.556  11.387  1.00  0.00    -0.507 OA
ATOM     11  H   UNL     1      -8.134  -6.311  11.149  1.00  0.00     0.293 HD
ENDBRANCH   2  10
TORSDOF 2
ENDMDL
MODEL 7
REMARK VINA RESULT:    -4.795      2.386      3.764
REMARK INTER + INTRA:          -5.463
REMARK INTER:                  -5.228
REMARK INTRA:                  -0.235
REMARK UNBOUND:                -0.248
REMARK SMILES O=C([O-])c1ccccc1O
REMARK SMILES IDX 4 1 9 2 5 3 8 4 6 5 7 6 2 7 1 8 3 9 10 10
REMARK H PARENT 10 11
REMARK Flexibility Score: inf
ROOT
ATOM      1  C   UNL     1     -10.340  -4.072  15.864  1.00  0.00     0.039 A 
ATOM      2  C   UNL     1      -8.980  -4.101  16.256  1.00  0.00     0.124 A 
ATOM      3  C   UNL     1     -11.251  -3.317  16.629  1.00  0.00     0.014 A 
ATOM      4  C   UNL     1      -8.563  -3.384  17.388  1.00  0.00     0.047 A 
ATOM      5  C   UNL     1     -10.822  -2.608  17.753  1.00  0.00     0.001 A 
ATOM      6  C   UNL     1      -9.480  -2.641  18.132  1.00  0.00     0.004 A 
ENDROOT
BRANCH   1   7
ATOM      7  C   UNL     1     -10.825  -4.817  14.672  1.00  0.00     0.075 C 
ATOM      8  O   UNL     1     -11.731  -5.685  14.790  1.00  0.00    -0.545 OA
ATOM      9  O   UNL     1     -10.295  -4.576  13.410  1.00  0.00    -0.545 OA
ENDBRANCH   1   7
BRANCH   2  10
ATOM     10  O   UNL     1      -8.043  -4.835  15.530  1.00  0.00    -0.507 OA
ATOM     11  H   UNL     1      -7.414  -5.490  15.979  1.00  0.00     0.293 HD
ENDBRANCH   2  10
TORSDOF 2
ENDMDL
MODEL 8
REMARK VINA RESULT:    -4.787      2.541      3.399
REMARK INTER + INTRA:          -5.454
REMARK INTER:                  -5.199
REMARK INTRA:                  -0.255
REMARK UNBOUND:                -0.248
REMARK SMILES O=C([O-])c1ccccc1O
REMARK SMILES IDX 4 1 9 2 5 3 8 4 6 5 7 6 2 7 1 8 3 9 10 10
REMARK H PARENT 10 11
REMARK Flexibility Score: inf
ROOT
ATOM      1  C   UNL     1     -10.357  -4.143  15.896  1.00  0.00     0.039 A 
ATOM      2  C   UNL     1     -11.284  -3.372  16.637  1.00  0.00     0.124 A 
ATOM      3  C   UNL     1      -9.002  -4.132  16.284  1.00  0.00     0.014 A 
ATOM      4  C   UNL     1     -10.846  -2.616  17.736  1.00  0.00     0.047 A 
ATOM      5  C   UNL     1      -8.579  -3.375  17.379  1.00  0.00     0.001 A 
ATOM      6  C   UNL     1      -9.499  -2.618  18.104  1.00  0.00     0.004 A 
ENDROOT
BRANCH   1   7
ATOM      7  C   UNL     1     -10.777  -4.958  14.726  1.00  0.00     0.075 C 
ATOM      8  O   UNL     1     -10.386  -6.150  14.609  1.00  0.00    -0.545 OA
ATOM      9  O   UNL     1     -11.604  -4.429  13.743  1.00  0.00    -0.545 OA
ENDBRANCH   1   7
BRANCH   2  10
ATOM     10  O   UNL     1     -12.634  -3.351  16.290  1.00  0.00    -0.507 OA
ATOM     11  H   UNL     1     -13.363  -3.281  16.990  1.00  0.00     0.293 HD
ENDBRANCH   2  10
TORSDOF 2
ENDMDL
MODEL 9
REMARK VINA RESULT:    -4.775      4.875      5.729
REMARK INTER + INTRA:          -5.442
REMARK INTER:                  -5.187
REMARK INTRA:                  -0.255
REMARK UNBOUND:                -0.248
REMARK SMILES O=C([O-])c1ccccc1O
REMARK SMILES IDX 4 1 9 2 5 3 8 4 6 5 7 6 2 7 1 8 3 9 10 10
REMARK H PARENT 10 11
REMARK Flexibility Score: inf
ROOT
ATOM      1  C   UNL     1     -10.888  -5.662  12.248  1.00  0.00     0.039 A 
ATOM      2  C   UNL     1     -12.259  -5.592  11.906  1.00  0.00     0.124 A 
ATOM      3  C   UNL     1      -9.929  -5.670  11.215  1.00  0.00     0.014 A 
ATOM      4  C   UNL     1     -12.641  -5.529  10.556  1.00  0.00     0.047 A 
ATOM      5  C   UNL     1     -10.323  -5.608   9.876  1.00  0.00     0.001 A 
ATOM      6  C   UNL     1     -11.677  -5.538   9.547  1.00  0.00     0.004 A 
ENDROOT
BRANCH   1   7
ATOM      7  C   UNL     1     -10.439  -5.729  13.664  1.00  0.00     0.075 C 
ATOM      8  O   UNL     1      -9.485  -5.010  14.063  1.00  0.00    -0.545 OA
ATOM      9  O   UNL     1     -11.056  -6.581  14.573  1.00  0.00    -0.545 OA
ENDBRANCH   1   7
BRANCH   2  10
ATOM     10  O   UNL     1     -13.243  -5.582  12.893  1.00  0.00    -0.507 OA
ATOM     11  H   UNL     1     -14.096  -5.045  12.791  1.00  0.00     0.293 HD
ENDBRANCH   2  10
TORSDOF 2
ENDMDL
