MODEL 1
REMARK VINA RESULT:    -4.114      0.000      0.000
REMARK INTER + INTRA:          -6.301
REMARK INTER:                  -6.038
REMARK INTRA:                  -0.263
REMARK UNBOUND:                -0.263
REMARK SMILES O=C([O-])CCCCCCCC(=O)[O-]
REMARK SMILES IDX 7 1 6 2 5 3 4 4 2 5 1 6 3 7 8 8 9 9 10 10 11 11 12 12 13 13
REMARK H PARENT
REMARK Flexibility Score: inf
ROOT
ATOM      1  C   UNL     1     -34.070 -52.117  26.556  1.00  0.00     0.000 C 
ENDROOT
BRANCH   1   2
ATOM      2  C   UNL     1     -34.273 -52.213  25.040  1.00  0.00     0.000 C 
BRANCH   2   3
ATOM      3  C   UNL     1     -33.998 -50.866  24.360  1.00  0.00     0.006 C 
BRANCH   3   4
ATOM      4  C   UNL     1     -35.303 -50.194  23.925  1.00  0.00     0.053 C 
BRANCH   4   5
ATOM      5  C   UNL     1     -35.104 -48.720  23.759  1.00  0.00     0.041 C 
ATOM      6  O   UNL     1     -35.977 -47.912  24.170  1.00  0.00    -0.550 OA
ATOM      7  O   UNL     1     -33.929 -48.237  23.196  1.00  0.00    -0.550 OA
ENDBRANCH   4   5
ENDBRANCH   3   4
ENDBRANCH   2   3
ENDBRANCH   1   2
BRANCH   1   8
ATOM      8  C   UNL     1     -35.114 -52.960  27.305  1.00  0.00     0.000 C 
BRANCH   8   9
ATOM      9  C   UNL     1     -35.212 -52.596  28.794  1.00  0.00     0.006 C 
BRANCH   9  10
ATOM     10  C   UNL     1     -34.855 -53.772  29.714  1.00  0.00     0.053 C 
BRANCH  10  11
ATOM     11  C   UNL     1     -35.734 -54.947  29.422  1.00  0.00     0.041 C 
ATOM     12  O   UNL     1     -35.228 -56.048  29.081  1.00  0.00    -0.550 OA
ATOM     13  O   UNL     1     -37.112 -54.839  29.574  1.00  0.00    -0.550 OA
ENDBRANCH  10  11
ENDBRANCH   9  10
ENDBRANCH   8   9
ENDBRANCH   1   8
TORSDOF 8
ENDMDL
MODEL 2
REMARK VINA RESULT:    -4.065      8.474     10.346
REMARK INTER + INTRA:          -6.229
REMARK INTER:                  -5.570
REMARK INTRA:                  -0.658
REMARK UNBOUND:                -0.263
REMARK SMILES O=C([O-])CCCCCCCC(=O)[O-]
REMARK SMILES IDX 7 1 6 2 5 3 4 4 2 5 1 6 3 7 8 8 9 9 10 10 11 11 12 12 13 13
REMARK H PARENT
REMARK Flexibility Score: inf
ROOT
ATOM      1  C   UNL     1     -26.854 -51.205  26.028  1.00  0.00     0.000 C 
ENDROOT
BRANCH   1   2
ATOM      2  C   UNL     1     -26.308 -51.779  27.341  1.00  0.00     0.000 C 
BRANCH   2   3
ATOM      3  C   UNL     1     -25.239 -52.845  27.075  1.00  0.00     0.006 C 
BRANCH   3   4
ATOM      4  C   UNL     1     -24.596 -53.317  28.382  1.00  0.00     0.053 C 
BRANCH   4   5
ATOM      5  C   UNL     1     -25.472 -54.320  29.065  1.00  0.00     0.041 C 
ATOM      6  O   UNL     1     -25.696 -54.230  30.300  1.00  0.00    -0.550 OA
ATOM      7  O   UNL     1     -26.083 -55.325  28.327  1.00  0.00    -0.550 OA
ENDBRANCH   4   5
ENDBRANCH   3   4
ENDBRANCH   2   3
ENDBRANCH   1   2
BRANCH   1   8
ATOM      8  C   UNL     1     -25.919 -51.534  24.854  1.00  0.00     0.000 C 
BRANCH   8   9
ATOM      9  C   UNL     1     -26.677 -52.042  23.617  1.00  0.00     0.006 C 
BRANCH   9  10
ATOM     10  C   UNL     1     -28.005 -52.723  23.978  1.00  0.00     0.053 C 
BRANCH  10  11
ATOM     11  C   UNL     1     -27.807 -54.196  24.142  1.00  0.00     0.041 C 
ATOM     12  O   UNL     1     -27.606 -54.925  23.135  1.00  0.00    -0.550 OA
ATOM     13  O   UNL     1     -27.798 -54.761  25.412  1.00  0.00    -0.550 OA
ENDBRANCH  10  11
ENDBRANCH   9  10
ENDBRANCH   8   9
ENDBRANCH   1   8
TORSDOF 8
ENDMDL
MODEL 3
REMARK VINA RESULT:    -4.034      4.880      8.311
REMARK INTER + INTRA:          -6.183
REMARK INTER:                  -5.925
REMARK INTRA:                  -0.257
REMARK UNBOUND:                -0.263
REMARK SMILES O=C([O-])CCCCCCCC(=O)[O-]
REMARK SMILES IDX 7 1 6 2 5 3 4 4 2 5 1 6 3 7 8 8 9 9 10 10 11 11 12 12 13 13
REMARK H PARENT
REMARK Flexibility Score: inf
ROOT
ATOM      1  C   UNL     1     -32.925 -53.137  31.576  1.00  0.00     0.000 C 
ENDROOT
BRANCH   1   2
ATOM      2  C   UNL     1     -32.981 -53.155  33.108  1.00  0.00     0.000 C 
BRANCH   2   3
ATOM      3  C   UNL     1     -31.656 -52.677  33.714  1.00  0.00     0.006 C 
BRANCH   3   4
ATOM      4  C   UNL     1     -30.800 -53.862  34.170  1.00  0.00     0.053 C 
BRANCH   4   5
ATOM      5  C   UNL     1     -29.357 -53.474  34.228  1.00  0.00     0.041 C 
ATOM      6  O   UNL     1     -28.466 -54.286  33.866  1.00  0.00    -0.550 OA
ATOM      7  O   UNL     1     -28.997 -52.195  34.637  1.00  0.00    -0.550 OA
ENDBRANCH   4   5
ENDBRANCH   3   4
ENDBRANCH   2   3
ENDBRANCH   1   2
BRANCH   1   8
ATOM      8  C   UNL     1     -33.877 -54.184  30.979  1.00  0.00     0.000 C 
BRANCH   8   9
ATOM      9  C   UNL     1     -33.512 -54.559  29.534  1.00  0.00     0.006 C 
BRANCH   9  10
ATOM     10  C   UNL     1     -34.658 -55.271  28.802  1.00  0.00     0.053 C 
BRANCH  10  11
ATOM     11  C   UNL     1     -35.816 -54.342  28.620  1.00  0.00     0.041 C 
ATOM     12  O   UNL     1     -36.932 -54.609  29.139  1.00  0.00    -0.550 OA
ATOM     13  O   UNL     1     -35.652 -53.155  27.915  1.00  0.00    -0.550 OA
ENDBRANCH  10  11
ENDBRANCH   9  10
ENDBRANCH   8   9
ENDBRANCH   1   8
TORSDOF 8
ENDMDL
MODEL 4
REMARK VINA RESULT:    -4.004     10.222     11.942
REMARK INTER + INTRA:          -6.140
REMARK INTER:                  -5.501
REMARK INTRA:                  -0.639
REMARK UNBOUND:                -0.263
REMARK SMILES O=C([O-])CCCCCCCC(=O)[O-]
REMARK SMILES IDX 7 1 6 2 5 3 4 4 2 5 1 6 3 7 8 8 9 9 10 10 11 11 12 12 13 13
REMARK H PARENT
REMARK Flexibility Score: inf
ROOT
ATOM      1  C   UNL     1     -27.929 -52.382  31.973  1.00  0.00     0.000 C 
ENDROOT
BRANCH   1   2
ATOM      2  C   UNL     1     -27.350 -53.222  33.117  1.00  0.00     0.000 C 
BRANCH   2   3
ATOM      3  C   UNL     1     -26.925 -52.335  34.293  1.00  0.00     0.006 C 
BRANCH   3   4
ATOM      4  C   UNL     1     -26.471 -50.956  33.805  1.00  0.00     0.053 C 
BRANCH   4   5
ATOM      5  C   UNL     1     -24.982 -50.915  33.663  1.00  0.00     0.041 C 
ATOM      6  O   UNL     1     -24.456 -50.805  32.524  1.00  0.00    -0.550 OA
ATOM      7  O   UNL     1     -24.175 -50.948  34.793  1.00  0.00    -0.550 OA
ENDBRANCH   4   5
ENDBRANCH   3   4
ENDBRANCH   2   3
ENDBRANCH   1   2
BRANCH   1   8
ATOM      8  C   UNL     1     -27.264 -52.742  30.635  1.00  0.00     0.000 C 
BRANCH   8   9
ATOM      9  C   UNL     1     -25.952 -53.520  30.817  1.00  0.00     0.006 C 
BRANCH   9  10
ATOM     10  C   UNL     1     -25.489 -54.206  29.524  1.00  0.00     0.053 C 
BRANCH  10  11
ATOM     11  C   UNL     1     -24.509 -53.341  28.797  1.00  0.00     0.041 C 
ATOM     12  O   UNL     1     -24.519 -53.291  27.539  1.00  0.00    -0.550 OA
ATOM     13  O   UNL     1     -23.614 -52.553  29.510  1.00  0.00    -0.550 OA
ENDBRANCH  10  11
ENDBRANCH   9  10
ENDBRANCH   8   9
ENDBRANCH   1   8
TORSDOF 8
ENDMDL
MODEL 5
REMARK VINA RESULT:    -3.990      4.698      7.001
REMARK INTER + INTRA:          -6.118
REMARK INTER:                  -5.811
REMARK INTRA:                  -0.307
REMARK UNBOUND:                -0.263
REMARK SMILES O=C([O-])CCCCCCCC(=O)[O-]
REMARK SMILES IDX 7 1 6 2 5 3 4 4 2 5 1 6 3 7 8 8 9 9 10 10 11 11 12 12 13 13
REMARK H PARENT
REMARK Flexibility Score: inf
ROOT
ATOM      1  C   UNL     1     -33.401 -53.682  31.157  1.00  0.00     0.000 C 
ENDROOT
BRANCH   1   2
ATOM      2  C   UNL     1     -33.287 -53.392  29.656  1.00  0.00     0.000 C 
BRANCH   2   3
ATOM      3  C   UNL     1     -34.600 -52.827  29.102  1.00  0.00     0.006 C 
BRANCH   3   4
ATOM      4  C   UNL     1     -35.209 -53.772  28.061  1.00  0.00     0.053 C 
BRANCH   4   5
ATOM      5  C   UNL     1     -35.871 -54.933  28.732  1.00  0.00     0.041 C 
ATOM      6  O   UNL     1     -35.347 -56.077  28.684  1.00  0.00    -0.550 OA
ATOM      7  O   UNL     1     -37.044 -54.743  29.452  1.00  0.00    -0.550 OA
ENDBRANCH   4   5
ENDBRANCH   3   4
ENDBRANCH   2   3
ENDBRANCH   1   2
BRANCH   1   8
ATOM      8  C   UNL     1     -32.589 -52.668  31.977  1.00  0.00     0.000 C 
BRANCH   8   9
ATOM      9  C   UNL     1     -32.607 -52.974  33.483  1.00  0.00     0.006 C 
BRANCH   9  10
ATOM     10  C   UNL     1     -31.586 -54.050  33.878  1.00  0.00     0.053 C 
BRANCH  10  11
ATOM     11  C   UNL     1     -30.332 -53.415  34.389  1.00  0.00     0.041 C 
ATOM     12  O   UNL     1     -29.208 -53.882  34.067  1.00  0.00    -0.550 OA
ATOM     13  O   UNL     1     -30.401 -52.277  35.184  1.00  0.00    -0.550 OA
ENDBRANCH  10  11
ENDBRANCH   9  10
ENDBRANCH   8   9
ENDBRANCH   1   8
TORSDOF 8
ENDMDL
MODEL 6
REMARK VINA RESULT:    -3.977      1.092      7.238
REMARK INTER + INTRA:          -6.100
REMARK INTER:                  -5.849
REMARK INTRA:                  -0.251
REMARK UNBOUND:                -0.263
REMARK SMILES O=C([O-])CCCCCCCC(=O)[O-]
REMARK SMILES IDX 7 1 6 2 5 3 4 4 2 5 1 6 3 7 8 8 9 9 10 10 11 11 12 12 13 13
REMARK H PARENT
REMARK Flexibility Score: inf
ROOT
ATOM      1  C   UNL     1     -33.911 -52.015  25.063  1.00  0.00     0.000 C 
ENDROOT
BRANCH   1   2
ATOM      2  C   UNL     1     -34.016 -52.061  26.592  1.00  0.00     0.000 C 
BRANCH   2   3
ATOM      3  C   UNL     1     -34.962 -53.178  27.047  1.00  0.00     0.006 C 
BRANCH   3   4
ATOM      4  C   UNL     1     -34.324 -54.022  28.154  1.00  0.00     0.053 C 
BRANCH   4   5
ATOM      5  C   UNL     1     -35.345 -54.912  28.789  1.00  0.00     0.041 C 
ATOM      6  O   UNL     1     -34.984 -55.890  29.494  1.00  0.00    -0.550 OA
ATOM      7  O   UNL     1     -36.698 -54.632  28.643  1.00  0.00    -0.550 OA
ENDBRANCH   4   5
ENDBRANCH   3   4
ENDBRANCH   2   3
ENDBRANCH   1   2
BRANCH   1   8
ATOM      8  C   UNL     1     -34.868 -50.965  24.478  1.00  0.00     0.000 C 
BRANCH   8   9
ATOM      9  C   UNL     1     -34.128 -49.810  23.786  1.00  0.00     0.006 C 
BRANCH   9  10
ATOM     10  C   UNL     1     -34.107 -48.531  24.634  1.00  0.00     0.053 C 
BRANCH  10  11
ATOM     11  C   UNL     1     -35.058 -47.520  24.077  1.00  0.00     0.041 C 
ATOM     12  O   UNL     1     -36.300 -47.710  24.150  1.00  0.00    -0.550 OA
ATOM     13  O   UNL     1     -34.574 -46.343  23.518  1.00  0.00    -0.550 OA
ENDBRANCH  10  11
ENDBRANCH   9  10
ENDBRANCH   8   9
ENDBRANCH   1   8
TORSDOF 8
ENDMDL
MODEL 7
REMARK VINA RESULT:    -3.933      8.552      9.290
REMARK INTER + INTRA:          -6.036
REMARK INTER:                  -5.672
REMARK INTRA:                  -0.364
REMARK UNBOUND:                -0.263
REMARK SMILES O=C([O-])CCCCCCCC(=O)[O-]
REMARK SMILES IDX 7 1 6 2 5 3 4 4 2 5 1 6 3 7 8 8 9 9 10 10 11 11 12 12 13 13
REMARK H PARENT
REMARK Flexibility Score: inf
ROOT
ATOM      1  C   UNL     1     -25.967 -52.334  26.671  1.00  0.00     0.000 C 
ENDROOT
BRANCH   1   2
ATOM      2  C   UNL     1     -25.807 -51.683  25.292  1.00  0.00     0.000 C 
BRANCH   2   3
ATOM      3  C   UNL     1     -27.150 -51.614  24.556  1.00  0.00     0.006 C 
BRANCH   3   4
ATOM      4  C   UNL     1     -27.218 -52.657  23.436  1.00  0.00     0.053 C 
BRANCH   4   5
ATOM      5  C   UNL     1     -27.886 -53.904  23.920  1.00  0.00     0.041 C 
ATOM      6  O   UNL     1     -28.734 -53.850  24.849  1.00  0.00    -0.550 OA
ATOM      7  O   UNL     1     -27.609 -55.122  23.311  1.00  0.00    -0.550 OA
ENDBRANCH   4   5
ENDBRANCH   3   4
ENDBRANCH   2   3
ENDBRANCH   1   2
BRANCH   1   8
ATOM      8  C   UNL     1     -24.740 -53.190  27.020  1.00  0.00     0.000 C 
BRANCH   8   9
ATOM      9  C   UNL     1     -24.544 -53.352  28.536  1.00  0.00     0.006 C 
BRANCH   9  10
ATOM     10  C   UNL     1     -25.507 -54.379  29.148  1.00  0.00     0.053 C 
BRANCH  10  11
ATOM     11  C   UNL     1     -26.091 -53.850  30.420  1.00  0.00     0.041 C 
ATOM     12  O   UNL     1     -25.471 -53.987  31.507  1.00  0.00    -0.550 OA
ATOM     13  O   UNL     1     -27.300 -53.164  30.399  1.00  0.00    -0.550 OA
ENDBRANCH  10  11
ENDBRANCH   9  10
ENDBRANCH   8   9
ENDBRANCH   1   8
TORSDOF 8
ENDMDL
MODEL 8
REMARK VINA RESULT:    -3.933      4.816      7.809
REMARK INTER + INTRA:          -6.035
REMARK INTER:                  -5.718
REMARK INTRA:                  -0.318
REMARK UNBOUND:                -0.263
REMARK SMILES O=C([O-])CCCCCCCC(=O)[O-]
REMARK SMILES IDX 7 1 6 2 5 3 4 4 2 5 1 6 3 7 8 8 9 9 10 10 11 11 12 12 13 13
REMARK H PARENT
REMARK Flexibility Score: inf
ROOT
ATOM      1  C   UNL     1     -33.370 -53.666  31.156  1.00  0.00     0.000 C 
ENDROOT
BRANCH   1   2
ATOM      2  C   UNL     1     -32.586 -52.620  31.957  1.00  0.00     0.000 C 
BRANCH   2   3
ATOM      3  C   UNL     1     -32.650 -52.915  33.460  1.00  0.00     0.006 C 
BRANCH   3   4
ATOM      4  C   UNL     1     -31.580 -53.931  33.867  1.00  0.00     0.053 C 
BRANCH   4   5
ATOM      5  C   UNL     1     -30.333 -53.231  34.308  1.00  0.00     0.041 C 
ATOM      6  O   UNL     1     -30.353 -52.473  35.313  1.00  0.00    -0.550 OA
ATOM      7  O   UNL     1     -29.137 -53.455  33.639  1.00  0.00    -0.550 OA
ENDBRANCH   4   5
ENDBRANCH   3   4
ENDBRANCH   2   3
ENDBRANCH   1   2
BRANCH   1   8
ATOM      8  C   UNL     1     -33.361 -53.330  29.657  1.00  0.00     0.000 C 
BRANCH   8   9
ATOM      9  C   UNL     1     -34.733 -52.863  29.146  1.00  0.00     0.006 C 
BRANCH   9  10
ATOM     10  C   UNL     1     -35.377 -53.868  28.182  1.00  0.00     0.053 C 
BRANCH  10  11
ATOM     11  C   UNL     1     -36.012 -54.988  28.944  1.00  0.00     0.041 C 
ATOM     12  O   UNL     1     -35.458 -56.117  28.990  1.00  0.00    -0.550 OA
ATOM     13  O   UNL     1     -37.193 -54.771  29.644  1.00  0.00    -0.550 OA
ENDBRANCH  10  11
ENDBRANCH   9  10
ENDBRANCH   8   9
ENDBRANCH   1   8
TORSDOF 8
ENDMDL
MODEL 9
REMARK VINA RESULT:    -3.908      0.679      7.088
REMARK INTER + INTRA:          -5.998
REMARK INTER:                  -5.721
REMARK INTRA:                  -0.278
REMARK UNBOUND:                -0.263
REMARK SMILES O=C([O-])CCCCCCCC(=O)[O-]
REMARK SMILES IDX 7 1 6 2 5 3 4 4 2 5 1 6 3 7 8 8 9 9 10 10 11 11 12 12 13 13
REMARK H PARENT
REMARK Flexibility Score: inf
ROOT
ATOM      1  C   UNL     1     -33.980 -51.986  26.313  1.00  0.00     0.000 C 
ENDROOT
BRANCH   1   2
ATOM      2  C   UNL     1     -34.782 -52.797  27.337  1.00  0.00     0.000 C 
BRANCH   2   3
ATOM      3  C   UNL     1     -33.860 -53.420  28.392  1.00  0.00     0.006 C 
BRANCH   3   4
ATOM      4  C   UNL     1     -34.648 -53.829  29.639  1.00  0.00     0.053 C 
BRANCH   4   5
ATOM      5  C   UNL     1     -35.620 -54.918  29.311  1.00  0.00     0.041 C 
ATOM      6  O   UNL     1     -36.856 -54.733  29.463  1.00  0.00    -0.550 OA
ATOM      7  O   UNL     1     -35.164 -56.122  28.788  1.00  0.00    -0.550 OA
ENDBRANCH   4   5
ENDBRANCH   3   4
ENDBRANCH   2   3
ENDBRANCH   1   2
BRANCH   1   8
ATOM      8  C   UNL     1     -34.493 -52.242  24.887  1.00  0.00     0.000 C 
BRANCH   8   9
ATOM      9  C   UNL     1     -34.958 -50.956  24.186  1.00  0.00     0.006 C 
BRANCH   9  10
ATOM     10  C   UNL     1     -34.224 -49.708  24.694  1.00  0.00     0.053 C 
BRANCH  10  11
ATOM     11  C   UNL     1     -34.642 -48.503  23.913  1.00  0.00     0.041 C 
ATOM     12  O   UNL     1     -35.735 -47.931  24.166  1.00  0.00    -0.550 OA
ATOM     13  O   UNL     1     -33.804 -47.982  22.934  1.00  0.00    -0.550 OA
ENDBRANCH  10  11
ENDBRANCH   9  10
ENDBRANCH   8   9
ENDBRANCH   1   8
TORSDOF 8
ENDMDL
