MODEL 1
REMARK VINA RESULT:    -5.079      0.000      0.000
REMARK INTER + INTRA:         -10.274
REMARK INTER:                  -8.642
REMARK INTRA:                  -1.632
REMARK UNBOUND:                -1.632
REMARK SMILES CCCCCCCCCCCCCC(=O)[O-]
REMARK SMILES IDX 8 1 9 2 10 3 11 4 12 5 13 6 14 7 15 8 16 9 7 10 6 11 5 12
REMARK SMILES IDX 4 13 3 14 2 15 1 16
REMARK H PARENT
REMARK Flexibility Score: inf
ROOT
ATOM      1  C   UNL     1     102.952  24.683 196.907  1.00  0.00     0.000 C 
ENDROOT
BRANCH   1   2
ATOM      2  C   UNL     1     102.509  23.857 198.131  1.00  0.00     0.000 C 
BRANCH   2   3
ATOM      3  C   UNL     1     103.513  22.786 198.591  1.00  0.00     0.000 C 
BRANCH   3   4
ATOM      4  C   UNL     1     104.293  23.201 199.850  1.00  0.00     0.000 C 
BRANCH   4   5
ATOM      5  C   UNL     1     105.810  22.955 199.712  1.00  0.00     0.006 C 
BRANCH   5   6
ATOM      6  C   UNL     1     106.231  22.481 198.312  1.00  0.00     0.053 C 
BRANCH   6   7
ATOM      7  C   UNL     1     106.772  21.086 198.324  1.00  0.00     0.041 C 
ATOM      8  O   UNL     1     106.904  20.448 197.245  1.00  0.00    -0.550 OA
ATOM      9  O   UNL     1     107.111  20.480 199.526  1.00  0.00    -0.550 OA
ENDBRANCH   6   7
ENDBRANCH   5   6
ENDBRANCH   4   5
ENDBRANCH   3   4
ENDBRANCH   2   3
ENDBRANCH   1   2
BRANCH   1  10
ATOM     10  C   UNL     1     104.234  25.517 197.107  1.00  0.00     0.000 C 
BRANCH  10  11
ATOM     11  C   UNL     1     105.300  25.339 196.011  1.00  0.00    -0.000 C 
BRANCH  11  12
ATOM     12  C   UNL     1     104.790  24.519 194.815  1.00  0.00    -0.000 C 
BRANCH  12  13
ATOM     13  C   UNL     1     105.343  23.085 194.804  1.00  0.00    -0.000 C 
BRANCH  13  14
ATOM     14  C   UNL     1     104.562  22.160 193.854  1.00  0.00    -0.000 C 
BRANCH  14  15
ATOM     15  C   UNL     1     103.254  22.794 193.358  1.00  0.00    -0.003 C 
ATOM     16  C   UNL     1     102.019  22.220 194.052  1.00  0.00     0.004 C 
ENDBRANCH  14  15
ENDBRANCH  13  14
ENDBRANCH  12  13
ENDBRANCH  11  12
ENDBRANCH  10  11
ENDBRANCH   1  10
TORSDOF 12
ENDMDL
MODEL 2
REMARK VINA RESULT:    -5.008      3.056      3.975
REMARK INTER + INTRA:         -10.154
REMARK INTER:                  -8.558
REMARK INTRA:                  -1.596
REMARK UNBOUND:                -1.632
REMARK SMILES CCCCCCCCCCCCCC(=O)[O-]
REMARK SMILES IDX 8 1 9 2 10 3 11 4 12 5 13 6 14 7 15 8 16 9 7 10 6 11 5 12
REMARK SMILES IDX 4 13 3 14 2 15 1 16
REMARK H PARENT
REMARK Flexibility Score: inf
ROOT
ATOM      1  C   UNL     1     105.127  25.516 197.187  1.00  0.00     0.000 C 
ENDROOT
BRANCH   1   2
ATOM      2  C   UNL     1     104.221  24.411 197.767  1.00  0.00     0.000 C 
BRANCH   2   3
ATOM      3  C   UNL     1     102.712  24.641 197.576  1.00  0.00     0.000 C 
BRANCH   3   4
ATOM      4  C   UNL     1     101.974  23.384 197.085  1.00  0.00     0.000 C 
BRANCH   4   5
ATOM      5  C   UNL     1     102.704  22.082 197.475  1.00  0.00     0.006 C 
BRANCH   5   6
ATOM      6  C   UNL     1     102.705  21.021 196.362  1.00  0.00     0.053 C 
BRANCH   6   7
ATOM      7  C   UNL     1     101.347  20.821 195.767  1.00  0.00     0.041 C 
ATOM      8  O   UNL     1     101.129  21.130 194.564  1.00  0.00    -0.550 OA
ATOM      9  O   UNL     1     100.312  20.316 196.544  1.00  0.00    -0.550 OA
ENDBRANCH   6   7
ENDBRANCH   5   6
ENDBRANCH   4   5
ENDBRANCH   3   4
ENDBRANCH   2   3
ENDBRANCH   1   2
BRANCH   1  10
ATOM     10  C   UNL     1     105.460  25.372 195.688  1.00  0.00     0.000 C 
BRANCH  10  11
ATOM     11  C   UNL     1     105.319  23.946 195.127  1.00  0.00    -0.000 C 
BRANCH  11  12
ATOM     12  C   UNL     1     104.200  23.828 194.079  1.00  0.00    -0.000 C 
BRANCH  12  13
ATOM     13  C   UNL     1     104.205  22.468 193.363  1.00  0.00    -0.000 C 
BRANCH  13  14
ATOM     14  C   UNL     1     105.413  21.600 193.756  1.00  0.00    -0.000 C 
BRANCH  14  15
ATOM     15  C   UNL     1     106.170  21.057 192.535  1.00  0.00    -0.003 C 
ATOM     16  C   UNL     1     107.685  21.044 192.737  1.00  0.00     0.004 C 
ENDBRANCH  14  15
ENDBRANCH  13  14
ENDBRANCH  12  13
ENDBRANCH  11  12
ENDBRANCH  10  11
ENDBRANCH   1  10
TORSDOF 12
ENDMDL
MODEL 3
REMARK VINA RESULT:    -5.008      2.539      4.691
REMARK INTER + INTRA:         -10.153
REMARK INTER:                  -8.532
REMARK INTRA:                  -1.621
REMARK UNBOUND:                -1.632
REMARK SMILES CCCCCCCCCCCCCC(=O)[O-]
REMARK SMILES IDX 8 1 9 2 10 3 11 4 12 5 13 6 14 7 15 8 16 9 7 10 6 11 5 12
REMARK SMILES IDX 4 13 3 14 2 15 1 16
REMARK H PARENT
REMARK Flexibility Score: inf
ROOT
ATOM      1  C   UNL     1     104.967  25.369 195.228  1.00  0.00     0.000 C 
ENDROOT
BRANCH   1   2
ATOM      2  C   UNL     1     104.789  24.042 194.465  1.00  0.00     0.000 C 
BRANCH   2   3
ATOM      3  C   UNL     1     103.758  23.075 195.073  1.00  0.00     0.000 C 
BRANCH   3   4
ATOM      4  C   UNL     1     104.406  21.819 195.681  1.00  0.00     0.000 C 
BRANCH   4   5
ATOM      5  C   UNL     1     105.934  21.783 195.473  1.00  0.00     0.006 C 
BRANCH   5   6
ATOM      6  C   UNL     1     106.412  20.584 194.638  1.00  0.00     0.053 C 
BRANCH   6   7
ATOM      7  C   UNL     1     106.617  20.938 193.199  1.00  0.00     0.041 C 
ATOM      8  O   UNL     1     107.775  20.927 192.702  1.00  0.00    -0.550 OA
ATOM      9  O   UNL     1     105.534  21.303 192.411  1.00  0.00    -0.550 OA
ENDBRANCH   6   7
ENDBRANCH   5   6
ENDBRANCH   4   5
ENDBRANCH   3   4
ENDBRANCH   2   3
ENDBRANCH   1   2
BRANCH   1  10
ATOM     10  C   UNL     1     105.741  25.263 196.558  1.00  0.00     0.000 C 
BRANCH  10  11
ATOM     11  C   UNL     1     104.858  25.146 197.813  1.00  0.00    -0.000 C 
BRANCH  11  12
ATOM     12  C   UNL     1     105.146  23.873 198.626  1.00  0.00    -0.000 C 
BRANCH  12  13
ATOM     13  C   UNL     1     103.871  23.249 199.216  1.00  0.00    -0.000 C 
BRANCH  13  14
ATOM     14  C   UNL     1     102.598  23.712 198.487  1.00  0.00    -0.000 C 
BRANCH  14  15
ATOM     15  C   UNL     1     101.315  23.318 199.235  1.00  0.00    -0.003 C 
ATOM     16  C   UNL     1     101.240  23.921 200.638  1.00  0.00     0.004 C 
ENDBRANCH  14  15
ENDBRANCH  13  14
ENDBRANCH  12  13
ENDBRANCH  11  12
ENDBRANCH  10  11
ENDBRANCH   1  10
TORSDOF 12
ENDMDL
MODEL 4
REMARK VINA RESULT:    -4.991      3.328      4.775
REMARK INTER + INTRA:         -10.124
REMARK INTER:                  -7.922
REMARK INTRA:                  -2.203
REMARK UNBOUND:                -1.632
REMARK SMILES CCCCCCCCCCCCCC(=O)[O-]
REMARK SMILES IDX 8 1 9 2 10 3 11 4 12 5 13 6 14 7 15 8 16 9 7 10 6 11 5 12
REMARK SMILES IDX 4 13 3 14 2 15 1 16
REMARK H PARENT
REMARK Flexibility Score: inf
ROOT
ATOM      1  C   UNL     1     101.619  19.908 196.406  1.00  0.00     0.000 C 
ENDROOT
BRANCH   1   2
ATOM      2  C   UNL     1     101.378  21.211 195.619  1.00  0.00     0.000 C 
BRANCH   2   3
ATOM      3  C   UNL     1     100.756  22.358 196.435  1.00  0.00     0.000 C 
BRANCH   3   4
ATOM      4  C   UNL     1     101.648  23.611 196.478  1.00  0.00     0.000 C 
BRANCH   4   5
ATOM      5  C   UNL     1     102.096  23.966 197.911  1.00  0.00     0.006 C 
BRANCH   5   6
ATOM      6  C   UNL     1     101.499  23.045 198.988  1.00  0.00     0.053 C 
BRANCH   6   7
ATOM      7  C   UNL     1     100.927  23.813 200.138  1.00  0.00     0.041 C 
ATOM      8  O   UNL     1      99.751  24.261 200.079  1.00  0.00    -0.550 OA
ATOM      9  O   UNL     1     101.699  24.055 201.266  1.00  0.00    -0.550 OA
ENDBRANCH   6   7
ENDBRANCH   5   6
ENDBRANCH   4   5
ENDBRANCH   3   4
ENDBRANCH   2   3
ENDBRANCH   1   2
BRANCH   1  10
ATOM     10  C   UNL     1     102.762  19.967 197.439  1.00  0.00     0.000 C 
BRANCH  10  11
ATOM     11  C   UNL     1     104.156  20.244 196.848  1.00  0.00    -0.000 C 
BRANCH  11  12
ATOM     12  C   UNL     1     104.881  21.402 197.554  1.00  0.00    -0.000 C 
BRANCH  12  13
ATOM     13  C   UNL     1     105.272  22.530 196.586  1.00  0.00    -0.000 C 
BRANCH  13  14
ATOM     14  C   UNL     1     105.066  22.138 195.112  1.00  0.00    -0.000 C 
BRANCH  14  15
ATOM     15  C   UNL     1     104.465  23.280 194.278  1.00  0.00    -0.003 C 
ATOM     16  C   UNL     1     103.538  22.779 193.171  1.00  0.00     0.004 C 
ENDBRANCH  14  15
ENDBRANCH  13  14
ENDBRANCH  12  13
ENDBRANCH  11  12
ENDBRANCH  10  11
ENDBRANCH   1  10
TORSDOF 12
ENDMDL
MODEL 5
REMARK VINA RESULT:    -4.976      2.380      4.349
REMARK INTER + INTRA:         -10.098
REMARK INTER:                  -8.235
REMARK INTRA:                  -1.863
REMARK UNBOUND:                -1.632
REMARK SMILES CCCCCCCCCCCCCC(=O)[O-]
REMARK SMILES IDX 8 1 9 2 10 3 11 4 12 5 13 6 14 7 15 8 16 9 7 10 6 11 5 12
REMARK SMILES IDX 4 13 3 14 2 15 1 16
REMARK H PARENT
REMARK Flexibility Score: inf
ROOT
ATOM      1  C   UNL     1     105.483  23.139 200.080  1.00  0.00     0.000 C 
ENDROOT
BRANCH   1   2
ATOM      2  C   UNL     1     104.033  23.401 199.625  1.00  0.00     0.000 C 
BRANCH   2   3
ATOM      3  C   UNL     1     102.957  23.116 200.686  1.00  0.00     0.000 C 
BRANCH   3   4
ATOM      4  C   UNL     1     101.538  23.464 200.206  1.00  0.00     0.000 C 
BRANCH   4   5
ATOM      5  C   UNL     1     101.470  23.690 198.681  1.00  0.00     0.006 C 
BRANCH   5   6
ATOM      6  C   UNL     1     100.573  22.678 197.949  1.00  0.00     0.053 C 
BRANCH   6   7
ATOM      7  C   UNL     1     101.366  21.638 197.222  1.00  0.00     0.041 C 
ATOM      8  O   UNL     1     102.174  20.902 197.849  1.00  0.00    -0.550 OA
ATOM      9  O   UNL     1     101.231  21.495 195.847  1.00  0.00    -0.550 OA
ENDBRANCH   6   7
ENDBRANCH   5   6
ENDBRANCH   4   5
ENDBRANCH   3   4
ENDBRANCH   2   3
ENDBRANCH   1   2
BRANCH   1  10
ATOM     10  C   UNL     1     106.316  22.247 199.137  1.00  0.00     0.000 C 
BRANCH  10  11
ATOM     11  C   UNL     1     105.521  21.600 197.988  1.00  0.00    -0.000 C 
BRANCH  11  12
ATOM     12  C   UNL     1     105.891  22.177 196.611  1.00  0.00    -0.000 C 
BRANCH  12  13
ATOM     13  C   UNL     1     104.655  22.595 195.797  1.00  0.00    -0.000 C 
BRANCH  13  14
ATOM     14  C   UNL     1     104.309  24.084 195.976  1.00  0.00    -0.000 C 
BRANCH  14  15
ATOM     15  C   UNL     1     105.556  24.957 196.184  1.00  0.00    -0.003 C 
ATOM     16  C   UNL     1     105.382  25.978 197.308  1.00  0.00     0.004 C 
ENDBRANCH  14  15
ENDBRANCH  13  14
ENDBRANCH  12  13
ENDBRANCH  11  12
ENDBRANCH  10  11
ENDBRANCH   1  10
TORSDOF 12
ENDMDL
MODEL 6
REMARK VINA RESULT:    -4.956      3.471      5.714
REMARK INTER + INTRA:         -10.065
REMARK INTER:                  -8.526
REMARK INTRA:                  -1.538
REMARK UNBOUND:                -1.632
REMARK SMILES CCCCCCCCCCCCCC(=O)[O-]
REMARK SMILES IDX 8 1 9 2 10 3 11 4 12 5 13 6 14 7 15 8 16 9 7 10 6 11 5 12
REMARK SMILES IDX 4 13 3 14 2 15 1 16
REMARK H PARENT
REMARK Flexibility Score: inf
ROOT
ATOM      1  C   UNL     1     104.439  22.202 194.385  1.00  0.00     0.000 C 
ENDROOT
BRANCH   1   2
ATOM      2  C   UNL     1     103.223  22.743 193.608  1.00  0.00     0.000 C 
BRANCH   2   3
ATOM      3  C   UNL     1     101.874  22.105 193.984  1.00  0.00     0.000 C 
BRANCH   3   4
ATOM      4  C   UNL     1     101.155  22.855 195.118  1.00  0.00     0.000 C 
BRANCH   4   5
ATOM      5  C   UNL     1     100.965  21.983 196.376  1.00  0.00     0.006 C 
BRANCH   5   6
ATOM      6  C   UNL     1     100.279  22.719 197.538  1.00  0.00     0.053 C 
BRANCH   6   7
ATOM      7  C   UNL     1      98.902  22.198 197.806  1.00  0.00     0.041 C 
ATOM      8  O   UNL     1      98.042  22.934 198.360  1.00  0.00    -0.550 OA
ATOM      9  O   UNL     1      98.574  20.891 197.468  1.00  0.00    -0.550 OA
ENDBRANCH   6   7
ENDBRANCH   5   6
ENDBRANCH   4   5
ENDBRANCH   3   4
ENDBRANCH   2   3
ENDBRANCH   1   2
BRANCH   1  10
ATOM     10  C   UNL     1     105.385  23.277 194.957  1.00  0.00     0.000 C 
BRANCH  10  11
ATOM     11  C   UNL     1     104.829  24.712 194.923  1.00  0.00    -0.000 C 
BRANCH  11  12
ATOM     12  C   UNL     1     104.799  25.370 196.312  1.00  0.00    -0.000 C 
BRANCH  12  13
ATOM     13  C   UNL     1     103.485  25.102 197.063  1.00  0.00    -0.000 C 
BRANCH  13  14
ATOM     14  C   UNL     1     103.634  24.014 198.141  1.00  0.00    -0.000 C 
BRANCH  14  15
ATOM     15  C   UNL     1     105.081  23.871 198.636  1.00  0.00    -0.003 C 
ATOM     16  C   UNL     1     105.168  23.293 200.048  1.00  0.00     0.004 C 
ENDBRANCH  14  15
ENDBRANCH  13  14
ENDBRANCH  12  13
ENDBRANCH  11  12
ENDBRANCH  10  11
ENDBRANCH   1  10
TORSDOF 12
ENDMDL
MODEL 7
REMARK VINA RESULT:    -4.954      2.357      5.077
REMARK INTER + INTRA:         -10.062
REMARK INTER:                  -8.453
REMARK INTRA:                  -1.609
REMARK UNBOUND:                -1.632
REMARK SMILES CCCCCCCCCCCCCC(=O)[O-]
REMARK SMILES IDX 8 1 9 2 10 3 11 4 12 5 13 6 14 7 15 8 16 9 7 10 6 11 5 12
REMARK SMILES IDX 4 13 3 14 2 15 1 16
REMARK H PARENT
REMARK Flexibility Score: inf
ROOT
ATOM      1  C   UNL     1     102.861  24.890 197.075  1.00  0.00     0.000 C 
ENDROOT
BRANCH   1   2
ATOM      2  C   UNL     1     104.057  25.752 197.531  1.00  0.00     0.000 C 
BRANCH   2   3
ATOM      3  C   UNL     1     105.382  25.460 196.806  1.00  0.00     0.000 C 
BRANCH   3   4
ATOM      4  C   UNL     1     105.175  24.906 195.386  1.00  0.00     0.000 C 
BRANCH   4   5
ATOM      5  C   UNL     1     105.615  23.433 195.258  1.00  0.00     0.006 C 
BRANCH   5   6
ATOM      6  C   UNL     1     104.454  22.469 194.962  1.00  0.00     0.053 C 
BRANCH   6   7
ATOM      7  C   UNL     1     104.188  22.334 193.496  1.00  0.00     0.041 C 
ATOM      8  O   UNL     1     105.019  21.749 192.751  1.00  0.00    -0.550 OA
ATOM      9  O   UNL     1     103.032  22.873 192.946  1.00  0.00    -0.550 OA
ENDBRANCH   6   7
ENDBRANCH   5   6
ENDBRANCH   4   5
ENDBRANCH   3   4
ENDBRANCH   2   3
ENDBRANCH   1   2
BRANCH   1  10
ATOM     10  C   UNL     1     102.178  24.073 198.191  1.00  0.00     0.000 C 
BRANCH  10  11
ATOM     11  C   UNL     1     103.031  22.930 198.771  1.00  0.00    -0.000 C 
BRANCH  11  12
ATOM     12  C   UNL     1     103.655  23.287 200.130  1.00  0.00    -0.000 C 
BRANCH  12  13
ATOM     13  C   UNL     1     105.189  23.180 200.120  1.00  0.00    -0.000 C 
BRANCH  13  14
ATOM     14  C   UNL     1     105.721  22.473 198.861  1.00  0.00    -0.000 C 
BRANCH  14  15
ATOM     15  C   UNL     1     107.019  21.695 199.128  1.00  0.00    -0.003 C 
ATOM     16  C   UNL     1     106.876  20.197 198.861  1.00  0.00     0.004 C 
ENDBRANCH  14  15
ENDBRANCH  13  14
ENDBRANCH  12  13
ENDBRANCH  11  12
ENDBRANCH  10  11
ENDBRANCH   1  10
TORSDOF 12
ENDMDL
MODEL 8
REMARK VINA RESULT:    -4.954      1.451      2.941
REMARK INTER + INTRA:         -10.061
REMARK INTER:                  -8.700
REMARK INTRA:                  -1.361
REMARK UNBOUND:                -1.632
REMARK SMILES CCCCCCCCCCCCCC(=O)[O-]
REMARK SMILES IDX 8 1 9 2 10 3 11 4 12 5 13 6 14 7 15 8 16 9 7 10 6 11 5 12
REMARK SMILES IDX 4 13 3 14 2 15 1 16
REMARK H PARENT
REMARK Flexibility Score: inf
ROOT
ATOM      1  C   UNL     1     100.896  23.135 197.783  1.00  0.00     0.000 C 
ENDROOT
BRANCH   1   2
ATOM      2  C   UNL     1     101.584  23.991 198.865  1.00  0.00     0.000 C 
BRANCH   2   3
ATOM      3  C   UNL     1     101.674  23.335 200.254  1.00  0.00     0.000 C 
BRANCH   3   4
ATOM      4  C   UNL     1     103.121  23.208 200.760  1.00  0.00     0.000 C 
BRANCH   4   5
ATOM      5  C   UNL     1     104.149  23.187 199.610  1.00  0.00     0.006 C 
BRANCH   5   6
ATOM      6  C   UNL     1     105.609  23.247 200.089  1.00  0.00     0.053 C 
BRANCH   6   7
ATOM      7  C   UNL     1     106.471  22.228 199.414  1.00  0.00     0.041 C 
ATOM      8  O   UNL     1     107.625  21.979 199.855  1.00  0.00    -0.550 OA
ATOM      9  O   UNL     1     106.011  21.567 198.281  1.00  0.00    -0.550 OA
ENDBRANCH   6   7
ENDBRANCH   5   6
ENDBRANCH   4   5
ENDBRANCH   3   4
ENDBRANCH   2   3
ENDBRANCH   1   2
BRANCH   1  10
ATOM     10  C   UNL     1     101.508  23.244 196.372  1.00  0.00     0.000 C 
BRANCH  10  11
ATOM     11  C   UNL     1     102.751  22.368 196.136  1.00  0.00    -0.000 C 
BRANCH  11  12
ATOM     12  C   UNL     1     103.318  22.514 194.714  1.00  0.00    -0.000 C 
BRANCH  12  13
ATOM     13  C   UNL     1     104.732  23.117 194.702  1.00  0.00    -0.000 C 
BRANCH  13  14
ATOM     14  C   UNL     1     104.762  24.554 195.252  1.00  0.00    -0.000 C 
BRANCH  14  15
ATOM     15  C   UNL     1     105.634  24.684 196.511  1.00  0.00    -0.003 C 
ATOM     16  C   UNL     1     105.384  25.986 197.270  1.00  0.00     0.004 C 
ENDBRANCH  14  15
ENDBRANCH  13  14
ENDBRANCH  12  13
ENDBRANCH  11  12
ENDBRANCH  10  11
ENDBRANCH   1  10
TORSDOF 12
ENDMDL
MODEL 9
REMARK VINA RESULT:    -4.932      1.450      3.175
REMARK INTER + INTRA:         -10.023
REMARK INTER:                  -7.615
REMARK INTRA:                  -2.408
REMARK UNBOUND:                -1.632
REMARK SMILES CCCCCCCCCCCCCC(=O)[O-]
REMARK SMILES IDX 8 1 9 2 10 3 11 4 12 5 13 6 14 7 15 8 16 9 7 10 6 11 5 12
REMARK SMILES IDX 4 13 3 14 2 15 1 16
REMARK H PARENT
REMARK Flexibility Score: inf
ROOT
ATOM      1  C   UNL     1     104.631  24.613 194.895  1.00  0.00     0.000 C 
ENDROOT
BRANCH   1   2
ATOM      2  C   UNL     1     104.840  23.171 194.391  1.00  0.00     0.000 C 
BRANCH   2   3
ATOM      3  C   UNL     1     105.620  22.254 195.349  1.00  0.00     0.000 C 
BRANCH   3   4
ATOM      4  C   UNL     1     104.701  21.355 196.195  1.00  0.00     0.000 C 
BRANCH   4   5
ATOM      5  C   UNL     1     105.008  21.451 197.703  1.00  0.00     0.006 C 
BRANCH   5   6
ATOM      6  C   UNL     1     106.435  21.932 198.011  1.00  0.00     0.053 C 
BRANCH   6   7
ATOM      7  C   UNL     1     106.612  22.303 199.450  1.00  0.00     0.041 C 
ATOM      8  O   UNL     1     107.642  21.937 200.077  1.00  0.00    -0.550 OA
ATOM      9  O   UNL     1     105.630  23.032 200.107  1.00  0.00    -0.550 OA
ENDBRANCH   6   7
ENDBRANCH   5   6
ENDBRANCH   4   5
ENDBRANCH   3   4
ENDBRANCH   2   3
ENDBRANCH   1   2
BRANCH   1  10
ATOM     10  C   UNL     1     105.500  25.019 196.103  1.00  0.00     0.000 C 
BRANCH  10  11
ATOM     11  C   UNL     1     104.724  25.253 197.411  1.00  0.00    -0.000 C 
BRANCH  11  12
ATOM     12  C   UNL     1     103.203  25.115 197.231  1.00  0.00    -0.000 C 
BRANCH  12  13
ATOM     13  C   UNL     1     102.573  24.156 198.254  1.00  0.00    -0.000 C 
BRANCH  13  14
ATOM     14  C   UNL     1     101.682  23.091 197.591  1.00  0.00    -0.000 C 
BRANCH  14  15
ATOM     15  C   UNL     1     101.198  23.514 196.196  1.00  0.00    -0.003 C 
ATOM     16  C   UNL     1     101.269  22.377 195.176  1.00  0.00     0.004 C 
ENDBRANCH  14  15
ENDBRANCH  13  14
ENDBRANCH  12  13
ENDBRANCH  11  12
ENDBRANCH  10  11
ENDBRANCH   1  10
TORSDOF 12
ENDMDL
