MODEL 1
REMARK VINA RESULT:    -4.762      0.000      0.000
REMARK INTER + INTRA:         -18.596
REMARK INTER:                 -12.557
REMARK INTRA:                  -6.039
REMARK UNBOUND:                -6.039
REMARK SMILES CCCCCCCCCCCCCCCCCCCCCCCCCCCCCC(=O)[O-]
REMARK SMILES IDX 16 1 17 2 18 3 19 4 20 5 21 6 22 7 23 8 24 9 25 10 26 11
REMARK SMILES IDX 27 12 28 13 29 14 30 15 31 16 32 17 15 18 14 19 13 20 12 21
REMARK SMILES IDX 11 22 10 23 9 24 8 25 7 26 6 27 5 28 4 29 3 30 2 31 1 32
REMARK H PARENT
REMARK Flexibility Score: inf
ROOT
ATOM      1  C   UNL     1     -14.297  16.921 -19.782  1.00  0.00     0.000 C 
ENDROOT
BRANCH   1   2
ATOM      2  C   UNL     1     -14.065  17.297 -18.308  1.00  0.00     0.000 C 
BRANCH   2   3
ATOM      3  C   UNL     1     -14.984  16.524 -17.349  1.00  0.00     0.000 C 
BRANCH   3   4
ATOM      4  C   UNL     1     -14.274  15.346 -16.657  1.00  0.00     0.000 C 
BRANCH   4   5
ATOM      5  C   UNL     1     -15.239  14.463 -15.846  1.00  0.00     0.000 C 
BRANCH   5   6
ATOM      6  C   UNL     1     -15.633  15.027 -14.465  1.00  0.00     0.000 C 
BRANCH   6   7
ATOM      7  C   UNL     1     -17.145  15.240 -14.252  1.00  0.00     0.000 C 
BRANCH   7   8
ATOM      8  C   UNL     1     -17.607  16.705 -14.352  1.00  0.00     0.000 C 
BRANCH   8   9
ATOM      9  C   UNL     1     -18.303  17.019 -15.689  1.00  0.00     0.000 C 
BRANCH   9  10
ATOM     10  C   UNL     1     -19.175  15.855 -16.190  1.00  0.00     0.000 C 
BRANCH  10  11
ATOM     11  C   UNL     1     -18.821  15.350 -17.601  1.00  0.00     0.000 C 
BRANCH  11  12
ATOM     12  C   UNL     1     -18.144  13.963 -17.610  1.00  0.00     0.000 C 
BRANCH  12  13
ATOM     13  C   UNL     1     -19.036  12.876 -16.988  1.00  0.00     0.006 C 
BRANCH  13  14
ATOM     14  C   UNL     1     -18.358  11.499 -16.979  1.00  0.00     0.053 C 
BRANCH  14  15
ATOM     15  C   UNL     1     -17.278  11.413 -15.943  1.00  0.00     0.041 C 
ATOM     16  O   UNL     1     -17.519  11.727 -14.748  1.00  0.00    -0.550 OA
ATOM     17  O   UNL     1     -16.016  10.950 -16.292  1.00  0.00    -0.550 OA
ENDBRANCH  14  15
ENDBRANCH  13  14
ENDBRANCH  12  13
ENDBRANCH  11  12
ENDBRANCH  10  11
ENDBRANCH   9  10
ENDBRANCH   8   9
ENDBRANCH   7   8
ENDBRANCH   6   7
ENDBRANCH   5   6
ENDBRANCH   4   5
ENDBRANCH   3   4
ENDBRANCH   2   3
ENDBRANCH   1   2
BRANCH   1  18
ATOM     18  C   UNL     1     -15.702  16.343 -20.037  1.00  0.00     0.000 C 
BRANCH  18  19
ATOM     19  C   UNL     1     -16.404  16.866 -21.304  1.00  0.00     0.000 C 
BRANCH  19  20
ATOM     20  C   UNL     1     -17.264  18.113 -21.044  1.00  0.00     0.000 C 
BRANCH  20  21
ATOM     21  C   UNL     1     -18.334  17.876 -19.964  1.00  0.00     0.000 C 
BRANCH  21  22
ATOM     22  C   UNL     1     -18.157  18.806 -18.752  1.00  0.00     0.000 C 
BRANCH  22  23
ATOM     23  C   UNL     1     -16.924  19.721 -18.874  1.00  0.00     0.000 C 
BRANCH  23  24
ATOM     24  C   UNL     1     -16.279  20.125 -17.535  1.00  0.00    -0.000 C 
BRANCH  24  25
ATOM     25  C   UNL     1     -15.568  21.489 -17.598  1.00  0.00    -0.000 C 
BRANCH  25  26
ATOM     26  C   UNL     1     -14.221  21.492 -16.859  1.00  0.00    -0.000 C 
BRANCH  26  27
ATOM     27  C   UNL     1     -13.091  20.839 -17.674  1.00  0.00    -0.000 C 
BRANCH  27  28
ATOM     28  C   UNL     1     -12.135  20.029 -16.782  1.00  0.00    -0.000 C 
BRANCH  28  29
ATOM     29  C   UNL     1     -12.355  20.311 -15.285  1.00  0.00    -0.000 C 
BRANCH  29  30
ATOM     30  C   UNL     1     -11.835  19.174 -14.391  1.00  0.00    -0.000 C 
BRANCH  30  31
ATOM     31  C   UNL     1     -12.788  17.970 -14.364  1.00  0.00    -0.003 C 
ATOM     32  C   UNL     1     -14.230  18.412 -14.136  1.00  0.00     0.004 C 
ENDBRANCH  30  31
ENDBRANCH  29  30
ENDBRANCH  28  29
ENDBRANCH  27  28
ENDBRANCH  26  27
ENDBRANCH  25  26
ENDBRANCH  24  25
ENDBRANCH  23  24
ENDBRANCH  22  23
ENDBRANCH  21  22
ENDBRANCH  20  21
ENDBRANCH  19  20
ENDBRANCH  18  19
ENDBRANCH   1  18
TORSDOF 28
ENDMDL
MODEL 2
REMARK VINA RESULT:    -4.718      1.322      3.846
REMARK INTER + INTRA:         -18.481
REMARK INTER:                 -12.337
REMARK INTRA:                  -6.144
REMARK UNBOUND:                -6.039
REMARK SMILES CCCCCCCCCCCCCCCCCCCCCCCCCCCCCC(=O)[O-]
REMARK SMILES IDX 16 1 17 2 18 3 19 4 20 5 21 6 22 7 23 8 24 9 25 10 26 11
REMARK SMILES IDX 27 12 28 13 29 14 30 15 31 16 32 17 15 18 14 19 13 20 12 21
REMARK SMILES IDX 11 22 10 23 9 24 8 25 7 26 6 27 5 28 4 29 3 30 2 31 1 32
REMARK H PARENT
REMARK Flexibility Score: inf
ROOT
ATOM      1  C   UNL     1     -12.974  17.715 -15.287  1.00  0.00     0.000 C 
ENDROOT
BRANCH   1   2
ATOM      2  C   UNL     1     -13.497  18.329 -13.976  1.00  0.00     0.000 C 
BRANCH   2   3
ATOM      3  C   UNL     1     -14.984  18.028 -13.735  1.00  0.00     0.000 C 
BRANCH   3   4
ATOM      4  C   UNL     1     -15.222  16.641 -13.112  1.00  0.00     0.000 C 
BRANCH   4   5
ATOM      5  C   UNL     1     -16.710  16.353 -12.850  1.00  0.00     0.000 C 
BRANCH   5   6
ATOM      6  C   UNL     1     -17.680  17.461 -13.310  1.00  0.00     0.000 C 
BRANCH   6   7
ATOM      7  C   UNL     1     -18.263  17.276 -14.724  1.00  0.00     0.000 C 
BRANCH   7   8
ATOM      8  C   UNL     1     -18.050  15.876 -15.328  1.00  0.00     0.000 C 
BRANCH   8   9
ATOM      9  C   UNL     1     -17.008  15.870 -16.462  1.00  0.00     0.000 C 
BRANCH   9  10
ATOM     10  C   UNL     1     -17.086  14.603 -17.331  1.00  0.00     0.000 C 
BRANCH  10  11
ATOM     11  C   UNL     1     -18.505  14.235 -17.803  1.00  0.00     0.000 C 
BRANCH  11  12
ATOM     12  C   UNL     1     -19.014  12.891 -17.241  1.00  0.00     0.000 C 
BRANCH  12  13
ATOM     13  C   UNL     1     -17.864  11.937 -16.880  1.00  0.00     0.006 C 
BRANCH  13  14
ATOM     14  C   UNL     1     -17.807  11.633 -15.377  1.00  0.00     0.053 C 
BRANCH  14  15
ATOM     15  C   UNL     1     -16.496  12.038 -14.773  1.00  0.00     0.041 C 
ATOM     16  O   UNL     1     -16.438  13.013 -13.979  1.00  0.00    -0.550 OA
ATOM     17  O   UNL     1     -15.347  11.313 -15.059  1.00  0.00    -0.550 OA
ENDBRANCH  14  15
ENDBRANCH  13  14
ENDBRANCH  12  13
ENDBRANCH  11  12
ENDBRANCH  10  11
ENDBRANCH   9  10
ENDBRANCH   8   9
ENDBRANCH   7   8
ENDBRANCH   6   7
ENDBRANCH   5   6
ENDBRANCH   4   5
ENDBRANCH   3   4
ENDBRANCH   2   3
ENDBRANCH   1   2
BRANCH   1  18
ATOM     18  C   UNL     1     -13.862  18.048 -16.500  1.00  0.00     0.000 C 
BRANCH  18  19
ATOM     19  C   UNL     1     -13.661  19.456 -17.090  1.00  0.00     0.000 C 
BRANCH  19  20
ATOM     20  C   UNL     1     -14.958  20.281 -17.133  1.00  0.00     0.000 C 
BRANCH  20  21
ATOM     21  C   UNL     1     -16.218  19.402 -17.054  1.00  0.00     0.000 C 
BRANCH  21  22
ATOM     22  C   UNL     1     -17.157  19.620 -18.252  1.00  0.00     0.000 C 
BRANCH  22  23
ATOM     23  C   UNL     1     -18.311  18.601 -18.303  1.00  0.00     0.000 C 
BRANCH  23  24
ATOM     24  C   UNL     1     -18.287  17.652 -19.515  1.00  0.00    -0.000 C 
BRANCH  24  25
ATOM     25  C   UNL     1     -17.041  17.840 -20.400  1.00  0.00    -0.000 C 
BRANCH  25  26
ATOM     26  C   UNL     1     -16.022  16.700 -20.244  1.00  0.00    -0.000 C 
BRANCH  26  27
ATOM     27  C   UNL     1     -14.675  17.178 -19.674  1.00  0.00    -0.000 C 
BRANCH  27  28
ATOM     28  C   UNL     1     -13.484  16.492 -20.364  1.00  0.00    -0.000 C 
BRANCH  28  29
ATOM     29  C   UNL     1     -12.617  15.694 -19.373  1.00  0.00    -0.000 C 
BRANCH  29  30
ATOM     30  C   UNL     1     -13.451  14.748 -18.494  1.00  0.00    -0.000 C 
BRANCH  30  31
ATOM     31  C   UNL     1     -12.699  14.315 -17.227  1.00  0.00    -0.003 C 
ATOM     32  C   UNL     1     -13.644  14.212 -16.033  1.00  0.00     0.004 C 
ENDBRANCH  30  31
ENDBRANCH  29  30
ENDBRANCH  28  29
ENDBRANCH  27  28
ENDBRANCH  26  27
ENDBRANCH  25  26
ENDBRANCH  24  25
ENDBRANCH  23  24
ENDBRANCH  22  23
ENDBRANCH  21  22
ENDBRANCH  20  21
ENDBRANCH  19  20
ENDBRANCH  18  19
ENDBRANCH   1  18
TORSDOF 28
ENDMDL
MODEL 3
REMARK VINA RESULT:    -4.698      3.089      6.924
REMARK INTER + INTRA:         -18.426
REMARK INTER:                 -12.919
REMARK INTRA:                  -5.507
REMARK UNBOUND:                -6.039
REMARK SMILES CCCCCCCCCCCCCCCCCCCCCCCCCCCCCC(=O)[O-]
REMARK SMILES IDX 16 1 17 2 18 3 19 4 20 5 21 6 22 7 23 8 24 9 25 10 26 11
REMARK SMILES IDX 27 12 28 13 29 14 30 15 31 16 32 17 15 18 14 19 13 20 12 21
REMARK SMILES IDX 11 22 10 23 9 24 8 25 7 26 6 27 5 28 4 29 3 30 2 31 1 32
REMARK H PARENT
REMARK Flexibility Score: inf
ROOT
ATOM      1  C   UNL     1     -15.335  16.509 -21.067  1.00  0.00     0.000 C 
ENDROOT
BRANCH   1   2
ATOM      2  C   UNL     1     -14.505  15.379 -20.432  1.00  0.00     0.000 C 
BRANCH   2   3
ATOM      3  C   UNL     1     -13.224  15.895 -19.757  1.00  0.00     0.000 C 
BRANCH   3   4
ATOM      4  C   UNL     1     -13.013  17.408 -19.949  1.00  0.00     0.000 C 
BRANCH   4   5
ATOM      5  C   UNL     1     -13.035  18.185 -18.621  1.00  0.00     0.000 C 
BRANCH   5   6
ATOM      6  C   UNL     1     -14.442  18.473 -18.057  1.00  0.00     0.000 C 
BRANCH   6   7
ATOM      7  C   UNL     1     -14.703  17.927 -16.640  1.00  0.00     0.000 C 
BRANCH   7   8
ATOM      8  C   UNL     1     -14.265  16.467 -16.424  1.00  0.00     0.000 C 
BRANCH   8   9
ATOM      9  C   UNL     1     -13.099  16.338 -15.426  1.00  0.00     0.000 C 
BRANCH   9  10
ATOM     10  C   UNL     1     -13.145  17.407 -14.320  1.00  0.00     0.000 C 
BRANCH  10  11
ATOM     11  C   UNL     1     -11.908  18.322 -14.261  1.00  0.00     0.000 C 
BRANCH  11  12
ATOM     12  C   UNL     1     -12.247  19.826 -14.324  1.00  0.00     0.000 C 
BRANCH  12  13
ATOM     13  C   UNL     1     -12.252  20.361 -15.765  1.00  0.00     0.006 C 
BRANCH  13  14
ATOM     14  C   UNL     1     -13.011  21.689 -15.893  1.00  0.00     0.053 C 
BRANCH  14  15
ATOM     15  C   UNL     1     -13.672  21.830 -17.231  1.00  0.00     0.041 C 
ATOM     16  O   UNL     1     -12.986  21.783 -18.285  1.00  0.00    -0.550 OA
ATOM     17  O   UNL     1     -15.051  21.976 -17.312  1.00  0.00    -0.550 OA
ENDBRANCH  14  15
ENDBRANCH  13  14
ENDBRANCH  12  13
ENDBRANCH  11  12
ENDBRANCH  10  11
ENDBRANCH   9  10
ENDBRANCH   8   9
ENDBRANCH   7   8
ENDBRANCH   6   7
ENDBRANCH   5   6
ENDBRANCH   4   5
ENDBRANCH   3   4
ENDBRANCH   2   3
ENDBRANCH   1   2
BRANCH   1  18
ATOM     18  C   UNL     1     -16.596  16.854 -20.253  1.00  0.00     0.000 C 
BRANCH  18  19
ATOM     19  C   UNL     1     -16.876  15.927 -19.055  1.00  0.00     0.000 C 
BRANCH  19  20
ATOM     20  C   UNL     1     -18.197  16.252 -18.339  1.00  0.00     0.000 C 
BRANCH  20  21
ATOM     21  C   UNL     1     -18.335  17.749 -18.010  1.00  0.00     0.000 C 
BRANCH  21  22
ATOM     22  C   UNL     1     -18.982  17.986 -16.634  1.00  0.00     0.000 C 
BRANCH  22  23
ATOM     23  C   UNL     1     -17.985  17.841 -15.470  1.00  0.00     0.000 C 
BRANCH  23  24
ATOM     24  C   UNL     1     -18.573  17.235 -14.182  1.00  0.00    -0.000 C 
BRANCH  24  25
ATOM     25  C   UNL     1     -17.544  17.133 -13.042  1.00  0.00    -0.000 C 
BRANCH  25  26
ATOM     26  C   UNL     1     -16.431  16.114 -13.334  1.00  0.00    -0.000 C 
BRANCH  26  27
ATOM     27  C   UNL     1     -16.795  14.687 -12.886  1.00  0.00    -0.000 C 
BRANCH  27  28
ATOM     28  C   UNL     1     -16.592  13.662 -14.014  1.00  0.00    -0.000 C 
BRANCH  28  29
ATOM     29  C   UNL     1     -16.954  14.235 -15.396  1.00  0.00    -0.000 C 
BRANCH  29  30
ATOM     30  C   UNL     1     -17.322  13.139 -16.408  1.00  0.00    -0.000 C 
BRANCH  30  31
ATOM     31  C   UNL     1     -17.540  11.775 -15.737  1.00  0.00    -0.003 C 
ATOM     32  C   UNL     1     -18.245  10.803 -16.678  1.00  0.00     0.004 C 
ENDBRANCH  30  31
ENDBRANCH  29  30
ENDBRANCH  28  29
ENDBRANCH  27  28
ENDBRANCH  26  27
ENDBRANCH  25  26
ENDBRANCH  24  25
ENDBRANCH  23  24
ENDBRANCH  22  23
ENDBRANCH  21  22
ENDBRANCH  20  21
ENDBRANCH  19  20
ENDBRANCH  18  19
ENDBRANCH   1  18
TORSDOF 28
ENDMDL
MODEL 4
REMARK VINA RESULT:    -4.648      1.470      5.029
REMARK INTER + INTRA:         -18.294
REMARK INTER:                 -12.598
REMARK INTRA:                  -5.696
REMARK UNBOUND:                -6.039
REMARK SMILES CCCCCCCCCCCCCCCCCCCCCCCCCCCCCC(=O)[O-]
REMARK SMILES IDX 16 1 17 2 18 3 19 4 20 5 21 6 22 7 23 8 24 9 25 10 26 11
REMARK SMILES IDX 27 12 28 13 29 14 30 15 31 16 32 17 15 18 14 19 13 20 12 21
REMARK SMILES IDX 11 22 10 23 9 24 8 25 7 26 6 27 5 28 4 29 3 30 2 31 1 32
REMARK H PARENT
REMARK Flexibility Score: inf
ROOT
ATOM      1  C   UNL     1     -16.711  19.699 -17.004  1.00  0.00     0.000 C 
ENDROOT
BRANCH   1   2
ATOM      2  C   UNL     1     -17.631  19.021 -18.035  1.00  0.00     0.000 C 
BRANCH   2   3
ATOM      3  C   UNL     1     -16.859  18.476 -19.247  1.00  0.00     0.000 C 
BRANCH   3   4
ATOM      4  C   UNL     1     -17.350  17.087 -19.695  1.00  0.00     0.000 C 
BRANCH   4   5
ATOM      5  C   UNL     1     -18.561  16.593 -18.884  1.00  0.00     0.000 C 
BRANCH   5   6
ATOM      6  C   UNL     1     -18.311  15.321 -18.048  1.00  0.00     0.000 C 
BRANCH   6   7
ATOM      7  C   UNL     1     -18.458  15.500 -16.524  1.00  0.00     0.000 C 
BRANCH   7   8
ATOM      8  C   UNL     1     -19.577  16.468 -16.097  1.00  0.00     0.000 C 
BRANCH   8   9
ATOM      9  C   UNL     1     -19.125  17.452 -15.002  1.00  0.00     0.000 C 
BRANCH   9  10
ATOM     10  C   UNL     1     -17.652  17.257 -14.603  1.00  0.00     0.000 C 
BRANCH  10  11
ATOM     11  C   UNL     1     -17.431  16.906 -13.119  1.00  0.00     0.000 C 
BRANCH  11  12
ATOM     12  C   UNL     1     -16.276  15.909 -12.885  1.00  0.00     0.000 C 
BRANCH  12  13
ATOM     13  C   UNL     1     -16.775  14.462 -12.748  1.00  0.00     0.006 C 
BRANCH  13  14
ATOM     14  C   UNL     1     -16.781  13.716 -14.090  1.00  0.00     0.053 C 
BRANCH  14  15
ATOM     15  C   UNL     1     -16.817  12.230 -13.905  1.00  0.00     0.041 C 
ATOM     16  O   UNL     1     -16.053  11.487 -14.576  1.00  0.00    -0.550 OA
ATOM     17  O   UNL     1     -17.669  11.668 -12.962  1.00  0.00    -0.550 OA
ENDBRANCH  14  15
ENDBRANCH  13  14
ENDBRANCH  12  13
ENDBRANCH  11  12
ENDBRANCH  10  11
ENDBRANCH   9  10
ENDBRANCH   8   9
ENDBRANCH   7   8
ENDBRANCH   6   7
ENDBRANCH   5   6
ENDBRANCH   4   5
ENDBRANCH   3   4
ENDBRANCH   2   3
ENDBRANCH   1   2
BRANCH   1  18
ATOM     18  C   UNL     1     -15.328  20.056 -17.580  1.00  0.00     0.000 C 
BRANCH  18  19
ATOM     19  C   UNL     1     -14.923  21.536 -17.439  1.00  0.00     0.000 C 
BRANCH  19  20
ATOM     20  C   UNL     1     -13.406  21.731 -17.283  1.00  0.00     0.000 C 
BRANCH  20  21
ATOM     21  C   UNL     1     -12.917  21.435 -15.855  1.00  0.00     0.000 C 
BRANCH  21  22
ATOM     22  C   UNL     1     -12.223  20.067 -15.748  1.00  0.00     0.000 C 
BRANCH  22  23
ATOM     23  C   UNL     1     -12.358  19.433 -14.351  1.00  0.00     0.000 C 
BRANCH  23  24
ATOM     24  C   UNL     1     -13.654  18.635 -14.122  1.00  0.00    -0.000 C 
BRANCH  24  25
ATOM     25  C   UNL     1     -13.977  17.669 -15.276  1.00  0.00    -0.000 C 
BRANCH  25  26
ATOM     26  C   UNL     1     -13.312  16.294 -15.106  1.00  0.00    -0.000 C 
BRANCH  26  27
ATOM     27  C   UNL     1     -14.057  15.173 -15.852  1.00  0.00    -0.000 C 
BRANCH  27  28
ATOM     28  C   UNL     1     -14.735  15.688 -17.133  1.00  0.00    -0.000 C 
BRANCH  28  29
ATOM     29  C   UNL     1     -14.780  14.617 -18.239  1.00  0.00    -0.000 C 
BRANCH  29  30
ATOM     30  C   UNL     1     -14.201  15.123 -19.569  1.00  0.00    -0.000 C 
BRANCH  30  31
ATOM     31  C   UNL     1     -13.179  16.252 -19.369  1.00  0.00    -0.003 C 
ATOM     32  C   UNL     1     -12.670  16.778 -20.707  1.00  0.00     0.004 C 
ENDBRANCH  30  31
ENDBRANCH  29  30
ENDBRANCH  28  29
ENDBRANCH  27  28
ENDBRANCH  26  27
ENDBRANCH  25  26
ENDBRANCH  24  25
ENDBRANCH  23  24
ENDBRANCH  22  23
ENDBRANCH  21  22
ENDBRANCH  20  21
ENDBRANCH  19  20
ENDBRANCH  18  19
ENDBRANCH   1  18
TORSDOF 28
ENDMDL
MODEL 5
REMARK VINA RESULT:    -4.638      1.909      6.000
REMARK INTER + INTRA:         -18.269
REMARK INTER:                 -12.085
REMARK INTRA:                  -6.184
REMARK UNBOUND:                -6.039
REMARK SMILES CCCCCCCCCCCCCCCCCCCCCCCCCCCCCC(=O)[O-]
REMARK SMILES IDX 16 1 17 2 18 3 19 4 20 5 21 6 22 7 23 8 24 9 25 10 26 11
REMARK SMILES IDX 27 12 28 13 29 14 30 15 31 16 32 17 15 18 14 19 13 20 12 21
REMARK SMILES IDX 11 22 10 23 9 24 8 25 7 26 6 27 5 28 4 29 3 30 2 31 1 32
REMARK H PARENT
REMARK Flexibility Score: inf
ROOT
ATOM      1  C   UNL     1     -13.310  12.699 -16.236  1.00  0.00     0.000 C 
ENDROOT
BRANCH   1   2
ATOM      2  C   UNL     1     -13.238  13.870 -17.232  1.00  0.00     0.000 C 
BRANCH   2   3
ATOM      3  C   UNL     1     -14.143  13.661 -18.456  1.00  0.00     0.000 C 
BRANCH   3   4
ATOM      4  C   UNL     1     -14.868  14.948 -18.892  1.00  0.00     0.000 C 
BRANCH   4   5
ATOM      5  C   UNL     1     -14.374  15.478 -20.249  1.00  0.00     0.000 C 
BRANCH   5   6
ATOM      6  C   UNL     1     -13.134  16.394 -20.179  1.00  0.00     0.000 C 
BRANCH   6   7
ATOM      7  C   UNL     1     -12.892  17.066 -18.813  1.00  0.00     0.000 C 
BRANCH   7   8
ATOM      8  C   UNL     1     -13.187  18.577 -18.780  1.00  0.00     0.000 C 
BRANCH   8   9
ATOM      9  C   UNL     1     -13.100  19.168 -17.361  1.00  0.00     0.000 C 
BRANCH   9  10
ATOM     10  C   UNL     1     -13.274  18.103 -16.264  1.00  0.00     0.000 C 
BRANCH  10  11
ATOM     11  C   UNL     1     -14.700  18.003 -15.689  1.00  0.00     0.000 C 
BRANCH  11  12
ATOM     12  C   UNL     1     -15.305  16.585 -15.780  1.00  0.00     0.000 C 
BRANCH  12  13
ATOM     13  C   UNL     1     -15.004  15.743 -14.530  1.00  0.00     0.006 C 
BRANCH  13  14
ATOM     14  C   UNL     1     -15.469  16.429 -13.238  1.00  0.00     0.053 C 
BRANCH  14  15
ATOM     15  C   UNL     1     -16.417  15.570 -12.457  1.00  0.00     0.041 C 
ATOM     16  O   UNL     1     -16.631  15.805 -11.239  1.00  0.00    -0.550 OA
ATOM     17  O   UNL     1     -17.092  14.532 -13.087  1.00  0.00    -0.550 OA
ENDBRANCH  14  15
ENDBRANCH  13  14
ENDBRANCH  12  13
ENDBRANCH  11  12
ENDBRANCH  10  11
ENDBRANCH   9  10
ENDBRANCH   8   9
ENDBRANCH   7   8
ENDBRANCH   6   7
ENDBRANCH   5   6
ENDBRANCH   4   5
ENDBRANCH   3   4
ENDBRANCH   2   3
ENDBRANCH   1   2
BRANCH   1  18
ATOM     18  C   UNL     1     -14.455  11.718 -16.548  1.00  0.00     0.000 C 
BRANCH  18  19
ATOM     19  C   UNL     1     -15.633  11.751 -15.555  1.00  0.00     0.000 C 
BRANCH  19  20
ATOM     20  C   UNL     1     -16.740  12.735 -15.967  1.00  0.00     0.000 C 
BRANCH  20  21
ATOM     21  C   UNL     1     -17.877  12.050 -16.745  1.00  0.00     0.000 C 
BRANCH  21  22
ATOM     22  C   UNL     1     -18.894  13.061 -17.302  1.00  0.00     0.000 C 
BRANCH  22  23
ATOM     23  C   UNL     1     -18.281  14.450 -17.556  1.00  0.00     0.000 C 
BRANCH  23  24
ATOM     24  C   UNL     1     -19.160  15.638 -17.122  1.00  0.00    -0.000 C 
BRANCH  24  25
ATOM     25  C   UNL     1     -18.838  16.134 -15.701  1.00  0.00    -0.000 C 
BRANCH  25  26
ATOM     26  C   UNL     1     -18.974  17.658 -15.557  1.00  0.00    -0.000 C 
BRANCH  26  27
ATOM     27  C   UNL     1     -19.044  18.382 -16.913  1.00  0.00    -0.000 C 
BRANCH  27  28
ATOM     28  C   UNL     1     -17.731  19.113 -17.242  1.00  0.00    -0.000 C 
BRANCH  28  29
ATOM     29  C   UNL     1     -17.512  19.264 -18.758  1.00  0.00    -0.000 C 
BRANCH  29  30
ATOM     30  C   UNL     1     -16.832  18.034 -19.378  1.00  0.00    -0.000 C 
BRANCH  30  31
ATOM     31  C   UNL     1     -17.799  17.201 -20.233  1.00  0.00    -0.003 C 
ATOM     32  C   UNL     1     -19.025  18.017 -20.633  1.00  0.00     0.004 C 
ENDBRANCH  30  31
ENDBRANCH  29  30
ENDBRANCH  28  29
ENDBRANCH  27  28
ENDBRANCH  26  27
ENDBRANCH  25  26
ENDBRANCH  24  25
ENDBRANCH  23  24
ENDBRANCH  22  23
ENDBRANCH  21  22
ENDBRANCH  20  21
ENDBRANCH  19  20
ENDBRANCH  18  19
ENDBRANCH   1  18
TORSDOF 28
ENDMDL
MODEL 6
REMARK VINA RESULT:    -4.625      1.374      4.470
REMARK INTER + INTRA:         -18.234
REMARK INTER:                 -12.205
REMARK INTRA:                  -6.029
REMARK UNBOUND:                -6.039
REMARK SMILES CCCCCCCCCCCCCCCCCCCCCCCCCCCCCC(=O)[O-]
REMARK SMILES IDX 16 1 17 2 18 3 19 4 20 5 21 6 22 7 23 8 24 9 25 10 26 11
REMARK SMILES IDX 27 12 28 13 29 14 30 15 31 16 32 17 15 18 14 19 13 20 12 21
REMARK SMILES IDX 11 22 10 23 9 24 8 25 7 26 6 27 5 28 4 29 3 30 2 31 1 32
REMARK H PARENT
REMARK Flexibility Score: inf
ROOT
ATOM      1  C   UNL     1     -14.955  18.255 -14.560  1.00  0.00     0.000 C 
ENDROOT
BRANCH   1   2
ATOM      2  C   UNL     1     -15.036  17.439 -13.258  1.00  0.00     0.000 C 
BRANCH   2   3
ATOM      3  C   UNL     1     -15.445  15.978 -13.502  1.00  0.00     0.000 C 
BRANCH   3   4
ATOM      4  C   UNL     1     -16.946  15.729 -13.269  1.00  0.00     0.000 C 
BRANCH   4   5
ATOM      5  C   UNL     1     -17.661  16.941 -12.647  1.00  0.00     0.000 C 
BRANCH   5   6
ATOM      6  C   UNL     1     -18.716  17.611 -13.552  1.00  0.00     0.000 C 
BRANCH   6   7
ATOM      7  C   UNL     1     -18.508  17.403 -15.065  1.00  0.00     0.000 C 
BRANCH   7   8
ATOM      8  C   UNL     1     -19.628  16.611 -15.764  1.00  0.00     0.000 C 
BRANCH   8   9
ATOM      9  C   UNL     1     -19.086  15.525 -16.711  1.00  0.00     0.000 C 
BRANCH   9  10
ATOM     10  C   UNL     1     -17.556  15.583 -16.864  1.00  0.00     0.000 C 
BRANCH  10  11
ATOM     11  C   UNL     1     -16.902  14.252 -17.281  1.00  0.00     0.000 C 
BRANCH  11  12
ATOM     12  C   UNL     1     -15.681  13.866 -16.420  1.00  0.00     0.000 C 
BRANCH  12  13
ATOM     13  C   UNL     1     -15.960  12.645 -15.529  1.00  0.00     0.006 C 
BRANCH  13  14
ATOM     14  C   UNL     1     -16.099  11.349 -16.339  1.00  0.00     0.053 C 
BRANCH  14  15
ATOM     15  C   UNL     1     -17.512  10.851 -16.362  1.00  0.00     0.041 C 
ATOM     16  O   UNL     1     -18.339  11.247 -15.499  1.00  0.00    -0.550 OA
ATOM     17  O   UNL     1     -17.925   9.979 -17.361  1.00  0.00    -0.550 OA
ENDBRANCH  14  15
ENDBRANCH  13  14
ENDBRANCH  12  13
ENDBRANCH  11  12
ENDBRANCH  10  11
ENDBRANCH   9  10
ENDBRANCH   8   9
ENDBRANCH   7   8
ENDBRANCH   6   7
ENDBRANCH   5   6
ENDBRANCH   4   5
ENDBRANCH   3   4
ENDBRANCH   2   3
ENDBRANCH   1   2
BRANCH   1  18
ATOM     18  C   UNL     1     -14.585  17.395 -15.783  1.00  0.00     0.000 C 
BRANCH  18  19
ATOM     19  C   UNL     1     -13.234  17.737 -16.439  1.00  0.00     0.000 C 
BRANCH  19  20
ATOM     20  C   UNL     1     -12.542  18.949 -15.793  1.00  0.00     0.000 C 
BRANCH  20  21
ATOM     21  C   UNL     1     -12.210  20.051 -16.814  1.00  0.00     0.000 C 
BRANCH  21  22
ATOM     22  C   UNL     1     -13.401  20.374 -17.732  1.00  0.00     0.000 C 
BRANCH  22  23
ATOM     23  C   UNL     1     -14.547  21.094 -16.997  1.00  0.00     0.000 C 
BRANCH  23  24
ATOM     24  C   UNL     1     -15.899  21.082 -17.732  1.00  0.00    -0.000 C 
BRANCH  24  25
ATOM     25  C   UNL     1     -16.712  19.801 -17.473  1.00  0.00    -0.000 C 
BRANCH  25  26
ATOM     26  C   UNL     1     -16.990  19.002 -18.756  1.00  0.00    -0.000 C 
BRANCH  26  27
ATOM     27  C   UNL     1     -15.881  17.985 -19.078  1.00  0.00    -0.000 C 
BRANCH  27  28
ATOM     28  C   UNL     1     -16.311  16.995 -20.174  1.00  0.00    -0.000 C 
BRANCH  28  29
ATOM     29  C   UNL     1     -15.121  16.201 -20.741  1.00  0.00    -0.000 C 
BRANCH  29  30
ATOM     30  C   UNL     1     -14.406  15.368 -19.666  1.00  0.00    -0.000 C 
BRANCH  30  31
ATOM     31  C   UNL     1     -12.917  15.727 -19.543  1.00  0.00    -0.003 C 
ATOM     32  C   UNL     1     -12.581  16.970 -20.360  1.00  0.00     0.004 C 
ENDBRANCH  30  31
ENDBRANCH  29  30
ENDBRANCH  28  29
ENDBRANCH  27  28
ENDBRANCH  26  27
ENDBRANCH  25  26
ENDBRANCH  24  25
ENDBRANCH  23  24
ENDBRANCH  22  23
ENDBRANCH  21  22
ENDBRANCH  20  21
ENDBRANCH  19  20
ENDBRANCH  18  19
ENDBRANCH   1  18
TORSDOF 28
ENDMDL
MODEL 7
REMARK VINA RESULT:    -4.623      3.181      6.978
REMARK INTER + INTRA:         -18.229
REMARK INTER:                 -12.282
REMARK INTRA:                  -5.947
REMARK UNBOUND:                -6.039
REMARK SMILES CCCCCCCCCCCCCCCCCCCCCCCCCCCCCC(=O)[O-]
REMARK SMILES IDX 16 1 17 2 18 3 19 4 20 5 21 6 22 7 23 8 24 9 25 10 26 11
REMARK SMILES IDX 27 12 28 13 29 14 30 15 31 16 32 17 15 18 14 19 13 20 12 21
REMARK SMILES IDX 11 22 10 23 9 24 8 25 7 26 6 27 5 28 4 29 3 30 2 31 1 32
REMARK H PARENT
REMARK Flexibility Score: inf
ROOT
ATOM      1  C   UNL     1     -13.602  14.903 -18.445  1.00  0.00     0.000 C 
ENDROOT
BRANCH   1   2
ATOM      2  C   UNL     1     -12.944  15.958 -19.351  1.00  0.00     0.000 C 
BRANCH   2   3
ATOM      3  C   UNL     1     -13.973  16.834 -20.081  1.00  0.00     0.000 C 
BRANCH   3   4
ATOM      4  C   UNL     1     -15.351  16.159 -20.210  1.00  0.00     0.000 C 
BRANCH   4   5
ATOM      5  C   UNL     1     -16.205  16.762 -21.339  1.00  0.00     0.000 C 
BRANCH   5   6
ATOM      6  C   UNL     1     -17.121  17.928 -20.913  1.00  0.00     0.000 C 
BRANCH   6   7
ATOM      7  C   UNL     1     -18.632  17.641 -21.005  1.00  0.00     0.000 C 
BRANCH   7   8
ATOM      8  C   UNL     1     -19.376  17.687 -19.657  1.00  0.00     0.000 C 
BRANCH   8   9
ATOM      9  C   UNL     1     -18.440  17.472 -18.454  1.00  0.00     0.000 C 
BRANCH   9  10
ATOM     10  C   UNL     1     -18.519  18.617 -17.430  1.00  0.00     0.000 C 
BRANCH  10  11
ATOM     11  C   UNL     1     -17.195  18.918 -16.701  1.00  0.00     0.000 C 
BRANCH  11  12
ATOM     12  C   UNL     1     -15.960  18.285 -17.376  1.00  0.00     0.000 C 
BRANCH  12  13
ATOM     13  C   UNL     1     -14.773  19.259 -17.448  1.00  0.00     0.006 C 
BRANCH  13  14
ATOM     14  C   UNL     1     -15.201  20.718 -17.238  1.00  0.00     0.053 C 
BRANCH  14  15
ATOM     15  C   UNL     1     -14.036  21.658 -17.299  1.00  0.00     0.041 C 
ATOM     16  O   UNL     1     -14.065  22.747 -16.668  1.00  0.00    -0.550 OA
ATOM     17  O   UNL     1     -12.902  21.312 -18.023  1.00  0.00    -0.550 OA
ENDBRANCH  14  15
ENDBRANCH  13  14
ENDBRANCH  12  13
ENDBRANCH  11  12
ENDBRANCH  10  11
ENDBRANCH   9  10
ENDBRANCH   8   9
ENDBRANCH   7   8
ENDBRANCH   6   7
ENDBRANCH   5   6
ENDBRANCH   4   5
ENDBRANCH   3   4
ENDBRANCH   2   3
ENDBRANCH   1   2
BRANCH   1  18
ATOM     18  C   UNL     1     -12.613  14.268 -17.450  1.00  0.00     0.000 C 
BRANCH  18  19
ATOM     19  C   UNL     1     -12.834  14.647 -15.974  1.00  0.00     0.000 C 
BRANCH  19  20
ATOM     20  C   UNL     1     -13.407  16.063 -15.797  1.00  0.00     0.000 C 
BRANCH  20  21
ATOM     21  C   UNL     1     -13.511  16.476 -14.318  1.00  0.00     0.000 C 
BRANCH  21  22
ATOM     22  C   UNL     1     -14.036  17.912 -14.149  1.00  0.00     0.000 C 
BRANCH  22  23
ATOM     23  C   UNL     1     -15.481  17.964 -13.622  1.00  0.00     0.000 C 
BRANCH  23  24
ATOM     24  C   UNL     1     -16.075  16.603 -13.215  1.00  0.00    -0.000 C 
BRANCH  24  25
ATOM     25  C   UNL     1     -17.289  16.197 -14.070  1.00  0.00    -0.000 C 
BRANCH  25  26
ATOM     26  C   UNL     1     -17.080  14.864 -14.806  1.00  0.00    -0.000 C 
BRANCH  26  27
ATOM     27  C   UNL     1     -16.780  15.049 -16.304  1.00  0.00    -0.000 C 
BRANCH  27  28
ATOM     28  C   UNL     1     -16.872  13.722 -17.076  1.00  0.00    -0.000 C 
BRANCH  28  29
ATOM     29  C   UNL     1     -17.445  12.584 -16.212  1.00  0.00    -0.000 C 
BRANCH  29  30
ATOM     30  C   UNL     1     -16.494  11.381 -16.120  1.00  0.00    -0.000 C 
BRANCH  30  31
ATOM     31  C   UNL     1     -15.028  11.808 -15.948  1.00  0.00    -0.003 C 
ATOM     32  C   UNL     1     -14.095  10.915 -16.760  1.00  0.00     0.004 C 
ENDBRANCH  30  31
ENDBRANCH  29  30
ENDBRANCH  28  29
ENDBRANCH  27  28
ENDBRANCH  26  27
ENDBRANCH  25  26
ENDBRANCH  24  25
ENDBRANCH  23  24
ENDBRANCH  22  23
ENDBRANCH  21  22
ENDBRANCH  20  21
ENDBRANCH  19  20
ENDBRANCH  18  19
ENDBRANCH   1  18
TORSDOF 28
ENDMDL
MODEL 8
REMARK VINA RESULT:    -4.619      1.888      5.006
REMARK INTER + INTRA:         -18.220
REMARK INTER:                 -12.562
REMARK INTRA:                  -5.659
REMARK UNBOUND:                -6.039
REMARK SMILES CCCCCCCCCCCCCCCCCCCCCCCCCCCCCC(=O)[O-]
REMARK SMILES IDX 16 1 17 2 18 3 19 4 20 5 21 6 22 7 23 8 24 9 25 10 26 11
REMARK SMILES IDX 27 12 28 13 29 14 30 15 31 16 32 17 15 18 14 19 13 20 12 21
REMARK SMILES IDX 11 22 10 23 9 24 8 25 7 26 6 27 5 28 4 29 3 30 2 31 1 32
REMARK H PARENT
REMARK Flexibility Score: inf
ROOT
ATOM      1  C   UNL     1     -13.993  12.578 -17.032  1.00  0.00     0.000 C 
ENDROOT
BRANCH   1   2
ATOM      2  C   UNL     1     -14.331  11.283 -16.273  1.00  0.00     0.000 C 
BRANCH   2   3
ATOM      3  C   UNL     1     -15.725  11.324 -15.628  1.00  0.00     0.000 C 
BRANCH   3   4
ATOM      4  C   UNL     1     -16.848  10.915 -16.600  1.00  0.00     0.000 C 
BRANCH   4   5
ATOM      5  C   UNL     1     -18.210  11.524 -16.226  1.00  0.00     0.000 C 
BRANCH   5   6
ATOM      6  C   UNL     1     -18.609  12.775 -17.037  1.00  0.00     0.000 C 
BRANCH   6   7
ATOM      7  C   UNL     1     -17.868  14.070 -16.651  1.00  0.00     0.000 C 
BRANCH   7   8
ATOM      8  C   UNL     1     -16.960  14.642 -17.756  1.00  0.00     0.000 C 
BRANCH   8   9
ATOM      9  C   UNL     1     -17.365  16.066 -18.179  1.00  0.00     0.000 C 
BRANCH   9  10
ATOM     10  C   UNL     1     -18.662  16.539 -17.500  1.00  0.00     0.000 C 
BRANCH  10  11
ATOM     11  C   UNL     1     -18.504  17.791 -16.618  1.00  0.00     0.000 C 
BRANCH  11  12
ATOM     12  C   UNL     1     -17.485  17.616 -15.472  1.00  0.00     0.000 C 
BRANCH  12  13
ATOM     13  C   UNL     1     -18.110  16.953 -14.233  1.00  0.00     0.006 C 
BRANCH  13  14
ATOM     14  C   UNL     1     -17.207  17.057 -12.997  1.00  0.00     0.053 C 
BRANCH  14  15
ATOM     15  C   UNL     1     -16.617  15.731 -12.621  1.00  0.00     0.041 C 
ATOM     16  O   UNL     1     -15.757  15.656 -11.705  1.00  0.00    -0.550 OA
ATOM     17  O   UNL     1     -17.047  14.574 -13.259  1.00  0.00    -0.550 OA
ENDBRANCH  14  15
ENDBRANCH  13  14
ENDBRANCH  12  13
ENDBRANCH  11  12
ENDBRANCH  10  11
ENDBRANCH   9  10
ENDBRANCH   8   9
ENDBRANCH   7   8
ENDBRANCH   6   7
ENDBRANCH   5   6
ENDBRANCH   4   5
ENDBRANCH   3   4
ENDBRANCH   2   3
ENDBRANCH   1   2
BRANCH   1  18
ATOM     18  C   UNL     1     -12.896  13.408 -16.339  1.00  0.00     0.000 C 
BRANCH  18  19
ATOM     19  C   UNL     1     -13.067  14.935 -16.444  1.00  0.00     0.000 C 
BRANCH  19  20
ATOM     20  C   UNL     1     -14.245  15.468 -15.611  1.00  0.00     0.000 C 
BRANCH  20  21
ATOM     21  C   UNL     1     -13.853  16.677 -14.744  1.00  0.00     0.000 C 
BRANCH  21  22
ATOM     22  C   UNL     1     -12.415  17.150 -15.018  1.00  0.00     0.000 C 
BRANCH  22  23
ATOM     23  C   UNL     1     -11.908  18.163 -13.976  1.00  0.00     0.000 C 
BRANCH  23  24
ATOM     24  C   UNL     1     -12.290  19.629 -14.255  1.00  0.00    -0.000 C 
BRANCH  24  25
ATOM     25  C   UNL     1     -12.059  20.041 -15.719  1.00  0.00    -0.000 C 
BRANCH  25  26
ATOM     26  C   UNL     1     -13.081  21.076 -16.215  1.00  0.00    -0.000 C 
BRANCH  26  27
ATOM     27  C   UNL     1     -13.860  20.600 -17.454  1.00  0.00    -0.000 C 
BRANCH  27  28
ATOM     28  C   UNL     1     -14.744  19.380 -17.143  1.00  0.00    -0.000 C 
BRANCH  28  29
ATOM     29  C   UNL     1     -14.543  18.241 -18.159  1.00  0.00    -0.000 C 
BRANCH  29  30
ATOM     30  C   UNL     1     -13.087  18.131 -18.637  1.00  0.00    -0.000 C 
BRANCH  30  31
ATOM     31  C   UNL     1     -12.882  16.969 -19.621  1.00  0.00    -0.003 C 
ATOM     32  C   UNL     1     -14.216  16.456 -20.154  1.00  0.00     0.004 C 
ENDBRANCH  30  31
ENDBRANCH  29  30
ENDBRANCH  28  29
ENDBRANCH  27  28
ENDBRANCH  26  27
ENDBRANCH  25  26
ENDBRANCH  24  25
ENDBRANCH  23  24
ENDBRANCH  22  23
ENDBRANCH  21  22
ENDBRANCH  20  21
ENDBRANCH  19  20
ENDBRANCH  18  19
ENDBRANCH   1  18
TORSDOF 28
ENDMDL
MODEL 9
REMARK VINA RESULT:    -4.605     10.959     14.617
REMARK INTER + INTRA:         -18.182
REMARK INTER:                 -12.056
REMARK INTRA:                  -6.126
REMARK UNBOUND:                -6.039
REMARK SMILES CCCCCCCCCCCCCCCCCCCCCCCCCCCCCC(=O)[O-]
REMARK SMILES IDX 16 1 17 2 18 3 19 4 20 5 21 6 22 7 23 8 24 9 25 10 26 11
REMARK SMILES IDX 27 12 28 13 29 14 30 15 31 16 32 17 15 18 14 19 13 20 12 21
REMARK SMILES IDX 11 22 10 23 9 24 8 25 7 26 6 27 5 28 4 29 3 30 2 31 1 32
REMARK H PARENT
REMARK Flexibility Score: inf
ROOT
ATOM      1  C   UNL     1      -7.322  10.777 -11.884  1.00  0.00     0.000 C 
ENDROOT
BRANCH   1   2
ATOM      2  C   UNL     1      -7.731  10.954 -13.357  1.00  0.00     0.000 C 
BRANCH   2   3
ATOM      3  C   UNL     1      -7.557  12.400 -13.848  1.00  0.00     0.000 C 
BRANCH   3   4
ATOM      4  C   UNL     1      -7.052  13.350 -12.747  1.00  0.00     0.000 C 
BRANCH   4   5
ATOM      5  C   UNL     1      -7.794  14.698 -12.738  1.00  0.00     0.000 C 
BRANCH   5   6
ATOM      6  C   UNL     1      -6.943  15.908 -12.301  1.00  0.00     0.000 C 
BRANCH   6   7
ATOM      7  C   UNL     1      -5.652  16.129 -13.114  1.00  0.00     0.000 C 
BRANCH   7   8
ATOM      8  C   UNL     1      -4.350  15.891 -12.328  1.00  0.00     0.000 C 
BRANCH   8   9
ATOM      9  C   UNL     1      -3.192  15.417 -13.226  1.00  0.00     0.000 C 
BRANCH   9  10
ATOM     10  C   UNL     1      -3.657  15.045 -14.644  1.00  0.00     0.000 C 
BRANCH  10  11
ATOM     11  C   UNL     1      -4.048  13.566 -14.823  1.00  0.00     0.000 C 
BRANCH  11  12
ATOM     12  C   UNL     1      -3.532  12.649 -13.694  1.00  0.00     0.000 C 
BRANCH  12  13
ATOM     13  C   UNL     1      -3.522  11.168 -14.106  1.00  0.00     0.006 C 
BRANCH  13  14
ATOM     14  C   UNL     1      -4.109  10.947 -15.507  1.00  0.00     0.053 C 
BRANCH  14  15
ATOM     15  C   UNL     1      -3.127  10.287 -16.427  1.00  0.00     0.041 C 
ATOM     16  O   UNL     1      -3.533   9.622 -17.416  1.00  0.00    -0.550 OA
ATOM     17  O   UNL     1      -1.764  10.440 -16.213  1.00  0.00    -0.550 OA
ENDBRANCH  14  15
ENDBRANCH  13  14
ENDBRANCH  12  13
ENDBRANCH  11  12
ENDBRANCH  10  11
ENDBRANCH   9  10
ENDBRANCH   8   9
ENDBRANCH   7   8
ENDBRANCH   6   7
ENDBRANCH   5   6
ENDBRANCH   4   5
ENDBRANCH   3   4
ENDBRANCH   2   3
ENDBRANCH   1   2
BRANCH   1  18
ATOM     18  C   UNL     1      -6.262   9.678 -11.686  1.00  0.00     0.000 C 
BRANCH  18  19
ATOM     19  C   UNL     1      -5.651   9.605 -10.274  1.00  0.00     0.000 C 
BRANCH  19  20
ATOM     20  C   UNL     1      -4.117   9.709 -10.277  1.00  0.00     0.000 C 
BRANCH  20  21
ATOM     21  C   UNL     1      -3.513   9.533  -8.873  1.00  0.00     0.000 C 
BRANCH  21  22
ATOM     22  C   UNL     1      -1.992   9.301  -8.917  1.00  0.00     0.000 C 
BRANCH  22  23
ATOM     23  C   UNL     1      -1.361   9.718 -10.257  1.00  0.00     0.000 C 
BRANCH  23  24
ATOM     24  C   UNL     1      -0.226  10.753 -10.147  1.00  0.00    -0.000 C 
BRANCH  24  25
ATOM     25  C   UNL     1      -0.581  12.104 -10.792  1.00  0.00    -0.000 C 
BRANCH  25  26
ATOM     26  C   UNL     1      -1.409  13.007  -9.864  1.00  0.00    -0.000 C 
BRANCH  26  27
ATOM     27  C   UNL     1      -2.860  13.186 -10.344  1.00  0.00    -0.000 C 
BRANCH  27  28
ATOM     28  C   UNL     1      -3.848  13.268  -9.168  1.00  0.00    -0.000 C 
BRANCH  28  29
ATOM     29  C   UNL     1      -5.313  13.297  -9.639  1.00  0.00    -0.000 C 
BRANCH  29  30
ATOM     30  C   UNL     1      -6.086  14.499  -9.075  1.00  0.00    -0.000 C 
BRANCH  30  31
ATOM     31  C   UNL     1      -7.521  14.132  -8.668  1.00  0.00    -0.003 C 
ATOM     32  C   UNL     1      -7.759  12.629  -8.782  1.00  0.00     0.004 C 
ENDBRANCH  30  31
ENDBRANCH  29  30
ENDBRANCH  28  29
ENDBRANCH  27  28
ENDBRANCH  26  27
ENDBRANCH  25  26
ENDBRANCH  24  25
ENDBRANCH  23  24
ENDBRANCH  22  23
ENDBRANCH  21  22
ENDBRANCH  20  21
ENDBRANCH  19  20
ENDBRANCH  18  19
ENDBRANCH   1  18
TORSDOF 28
ENDMDL
