MODEL 1
REMARK VINA RESULT:    -3.933      0.000      0.000
REMARK INTER + INTRA:         -15.126
REMARK INTER:                  -9.911
REMARK INTRA:                  -5.216
REMARK UNBOUND:                -5.216
REMARK SMILES CCCCCCCCCCCCCCCCCCCCCCCCCCCC(=O)[O-]
REMARK SMILES IDX 15 1 16 2 17 3 18 4 19 5 20 6 21 7 22 8 23 9 24 10 25 11
REMARK SMILES IDX 26 12 27 13 28 14 29 15 30 16 14 17 13 18 12 19 11 20 10 21
REMARK SMILES IDX 9 22 8 23 7 24 6 25 5 26 4 27 3 28 2 29 1 30
REMARK H PARENT
REMARK Flexibility Score: inf
ROOT
ATOM      1  C   UNL     1      25.910  43.121  47.631  1.00  0.00     0.000 C 
ENDROOT
BRANCH   1   2
ATOM      2  C   UNL     1      26.257  43.662  46.228  1.00  0.00     0.000 C 
BRANCH   2   3
ATOM      3  C   UNL     1      27.655  43.278  45.701  1.00  0.00     0.000 C 
BRANCH   3   4
ATOM      4  C   UNL     1      27.652  42.283  44.526  1.00  0.00     0.000 C 
BRANCH   4   5
ATOM      5  C   UNL     1      28.014  40.852  44.960  1.00  0.00     0.000 C 
BRANCH   5   6
ATOM      6  C   UNL     1      29.286  40.330  44.272  1.00  0.00     0.000 C 
BRANCH   6   7
ATOM      7  C   UNL     1      30.378  39.933  45.279  1.00  0.00     0.000 C 
BRANCH   7   8
ATOM      8  C   UNL     1      30.269  40.705  46.603  1.00  0.00     0.000 C 
BRANCH   8   9
ATOM      9  C   UNL     1      30.881  39.940  47.791  1.00  0.00     0.000 C 
BRANCH   9  10
ATOM     10  C   UNL     1      30.577  40.607  49.142  1.00  0.00     0.000 C 
BRANCH  10  11
ATOM     11  C   UNL     1      31.437  41.854  49.393  1.00  0.00     0.000 C 
BRANCH  11  12
ATOM     12  C   UNL     1      30.558  43.101  49.572  1.00  0.00     0.006 C 
BRANCH  12  13
ATOM     13  C   UNL     1      30.564  44.000  48.329  1.00  0.00     0.053 C 
BRANCH  13  14
ATOM     14  C   UNL     1      31.272  45.295  48.582  1.00  0.00     0.041 C 
ATOM     15  O   UNL     1      31.677  45.992  47.615  1.00  0.00    -0.550 OA
ATOM     16  O   UNL     1      31.506  45.722  49.884  1.00  0.00    -0.550 OA
ENDBRANCH  13  14
ENDBRANCH  12  13
ENDBRANCH  11  12
ENDBRANCH  10  11
ENDBRANCH   9  10
ENDBRANCH   8   9
ENDBRANCH   7   8
ENDBRANCH   6   7
ENDBRANCH   5   6
ENDBRANCH   4   5
ENDBRANCH   3   4
ENDBRANCH   2   3
ENDBRANCH   1   2
BRANCH   1  17
ATOM     17  C   UNL     1      27.108  42.607  48.450  1.00  0.00     0.000 C 
BRANCH  17  18
ATOM     18  C   UNL     1      27.043  41.093  48.720  1.00  0.00     0.000 C 
BRANCH  18  19
ATOM     19  C   UNL     1      25.813  40.429  48.076  1.00  0.00     0.000 C 
BRANCH  19  20
ATOM     20  C   UNL     1      26.106  39.128  47.304  1.00  0.00     0.000 C 
BRANCH  20  21
ATOM     21  C   UNL     1      27.352  38.370  47.806  1.00  0.00     0.000 C 
BRANCH  21  22
ATOM     22  C   UNL     1      27.777  37.243  46.848  1.00  0.00    -0.000 C 
BRANCH  22  23
ATOM     23  C   UNL     1      29.262  36.872  47.002  1.00  0.00    -0.000 C 
BRANCH  23  24
ATOM     24  C   UNL     1      29.455  35.458  47.580  1.00  0.00    -0.000 C 
BRANCH  24  25
ATOM     25  C   UNL     1      30.169  35.465  48.949  1.00  0.00    -0.000 C 
BRANCH  25  26
ATOM     26  C   UNL     1      30.220  36.851  49.620  1.00  0.00    -0.000 C 
BRANCH  26  27
ATOM     27  C   UNL     1      31.420  37.081  50.561  1.00  0.00    -0.000 C 
BRANCH  27  28
ATOM     28  C   UNL     1      32.724  36.378  50.134  1.00  0.00    -0.000 C 
BRANCH  28  29
ATOM     29  C   UNL     1      33.389  37.043  48.920  1.00  0.00    -0.003 C 
ATOM     30  C   UNL     1      33.829  38.468  49.246  1.00  0.00     0.004 C 
ENDBRANCH  28  29
ENDBRANCH  27  28
ENDBRANCH  26  27
ENDBRANCH  25  26
ENDBRANCH  24  25
ENDBRANCH  23  24
ENDBRANCH  22  23
ENDBRANCH  21  22
ENDBRANCH  20  21
ENDBRANCH  19  20
ENDBRANCH  18  19
ENDBRANCH  17  18
ENDBRANCH   1  17
TORSDOF 26
ENDMDL
MODEL 2
REMARK VINA RESULT:    -3.841      3.066      6.372
REMARK INTER + INTRA:         -14.894
REMARK INTER:                 -10.134
REMARK INTRA:                  -4.760
REMARK UNBOUND:                -5.216
REMARK SMILES CCCCCCCCCCCCCCCCCCCCCCCCCCCC(=O)[O-]
REMARK SMILES IDX 15 1 16 2 17 3 18 4 19 5 20 6 21 7 22 8 23 9 24 10 25 11
REMARK SMILES IDX 26 12 27 13 28 14 29 15 30 16 14 17 13 18 12 19 11 20 10 21
REMARK SMILES IDX 9 22 8 23 7 24 6 25 5 26 4 27 3 28 2 29 1 30
REMARK H PARENT
REMARK Flexibility Score: inf
ROOT
ATOM      1  C   UNL     1      28.708  40.220  44.280  1.00  0.00     0.000 C 
ENDROOT
BRANCH   1   2
ATOM      2  C   UNL     1      29.875  39.537  45.023  1.00  0.00     0.000 C 
BRANCH   2   3
ATOM      3  C   UNL     1      29.467  38.654  46.219  1.00  0.00     0.000 C 
BRANCH   3   4
ATOM      4  C   UNL     1      28.616  37.423  45.855  1.00  0.00     0.000 C 
BRANCH   4   5
ATOM      5  C   UNL     1      27.531  37.121  46.904  1.00  0.00     0.000 C 
BRANCH   5   6
ATOM      6  C   UNL     1      26.689  38.358  47.254  1.00  0.00     0.000 C 
BRANCH   6   7
ATOM      7  C   UNL     1      26.744  38.703  48.752  1.00  0.00     0.000 C 
BRANCH   7   8
ATOM      8  C   UNL     1      27.877  37.966  49.485  1.00  0.00     0.000 C 
BRANCH   8   9
ATOM      9  C   UNL     1      28.326  38.690  50.767  1.00  0.00     0.000 C 
BRANCH   9  10
ATOM     10  C   UNL     1      29.826  38.514  51.049  1.00  0.00     0.000 C 
BRANCH  10  11
ATOM     11  C   UNL     1      30.668  38.462  49.765  1.00  0.00     0.000 C 
BRANCH  11  12
ATOM     12  C   UNL     1      31.381  37.108  49.630  1.00  0.00     0.006 C 
BRANCH  12  13
ATOM     13  C   UNL     1      32.826  37.159  50.142  1.00  0.00     0.053 C 
BRANCH  13  14
ATOM     14  C   UNL     1      33.592  35.927  49.770  1.00  0.00     0.041 C 
ATOM     15  O   UNL     1      34.786  36.019  49.385  1.00  0.00    -0.550 OA
ATOM     16  O   UNL     1      32.981  34.680  49.827  1.00  0.00    -0.550 OA
ENDBRANCH  13  14
ENDBRANCH  12  13
ENDBRANCH  11  12
ENDBRANCH  10  11
ENDBRANCH   9  10
ENDBRANCH   8   9
ENDBRANCH   7   8
ENDBRANCH   6   7
ENDBRANCH   5   6
ENDBRANCH   4   5
ENDBRANCH   3   4
ENDBRANCH   2   3
ENDBRANCH   1   2
BRANCH   1  17
ATOM     17  C   UNL     1      27.876  41.201  45.127  1.00  0.00     0.000 C 
BRANCH  17  18
ATOM     18  C   UNL     1      27.760  42.595  44.486  1.00  0.00     0.000 C 
BRANCH  18  19
ATOM     19  C   UNL     1      27.343  43.679  45.495  1.00  0.00     0.000 C 
BRANCH  19  20
ATOM     20  C   UNL     1      25.959  43.471  46.140  1.00  0.00     0.000 C 
BRANCH  20  21
ATOM     21  C   UNL     1      25.952  43.645  47.673  1.00  0.00     0.000 C 
BRANCH  21  22
ATOM     22  C   UNL     1      26.553  42.430  48.403  1.00  0.00    -0.000 C 
BRANCH  22  23
ATOM     23  C   UNL     1      27.283  42.827  49.698  1.00  0.00    -0.000 C 
BRANCH  23  24
ATOM     24  C   UNL     1      28.683  42.194  49.798  1.00  0.00    -0.000 C 
BRANCH  24  25
ATOM     25  C   UNL     1      29.127  41.518  48.483  1.00  0.00    -0.000 C 
BRANCH  25  26
ATOM     26  C   UNL     1      30.215  42.295  47.717  1.00  0.00    -0.000 C 
BRANCH  26  27
ATOM     27  C   UNL     1      30.236  43.815  47.966  1.00  0.00    -0.000 C 
BRANCH  27  28
ATOM     28  C   UNL     1      31.591  44.378  48.438  1.00  0.00    -0.000 C 
BRANCH  28  29
ATOM     29  C   UNL     1      31.922  45.740  47.811  1.00  0.00    -0.003 C 
ATOM     30  C   UNL     1      33.307  45.728  47.168  1.00  0.00     0.004 C 
ENDBRANCH  28  29
ENDBRANCH  27  28
ENDBRANCH  26  27
ENDBRANCH  25  26
ENDBRANCH  24  25
ENDBRANCH  23  24
ENDBRANCH  22  23
ENDBRANCH  21  22
ENDBRANCH  20  21
ENDBRANCH  19  20
ENDBRANCH  18  19
ENDBRANCH  17  18
ENDBRANCH   1  17
TORSDOF 26
ENDMDL
MODEL 3
REMARK VINA RESULT:    -3.830      4.924      9.089
REMARK INTER + INTRA:         -14.867
REMARK INTER:                 -10.115
REMARK INTRA:                  -4.751
REMARK UNBOUND:                -5.216
REMARK SMILES CCCCCCCCCCCCCCCCCCCCCCCCCCCC(=O)[O-]
REMARK SMILES IDX 15 1 16 2 17 3 18 4 19 5 20 6 21 7 22 8 23 9 24 10 25 11
REMARK SMILES IDX 26 12 27 13 28 14 29 15 30 16 14 17 13 18 12 19 11 20 10 21
REMARK SMILES IDX 9 22 8 23 7 24 6 25 5 26 4 27 3 28 2 29 1 30
REMARK H PARENT
REMARK Flexibility Score: inf
ROOT
ATOM      1  C   UNL     1      33.598  37.585  48.749  1.00  0.00     0.000 C 
ENDROOT
BRANCH   1   2
ATOM      2  C   UNL     1      34.398  36.483  49.475  1.00  0.00     0.000 C 
BRANCH   2   3
ATOM      3  C   UNL     1      34.592  36.699  50.989  1.00  0.00     0.000 C 
BRANCH   3   4
ATOM      4  C   UNL     1      33.420  36.221  51.866  1.00  0.00     0.000 C 
BRANCH   4   5
ATOM      5  C   UNL     1      32.690  35.005  51.268  1.00  0.00     0.000 C 
BRANCH   5   6
ATOM      6  C   UNL     1      31.219  35.304  50.938  1.00  0.00     0.000 C 
BRANCH   6   7
ATOM      7  C   UNL     1      30.866  34.976  49.478  1.00  0.00     0.000 C 
BRANCH   7   8
ATOM      8  C   UNL     1      29.751  33.924  49.362  1.00  0.00     0.000 C 
BRANCH   8   9
ATOM      9  C   UNL     1      30.212  32.646  48.638  1.00  0.00     0.000 C 
BRANCH   9  10
ATOM     10  C   UNL     1      30.557  31.509  49.613  1.00  0.00     0.000 C 
BRANCH  10  11
ATOM     11  C   UNL     1      32.030  31.528  50.048  1.00  0.00     0.000 C 
BRANCH  11  12
ATOM     12  C   UNL     1      32.947  31.888  48.869  1.00  0.00     0.006 C 
BRANCH  12  13
ATOM     13  C   UNL     1      33.724  30.674  48.345  1.00  0.00     0.053 C 
BRANCH  13  14
ATOM     14  C   UNL     1      32.927  29.892  47.347  1.00  0.00     0.041 C 
ATOM     15  O   UNL     1      32.899  30.251  46.141  1.00  0.00    -0.550 OA
ATOM     16  O   UNL     1      32.197  28.781  47.751  1.00  0.00    -0.550 OA
ENDBRANCH  13  14
ENDBRANCH  12  13
ENDBRANCH  11  12
ENDBRANCH  10  11
ENDBRANCH   9  10
ENDBRANCH   8   9
ENDBRANCH   7   8
ENDBRANCH   6   7
ENDBRANCH   5   6
ENDBRANCH   4   5
ENDBRANCH   3   4
ENDBRANCH   2   3
ENDBRANCH   1   2
BRANCH   1  17
ATOM     17  C   UNL     1      33.493  38.923  49.504  1.00  0.00     0.000 C 
BRANCH  17  18
ATOM     18  C   UNL     1      32.037  39.369  49.731  1.00  0.00     0.000 C 
BRANCH  18  19
ATOM     19  C   UNL     1      31.086  38.873  48.628  1.00  0.00     0.000 C 
BRANCH  19  20
ATOM     20  C   UNL     1      30.203  39.963  47.991  1.00  0.00     0.000 C 
BRANCH  20  21
ATOM     21  C   UNL     1      30.369  40.086  46.462  1.00  0.00     0.000 C 
BRANCH  21  22
ATOM     22  C   UNL     1      29.077  40.553  45.769  1.00  0.00    -0.000 C 
BRANCH  22  23
ATOM     23  C   UNL     1      28.586  39.551  44.708  1.00  0.00    -0.000 C 
BRANCH  23  24
ATOM     24  C   UNL     1      29.431  38.265  44.684  1.00  0.00    -0.000 C 
BRANCH  24  25
ATOM     25  C   UNL     1      28.658  37.033  45.203  1.00  0.00    -0.000 C 
BRANCH  25  26
ATOM     26  C   UNL     1      29.073  36.584  46.617  1.00  0.00    -0.000 C 
BRANCH  26  27
ATOM     27  C   UNL     1      27.973  36.692  47.691  1.00  0.00    -0.000 C 
BRANCH  27  28
ATOM     28  C   UNL     1      26.794  37.615  47.322  1.00  0.00    -0.000 C 
BRANCH  28  29
ATOM     29  C   UNL     1      26.634  38.794  48.292  1.00  0.00    -0.003 C 
ATOM     30  C   UNL     1      25.861  39.940  47.643  1.00  0.00     0.004 C 
ENDBRANCH  28  29
ENDBRANCH  27  28
ENDBRANCH  26  27
ENDBRANCH  25  26
ENDBRANCH  24  25
ENDBRANCH  23  24
ENDBRANCH  22  23
ENDBRANCH  21  22
ENDBRANCH  20  21
ENDBRANCH  19  20
ENDBRANCH  18  19
ENDBRANCH  17  18
ENDBRANCH   1  17
TORSDOF 26
ENDMDL
MODEL 4
REMARK VINA RESULT:    -3.813      9.917     12.885
REMARK INTER + INTRA:         -14.825
REMARK INTER:                  -9.953
REMARK INTRA:                  -4.872
REMARK UNBOUND:                -5.216
REMARK SMILES CCCCCCCCCCCCCCCCCCCCCCCCCCCC(=O)[O-]
REMARK SMILES IDX 15 1 16 2 17 3 18 4 19 5 20 6 21 7 22 8 23 9 24 10 25 11
REMARK SMILES IDX 26 12 27 13 28 14 29 15 30 16 14 17 13 18 12 19 11 20 10 21
REMARK SMILES IDX 9 22 8 23 7 24 6 25 5 26 4 27 3 28 2 29 1 30
REMARK H PARENT
REMARK Flexibility Score: inf
ROOT
ATOM      1  C   UNL     1      21.618  34.009  48.448  1.00  0.00     0.000 C 
ENDROOT
BRANCH   1   2
ATOM      2  C   UNL     1      21.564  32.510  48.087  1.00  0.00     0.000 C 
BRANCH   2   3
ATOM      3  C   UNL     1      22.456  32.085  46.903  1.00  0.00     0.000 C 
BRANCH   3   4
ATOM      4  C   UNL     1      23.662  31.207  47.284  1.00  0.00     0.000 C 
BRANCH   4   5
ATOM      5  C   UNL     1      23.633  30.768  48.759  1.00  0.00     0.000 C 
BRANCH   5   6
ATOM      6  C   UNL     1      24.016  29.291  48.943  1.00  0.00     0.000 C 
BRANCH   6   7
ATOM      7  C   UNL     1      23.721  28.446  47.693  1.00  0.00     0.000 C 
BRANCH   7   8
ATOM      8  C   UNL     1      24.842  27.442  47.380  1.00  0.00     0.000 C 
BRANCH   8   9
ATOM      9  C   UNL     1      25.113  27.303  45.871  1.00  0.00     0.000 C 
BRANCH   9  10
ATOM     10  C   UNL     1      26.540  27.725  45.487  1.00  0.00     0.000 C 
BRANCH  10  11
ATOM     11  C   UNL     1      26.599  29.140  44.892  1.00  0.00     0.000 C 
BRANCH  11  12
ATOM     12  C   UNL     1      27.661  29.991  45.603  1.00  0.00     0.006 C 
BRANCH  12  13
ATOM     13  C   UNL     1      27.276  30.307  47.054  1.00  0.00     0.053 C 
BRANCH  13  14
ATOM     14  C   UNL     1      28.456  30.762  47.857  1.00  0.00     0.041 C 
ATOM     15  O   UNL     1      28.448  31.896  48.403  1.00  0.00    -0.550 OA
ATOM     16  O   UNL     1      29.572  29.945  47.983  1.00  0.00    -0.550 OA
ENDBRANCH  13  14
ENDBRANCH  12  13
ENDBRANCH  11  12
ENDBRANCH  10  11
ENDBRANCH   9  10
ENDBRANCH   8   9
ENDBRANCH   7   8
ENDBRANCH   6   7
ENDBRANCH   5   6
ENDBRANCH   4   5
ENDBRANCH   3   4
ENDBRANCH   2   3
ENDBRANCH   1   2
BRANCH   1  17
ATOM     17  C   UNL     1      20.275  34.756  48.346  1.00  0.00     0.000 C 
BRANCH  17  18
ATOM     18  C   UNL     1      19.181  33.927  47.650  1.00  0.00     0.000 C 
BRANCH  18  19
ATOM     19  C   UNL     1      18.718  34.551  46.323  1.00  0.00     0.000 C 
BRANCH  19  20
ATOM     20  C   UNL     1      19.853  34.952  45.360  1.00  0.00     0.000 C 
BRANCH  20  21
ATOM     21  C   UNL     1      20.379  33.788  44.496  1.00  0.00     0.000 C 
BRANCH  21  22
ATOM     22  C   UNL     1      19.260  32.820  44.074  1.00  0.00    -0.000 C 
BRANCH  22  23
ATOM     23  C   UNL     1      19.547  31.370  44.503  1.00  0.00    -0.000 C 
BRANCH  23  24
ATOM     24  C   UNL     1      18.574  30.878  45.590  1.00  0.00    -0.000 C 
BRANCH  24  25
ATOM     25  C   UNL     1      19.238  29.906  46.589  1.00  0.00    -0.000 C 
BRANCH  25  26
ATOM     26  C   UNL     1      18.795  30.112  48.050  1.00  0.00    -0.000 C 
BRANCH  26  27
ATOM     27  C   UNL     1      19.728  29.498  49.113  1.00  0.00    -0.000 C 
BRANCH  27  28
ATOM     28  C   UNL     1      19.671  30.175  50.496  1.00  0.00    -0.000 C 
BRANCH  28  29
ATOM     29  C   UNL     1      18.834  31.463  50.495  1.00  0.00    -0.003 C 
ATOM     30  C   UNL     1      19.513  32.561  51.310  1.00  0.00     0.004 C 
ENDBRANCH  28  29
ENDBRANCH  27  28
ENDBRANCH  26  27
ENDBRANCH  25  26
ENDBRANCH  24  25
ENDBRANCH  23  24
ENDBRANCH  22  23
ENDBRANCH  21  22
ENDBRANCH  20  21
ENDBRANCH  19  20
ENDBRANCH  18  19
ENDBRANCH  17  18
ENDBRANCH   1  17
TORSDOF 26
ENDMDL
MODEL 5
REMARK VINA RESULT:    -3.769      4.485      7.850
REMARK INTER + INTRA:         -14.712
REMARK INTER:                 -10.578
REMARK INTRA:                  -4.134
REMARK UNBOUND:                -5.216
REMARK SMILES CCCCCCCCCCCCCCCCCCCCCCCCCCCC(=O)[O-]
REMARK SMILES IDX 15 1 16 2 17 3 18 4 19 5 20 6 21 7 22 8 23 9 24 10 25 11
REMARK SMILES IDX 26 12 27 13 28 14 29 15 30 16 14 17 13 18 12 19 11 20 10 21
REMARK SMILES IDX 9 22 8 23 7 24 6 25 5 26 4 27 3 28 2 29 1 30
REMARK H PARENT
REMARK Flexibility Score: inf
ROOT
ATOM      1  C   UNL     1      29.754  40.008  44.185  1.00  0.00     0.000 C 
ENDROOT
BRANCH   1   2
ATOM      2  C   UNL     1      30.973  40.059  45.129  1.00  0.00     0.000 C 
BRANCH   2   3
ATOM      3  C   UNL     1      30.647  40.321  46.614  1.00  0.00     0.000 C 
BRANCH   3   4
ATOM      4  C   UNL     1      31.470  39.488  47.614  1.00  0.00     0.000 C 
BRANCH   4   5
ATOM      5  C   UNL     1      31.087  39.772  49.077  1.00  0.00     0.000 C 
BRANCH   5   6
ATOM      6  C   UNL     1      31.896  38.926  50.074  1.00  0.00     0.000 C 
BRANCH   6   7
ATOM      7  C   UNL     1      33.055  38.173  49.400  1.00  0.00     0.000 C 
BRANCH   7   8
ATOM      8  C   UNL     1      32.800  36.660  49.303  1.00  0.00     0.000 C 
BRANCH   8   9
ATOM      9  C   UNL     1      33.999  35.822  49.781  1.00  0.00     0.000 C 
BRANCH   9  10
ATOM     10  C   UNL     1      33.903  34.352  49.341  1.00  0.00     0.000 C 
BRANCH  10  11
ATOM     11  C   UNL     1      32.655  33.648  49.894  1.00  0.00     0.000 C 
BRANCH  11  12
ATOM     12  C   UNL     1      32.530  32.226  49.328  1.00  0.00     0.006 C 
BRANCH  12  13
ATOM     13  C   UNL     1      33.868  31.691  48.801  1.00  0.00     0.053 C 
BRANCH  13  14
ATOM     14  C   UNL     1      33.702  30.955  47.508  1.00  0.00     0.041 C 
ATOM     15  O   UNL     1      32.937  29.959  47.442  1.00  0.00    -0.550 OA
ATOM     16  O   UNL     1      34.409  31.355  46.380  1.00  0.00    -0.550 OA
ENDBRANCH  13  14
ENDBRANCH  12  13
ENDBRANCH  11  12
ENDBRANCH  10  11
ENDBRANCH   9  10
ENDBRANCH   8   9
ENDBRANCH   7   8
ENDBRANCH   6   7
ENDBRANCH   5   6
ENDBRANCH   4   5
ENDBRANCH   3   4
ENDBRANCH   2   3
ENDBRANCH   1   2
BRANCH   1  17
ATOM     17  C   UNL     1      28.610  39.083  44.642  1.00  0.00     0.000 C 
BRANCH  17  18
ATOM     18  C   UNL     1      29.073  37.636  44.888  1.00  0.00     0.000 C 
BRANCH  18  19
ATOM     19  C   UNL     1      28.405  37.001  46.119  1.00  0.00     0.000 C 
BRANCH  19  20
ATOM     20  C   UNL     1      29.379  36.402  47.152  1.00  0.00     0.000 C 
BRANCH  20  21
ATOM     21  C   UNL     1      29.066  36.799  48.610  1.00  0.00     0.000 C 
BRANCH  21  22
ATOM     22  C   UNL     1      27.617  37.289  48.784  1.00  0.00    -0.000 C 
BRANCH  22  23
ATOM     23  C   UNL     1      27.538  38.805  49.038  1.00  0.00    -0.000 C 
BRANCH  23  24
ATOM     24  C   UNL     1      26.151  39.382  48.699  1.00  0.00    -0.000 C 
BRANCH  24  25
ATOM     25  C   UNL     1      26.054  39.883  47.243  1.00  0.00    -0.000 C 
BRANCH  25  26
ATOM     26  C   UNL     1      26.890  41.146  46.958  1.00  0.00    -0.000 C 
BRANCH  26  27
ATOM     27  C   UNL     1      26.306  42.460  47.513  1.00  0.00    -0.000 C 
BRANCH  27  28
ATOM     28  C   UNL     1      27.088  43.071  48.692  1.00  0.00    -0.000 C 
BRANCH  28  29
ATOM     29  C   UNL     1      28.498  42.480  48.842  1.00  0.00    -0.003 C 
ATOM     30  C   UNL     1      29.560  43.461  48.354  1.00  0.00     0.004 C 
ENDBRANCH  28  29
ENDBRANCH  27  28
ENDBRANCH  26  27
ENDBRANCH  25  26
ENDBRANCH  24  25
ENDBRANCH  23  24
ENDBRANCH  22  23
ENDBRANCH  21  22
ENDBRANCH  20  21
ENDBRANCH  19  20
ENDBRANCH  18  19
ENDBRANCH  17  18
ENDBRANCH   1  17
TORSDOF 26
ENDMDL
MODEL 6
REMARK VINA RESULT:    -3.763      9.603     11.877
REMARK INTER + INTRA:         -14.698
REMARK INTER:                  -9.217
REMARK INTRA:                  -5.480
REMARK UNBOUND:                -5.216
REMARK SMILES CCCCCCCCCCCCCCCCCCCCCCCCCCCC(=O)[O-]
REMARK SMILES IDX 15 1 16 2 17 3 18 4 19 5 20 6 21 7 22 8 23 9 24 10 25 11
REMARK SMILES IDX 26 12 27 13 28 14 29 15 30 16 14 17 13 18 12 19 11 20 10 21
REMARK SMILES IDX 9 22 8 23 7 24 6 25 5 26 4 27 3 28 2 29 1 30
REMARK H PARENT
REMARK Flexibility Score: inf
ROOT
ATOM      1  C   UNL     1      18.266  32.964  47.706  1.00  0.00     0.000 C 
ENDROOT
BRANCH   1   2
ATOM      2  C   UNL     1      17.877  32.152  46.452  1.00  0.00     0.000 C 
BRANCH   2   3
ATOM      3  C   UNL     1      17.944  30.620  46.613  1.00  0.00     0.000 C 
BRANCH   3   4
ATOM      4  C   UNL     1      19.365  30.045  46.754  1.00  0.00     0.000 C 
BRANCH   4   5
ATOM      5  C   UNL     1      19.653  29.518  48.171  1.00  0.00     0.000 C 
BRANCH   5   6
ATOM      6  C   UNL     1      21.158  29.400  48.462  1.00  0.00     0.000 C 
BRANCH   6   7
ATOM      7  C   UNL     1      21.586  30.225  49.687  1.00  0.00     0.000 C 
BRANCH   7   8
ATOM      8  C   UNL     1      20.807  31.544  49.811  1.00  0.00     0.000 C 
BRANCH   8   9
ATOM      9  C   UNL     1      20.200  31.747  51.211  1.00  0.00     0.000 C 
BRANCH   9  10
ATOM     10  C   UNL     1      20.335  33.195  51.708  1.00  0.00     0.000 C 
BRANCH  10  11
ATOM     11  C   UNL     1      20.659  34.182  50.577  1.00  0.00     0.000 C 
BRANCH  11  12
ATOM     12  C   UNL     1      21.395  35.416  51.118  1.00  0.00     0.006 C 
BRANCH  12  13
ATOM     13  C   UNL     1      20.775  35.938  52.420  1.00  0.00     0.053 C 
BRANCH  13  14
ATOM     14  C   UNL     1      20.085  37.252  52.221  1.00  0.00     0.041 C 
ATOM     15  O   UNL     1      19.582  37.856  53.204  1.00  0.00    -0.550 OA
ATOM     16  O   UNL     1      19.976  37.799  50.948  1.00  0.00    -0.550 OA
ENDBRANCH  13  14
ENDBRANCH  12  13
ENDBRANCH  11  12
ENDBRANCH  10  11
ENDBRANCH   9  10
ENDBRANCH   8   9
ENDBRANCH   7   8
ENDBRANCH   6   7
ENDBRANCH   5   6
ENDBRANCH   4   5
ENDBRANCH   3   4
ENDBRANCH   2   3
ENDBRANCH   1   2
BRANCH   1  17
ATOM     17  C   UNL     1      18.992  34.292  47.427  1.00  0.00     0.000 C 
BRANCH  17  18
ATOM     18  C   UNL     1      18.944  34.700  45.943  1.00  0.00     0.000 C 
BRANCH  18  19
ATOM     19  C   UNL     1      20.331  34.682  45.278  1.00  0.00     0.000 C 
BRANCH  19  20
ATOM     20  C   UNL     1      20.588  33.487  44.340  1.00  0.00     0.000 C 
BRANCH  20  21
ATOM     21  C   UNL     1      21.631  32.485  44.876  1.00  0.00     0.000 C 
BRANCH  21  22
ATOM     22  C   UNL     1      21.971  32.730  46.356  1.00  0.00    -0.000 C 
BRANCH  22  23
ATOM     23  C   UNL     1      23.207  31.935  46.813  1.00  0.00    -0.000 C 
BRANCH  23  24
ATOM     24  C   UNL     1      24.248  32.825  47.516  1.00  0.00    -0.000 C 
BRANCH  24  25
ATOM     25  C   UNL     1      23.669  33.570  48.737  1.00  0.00    -0.000 C 
BRANCH  25  26
ATOM     26  C   UNL     1      24.534  33.457  50.007  1.00  0.00    -0.000 C 
BRANCH  26  27
ATOM     27  C   UNL     1      24.085  32.381  51.015  1.00  0.00    -0.000 C 
BRANCH  27  28
ATOM     28  C   UNL     1      24.057  32.840  52.486  1.00  0.00    -0.000 C 
BRANCH  28  29
ATOM     29  C   UNL     1      24.808  34.160  52.713  1.00  0.00    -0.003 C 
ATOM     30  C   UNL     1      24.074  35.046  53.716  1.00  0.00     0.004 C 
ENDBRANCH  28  29
ENDBRANCH  27  28
ENDBRANCH  26  27
ENDBRANCH  25  26
ENDBRANCH  24  25
ENDBRANCH  23  24
ENDBRANCH  22  23
ENDBRANCH  21  22
ENDBRANCH  20  21
ENDBRANCH  19  20
ENDBRANCH  18  19
ENDBRANCH  17  18
ENDBRANCH   1  17
TORSDOF 26
ENDMDL
MODEL 7
REMARK VINA RESULT:    -3.755      2.989      5.374
REMARK INTER + INTRA:         -14.679
REMARK INTER:                  -9.014
REMARK INTRA:                  -5.665
REMARK UNBOUND:                -5.216
REMARK SMILES CCCCCCCCCCCCCCCCCCCCCCCCCCCC(=O)[O-]
REMARK SMILES IDX 15 1 16 2 17 3 18 4 19 5 20 6 21 7 22 8 23 9 24 10 25 11
REMARK SMILES IDX 26 12 27 13 28 14 29 15 30 16 14 17 13 18 12 19 11 20 10 21
REMARK SMILES IDX 9 22 8 23 7 24 6 25 5 26 4 27 3 28 2 29 1 30
REMARK H PARENT
REMARK Flexibility Score: inf
ROOT
ATOM      1  C   UNL     1      29.305  39.587  44.577  1.00  0.00     0.000 C 
ENDROOT
BRANCH   1   2
ATOM      2  C   UNL     1      28.363  40.753  44.209  1.00  0.00     0.000 C 
BRANCH   2   3
ATOM      3  C   UNL     1      27.522  41.313  45.374  1.00  0.00     0.000 C 
BRANCH   3   4
ATOM      4  C   UNL     1      27.976  42.689  45.896  1.00  0.00     0.000 C 
BRANCH   4   5
ATOM      5  C   UNL     1      28.198  42.702  47.419  1.00  0.00     0.000 C 
BRANCH   5   6
ATOM      6  C   UNL     1      29.630  43.107  47.804  1.00  0.00     0.000 C 
BRANCH   6   7
ATOM      7  C   UNL     1      29.989  42.703  49.243  1.00  0.00     0.000 C 
BRANCH   7   8
ATOM      8  C   UNL     1      31.365  42.025  49.340  1.00  0.00     0.000 C 
BRANCH   8   9
ATOM      9  C   UNL     1      31.638  41.429  50.733  1.00  0.00     0.000 C 
BRANCH   9  10
ATOM     10  C   UNL     1      32.059  39.953  50.670  1.00  0.00     0.000 C 
BRANCH  10  11
ATOM     11  C   UNL     1      33.583  39.774  50.597  1.00  0.00     0.000 C 
BRANCH  11  12
ATOM     12  C   UNL     1      33.981  38.318  50.880  1.00  0.00     0.006 C 
BRANCH  12  13
ATOM     13  C   UNL     1      32.851  37.333  50.549  1.00  0.00     0.053 C 
BRANCH  13  14
ATOM     14  C   UNL     1      33.334  36.198  49.701  1.00  0.00     0.041 C 
ATOM     15  O   UNL     1      32.877  35.039  49.880  1.00  0.00    -0.550 OA
ATOM     16  O   UNL     1      34.303  36.413  48.729  1.00  0.00    -0.550 OA
ENDBRANCH  13  14
ENDBRANCH  12  13
ENDBRANCH  11  12
ENDBRANCH  10  11
ENDBRANCH   9  10
ENDBRANCH   8   9
ENDBRANCH   7   8
ENDBRANCH   6   7
ENDBRANCH   5   6
ENDBRANCH   4   5
ENDBRANCH   3   4
ENDBRANCH   2   3
ENDBRANCH   1   2
BRANCH   1  17
ATOM     17  C   UNL     1      30.744  39.998  44.939  1.00  0.00     0.000 C 
BRANCH  17  18
ATOM     18  C   UNL     1      30.995  40.023  46.457  1.00  0.00     0.000 C 
BRANCH  18  19
ATOM     19  C   UNL     1      29.917  39.263  47.249  1.00  0.00     0.000 C 
BRANCH  19  20
ATOM     20  C   UNL     1      30.446  38.125  48.143  1.00  0.00     0.000 C 
BRANCH  20  21
ATOM     21  C   UNL     1      29.677  36.797  47.985  1.00  0.00     0.000 C 
BRANCH  21  22
ATOM     22  C   UNL     1      29.040  36.653  46.592  1.00  0.00    -0.000 C 
BRANCH  22  23
ATOM     23  C   UNL     1      27.502  36.655  46.648  1.00  0.00    -0.000 C 
BRANCH  23  24
ATOM     24  C   UNL     1      26.968  36.324  48.054  1.00  0.00    -0.000 C 
BRANCH  24  25
ATOM     25  C   UNL     1      26.053  37.431  48.619  1.00  0.00    -0.000 C 
BRANCH  25  26
ATOM     26  C   UNL     1      26.074  38.738  47.804  1.00  0.00    -0.000 C 
BRANCH  26  27
ATOM     27  C   UNL     1      26.440  40.005  48.603  1.00  0.00    -0.000 C 
BRANCH  27  28
ATOM     28  C   UNL     1      26.564  39.799  50.126  1.00  0.00    -0.000 C 
BRANCH  28  29
ATOM     29  C   UNL     1      28.007  39.947  50.632  1.00  0.00    -0.003 C 
ATOM     30  C   UNL     1      28.546  38.617  51.154  1.00  0.00     0.004 C 
ENDBRANCH  28  29
ENDBRANCH  27  28
ENDBRANCH  26  27
ENDBRANCH  25  26
ENDBRANCH  24  25
ENDBRANCH  23  24
ENDBRANCH  22  23
ENDBRANCH  21  22
ENDBRANCH  20  21
ENDBRANCH  19  20
ENDBRANCH  18  19
ENDBRANCH  17  18
ENDBRANCH   1  17
TORSDOF 26
ENDMDL
MODEL 8
REMARK VINA RESULT:    -3.752      4.908      8.769
REMARK INTER + INTRA:         -14.671
REMARK INTER:                 -11.425
REMARK INTRA:                  -3.246
REMARK UNBOUND:                -5.216
REMARK SMILES CCCCCCCCCCCCCCCCCCCCCCCCCCCC(=O)[O-]
REMARK SMILES IDX 15 1 16 2 17 3 18 4 19 5 20 6 21 7 22 8 23 9 24 10 25 11
REMARK SMILES IDX 26 12 27 13 28 14 29 15 30 16 14 17 13 18 12 19 11 20 10 21
REMARK SMILES IDX 9 22 8 23 7 24 6 25 5 26 4 27 3 28 2 29 1 30
REMARK H PARENT
REMARK Flexibility Score: inf
ROOT
ATOM      1  C   UNL     1      26.594  38.153  47.364  1.00  0.00     0.000 C 
ENDROOT
BRANCH   1   2
ATOM      2  C   UNL     1      27.310  37.123  48.263  1.00  0.00     0.000 C 
BRANCH   2   3
ATOM      3  C   UNL     1      28.844  37.072  48.114  1.00  0.00     0.000 C 
BRANCH   3   4
ATOM      4  C   UNL     1      29.399  35.740  47.579  1.00  0.00     0.000 C 
BRANCH   4   5
ATOM      5  C   UNL     1      29.535  34.670  48.677  1.00  0.00     0.000 C 
BRANCH   5   6
ATOM      6  C   UNL     1      29.035  33.290  48.223  1.00  0.00     0.000 C 
BRANCH   6   7
ATOM      7  C   UNL     1      30.102  32.505  47.443  1.00  0.00     0.000 C 
BRANCH   7   8
ATOM      8  C   UNL     1      29.544  31.219  46.811  1.00  0.00     0.000 C 
BRANCH   8   9
ATOM      9  C   UNL     1      29.989  29.948  47.558  1.00  0.00     0.000 C 
BRANCH   9  10
ATOM     10  C   UNL     1      30.246  28.766  46.609  1.00  0.00     0.000 C 
BRANCH  10  11
ATOM     11  C   UNL     1      31.738  28.559  46.311  1.00  0.00     0.000 C 
BRANCH  11  12
ATOM     12  C   UNL     1      32.608  29.434  47.226  1.00  0.00     0.006 C 
BRANCH  12  13
ATOM     13  C   UNL     1      33.346  30.532  46.448  1.00  0.00     0.053 C 
BRANCH  13  14
ATOM     14  C   UNL     1      34.225  31.352  47.341  1.00  0.00     0.041 C 
ATOM     15  O   UNL     1      34.038  31.347  48.586  1.00  0.00    -0.550 OA
ATOM     16  O   UNL     1      35.233  32.138  46.800  1.00  0.00    -0.550 OA
ENDBRANCH  13  14
ENDBRANCH  12  13
ENDBRANCH  11  12
ENDBRANCH  10  11
ENDBRANCH   9  10
ENDBRANCH   8   9
ENDBRANCH   7   8
ENDBRANCH   6   7
ENDBRANCH   5   6
ENDBRANCH   4   5
ENDBRANCH   3   4
ENDBRANCH   2   3
ENDBRANCH   1   2
BRANCH   1  17
ATOM     17  C   UNL     1      26.100  39.420  48.086  1.00  0.00     0.000 C 
BRANCH  17  18
ATOM     18  C   UNL     1      26.701  39.579  49.494  1.00  0.00     0.000 C 
BRANCH  18  19
ATOM     19  C   UNL     1      26.886  41.052  49.897  1.00  0.00     0.000 C 
BRANCH  19  20
ATOM     20  C   UNL     1      27.409  41.973  48.777  1.00  0.00     0.000 C 
BRANCH  20  21
ATOM     21  C   UNL     1      26.442  43.117  48.407  1.00  0.00     0.000 C 
BRANCH  21  22
ATOM     22  C   UNL     1      26.505  43.475  46.912  1.00  0.00    -0.000 C 
BRANCH  22  23
ATOM     23  C   UNL     1      27.767  42.917  46.228  1.00  0.00    -0.000 C 
BRANCH  23  24
ATOM     24  C   UNL     1      27.574  42.725  44.713  1.00  0.00    -0.000 C 
BRANCH  24  25
ATOM     25  C   UNL     1      28.304  41.477  44.173  1.00  0.00    -0.000 C 
BRANCH  25  26
ATOM     26  C   UNL     1      28.229  40.255  45.107  1.00  0.00    -0.000 C 
BRANCH  26  27
ATOM     27  C   UNL     1      29.442  39.305  45.046  1.00  0.00    -0.000 C 
BRANCH  27  28
ATOM     28  C   UNL     1      30.655  39.747  45.889  1.00  0.00    -0.000 C 
BRANCH  28  29
ATOM     29  C   UNL     1      30.251  40.483  47.175  1.00  0.00    -0.003 C 
ATOM     30  C   UNL     1      30.996  39.924  48.385  1.00  0.00     0.004 C 
ENDBRANCH  28  29
ENDBRANCH  27  28
ENDBRANCH  26  27
ENDBRANCH  25  26
ENDBRANCH  24  25
ENDBRANCH  23  24
ENDBRANCH  22  23
ENDBRANCH  21  22
ENDBRANCH  20  21
ENDBRANCH  19  20
ENDBRANCH  18  19
ENDBRANCH  17  18
ENDBRANCH   1  17
TORSDOF 26
ENDMDL
MODEL 9
REMARK VINA RESULT:    -3.704      8.035     10.445
REMARK INTER + INTRA:         -14.550
REMARK INTER:                 -10.542
REMARK INTRA:                  -4.008
REMARK UNBOUND:                -5.216
REMARK SMILES CCCCCCCCCCCCCCCCCCCCCCCCCCCC(=O)[O-]
REMARK SMILES IDX 15 1 16 2 17 3 18 4 19 5 20 6 21 7 22 8 23 9 24 10 25 11
REMARK SMILES IDX 26 12 27 13 28 14 29 15 30 16 14 17 13 18 12 19 11 20 10 21
REMARK SMILES IDX 9 22 8 23 7 24 6 25 5 26 4 27 3 28 2 29 1 30
REMARK H PARENT
REMARK Flexibility Score: inf
ROOT
ATOM      1  C   UNL     1      20.430  34.387  47.709  1.00  0.00     0.000 C 
ENDROOT
BRANCH   1   2
ATOM      2  C   UNL     1      21.683  33.513  47.925  1.00  0.00     0.000 C 
BRANCH   2   3
ATOM      3  C   UNL     1      22.027  32.556  46.766  1.00  0.00     0.000 C 
BRANCH   3   4
ATOM      4  C   UNL     1      23.489  32.073  46.738  1.00  0.00     0.000 C 
BRANCH   4   5
ATOM      5  C   UNL     1      24.103  31.960  48.145  1.00  0.00     0.000 C 
BRANCH   5   6
ATOM      6  C   UNL     1      25.386  32.792  48.297  1.00  0.00     0.000 C 
BRANCH   6   7
ATOM      7  C   UNL     1      25.365  33.682  49.551  1.00  0.00     0.000 C 
BRANCH   7   8
ATOM      8  C   UNL     1      24.993  35.139  49.234  1.00  0.00     0.000 C 
BRANCH   8   9
ATOM      9  C   UNL     1      26.225  36.047  49.072  1.00  0.00     0.000 C 
BRANCH   9  10
ATOM     10  C   UNL     1      26.805  36.006  47.649  1.00  0.00     0.000 C 
BRANCH  10  11
ATOM     11  C   UNL     1      27.323  37.374  47.181  1.00  0.00     0.000 C 
BRANCH  11  12
ATOM     12  C   UNL     1      28.832  37.324  46.900  1.00  0.00     0.006 C 
BRANCH  12  13
ATOM     13  C   UNL     1      29.464  38.721  46.870  1.00  0.00     0.053 C 
BRANCH  13  14
ATOM     14  C   UNL     1      28.774  39.624  45.895  1.00  0.00     0.041 C 
ATOM     15  O   UNL     1      28.201  40.669  46.300  1.00  0.00    -0.550 OA
ATOM     16  O   UNL     1      28.742  39.301  44.544  1.00  0.00    -0.550 OA
ENDBRANCH  13  14
ENDBRANCH  12  13
ENDBRANCH  11  12
ENDBRANCH  10  11
ENDBRANCH   9  10
ENDBRANCH   8   9
ENDBRANCH   7   8
ENDBRANCH   6   7
ENDBRANCH   5   6
ENDBRANCH   4   5
ENDBRANCH   3   4
ENDBRANCH   2   3
ENDBRANCH   1   2
BRANCH   1  17
ATOM     17  C   UNL     1      19.921  34.454  46.257  1.00  0.00     0.000 C 
BRANCH  17  18
ATOM     18  C   UNL     1      18.507  33.868  46.092  1.00  0.00     0.000 C 
BRANCH  18  19
ATOM     19  C   UNL     1      18.240  33.357  44.667  1.00  0.00     0.000 C 
BRANCH  19  20
ATOM     20  C   UNL     1      19.496  32.946  43.875  1.00  0.00     0.000 C 
BRANCH  20  21
ATOM     21  C   UNL     1      19.866  31.454  44.019  1.00  0.00     0.000 C 
BRANCH  21  22
ATOM     22  C   UNL     1      18.624  30.551  44.114  1.00  0.00    -0.000 C 
BRANCH  22  23
ATOM     23  C   UNL     1      18.668  29.621  45.339  1.00  0.00    -0.000 C 
BRANCH  23  24
ATOM     24  C   UNL     1      18.022  30.260  46.582  1.00  0.00    -0.000 C 
BRANCH  24  25
ATOM     25  C   UNL     1      19.037  30.512  47.718  1.00  0.00    -0.000 C 
BRANCH  25  26
ATOM     26  C   UNL     1      20.171  29.471  47.786  1.00  0.00    -0.000 C 
BRANCH  26  27
ATOM     27  C   UNL     1      21.203  29.697  48.908  1.00  0.00    -0.000 C 
BRANCH  27  28
ATOM     28  C   UNL     1      20.631  30.305  50.204  1.00  0.00    -0.000 C 
BRANCH  28  29
ATOM     29  C   UNL     1      21.576  31.329  50.850  1.00  0.00    -0.003 C 
ATOM     30  C   UNL     1      22.748  30.637  51.541  1.00  0.00     0.004 C 
ENDBRANCH  28  29
ENDBRANCH  27  28
ENDBRANCH  26  27
ENDBRANCH  25  26
ENDBRANCH  24  25
ENDBRANCH  23  24
ENDBRANCH  22  23
ENDBRANCH  21  22
ENDBRANCH  20  21
ENDBRANCH  19  20
ENDBRANCH  18  19
ENDBRANCH  17  18
ENDBRANCH   1  17
TORSDOF 26
ENDMDL
