MODEL 1
REMARK VINA RESULT:    -5.620      0.000      0.000
REMARK INTER + INTRA:         -11.864
REMARK INTER:                 -10.219
REMARK INTRA:                  -1.645
REMARK UNBOUND:                -1.645
REMARK SMILES CCCCCCCCCCCCCCCC(=O)[O-]
REMARK SMILES IDX 9 1 10 2 11 3 12 4 13 5 14 6 15 7 16 8 17 9 18 10 8 11 7 12
REMARK SMILES IDX 6 13 5 14 4 15 3 16 2 17 1 18
REMARK H PARENT
REMARK Flexibility Score: inf
ROOT
ATOM      1  C   UNL     1      -1.595 -32.943 -53.128  1.00  0.00     0.000 C 
ENDROOT
BRANCH   1   2
ATOM      2  C   UNL     1      -0.587 -31.831 -53.453  1.00  0.00     0.000 C 
BRANCH   2   3
ATOM      3  C   UNL     1      -0.252 -30.952 -52.234  1.00  0.00     0.000 C 
BRANCH   3   4
ATOM      4  C   UNL     1      -0.883 -29.546 -52.251  1.00  0.00     0.000 C 
BRANCH   4   5
ATOM      5  C   UNL     1      -2.407 -29.509 -52.016  1.00  0.00     0.000 C 
BRANCH   5   6
ATOM      6  C   UNL     1      -3.179 -28.512 -52.905  1.00  0.00     0.006 C 
BRANCH   6   7
ATOM      7  C   UNL     1      -4.692 -28.771 -52.980  1.00  0.00     0.053 C 
BRANCH   7   8
ATOM      8  C   UNL     1      -5.181 -28.837 -54.394  1.00  0.00     0.041 C 
ATOM      9  O   UNL     1      -5.220 -29.939 -55.001  1.00  0.00    -0.550 OA
ATOM     10  O   UNL     1      -5.562 -27.675 -55.052  1.00  0.00    -0.550 OA
ENDBRANCH   7   8
ENDBRANCH   6   7
ENDBRANCH   5   6
ENDBRANCH   4   5
ENDBRANCH   3   4
ENDBRANCH   2   3
ENDBRANCH   1   2
BRANCH   1  11
ATOM     11  C   UNL     1      -1.730 -33.134 -51.610  1.00  0.00     0.000 C 
BRANCH  11  12
ATOM     12  C   UNL     1      -3.183 -33.020 -51.119  1.00  0.00    -0.000 C 
BRANCH  12  13
ATOM     13  C   UNL     1      -4.188 -32.451 -52.144  1.00  0.00    -0.000 C 
BRANCH  13  14
ATOM     14  C   UNL     1      -5.635 -32.298 -51.635  1.00  0.00    -0.000 C 
BRANCH  14  15
ATOM     15  C   UNL     1      -5.810 -31.217 -50.543  1.00  0.00    -0.000 C 
BRANCH  15  16
ATOM     16  C   UNL     1      -7.149 -31.311 -49.789  1.00  0.00    -0.000 C 
BRANCH  16  17
ATOM     17  C   UNL     1      -7.479 -30.087 -48.918  1.00  0.00    -0.003 C 
ATOM     18  C   UNL     1      -6.440 -28.973 -49.041  1.00  0.00     0.004 C 
ENDBRANCH  16  17
ENDBRANCH  15  16
ENDBRANCH  14  15
ENDBRANCH  13  14
ENDBRANCH  12  13
ENDBRANCH  11  12
ENDBRANCH   1  11
TORSDOF 14
ENDMDL
MODEL 2
REMARK VINA RESULT:    -5.600      0.873      1.865
REMARK INTER + INTRA:         -11.829
REMARK INTER:                 -10.205
REMARK INTRA:                  -1.624
REMARK UNBOUND:                -1.645
REMARK SMILES CCCCCCCCCCCCCCCC(=O)[O-]
REMARK SMILES IDX 9 1 10 2 11 3 12 4 13 5 14 6 15 7 16 8 17 9 18 10 8 11 7 12
REMARK SMILES IDX 6 13 5 14 4 15 3 16 2 17 1 18
REMARK H PARENT
REMARK Flexibility Score: inf
ROOT
ATOM      1  C   UNL     1       0.254 -31.480 -52.882  1.00  0.00     0.000 C 
ENDROOT
BRANCH   1   2
ATOM      2  C   UNL     1       0.484 -30.794 -51.528  1.00  0.00     0.000 C 
BRANCH   2   3
ATOM      3  C   UNL     1      -0.470 -29.610 -51.287  1.00  0.00     0.000 C 
BRANCH   3   4
ATOM      4  C   UNL     1      -1.226 -29.117 -52.537  1.00  0.00     0.000 C 
BRANCH   4   5
ATOM      5  C   UNL     1      -2.763 -29.204 -52.449  1.00  0.00     0.000 C 
BRANCH   5   6
ATOM      6  C   UNL     1      -3.522 -28.096 -53.207  1.00  0.00     0.006 C 
BRANCH   6   7
ATOM      7  C   UNL     1      -5.052 -28.234 -53.166  1.00  0.00     0.053 C 
BRANCH   7   8
ATOM      8  C   UNL     1      -5.606 -28.734 -54.465  1.00  0.00     0.041 C 
ATOM      9  O   UNL     1      -6.468 -28.061 -55.088  1.00  0.00    -0.550 OA
ATOM     10  O   UNL     1      -5.193 -29.961 -54.970  1.00  0.00    -0.550 OA
ENDBRANCH   7   8
ENDBRANCH   6   7
ENDBRANCH   5   6
ENDBRANCH   4   5
ENDBRANCH   3   4
ENDBRANCH   2   3
ENDBRANCH   1   2
BRANCH   1  11
ATOM     11  C   UNL     1      -0.176 -32.942 -52.688  1.00  0.00     0.000 C 
BRANCH  11  12
ATOM     12  C   UNL     1      -1.651 -33.185 -53.053  1.00  0.00    -0.000 C 
BRANCH  12  13
ATOM     13  C   UNL     1      -2.579 -33.534 -51.870  1.00  0.00    -0.000 C 
BRANCH  13  14
ATOM     14  C   UNL     1      -3.469 -32.381 -51.365  1.00  0.00    -0.000 C 
BRANCH  14  15
ATOM     15  C   UNL     1      -4.885 -32.357 -51.987  1.00  0.00    -0.000 C 
BRANCH  15  16
ATOM     16  C   UNL     1      -5.810 -31.288 -51.376  1.00  0.00    -0.000 C 
BRANCH  16  17
ATOM     17  C   UNL     1      -5.931 -31.347 -49.844  1.00  0.00    -0.003 C 
ATOM     18  C   UNL     1      -7.282 -30.845 -49.334  1.00  0.00     0.004 C 
ENDBRANCH  16  17
ENDBRANCH  15  16
ENDBRANCH  14  15
ENDBRANCH  13  14
ENDBRANCH  12  13
ENDBRANCH  11  12
ENDBRANCH   1  11
TORSDOF 14
ENDMDL
MODEL 3
REMARK VINA RESULT:    -5.447      2.538      5.910
REMARK INTER + INTRA:         -11.550
REMARK INTER:                 -10.063
REMARK INTRA:                  -1.487
REMARK UNBOUND:                -1.645
REMARK SMILES CCCCCCCCCCCCCCCC(=O)[O-]
REMARK SMILES IDX 9 1 10 2 11 3 12 4 13 5 14 6 15 7 16 8 17 9 18 10 8 11 7 12
REMARK SMILES IDX 6 13 5 14 4 15 3 16 2 17 1 18
REMARK H PARENT
REMARK Flexibility Score: inf
ROOT
ATOM      1  C   UNL     1      -4.699 -28.812 -53.599  1.00  0.00     0.000 C 
ENDROOT
BRANCH   1   2
ATOM      2  C   UNL     1      -5.353 -30.090 -54.144  1.00  0.00     0.000 C 
BRANCH   2   3
ATOM      3  C   UNL     1      -4.687 -31.375 -53.618  1.00  0.00     0.000 C 
BRANCH   3   4
ATOM      4  C   UNL     1      -5.587 -32.260 -52.732  1.00  0.00     0.000 C 
BRANCH   4   5
ATOM      5  C   UNL     1      -5.370 -32.100 -51.214  1.00  0.00     0.000 C 
BRANCH   5   6
ATOM      6  C   UNL     1      -6.119 -30.915 -50.570  1.00  0.00     0.006 C 
BRANCH   6   7
ATOM      7  C   UNL     1      -7.269 -31.324 -49.637  1.00  0.00     0.053 C 
BRANCH   7   8
ATOM      8  C   UNL     1      -7.876 -30.144 -48.943  1.00  0.00     0.041 C 
ATOM      9  O   UNL     1      -7.245 -29.057 -48.870  1.00  0.00    -0.550 OA
ATOM     10  O   UNL     1      -9.126 -30.256 -48.347  1.00  0.00    -0.550 OA
ENDBRANCH   7   8
ENDBRANCH   6   7
ENDBRANCH   5   6
ENDBRANCH   4   5
ENDBRANCH   3   4
ENDBRANCH   2   3
ENDBRANCH   1   2
BRANCH   1  11
ATOM     11  C   UNL     1      -3.559 -29.152 -52.628  1.00  0.00     0.000 C 
BRANCH  11  12
ATOM     12  C   UNL     1      -2.364 -28.190 -52.747  1.00  0.00    -0.000 C 
BRANCH  12  13
ATOM     13  C   UNL     1      -0.972 -28.859 -52.763  1.00  0.00    -0.000 C 
BRANCH  13  14
ATOM     14  C   UNL     1      -0.498 -29.429 -51.412  1.00  0.00    -0.000 C 
BRANCH  14  15
ATOM     15  C   UNL     1      -0.654 -30.962 -51.284  1.00  0.00    -0.000 C 
BRANCH  15  16
ATOM     16  C   UNL     1       0.237 -31.757 -52.258  1.00  0.00    -0.000 C 
BRANCH  16  17
ATOM     17  C   UNL     1      -0.526 -32.731 -53.172  1.00  0.00    -0.003 C 
ATOM     18  C   UNL     1      -1.843 -33.212 -52.561  1.00  0.00     0.004 C 
ENDBRANCH  16  17
ENDBRANCH  15  16
ENDBRANCH  14  15
ENDBRANCH  13  14
ENDBRANCH  12  13
ENDBRANCH  11  12
ENDBRANCH   1  11
TORSDOF 14
ENDMDL
MODEL 4
REMARK VINA RESULT:    -5.428      1.939      4.582
REMARK INTER + INTRA:         -11.516
REMARK INTER:                  -9.781
REMARK INTRA:                  -1.734
REMARK UNBOUND:                -1.645
REMARK SMILES CCCCCCCCCCCCCCCC(=O)[O-]
REMARK SMILES IDX 9 1 10 2 11 3 12 4 13 5 14 6 15 7 16 8 17 9 18 10 8 11 7 12
REMARK SMILES IDX 6 13 5 14 4 15 3 16 2 17 1 18
REMARK H PARENT
REMARK Flexibility Score: inf
ROOT
ATOM      1  C   UNL     1      -3.709 -28.184 -52.846  1.00  0.00     0.000 C 
ENDROOT
BRANCH   1   2
ATOM      2  C   UNL     1      -2.952 -29.331 -52.160  1.00  0.00     0.000 C 
BRANCH   2   3
ATOM      3  C   UNL     1      -1.447 -29.330 -52.480  1.00  0.00     0.000 C 
BRANCH   3   4
ATOM      4  C   UNL     1      -0.546 -29.931 -51.382  1.00  0.00     0.000 C 
BRANCH   4   5
ATOM      5  C   UNL     1       0.533 -30.911 -51.883  1.00  0.00     0.000 C 
BRANCH   5   6
ATOM      6  C   UNL     1       0.189 -31.642 -53.197  1.00  0.00     0.006 C 
BRANCH   6   7
ATOM      7  C   UNL     1      -0.324 -33.078 -53.008  1.00  0.00     0.053 C 
BRANCH   7   8
ATOM      8  C   UNL     1      -1.815 -33.129 -52.879  1.00  0.00     0.041 C 
ATOM      9  O   UNL     1      -2.546 -32.553 -53.726  1.00  0.00    -0.550 OA
ATOM     10  O   UNL     1      -2.397 -33.786 -51.802  1.00  0.00    -0.550 OA
ENDBRANCH   7   8
ENDBRANCH   6   7
ENDBRANCH   5   6
ENDBRANCH   4   5
ENDBRANCH   3   4
ENDBRANCH   2   3
ENDBRANCH   1   2
BRANCH   1  11
ATOM     11  C   UNL     1      -5.227 -28.367 -52.702  1.00  0.00     0.000 C 
BRANCH  11  12
ATOM     12  C   UNL     1      -5.902 -27.204 -51.955  1.00  0.00    -0.000 C 
BRANCH  12  13
ATOM     13  C   UNL     1      -6.380 -27.524 -50.521  1.00  0.00    -0.000 C 
BRANCH  13  14
ATOM     14  C   UNL     1      -5.982 -28.915 -49.988  1.00  0.00    -0.000 C 
BRANCH  14  15
ATOM     15  C   UNL     1      -7.181 -29.846 -49.696  1.00  0.00    -0.000 C 
BRANCH  15  16
ATOM     16  C   UNL     1      -6.895 -31.332 -49.987  1.00  0.00    -0.000 C 
BRANCH  16  17
ATOM     17  C   UNL     1      -5.503 -31.609 -50.580  1.00  0.00    -0.003 C 
ATOM     18  C   UNL     1      -5.557 -32.058 -52.041  1.00  0.00     0.004 C 
ENDBRANCH  16  17
ENDBRANCH  15  16
ENDBRANCH  14  15
ENDBRANCH  13  14
ENDBRANCH  12  13
ENDBRANCH  11  12
ENDBRANCH   1  11
TORSDOF 14
ENDMDL
MODEL 5
REMARK VINA RESULT:    -5.362      2.319      5.699
REMARK INTER + INTRA:         -11.396
REMARK INTER:                  -9.478
REMARK INTRA:                  -1.917
REMARK UNBOUND:                -1.645
REMARK SMILES CCCCCCCCCCCCCCCC(=O)[O-]
REMARK SMILES IDX 9 1 10 2 11 3 12 4 13 5 14 6 15 7 16 8 17 9 18 10 8 11 7 12
REMARK SMILES IDX 6 13 5 14 4 15 3 16 2 17 1 18
REMARK H PARENT
REMARK Flexibility Score: inf
ROOT
ATOM      1  C   UNL     1      -5.202 -29.255 -52.587  1.00  0.00     0.000 C 
ENDROOT
BRANCH   1   2
ATOM      2  C   UNL     1      -4.984 -30.690 -53.088  1.00  0.00     0.000 C 
BRANCH   2   3
ATOM      3  C   UNL     1      -5.580 -31.750 -52.143  1.00  0.00     0.000 C 
BRANCH   3   4
ATOM      4  C   UNL     1      -5.624 -31.347 -50.656  1.00  0.00     0.000 C 
BRANCH   4   5
ATOM      5  C   UNL     1      -7.020 -31.407 -50.003  1.00  0.00     0.000 C 
BRANCH   5   6
ATOM      6  C   UNL     1      -7.465 -30.111 -49.296  1.00  0.00     0.006 C 
BRANCH   6   7
ATOM      7  C   UNL     1      -6.346 -29.395 -48.523  1.00  0.00     0.053 C 
BRANCH   7   8
ATOM      8  C   UNL     1      -6.429 -27.906 -48.665  1.00  0.00     0.041 C 
ATOM      9  O   UNL     1      -6.327 -27.166 -47.652  1.00  0.00    -0.550 OA
ATOM     10  O   UNL     1      -6.651 -27.339 -49.913  1.00  0.00    -0.550 OA
ENDBRANCH   7   8
ENDBRANCH   6   7
ENDBRANCH   5   6
ENDBRANCH   4   5
ENDBRANCH   3   4
ENDBRANCH   2   3
ENDBRANCH   1   2
BRANCH   1  11
ATOM     11  C   UNL     1      -3.898 -28.665 -52.030  1.00  0.00     0.000 C 
BRANCH  11  12
ATOM     12  C   UNL     1      -2.846 -28.402 -53.121  1.00  0.00    -0.000 C 
BRANCH  12  13
ATOM     13  C   UNL     1      -1.382 -28.346 -52.632  1.00  0.00    -0.000 C 
BRANCH  13  14
ATOM     14  C   UNL     1      -0.982 -29.438 -51.619  1.00  0.00    -0.000 C 
BRANCH  14  15
ATOM     15  C   UNL     1      -0.984 -30.870 -52.201  1.00  0.00    -0.000 C 
BRANCH  15  16
ATOM     16  C   UNL     1      -1.553 -31.928 -51.237  1.00  0.00    -0.000 C 
BRANCH  16  17
ATOM     17  C   UNL     1      -2.216 -33.132 -51.928  1.00  0.00    -0.003 C 
ATOM     18  C   UNL     1      -1.973 -33.158 -53.437  1.00  0.00     0.004 C 
ENDBRANCH  16  17
ENDBRANCH  15  16
ENDBRANCH  14  15
ENDBRANCH  13  14
ENDBRANCH  12  13
ENDBRANCH  11  12
ENDBRANCH   1  11
TORSDOF 14
ENDMDL
MODEL 6
REMARK VINA RESULT:    -5.356      2.688      5.228
REMARK INTER + INTRA:         -11.385
REMARK INTER:                  -9.526
REMARK INTRA:                  -1.858
REMARK UNBOUND:                -1.645
REMARK SMILES CCCCCCCCCCCCCCCC(=O)[O-]
REMARK SMILES IDX 9 1 10 2 11 3 12 4 13 5 14 6 15 7 16 8 17 9 18 10 8 11 7 12
REMARK SMILES IDX 6 13 5 14 4 15 3 16 2 17 1 18
REMARK H PARENT
REMARK Flexibility Score: inf
ROOT
ATOM      1  C   UNL     1      -4.741 -31.810 -53.436  1.00  0.00     0.000 C 
ENDROOT
BRANCH   1   2
ATOM      2  C   UNL     1      -5.318 -30.399 -53.612  1.00  0.00     0.000 C 
BRANCH   2   3
ATOM      3  C   UNL     1      -4.287 -29.291 -53.333  1.00  0.00     0.000 C 
BRANCH   3   4
ATOM      4  C   UNL     1      -4.325 -28.708 -51.906  1.00  0.00     0.000 C 
BRANCH   4   5
ATOM      5  C   UNL     1      -5.580 -27.877 -51.572  1.00  0.00     0.000 C 
BRANCH   5   6
ATOM      6  C   UNL     1      -6.279 -28.256 -50.250  1.00  0.00     0.006 C 
BRANCH   6   7
ATOM      7  C   UNL     1      -6.323 -29.766 -49.967  1.00  0.00     0.053 C 
BRANCH   7   8
ATOM      8  C   UNL     1      -7.392 -30.122 -48.982  1.00  0.00     0.041 C 
ATOM      9  O   UNL     1      -7.902 -29.234 -48.250  1.00  0.00    -0.550 OA
ATOM     10  O   UNL     1      -7.803 -31.443 -48.848  1.00  0.00    -0.550 OA
ENDBRANCH   7   8
ENDBRANCH   6   7
ENDBRANCH   5   6
ENDBRANCH   4   5
ENDBRANCH   3   4
ENDBRANCH   2   3
ENDBRANCH   1   2
BRANCH   1  11
ATOM     11  C   UNL     1      -5.020 -32.343 -52.023  1.00  0.00     0.000 C 
BRANCH  11  12
ATOM     12  C   UNL     1      -3.736 -32.594 -51.212  1.00  0.00    -0.000 C 
BRANCH  12  13
ATOM     13  C   UNL     1      -2.413 -32.381 -51.981  1.00  0.00    -0.000 C 
BRANCH  13  14
ATOM     14  C   UNL     1      -1.307 -31.645 -51.199  1.00  0.00    -0.000 C 
BRANCH  14  15
ATOM     15  C   UNL     1      -0.481 -30.656 -52.054  1.00  0.00    -0.000 C 
BRANCH  15  16
ATOM     16  C   UNL     1      -0.694 -29.180 -51.669  1.00  0.00    -0.000 C 
BRANCH  16  17
ATOM     17  C   UNL     1      -0.707 -28.205 -52.859  1.00  0.00    -0.003 C 
ATOM     18  C   UNL     1      -0.328 -26.778 -52.463  1.00  0.00     0.004 C 
ENDBRANCH  16  17
ENDBRANCH  15  16
ENDBRANCH  14  15
ENDBRANCH  13  14
ENDBRANCH  12  13
ENDBRANCH  11  12
ENDBRANCH   1  11
TORSDOF 14
ENDMDL
MODEL 7
REMARK VINA RESULT:    -5.352      1.024      4.853
REMARK INTER + INTRA:         -11.378
REMARK INTER:                  -9.693
REMARK INTRA:                  -1.685
REMARK UNBOUND:                -1.645
REMARK SMILES CCCCCCCCCCCCCCCC(=O)[O-]
REMARK SMILES IDX 9 1 10 2 11 3 12 4 13 5 14 6 15 7 16 8 17 9 18 10 8 11 7 12
REMARK SMILES IDX 6 13 5 14 4 15 3 16 2 17 1 18
REMARK H PARENT
REMARK Flexibility Score: inf
ROOT
ATOM      1  C   UNL     1      -6.352 -31.344 -49.763  1.00  0.00     0.000 C 
ENDROOT
BRANCH   1   2
ATOM      2  C   UNL     1      -7.106 -30.006 -49.788  1.00  0.00     0.000 C 
BRANCH   2   3
ATOM      3  C   UNL     1      -6.297 -28.852 -49.168  1.00  0.00     0.000 C 
BRANCH   3   4
ATOM      4  C   UNL     1      -6.312 -27.538 -49.975  1.00  0.00     0.000 C 
BRANCH   4   5
ATOM      5  C   UNL     1      -5.960 -27.684 -51.469  1.00  0.00     0.000 C 
BRANCH   5   6
ATOM      6  C   UNL     1      -4.656 -28.456 -51.759  1.00  0.00     0.006 C 
BRANCH   6   7
ATOM      7  C   UNL     1      -4.095 -28.244 -53.173  1.00  0.00     0.053 C 
BRANCH   7   8
ATOM      8  C   UNL     1      -5.113 -28.538 -54.232  1.00  0.00     0.041 C 
ATOM      9  O   UNL     1      -5.553 -27.612 -54.963  1.00  0.00    -0.550 OA
ATOM     10  O   UNL     1      -5.599 -29.829 -54.388  1.00  0.00    -0.550 OA
ENDBRANCH   7   8
ENDBRANCH   6   7
ENDBRANCH   5   6
ENDBRANCH   4   5
ENDBRANCH   3   4
ENDBRANCH   2   3
ENDBRANCH   1   2
BRANCH   1  11
ATOM     11  C   UNL     1      -5.946 -31.770 -51.182  1.00  0.00     0.000 C 
BRANCH  11  12
ATOM     12  C   UNL     1      -4.544 -32.399 -51.240  1.00  0.00    -0.000 C 
BRANCH  12  13
ATOM     13  C   UNL     1      -3.679 -31.985 -52.451  1.00  0.00    -0.000 C 
BRANCH  13  14
ATOM     14  C   UNL     1      -2.247 -32.556 -52.466  1.00  0.00    -0.000 C 
BRANCH  14  15
ATOM     15  C   UNL     1      -1.396 -32.159 -51.237  1.00  0.00    -0.000 C 
BRANCH  15  16
ATOM     16  C   UNL     1      -0.313 -31.109 -51.549  1.00  0.00    -0.000 C 
BRANCH  16  17
ATOM     17  C   UNL     1      -0.815 -29.655 -51.550  1.00  0.00    -0.003 C 
ATOM     18  C   UNL     1      -0.369 -28.872 -52.785  1.00  0.00     0.004 C 
ENDBRANCH  16  17
ENDBRANCH  15  16
ENDBRANCH  14  15
ENDBRANCH  13  14
ENDBRANCH  12  13
ENDBRANCH  11  12
ENDBRANCH   1  11
TORSDOF 14
ENDMDL
MODEL 8
REMARK VINA RESULT:    -5.346      2.395      4.802
REMARK INTER + INTRA:         -11.367
REMARK INTER:                  -9.492
REMARK INTRA:                  -1.875
REMARK UNBOUND:                -1.645
REMARK SMILES CCCCCCCCCCCCCCCC(=O)[O-]
REMARK SMILES IDX 9 1 10 2 11 3 12 4 13 5 14 6 15 7 16 8 17 9 18 10 8 11 7 12
REMARK SMILES IDX 6 13 5 14 4 15 3 16 2 17 1 18
REMARK H PARENT
REMARK Flexibility Score: inf
ROOT
ATOM      1  C   UNL     1      -1.236 -32.608 -53.497  1.00  0.00     0.000 C 
ENDROOT
BRANCH   1   2
ATOM      2  C   UNL     1      -2.681 -32.629 -52.979  1.00  0.00     0.000 C 
BRANCH   2   3
ATOM      3  C   UNL     1      -2.770 -32.480 -51.449  1.00  0.00     0.000 C 
BRANCH   3   4
ATOM      4  C   UNL     1      -4.176 -32.695 -50.854  1.00  0.00     0.000 C 
BRANCH   4   5
ATOM      5  C   UNL     1      -5.334 -32.088 -51.673  1.00  0.00     0.000 C 
BRANCH   5   6
ATOM      6  C   UNL     1      -6.019 -30.867 -51.026  1.00  0.00     0.006 C 
BRANCH   6   7
ATOM      7  C   UNL     1      -6.525 -31.109 -49.595  1.00  0.00     0.053 C 
BRANCH   7   8
ATOM      8  C   UNL     1      -7.418 -30.004 -49.121  1.00  0.00     0.041 C 
ATOM      9  O   UNL     1      -7.033 -28.807 -49.183  1.00  0.00    -0.550 OA
ATOM     10  O   UNL     1      -8.662 -30.300 -48.579  1.00  0.00    -0.550 OA
ENDBRANCH   7   8
ENDBRANCH   6   7
ENDBRANCH   5   6
ENDBRANCH   4   5
ENDBRANCH   3   4
ENDBRANCH   2   3
ENDBRANCH   1   2
BRANCH   1  11
ATOM     11  C   UNL     1      -0.235 -32.641 -52.333  1.00  0.00     0.000 C 
BRANCH  11  12
ATOM     12  C   UNL     1       0.741 -31.452 -52.348  1.00  0.00    -0.000 C 
BRANCH  12  13
ATOM     13  C   UNL     1       0.219 -30.173 -53.037  1.00  0.00    -0.000 C 
BRANCH  13  14
ATOM     14  C   UNL     1      -0.703 -29.287 -52.175  1.00  0.00    -0.000 C 
BRANCH  14  15
ATOM     15  C   UNL     1      -1.884 -28.661 -52.952  1.00  0.00    -0.000 C 
BRANCH  15  16
ATOM     16  C   UNL     1      -3.254 -28.895 -52.288  1.00  0.00    -0.000 C 
BRANCH  16  17
ATOM     17  C   UNL     1      -4.437 -28.235 -53.015  1.00  0.00    -0.003 C 
ATOM     18  C   UNL     1      -5.033 -29.121 -54.109  1.00  0.00     0.004 C 
ENDBRANCH  16  17
ENDBRANCH  15  16
ENDBRANCH  14  15
ENDBRANCH  13  14
ENDBRANCH  12  13
ENDBRANCH  11  12
ENDBRANCH   1  11
TORSDOF 14
ENDMDL
MODEL 9
REMARK VINA RESULT:    -5.344      2.409      4.077
REMARK INTER + INTRA:         -11.363
REMARK INTER:                  -9.538
REMARK INTRA:                  -1.825
REMARK UNBOUND:                -1.645
REMARK SMILES CCCCCCCCCCCCCCCC(=O)[O-]
REMARK SMILES IDX 9 1 10 2 11 3 12 4 13 5 14 6 15 7 16 8 17 9 18 10 8 11 7 12
REMARK SMILES IDX 6 13 5 14 4 15 3 16 2 17 1 18
REMARK H PARENT
REMARK Flexibility Score: inf
ROOT
ATOM      1  C   UNL     1      -5.681 -29.189 -54.165  1.00  0.00     0.000 C 
ENDROOT
BRANCH   1   2
ATOM      2  C   UNL     1      -4.699 -28.032 -53.926  1.00  0.00     0.000 C 
BRANCH   2   3
ATOM      3  C   UNL     1      -3.774 -28.272 -52.720  1.00  0.00     0.000 C 
BRANCH   3   4
ATOM      4  C   UNL     1      -2.296 -27.895 -52.947  1.00  0.00     0.000 C 
BRANCH   4   5
ATOM      5  C   UNL     1      -1.270 -28.857 -52.314  1.00  0.00     0.000 C 
BRANCH   5   6
ATOM      6  C   UNL     1      -1.639 -30.352 -52.403  1.00  0.00     0.006 C 
BRANCH   6   7
ATOM      7  C   UNL     1      -1.019 -31.224 -51.299  1.00  0.00     0.053 C 
BRANCH   7   8
ATOM      8  C   UNL     1      -1.053 -32.680 -51.649  1.00  0.00     0.041 C 
ATOM      9  O   UNL     1      -1.077 -33.550 -50.739  1.00  0.00    -0.550 OA
ATOM     10  O   UNL     1      -1.024 -33.076 -52.980  1.00  0.00    -0.550 OA
ENDBRANCH   7   8
ENDBRANCH   6   7
ENDBRANCH   5   6
ENDBRANCH   4   5
ENDBRANCH   3   4
ENDBRANCH   2   3
ENDBRANCH   1   2
BRANCH   1  11
ATOM     11  C   UNL     1      -4.940 -30.532 -54.229  1.00  0.00     0.000 C 
BRANCH  11  12
ATOM     12  C   UNL     1      -5.608 -31.626 -53.380  1.00  0.00    -0.000 C 
BRANCH  12  13
ATOM     13  C   UNL     1      -4.675 -32.369 -52.398  1.00  0.00    -0.000 C 
BRANCH  13  14
ATOM     14  C   UNL     1      -4.858 -32.007 -50.911  1.00  0.00    -0.000 C 
BRANCH  14  15
ATOM     15  C   UNL     1      -5.857 -30.853 -50.660  1.00  0.00    -0.000 C 
BRANCH  15  16
ATOM     16  C   UNL     1      -7.074 -31.263 -49.810  1.00  0.00    -0.000 C 
BRANCH  16  17
ATOM     17  C   UNL     1      -7.628 -30.146 -48.908  1.00  0.00    -0.003 C 
ATOM     18  C   UNL     1      -6.585 -29.081 -48.572  1.00  0.00     0.004 C 
ENDBRANCH  16  17
ENDBRANCH  15  16
ENDBRANCH  14  15
ENDBRANCH  13  14
ENDBRANCH  12  13
ENDBRANCH  11  12
ENDBRANCH   1  11
TORSDOF 14
ENDMDL
