MODEL 1
REMARK VINA RESULT:    -4.522      0.000      0.000
REMARK INTER + INTRA:         -10.755
REMARK INTER:                  -8.488
REMARK INTRA:                  -2.267
REMARK UNBOUND:                -2.267
REMARK SMILES CCCCCCCCC=CCCCCCCCC(=O)[O-]
REMARK SMILES IDX 10 1 9 2 11 3 12 4 13 5 14 6 15 7 16 8 17 9 18 10 19 11
REMARK SMILES IDX 20 12 8 13 7 14 6 15 5 16 4 17 3 18 2 19 1 20
REMARK H PARENT
REMARK Flexibility Score: inf
ROOT
ATOM      1  C   UNL     1      -1.744  13.359 -10.408  1.00  0.00    -0.031 C 
ATOM      2  C   UNL     1      -1.628  12.318  -9.560  1.00  0.00    -0.031 C 
ENDROOT
BRANCH   1   3
ATOM      3  C   UNL     1      -0.702  13.786 -11.418  1.00  0.00     0.027 C 
BRANCH   3   4
ATOM      4  C   UNL     1      -1.098  13.383 -12.848  1.00  0.00     0.004 C 
BRANCH   4   5
ATOM      5  C   UNL     1      -0.760  11.923 -13.206  1.00  0.00     0.000 C 
BRANCH   5   6
ATOM      6  C   UNL     1      -1.983  10.997 -13.108  1.00  0.00     0.000 C 
BRANCH   6   7
ATOM      7  C   UNL     1      -2.713  10.818 -14.451  1.00  0.00     0.000 C 
BRANCH   7   8
ATOM      8  C   UNL     1      -1.833  10.207 -15.561  1.00  0.00     0.006 C 
BRANCH   8   9
ATOM      9  C   UNL     1      -2.288  10.627 -16.966  1.00  0.00     0.053 C 
BRANCH   9  10
ATOM     10  C   UNL     1      -3.454   9.803 -17.409  1.00  0.00     0.041 C 
ATOM     11  O   UNL     1      -3.266   8.697 -17.982  1.00  0.00    -0.550 OA
ATOM     12  O   UNL     1      -4.748  10.231 -17.148  1.00  0.00    -0.550 OA
ENDBRANCH   9  10
ENDBRANCH   8   9
ENDBRANCH   7   8
ENDBRANCH   6   7
ENDBRANCH   5   6
ENDBRANCH   4   5
ENDBRANCH   3   4
ENDBRANCH   1   3
BRANCH   2  13
ATOM     13  C   UNL     1      -0.406  11.446  -9.394  1.00  0.00     0.027 C 
BRANCH  13  14
ATOM     14  C   UNL     1      -0.767  10.081  -8.788  1.00  0.00     0.004 C 
BRANCH  14  15
ATOM     15  C   UNL     1      -1.477   9.163  -9.794  1.00  0.00     0.000 C 
BRANCH  15  16
ATOM     16  C   UNL     1      -2.646   8.380  -9.171  1.00  0.00     0.000 C 
BRANCH  16  17
ATOM     17  C   UNL     1      -4.019   9.078  -9.265  1.00  0.00    -0.000 C 
BRANCH  17  18
ATOM     18  C   UNL     1      -4.221   9.971 -10.506  1.00  0.00    -0.000 C 
BRANCH  18  19
ATOM     19  C   UNL     1      -5.261  11.093 -10.337  1.00  0.00    -0.003 C 
ATOM     20  C   UNL     1      -5.165  12.162 -11.425  1.00  0.00     0.004 C 
ENDBRANCH  18  19
ENDBRANCH  17  18
ENDBRANCH  16  17
ENDBRANCH  15  16
ENDBRANCH  14  15
ENDBRANCH  13  14
ENDBRANCH   2  13
TORSDOF 15
ENDMDL
MODEL 2
REMARK VINA RESULT:    -4.519      3.504      4.994
REMARK INTER + INTRA:         -10.748
REMARK INTER:                  -7.728
REMARK INTRA:                  -3.020
REMARK UNBOUND:                -2.267
REMARK SMILES CCCCCCCCC=CCCCCCCCC(=O)[O-]
REMARK SMILES IDX 10 1 9 2 11 3 12 4 13 5 14 6 15 7 16 8 17 9 18 10 19 11
REMARK SMILES IDX 20 12 8 13 7 14 6 15 5 16 4 17 3 18 2 19 1 20
REMARK H PARENT
REMARK Flexibility Score: inf
ROOT
ATOM      1  C   UNL     1      -2.009  10.326  -8.701  1.00  0.00    -0.031 C 
ATOM      2  C   UNL     1      -3.257   9.844  -8.542  1.00  0.00    -0.031 C 
ENDROOT
BRANCH   1   3
ATOM      3  C   UNL     1      -1.071   9.971  -9.834  1.00  0.00     0.027 C 
BRANCH   3   4
ATOM      4  C   UNL     1      -0.998  11.094 -10.884  1.00  0.00     0.004 C 
BRANCH   4   5
ATOM      5  C   UNL     1      -0.888  12.509 -10.284  1.00  0.00     0.000 C 
BRANCH   5   6
ATOM      6  C   UNL     1      -1.316  13.602 -11.277  1.00  0.00     0.000 C 
BRANCH   6   7
ATOM      7  C   UNL     1      -1.986  13.037 -12.542  1.00  0.00     0.000 C 
BRANCH   7   8
ATOM      8  C   UNL     1      -2.895  14.050 -13.269  1.00  0.00     0.006 C 
BRANCH   8   9
ATOM      9  C   UNL     1      -3.128  15.324 -12.446  1.00  0.00     0.053 C 
BRANCH   9  10
ATOM     10  C   UNL     1      -2.523  16.508 -13.129  1.00  0.00     0.041 C 
ATOM     11  O   UNL     1      -3.001  16.924 -14.217  1.00  0.00    -0.550 OA
ATOM     12  O   UNL     1      -1.461  17.183 -12.542  1.00  0.00    -0.550 OA
ENDBRANCH   9  10
ENDBRANCH   8   9
ENDBRANCH   7   8
ENDBRANCH   6   7
ENDBRANCH   5   6
ENDBRANCH   4   5
ENDBRANCH   3   4
ENDBRANCH   1   3
BRANCH   2  13
ATOM     13  C   UNL     1      -3.915   8.795  -9.405  1.00  0.00     0.027 C 
BRANCH  13  14
ATOM     14  C   UNL     1      -5.084   9.381 -10.213  1.00  0.00     0.004 C 
BRANCH  14  15
ATOM     15  C   UNL     1      -4.607  10.241 -11.393  1.00  0.00     0.000 C 
BRANCH  15  16
ATOM     16  C   UNL     1      -5.143  11.682 -11.341  1.00  0.00     0.000 C 
BRANCH  16  17
ATOM     17  C   UNL     1      -5.917  12.043 -10.056  1.00  0.00    -0.000 C 
BRANCH  17  18
ATOM     18  C   UNL     1      -5.757  13.501  -9.577  1.00  0.00    -0.000 C 
BRANCH  18  19
ATOM     19  C   UNL     1      -4.320  13.908  -9.204  1.00  0.00    -0.003 C 
ATOM     20  C   UNL     1      -3.931  13.484  -7.789  1.00  0.00     0.004 C 
ENDBRANCH  18  19
ENDBRANCH  17  18
ENDBRANCH  16  17
ENDBRANCH  15  16
ENDBRANCH  14  15
ENDBRANCH  13  14
ENDBRANCH   2  13
TORSDOF 15
ENDMDL
MODEL 3
REMARK VINA RESULT:    -4.492     12.603     15.370
REMARK INTER + INTRA:         -10.698
REMARK INTER:                  -8.513
REMARK INTRA:                  -2.185
REMARK UNBOUND:                -2.267
REMARK SMILES CCCCCCCCC=CCCCCCCCC(=O)[O-]
REMARK SMILES IDX 10 1 9 2 11 3 12 4 13 5 14 6 15 7 16 8 17 9 18 10 19 11
REMARK SMILES IDX 20 12 8 13 7 14 6 15 5 16 4 17 3 18 2 19 1 20
REMARK H PARENT
REMARK Flexibility Score: inf
ROOT
ATOM      1  C   UNL     1     -18.721  11.710 -16.982  1.00  0.00    -0.031 C 
ATOM      2  C   UNL     1     -19.003  12.997 -17.263  1.00  0.00    -0.031 C 
ENDROOT
BRANCH   1   3
ATOM      3  C   UNL     1     -17.339  11.154 -16.717  1.00  0.00     0.027 C 
BRANCH   3   4
ATOM      4  C   UNL     1     -16.883  11.430 -15.274  1.00  0.00     0.004 C 
BRANCH   4   5
ATOM      5  C   UNL     1     -15.369  11.682 -15.131  1.00  0.00     0.000 C 
BRANCH   5   6
ATOM      6  C   UNL     1     -14.589  11.307 -16.402  1.00  0.00     0.000 C 
BRANCH   6   7
ATOM      7  C   UNL     1     -13.489  12.322 -16.755  1.00  0.00     0.000 C 
BRANCH   7   8
ATOM      8  C   UNL     1     -14.020  13.610 -17.419  1.00  0.00     0.006 C 
BRANCH   8   9
ATOM      9  C   UNL     1     -12.900  14.444 -18.056  1.00  0.00     0.053 C 
BRANCH   9  10
ATOM     10  C   UNL     1     -13.403  15.164 -19.265  1.00  0.00     0.041 C 
ATOM     11  O   UNL     1     -14.493  14.823 -19.796  1.00  0.00    -0.550 OA
ATOM     12  O   UNL     1     -12.695  16.241 -19.779  1.00  0.00    -0.550 OA
ENDBRANCH   9  10
ENDBRANCH   8   9
ENDBRANCH   7   8
ENDBRANCH   6   7
ENDBRANCH   5   6
ENDBRANCH   4   5
ENDBRANCH   3   4
ENDBRANCH   1   3
BRANCH   2  13
ATOM     13  C   UNL     1     -17.990  14.101 -17.458  1.00  0.00     0.027 C 
BRANCH  13  14
ATOM     14  C   UNL     1     -18.087  15.157 -16.347  1.00  0.00     0.004 C 
BRANCH  14  15
ATOM     15  C   UNL     1     -16.791  15.266 -15.529  1.00  0.00     0.000 C 
BRANCH  15  16
ATOM     16  C   UNL     1     -16.973  14.851 -14.058  1.00  0.00     0.000 C 
BRANCH  16  17
ATOM     17  C   UNL     1     -16.576  15.925 -13.025  1.00  0.00    -0.000 C 
BRANCH  17  18
ATOM     18  C   UNL     1     -17.027  17.362 -13.361  1.00  0.00    -0.000 C 
BRANCH  18  19
ATOM     19  C   UNL     1     -18.435  17.735 -12.863  1.00  0.00    -0.003 C 
ATOM     20  C   UNL     1     -19.496  17.647 -13.959  1.00  0.00     0.004 C 
ENDBRANCH  18  19
ENDBRANCH  17  18
ENDBRANCH  16  17
ENDBRANCH  15  16
ENDBRANCH  14  15
ENDBRANCH  13  14
ENDBRANCH   2  13
TORSDOF 15
ENDMDL
MODEL 4
REMARK VINA RESULT:    -4.477     14.966     18.080
REMARK INTER + INTRA:         -10.669
REMARK INTER:                  -7.702
REMARK INTRA:                  -2.967
REMARK UNBOUND:                -2.267
REMARK SMILES CCCCCCCCC=CCCCCCCCC(=O)[O-]
REMARK SMILES IDX 10 1 9 2 11 3 12 4 13 5 14 6 15 7 16 8 17 9 18 10 19 11
REMARK SMILES IDX 20 12 8 13 7 14 6 15 5 16 4 17 3 18 2 19 1 20
REMARK H PARENT
REMARK Flexibility Score: inf
ROOT
ATOM      1  C   UNL     1     -19.105  15.294 -17.103  1.00  0.00    -0.031 C 
ATOM      2  C   UNL     1     -17.980  15.080 -17.811  1.00  0.00    -0.031 C 
ENDROOT
BRANCH   1   3
ATOM      3  C   UNL     1     -19.984  16.522 -17.205  1.00  0.00     0.027 C 
BRANCH   3   4
ATOM      4  C   UNL     1     -19.533  17.626 -16.233  1.00  0.00     0.004 C 
BRANCH   4   5
ATOM      5  C   UNL     1     -19.875  17.342 -14.758  1.00  0.00     0.000 C 
BRANCH   5   6
ATOM      6  C   UNL     1     -18.675  17.566 -13.824  1.00  0.00     0.000 C 
BRANCH   6   7
ATOM      7  C   UNL     1     -17.321  17.312 -14.510  1.00  0.00     0.000 C 
BRANCH   7   8
ATOM      8  C   UNL     1     -16.427  16.298 -13.768  1.00  0.00     0.006 C 
BRANCH   8   9
ATOM      9  C   UNL     1     -16.997  14.873 -13.810  1.00  0.00     0.053 C 
BRANCH   9  10
ATOM     10  C   UNL     1     -16.139  13.990 -14.658  1.00  0.00     0.041 C 
ATOM     11  O   UNL     1     -16.221  12.738 -14.551  1.00  0.00    -0.550 OA
ATOM     12  O   UNL     1     -15.284  14.546 -15.599  1.00  0.00    -0.550 OA
ENDBRANCH   9  10
ENDBRANCH   8   9
ENDBRANCH   7   8
ENDBRANCH   6   7
ENDBRANCH   5   6
ENDBRANCH   4   5
ENDBRANCH   3   4
ENDBRANCH   1   3
BRANCH   2  13
ATOM     13  C   UNL     1     -17.336  16.058 -18.765  1.00  0.00     0.027 C 
BRANCH  13  14
ATOM     14  C   UNL     1     -16.304  16.945 -18.051  1.00  0.00     0.004 C 
BRANCH  14  15
ATOM     15  C   UNL     1     -16.005  18.236 -18.827  1.00  0.00     0.000 C 
BRANCH  15  16
ATOM     16  C   UNL     1     -17.127  19.282 -18.708  1.00  0.00     0.000 C 
BRANCH  16  17
ATOM     17  C   UNL     1     -17.984  19.464 -19.978  1.00  0.00    -0.000 C 
BRANCH  17  18
ATOM     18  C   UNL     1     -19.460  19.032 -19.845  1.00  0.00    -0.000 C 
BRANCH  18  19
ATOM     19  C   UNL     1     -19.897  17.911 -20.804  1.00  0.00    -0.003 C 
ATOM     20  C   UNL     1     -18.799  17.508 -21.787  1.00  0.00     0.004 C 
ENDBRANCH  18  19
ENDBRANCH  17  18
ENDBRANCH  16  17
ENDBRANCH  15  16
ENDBRANCH  14  15
ENDBRANCH  13  14
ENDBRANCH   2  13
TORSDOF 15
ENDMDL
MODEL 5
REMARK VINA RESULT:    -4.467     14.384     15.808
REMARK INTER + INTRA:         -10.651
REMARK INTER:                  -8.003
REMARK INTRA:                  -2.648
REMARK UNBOUND:                -2.267
REMARK SMILES CCCCCCCCC=CCCCCCCCC(=O)[O-]
REMARK SMILES IDX 10 1 9 2 11 3 12 4 13 5 14 6 15 7 16 8 17 9 18 10 19 11
REMARK SMILES IDX 20 12 8 13 7 14 6 15 5 16 4 17 3 18 2 19 1 20
REMARK H PARENT
REMARK Flexibility Score: inf
ROOT
ATOM      1  C   UNL     1     -19.004  17.585 -13.555  1.00  0.00    -0.031 C 
ATOM      2  C   UNL     1     -17.840  17.522 -12.880  1.00  0.00    -0.031 C 
ENDROOT
BRANCH   1   3
ATOM      3  C   UNL     1     -19.139  17.695 -15.058  1.00  0.00     0.027 C 
BRANCH   3   4
ATOM      4  C   UNL     1     -19.053  16.318 -15.739  1.00  0.00     0.004 C 
BRANCH   4   5
ATOM      5  C   UNL     1     -18.328  16.333 -17.098  1.00  0.00     0.000 C 
BRANCH   5   6
ATOM      6  C   UNL     1     -17.162  17.335 -17.130  1.00  0.00     0.000 C 
BRANCH   6   7
ATOM      7  C   UNL     1     -15.845  16.711 -17.621  1.00  0.00     0.000 C 
BRANCH   7   8
ATOM      8  C   UNL     1     -16.040  15.517 -18.577  1.00  0.00     0.006 C 
BRANCH   8   9
ATOM      9  C   UNL     1     -14.713  15.015 -19.166  1.00  0.00     0.053 C 
BRANCH   9  10
ATOM     10  C   UNL     1     -14.336  15.817 -20.369  1.00  0.00     0.041 C 
ATOM     11  O   UNL     1     -15.121  15.894 -21.350  1.00  0.00    -0.550 OA
ATOM     12  O   UNL     1     -13.138  16.518 -20.390  1.00  0.00    -0.550 OA
ENDBRANCH   9  10
ENDBRANCH   8   9
ENDBRANCH   7   8
ENDBRANCH   6   7
ENDBRANCH   5   6
ENDBRANCH   4   5
ENDBRANCH   3   4
ENDBRANCH   1   3
BRANCH   2  13
ATOM     13  C   UNL     1     -16.460  17.643 -13.484  1.00  0.00     0.027 C 
BRANCH  13  14
ATOM     14  C   UNL     1     -15.879  16.267 -13.842  1.00  0.00     0.004 C 
BRANCH  14  15
ATOM     15  C   UNL     1     -16.375  15.158 -12.901  1.00  0.00     0.000 C 
BRANCH  15  16
ATOM     16  C   UNL     1     -16.761  13.868 -13.645  1.00  0.00     0.000 C 
BRANCH  16  17
ATOM     17  C   UNL     1     -16.281  13.792 -15.109  1.00  0.00    -0.000 C 
BRANCH  17  18
ATOM     18  C   UNL     1     -17.208  13.015 -16.067  1.00  0.00    -0.000 C 
BRANCH  18  19
ATOM     19  C   UNL     1     -17.123  11.483 -15.952  1.00  0.00    -0.003 C 
ATOM     20  C   UNL     1     -18.248  10.768 -16.699  1.00  0.00     0.004 C 
ENDBRANCH  18  19
ENDBRANCH  17  18
ENDBRANCH  16  17
ENDBRANCH  15  16
ENDBRANCH  14  15
ENDBRANCH  13  14
ENDBRANCH   2  13
TORSDOF 15
ENDMDL
MODEL 6
REMARK VINA RESULT:    -4.456      3.022      4.733
REMARK INTER + INTRA:         -10.631
REMARK INTER:                  -8.097
REMARK INTRA:                  -2.534
REMARK UNBOUND:                -2.267
REMARK SMILES CCCCCCCCC=CCCCCCCCC(=O)[O-]
REMARK SMILES IDX 10 1 9 2 11 3 12 4 13 5 14 6 15 7 16 8 17 9 18 10 19 11
REMARK SMILES IDX 20 12 8 13 7 14 6 15 5 16 4 17 3 18 2 19 1 20
REMARK H PARENT
REMARK Flexibility Score: inf
ROOT
ATOM      1  C   UNL     1      -0.999  11.691 -12.651  1.00  0.00    -0.031 C 
ATOM      2  C   UNL     1      -1.046  12.844 -11.955  1.00  0.00    -0.031 C 
ENDROOT
BRANCH   1   3
ATOM      3  C   UNL     1      -2.155  10.734 -12.838  1.00  0.00     0.027 C 
BRANCH   3   4
ATOM      4  C   UNL     1      -2.436  10.465 -14.327  1.00  0.00     0.004 C 
BRANCH   4   5
ATOM      5  C   UNL     1      -3.727  11.123 -14.851  1.00  0.00     0.000 C 
BRANCH   5   6
ATOM      6  C   UNL     1      -4.626  11.638 -13.715  1.00  0.00     0.000 C 
BRANCH   6   7
ATOM      7  C   UNL     1      -4.895  13.151 -13.798  1.00  0.00     0.000 C 
BRANCH   7   8
ATOM      8  C   UNL     1      -3.940  13.901 -14.749  1.00  0.00     0.006 C 
BRANCH   8   9
ATOM      9  C   UNL     1      -3.287  15.119 -14.080  1.00  0.00     0.053 C 
BRANCH   9  10
ATOM     10  C   UNL     1      -3.943  16.383 -14.535  1.00  0.00     0.041 C 
ATOM     11  O   UNL     1      -3.324  17.184 -15.283  1.00  0.00    -0.550 OA
ATOM     12  O   UNL     1      -5.255  16.655 -14.172  1.00  0.00    -0.550 OA
ENDBRANCH   9  10
ENDBRANCH   8   9
ENDBRANCH   7   8
ENDBRANCH   6   7
ENDBRANCH   5   6
ENDBRANCH   4   5
ENDBRANCH   3   4
ENDBRANCH   1   3
BRANCH   2  13
ATOM     13  C   UNL     1      -2.226  13.347 -11.157  1.00  0.00     0.027 C 
BRANCH  13  14
ATOM     14  C   UNL     1      -2.065  13.040  -9.660  1.00  0.00     0.004 C 
BRANCH  14  15
ATOM     15  C   UNL     1      -2.991  11.908  -9.191  1.00  0.00     0.000 C 
BRANCH  15  16
ATOM     16  C   UNL     1      -2.256  10.831  -8.374  1.00  0.00     0.000 C 
BRANCH  16  17
ATOM     17  C   UNL     1      -0.775  10.623  -8.755  1.00  0.00    -0.000 C 
BRANCH  17  18
ATOM     18  C   UNL     1      -0.474   9.336  -9.551  1.00  0.00    -0.000 C 
BRANCH  18  19
ATOM     19  C   UNL     1      -1.393   8.144  -9.230  1.00  0.00    -0.003 C 
ATOM     20  C   UNL     1      -0.635   6.946  -8.661  1.00  0.00     0.004 C 
ENDBRANCH  18  19
ENDBRANCH  17  18
ENDBRANCH  16  17
ENDBRANCH  15  16
ENDBRANCH  14  15
ENDBRANCH  13  14
ENDBRANCH   2  13
TORSDOF 15
ENDMDL
MODEL 7
REMARK VINA RESULT:    -4.434     12.619     15.287
REMARK INTER + INTRA:         -10.589
REMARK INTER:                  -8.257
REMARK INTRA:                  -2.332
REMARK UNBOUND:                -2.267
REMARK SMILES CCCCCCCCC=CCCCCCCCC(=O)[O-]
REMARK SMILES IDX 10 1 9 2 11 3 12 4 13 5 14 6 15 7 16 8 17 9 18 10 19 11
REMARK SMILES IDX 20 12 8 13 7 14 6 15 5 16 4 17 3 18 2 19 1 20
REMARK H PARENT
REMARK Flexibility Score: inf
ROOT
ATOM      1  C   UNL     1     -15.881  11.606 -15.442  1.00  0.00    -0.031 C 
ATOM      2  C   UNL     1     -17.211  11.803 -15.524  1.00  0.00    -0.031 C 
ENDROOT
BRANCH   1   3
ATOM      3  C   UNL     1     -15.018  10.996 -16.525  1.00  0.00     0.027 C 
BRANCH   3   4
ATOM      4  C   UNL     1     -13.531  11.334 -16.325  1.00  0.00     0.004 C 
BRANCH   4   5
ATOM      5  C   UNL     1     -13.217  12.842 -16.382  1.00  0.00     0.000 C 
BRANCH   5   6
ATOM      6  C   UNL     1     -13.651  13.482 -17.711  1.00  0.00     0.000 C 
BRANCH   6   7
ATOM      7  C   UNL     1     -14.731  14.563 -17.535  1.00  0.00     0.000 C 
BRANCH   7   8
ATOM      8  C   UNL     1     -15.170  15.225 -18.858  1.00  0.00     0.006 C 
BRANCH   8   9
ATOM      9  C   UNL     1     -14.178  16.294 -19.334  1.00  0.00     0.053 C 
BRANCH   9  10
ATOM     10  C   UNL     1     -13.917  16.153 -20.799  1.00  0.00     0.041 C 
ATOM     11  O   UNL     1     -14.857  15.858 -21.584  1.00  0.00    -0.550 OA
ATOM     12  O   UNL     1     -12.648  16.395 -21.307  1.00  0.00    -0.550 OA
ENDBRANCH   9  10
ENDBRANCH   8   9
ENDBRANCH   7   8
ENDBRANCH   6   7
ENDBRANCH   5   6
ENDBRANCH   4   5
ENDBRANCH   3   4
ENDBRANCH   1   3
BRANCH   2  13
ATOM     13  C   UNL     1     -18.100  11.368 -16.665  1.00  0.00     0.027 C 
BRANCH  13  14
ATOM     14  C   UNL     1     -19.085  12.477 -17.066  1.00  0.00     0.004 C 
BRANCH  14  15
ATOM     15  C   UNL     1     -18.375  13.791 -17.423  1.00  0.00     0.000 C 
BRANCH  15  16
ATOM     16  C   UNL     1     -19.100  15.033 -16.878  1.00  0.00     0.000 C 
BRANCH  16  17
ATOM     17  C   UNL     1     -18.243  16.316 -16.825  1.00  0.00    -0.000 C 
BRANCH  17  18
ATOM     18  C   UNL     1     -17.166  16.344 -15.721  1.00  0.00    -0.000 C 
BRANCH  18  19
ATOM     19  C   UNL     1     -17.550  15.615 -14.420  1.00  0.00    -0.003 C 
ATOM     20  C   UNL     1     -16.349  14.991 -13.712  1.00  0.00     0.004 C 
ENDBRANCH  18  19
ENDBRANCH  17  18
ENDBRANCH  16  17
ENDBRANCH  15  16
ENDBRANCH  14  15
ENDBRANCH  13  14
ENDBRANCH   2  13
TORSDOF 15
ENDMDL
MODEL 8
REMARK VINA RESULT:    -4.431      4.517      7.085
REMARK INTER + INTRA:         -10.584
REMARK INTER:                  -8.004
REMARK INTRA:                  -2.580
REMARK UNBOUND:                -2.267
REMARK SMILES CCCCCCCCC=CCCCCCCCC(=O)[O-]
REMARK SMILES IDX 10 1 9 2 11 3 12 4 13 5 14 6 15 7 16 8 17 9 18 10 19 11
REMARK SMILES IDX 20 12 8 13 7 14 6 15 5 16 4 17 3 18 2 19 1 20
REMARK H PARENT
REMARK Flexibility Score: inf
ROOT
ATOM      1  C   UNL     1      -0.952  10.165  -9.644  1.00  0.00    -0.031 C 
ATOM      2  C   UNL     1      -0.361  11.035 -10.487  1.00  0.00    -0.031 C 
ENDROOT
BRANCH   1   3
ATOM      3  C   UNL     1      -1.373  10.472  -8.223  1.00  0.00     0.027 C 
BRANCH   3   4
ATOM      4  C   UNL     1      -2.892  10.690  -8.116  1.00  0.00     0.004 C 
BRANCH   4   5
ATOM      5  C   UNL     1      -3.645  10.535  -9.451  1.00  0.00     0.000 C 
BRANCH   5   6
ATOM      6  C   UNL     1      -4.310  11.845  -9.905  1.00  0.00     0.000 C 
BRANCH   6   7
ATOM      7  C   UNL     1      -3.640  13.097  -9.314  1.00  0.00     0.000 C 
BRANCH   7   8
ATOM      8  C   UNL     1      -4.639  14.155  -8.801  1.00  0.00     0.006 C 
BRANCH   8   9
ATOM      9  C   UNL     1      -4.866  14.059  -7.286  1.00  0.00     0.053 C 
BRANCH   9  10
ATOM     10  C   UNL     1      -5.962  14.981  -6.860  1.00  0.00     0.041 C 
ATOM     11  O   UNL     1      -5.786  15.770  -5.894  1.00  0.00    -0.550 OA
ATOM     12  O   UNL     1      -7.162  15.005  -7.557  1.00  0.00    -0.550 OA
ENDBRANCH   9  10
ENDBRANCH   8   9
ENDBRANCH   7   8
ENDBRANCH   6   7
ENDBRANCH   5   6
ENDBRANCH   4   5
ENDBRANCH   3   4
ENDBRANCH   1   3
BRANCH   2  13
ATOM     13  C   UNL     1       0.075  12.440 -10.144  1.00  0.00     0.027 C 
BRANCH  13  14
ATOM     14  C   UNL     1      -0.399  13.450 -11.200  1.00  0.00     0.004 C 
BRANCH  14  15
ATOM     15  C   UNL     1      -1.297  12.805 -12.266  1.00  0.00     0.000 C 
BRANCH  15  16
ATOM     16  C   UNL     1      -2.278  13.802 -12.908  1.00  0.00     0.000 C 
BRANCH  16  17
ATOM     17  C   UNL     1      -2.096  15.270 -12.467  1.00  0.00    -0.000 C 
BRANCH  17  18
ATOM     18  C   UNL     1      -3.403  16.063 -12.261  1.00  0.00    -0.000 C 
BRANCH  18  19
ATOM     19  C   UNL     1      -4.688  15.218 -12.298  1.00  0.00    -0.003 C 
ATOM     20  C   UNL     1      -5.939  16.023 -11.949  1.00  0.00     0.004 C 
ENDBRANCH  18  19
ENDBRANCH  17  18
ENDBRANCH  16  17
ENDBRANCH  15  16
ENDBRANCH  14  15
ENDBRANCH  13  14
ENDBRANCH   2  13
TORSDOF 15
ENDMDL
MODEL 9
REMARK VINA RESULT:    -4.377     14.858     17.466
REMARK INTER + INTRA:         -10.481
REMARK INTER:                  -7.591
REMARK INTRA:                  -2.890
REMARK UNBOUND:                -2.267
REMARK SMILES CCCCCCCCC=CCCCCCCCC(=O)[O-]
REMARK SMILES IDX 10 1 9 2 11 3 12 4 13 5 14 6 15 7 16 8 17 9 18 10 19 11
REMARK SMILES IDX 20 12 8 13 7 14 6 15 5 16 4 17 3 18 2 19 1 20
REMARK H PARENT
REMARK Flexibility Score: inf
ROOT
ATOM      1  C   UNL     1     -19.358  18.643 -19.042  1.00  0.00    -0.031 C 
ATOM      2  C   UNL     1     -18.578  18.835 -20.123  1.00  0.00    -0.031 C 
ENDROOT
BRANCH   1   3
ATOM      3  C   UNL     1     -18.876  18.178 -17.686  1.00  0.00     0.027 C 
BRANCH   3   4
ATOM      4  C   UNL     1     -18.986  16.650 -17.537  1.00  0.00     0.004 C 
BRANCH   4   5
ATOM      5  C   UNL     1     -18.811  16.146 -16.091  1.00  0.00     0.000 C 
BRANCH   5   6
ATOM      6  C   UNL     1     -18.495  17.285 -15.107  1.00  0.00     0.000 C 
BRANCH   6   7
ATOM      7  C   UNL     1     -17.595  16.841 -13.941  1.00  0.00     0.000 C 
BRANCH   7   8
ATOM      8  C   UNL     1     -16.591  15.732 -14.317  1.00  0.00     0.006 C 
BRANCH   8   9
ATOM      9  C   UNL     1     -16.795  14.454 -13.492  1.00  0.00     0.053 C 
BRANCH   9  10
ATOM     10  C   UNL     1     -16.673  13.244 -14.360  1.00  0.00     0.041 C 
ATOM     11  O   UNL     1     -16.521  13.369 -15.604  1.00  0.00    -0.550 OA
ATOM     12  O   UNL     1     -16.681  11.976 -13.793  1.00  0.00    -0.550 OA
ENDBRANCH   9  10
ENDBRANCH   8   9
ENDBRANCH   7   8
ENDBRANCH   6   7
ENDBRANCH   5   6
ENDBRANCH   4   5
ENDBRANCH   3   4
ENDBRANCH   1   3
BRANCH   2  13
ATOM     13  C   UNL     1     -17.100  18.535 -20.211  1.00  0.00     0.027 C 
BRANCH  13  14
ATOM     14  C   UNL     1     -16.844  17.053 -20.529  1.00  0.00     0.004 C 
BRANCH  14  15
ATOM     15  C   UNL     1     -15.848  16.409 -19.554  1.00  0.00     0.000 C 
BRANCH  15  16
ATOM     16  C   UNL     1     -14.960  17.438 -18.834  1.00  0.00     0.000 C 
BRANCH  16  17
ATOM     17  C   UNL     1     -15.074  17.432 -17.295  1.00  0.00    -0.000 C 
BRANCH  17  18
ATOM     18  C   UNL     1     -15.542  18.760 -16.663  1.00  0.00    -0.000 C 
BRANCH  18  19
ATOM     19  C   UNL     1     -15.080  20.029 -17.400  1.00  0.00    -0.003 C 
ATOM     20  C   UNL     1     -16.191  21.067 -17.550  1.00  0.00     0.004 C 
ENDBRANCH  18  19
ENDBRANCH  17  18
ENDBRANCH  16  17
ENDBRANCH  15  16
ENDBRANCH  14  15
ENDBRANCH  13  14
ENDBRANCH   2  13
TORSDOF 15
ENDMDL
