MODEL 1
REMARK VINA RESULT:    -5.690      0.000      0.000
REMARK INTER + INTRA:         -12.521
REMARK INTER:                 -10.014
REMARK INTRA:                  -2.507
REMARK UNBOUND:                -2.507
REMARK SMILES CCCCCCC=CCCCCCCCC(=O)[O-]
REMARK SMILES IDX 10 1 11 2 12 3 13 4 14 5 15 6 16 7 17 8 18 9 9 10 8 11 7 12
REMARK SMILES IDX 6 13 5 14 4 15 3 16 2 17 1 18
REMARK H PARENT
REMARK Flexibility Score: inf
ROOT
ATOM      1  C   UNL     1      24.459 -23.941 -11.043  1.00  0.00     0.004 C 
ENDROOT
BRANCH   1   2
ATOM      2  C   UNL     1      24.438 -25.170 -10.119  1.00  0.00     0.000 C 
BRANCH   2   3
ATOM      3  C   UNL     1      24.739 -24.815  -8.654  1.00  0.00     0.000 C 
BRANCH   3   4
ATOM      4  C   UNL     1      24.017 -25.737  -7.660  1.00  0.00     0.000 C 
BRANCH   4   5
ATOM      5  C   UNL     1      22.675 -25.135  -7.228  1.00  0.00     0.006 C 
BRANCH   5   6
ATOM      6  C   UNL     1      22.869 -24.094  -6.121  1.00  0.00     0.053 C 
BRANCH   6   7
ATOM      7  C   UNL     1      22.988 -24.761  -4.788  1.00  0.00     0.041 C 
ATOM      8  O   UNL     1      24.100 -24.813  -4.202  1.00  0.00    -0.550 OA
ATOM      9  O   UNL     1      21.878 -25.370  -4.215  1.00  0.00    -0.550 OA
ENDBRANCH   6   7
ENDBRANCH   5   6
ENDBRANCH   4   5
ENDBRANCH   3   4
ENDBRANCH   2   3
ENDBRANCH   1   2
BRANCH   1  10
ATOM     10  C   UNL     1      24.983 -22.688 -10.327  1.00  0.00     0.027 C 
BRANCH  10  11
ATOM     11  C   UNL     1      24.218 -21.450 -10.726  1.00  0.00    -0.031 C 
ATOM     12  C   UNL     1      23.111 -21.001 -10.104  1.00  0.00    -0.031 C 
BRANCH  12  13
ATOM     13  C   UNL     1      22.415 -21.716  -8.971  1.00  0.00     0.027 C 
BRANCH  13  14
ATOM     14  C   UNL     1      20.983 -22.149  -9.343  1.00  0.00     0.004 C 
BRANCH  14  15
ATOM     15  C   UNL     1      20.869 -23.627  -9.758  1.00  0.00     0.000 C 
BRANCH  15  16
ATOM     16  C   UNL     1      20.756 -23.813 -11.279  1.00  0.00    -0.000 C 
BRANCH  16  17
ATOM     17  C   UNL     1      20.974 -25.271 -11.712  1.00  0.00    -0.003 C 
ATOM     18  C   UNL     1      20.722 -26.269 -10.581  1.00  0.00     0.004 C 
ENDBRANCH  16  17
ENDBRANCH  15  16
ENDBRANCH  14  15
ENDBRANCH  13  14
ENDBRANCH  12  13
ENDBRANCH  10  11
ENDBRANCH   1  10
TORSDOF 13
ENDMDL
MODEL 2
REMARK VINA RESULT:    -5.643      2.644      5.330
REMARK INTER + INTRA:         -12.439
REMARK INTER:                  -9.692
REMARK INTRA:                  -2.746
REMARK UNBOUND:                -2.507
REMARK SMILES CCCCCCC=CCCCCCCCC(=O)[O-]
REMARK SMILES IDX 10 1 11 2 12 3 13 4 14 5 15 6 16 7 17 8 18 9 9 10 8 11 7 12
REMARK SMILES IDX 6 13 5 14 4 15 3 16 2 17 1 18
REMARK H PARENT
REMARK Flexibility Score: inf
ROOT
ATOM      1  C   UNL     1      22.360 -22.805  -6.213  1.00  0.00     0.004 C 
ENDROOT
BRANCH   1   2
ATOM      2  C   UNL     1      23.247 -21.854  -7.035  1.00  0.00     0.000 C 
BRANCH   2   3
ATOM      3  C   UNL     1      22.588 -21.422  -8.355  1.00  0.00     0.000 C 
BRANCH   3   4
ATOM      4  C   UNL     1      21.197 -22.041  -8.553  1.00  0.00     0.000 C 
BRANCH   4   5
ATOM      5  C   UNL     1      21.065 -22.659  -9.950  1.00  0.00     0.006 C 
BRANCH   5   6
ATOM      6  C   UNL     1      20.371 -24.023  -9.886  1.00  0.00     0.053 C 
BRANCH   6   7
ATOM      7  C   UNL     1      20.816 -24.891 -11.020  1.00  0.00     0.041 C 
ATOM      8  O   UNL     1      21.198 -24.374 -12.102  1.00  0.00    -0.550 OA
ATOM      9  O   UNL     1      20.761 -26.274 -10.899  1.00  0.00    -0.550 OA
ENDBRANCH   6   7
ENDBRANCH   5   6
ENDBRANCH   4   5
ENDBRANCH   3   4
ENDBRANCH   2   3
ENDBRANCH   1   2
BRANCH   1  10
ATOM     10  C   UNL     1      23.000 -24.190  -6.041  1.00  0.00     0.027 C 
BRANCH  10  11
ATOM     11  C   UNL     1      22.612 -25.132  -7.153  1.00  0.00    -0.031 C 
ATOM     12  C   UNL     1      23.451 -25.576  -8.108  1.00  0.00    -0.031 C 
BRANCH  12  13
ATOM     13  C   UNL     1      24.884 -25.129  -8.265  1.00  0.00     0.027 C 
BRANCH  13  14
ATOM     14  C   UNL     1      25.024 -23.940  -9.237  1.00  0.00     0.004 C 
BRANCH  14  15
ATOM     15  C   UNL     1      24.349 -24.170 -10.601  1.00  0.00     0.000 C 
BRANCH  15  16
ATOM     16  C   UNL     1      24.376 -22.921 -11.497  1.00  0.00    -0.000 C 
BRANCH  16  17
ATOM     17  C   UNL     1      25.231 -21.790 -10.905  1.00  0.00    -0.003 C 
ATOM     18  C   UNL     1      24.610 -20.408 -11.110  1.00  0.00     0.004 C 
ENDBRANCH  16  17
ENDBRANCH  15  16
ENDBRANCH  14  15
ENDBRANCH  13  14
ENDBRANCH  12  13
ENDBRANCH  10  11
ENDBRANCH   1  10
TORSDOF 13
ENDMDL
MODEL 3
REMARK VINA RESULT:    -5.639      1.759      3.739
REMARK INTER + INTRA:         -12.430
REMARK INTER:                  -9.646
REMARK INTRA:                  -2.784
REMARK UNBOUND:                -2.507
REMARK SMILES CCCCCCC=CCCCCCCCC(=O)[O-]
REMARK SMILES IDX 10 1 11 2 12 3 13 4 14 5 15 6 16 7 17 8 18 9 9 10 8 11 7 12
REMARK SMILES IDX 6 13 5 14 4 15 3 16 2 17 1 18
REMARK H PARENT
REMARK Flexibility Score: inf
ROOT
ATOM      1  C   UNL     1      20.750 -24.109 -11.048  1.00  0.00     0.004 C 
ENDROOT
BRANCH   1   2
ATOM      2  C   UNL     1      21.650 -25.174 -10.398  1.00  0.00     0.000 C 
BRANCH   2   3
ATOM      3  C   UNL     1      21.500 -25.225  -8.869  1.00  0.00     0.000 C 
BRANCH   3   4
ATOM      4  C   UNL     1      22.818 -24.941  -8.134  1.00  0.00     0.000 C 
BRANCH   4   5
ATOM      5  C   UNL     1      24.024 -25.312  -9.005  1.00  0.00     0.006 C 
BRANCH   5   6
ATOM      6  C   UNL     1      25.340 -25.018  -8.279  1.00  0.00     0.053 C 
BRANCH   6   7
ATOM      7  C   UNL     1      25.581 -26.027  -7.202  1.00  0.00     0.041 C 
ATOM      8  O   UNL     1      25.483 -25.697  -5.991  1.00  0.00    -0.550 OA
ATOM      9  O   UNL     1      25.962 -27.321  -7.534  1.00  0.00    -0.550 OA
ENDBRANCH   6   7
ENDBRANCH   5   6
ENDBRANCH   4   5
ENDBRANCH   3   4
ENDBRANCH   2   3
ENDBRANCH   1   2
BRANCH   1  10
ATOM     10  C   UNL     1      21.563 -23.028 -11.773  1.00  0.00     0.027 C 
BRANCH  10  11
ATOM     11  C   UNL     1      22.866 -23.570 -12.310  1.00  0.00    -0.031 C 
ATOM     12  C   UNL     1      24.071 -23.005 -12.106  1.00  0.00    -0.031 C 
BRANCH  12  13
ATOM     13  C   UNL     1      24.295 -21.698 -11.386  1.00  0.00     0.027 C 
BRANCH  13  14
ATOM     14  C   UNL     1      25.083 -21.879 -10.074  1.00  0.00     0.004 C 
BRANCH  14  15
ATOM     15  C   UNL     1      24.277 -21.527  -8.811  1.00  0.00     0.000 C 
BRANCH  15  16
ATOM     16  C   UNL     1      22.818 -21.153  -9.120  1.00  0.00    -0.000 C 
BRANCH  16  17
ATOM     17  C   UNL     1      21.877 -21.430  -7.937  1.00  0.00    -0.003 C 
ATOM     18  C   UNL     1      20.409 -21.520  -8.356  1.00  0.00     0.004 C 
ENDBRANCH  16  17
ENDBRANCH  15  16
ENDBRANCH  14  15
ENDBRANCH  13  14
ENDBRANCH  12  13
ENDBRANCH  10  11
ENDBRANCH   1  10
TORSDOF 13
ENDMDL
MODEL 4
REMARK VINA RESULT:    -5.621      2.738      4.209
REMARK INTER + INTRA:         -12.400
REMARK INTER:                  -9.846
REMARK INTRA:                  -2.554
REMARK UNBOUND:                -2.507
REMARK SMILES CCCCCCC=CCCCCCCCC(=O)[O-]
REMARK SMILES IDX 10 1 11 2 12 3 13 4 14 5 15 6 16 7 17 8 18 9 9 10 8 11 7 12
REMARK SMILES IDX 6 13 5 14 4 15 3 16 2 17 1 18
REMARK H PARENT
REMARK Flexibility Score: inf
ROOT
ATOM      1  C   UNL     1      23.173 -24.509  -6.021  1.00  0.00     0.004 C 
ENDROOT
BRANCH   1   2
ATOM      2  C   UNL     1      22.829 -25.101  -7.399  1.00  0.00     0.000 C 
BRANCH   2   3
ATOM      3  C   UNL     1      24.071 -25.594  -8.159  1.00  0.00     0.000 C 
BRANCH   3   4
ATOM      4  C   UNL     1      24.158 -25.026  -9.583  1.00  0.00     0.000 C 
BRANCH   4   5
ATOM      5  C   UNL     1      24.802 -23.635  -9.581  1.00  0.00     0.006 C 
BRANCH   5   6
ATOM      6  C   UNL     1      24.444 -22.860 -10.852  1.00  0.00     0.053 C 
BRANCH   6   7
ATOM      7  C   UNL     1      24.850 -21.426 -10.725  1.00  0.00     0.041 C 
ATOM      8  O   UNL     1      25.305 -20.991  -9.634  1.00  0.00    -0.550 OA
ATOM      9  O   UNL     1      24.681 -20.557 -11.796  1.00  0.00    -0.550 OA
ENDBRANCH   6   7
ENDBRANCH   5   6
ENDBRANCH   4   5
ENDBRANCH   3   4
ENDBRANCH   2   3
ENDBRANCH   1   2
BRANCH   1  10
ATOM     10  C   UNL     1      22.541 -23.125  -5.812  1.00  0.00     0.027 C 
BRANCH  10  11
ATOM     11  C   UNL     1      23.212 -22.067  -6.653  1.00  0.00    -0.031 C 
ATOM     12  C   UNL     1      22.602 -21.362  -7.625  1.00  0.00    -0.031 C 
BRANCH  12  13
ATOM     13  C   UNL     1      21.182 -21.584  -8.083  1.00  0.00     0.027 C 
BRANCH  13  14
ATOM     14  C   UNL     1      21.103 -22.015  -9.561  1.00  0.00     0.004 C 
BRANCH  14  15
ATOM     15  C   UNL     1      20.754 -23.501  -9.758  1.00  0.00     0.000 C 
BRANCH  15  16
ATOM     16  C   UNL     1      20.489 -23.861 -11.229  1.00  0.00    -0.000 C 
BRANCH  16  17
ATOM     17  C   UNL     1      21.091 -25.220 -11.620  1.00  0.00    -0.003 C 
ATOM     18  C   UNL     1      20.660 -26.350 -10.684  1.00  0.00     0.004 C 
ENDBRANCH  16  17
ENDBRANCH  15  16
ENDBRANCH  14  15
ENDBRANCH  13  14
ENDBRANCH  12  13
ENDBRANCH  10  11
ENDBRANCH   1  10
TORSDOF 13
ENDMDL
MODEL 5
REMARK VINA RESULT:    -5.583      1.337      4.353
REMARK INTER + INTRA:         -12.332
REMARK INTER:                  -9.971
REMARK INTRA:                  -2.361
REMARK UNBOUND:                -2.507
REMARK SMILES CCCCCCC=CCCCCCCCC(=O)[O-]
REMARK SMILES IDX 10 1 11 2 12 3 13 4 14 5 15 6 16 7 17 8 18 9 9 10 8 11 7 12
REMARK SMILES IDX 6 13 5 14 4 15 3 16 2 17 1 18
REMARK H PARENT
REMARK Flexibility Score: inf
ROOT
ATOM      1  C   UNL     1      20.954 -23.009 -11.533  1.00  0.00     0.004 C 
ENDROOT
BRANCH   1   2
ATOM      2  C   UNL     1      21.248 -21.839 -10.578  1.00  0.00     0.000 C 
BRANCH   2   3
ATOM      3  C   UNL     1      21.360 -22.286  -9.111  1.00  0.00     0.000 C 
BRANCH   3   4
ATOM      4  C   UNL     1      21.886 -21.174  -8.191  1.00  0.00     0.000 C 
BRANCH   4   5
ATOM      5  C   UNL     1      22.910 -21.726  -7.193  1.00  0.00     0.006 C 
BRANCH   5   6
ATOM      6  C   UNL     1      22.678 -23.217  -6.933  1.00  0.00     0.053 C 
BRANCH   6   7
ATOM      7  C   UNL     1      22.840 -23.528  -5.479  1.00  0.00     0.041 C 
ATOM      8  O   UNL     1      23.376 -24.608  -5.118  1.00  0.00    -0.550 OA
ATOM      9  O   UNL     1      22.354 -22.647  -4.522  1.00  0.00    -0.550 OA
ENDBRANCH   6   7
ENDBRANCH   5   6
ENDBRANCH   4   5
ENDBRANCH   3   4
ENDBRANCH   2   3
ENDBRANCH   1   2
BRANCH   1  10
ATOM     10  C   UNL     1      20.296 -24.194 -10.810  1.00  0.00     0.027 C 
BRANCH  10  11
ATOM     11  C   UNL     1      20.797 -25.519 -11.331  1.00  0.00    -0.031 C 
ATOM     12  C   UNL     1      21.919 -26.133 -10.909  1.00  0.00    -0.031 C 
BRANCH  12  13
ATOM     13  C   UNL     1      22.894 -25.548  -9.917  1.00  0.00     0.027 C 
BRANCH  13  14
ATOM     14  C   UNL     1      24.081 -24.846 -10.606  1.00  0.00     0.004 C 
BRANCH  14  15
ATOM     15  C   UNL     1      24.568 -23.583  -9.873  1.00  0.00     0.000 C 
BRANCH  15  16
ATOM     16  C   UNL     1      25.242 -22.571 -10.814  1.00  0.00    -0.000 C 
BRANCH  16  17
ATOM     17  C   UNL     1      25.237 -21.145 -10.242  1.00  0.00    -0.003 C 
ATOM     18  C   UNL     1      24.282 -20.211 -10.986  1.00  0.00     0.004 C 
ENDBRANCH  16  17
ENDBRANCH  15  16
ENDBRANCH  14  15
ENDBRANCH  13  14
ENDBRANCH  12  13
ENDBRANCH  10  11
ENDBRANCH   1  10
TORSDOF 13
ENDMDL
MODEL 6
REMARK VINA RESULT:    -5.480      3.086      5.486
REMARK INTER + INTRA:         -12.152
REMARK INTER:                  -9.987
REMARK INTRA:                  -2.165
REMARK UNBOUND:                -2.507
REMARK SMILES CCCCCCC=CCCCCCCCC(=O)[O-]
REMARK SMILES IDX 10 1 11 2 12 3 13 4 14 5 15 6 16 7 17 8 18 9 9 10 8 11 7 12
REMARK SMILES IDX 6 13 5 14 4 15 3 16 2 17 1 18
REMARK H PARENT
REMARK Flexibility Score: inf
ROOT
ATOM      1  C   UNL     1      20.636 -22.331  -9.241  1.00  0.00     0.004 C 
ENDROOT
BRANCH   1   2
ATOM      2  C   UNL     1      21.480 -21.233  -8.571  1.00  0.00     0.000 C 
BRANCH   2   3
ATOM      3  C   UNL     1      22.278 -21.753  -7.364  1.00  0.00     0.000 C 
BRANCH   3   4
ATOM      4  C   UNL     1      23.795 -21.730  -7.602  1.00  0.00     0.000 C 
BRANCH   4   5
ATOM      5  C   UNL     1      24.127 -21.121  -8.969  1.00  0.00     0.006 C 
BRANCH   5   6
ATOM      6  C   UNL     1      25.044 -22.046  -9.776  1.00  0.00     0.053 C 
BRANCH   6   7
ATOM      7  C   UNL     1      24.771 -21.908 -11.240  1.00  0.00     0.041 C 
ATOM      8  O   UNL     1      24.639 -20.767 -11.755  1.00  0.00    -0.550 OA
ATOM      9  O   UNL     1      24.612 -23.041 -12.028  1.00  0.00    -0.550 OA
ENDBRANCH   6   7
ENDBRANCH   5   6
ENDBRANCH   4   5
ENDBRANCH   3   4
ENDBRANCH   2   3
ENDBRANCH   1   2
BRANCH   1  10
ATOM     10  C   UNL     1      21.212 -22.755 -10.600  1.00  0.00     0.027 C 
BRANCH  10  11
ATOM     11  C   UNL     1      20.828 -24.170 -10.957  1.00  0.00    -0.031 C 
ATOM     12  C   UNL     1      21.512 -25.267 -10.581  1.00  0.00    -0.031 C 
BRANCH  12  13
ATOM     13  C   UNL     1      22.815 -25.245  -9.820  1.00  0.00     0.027 C 
BRANCH  13  14
ATOM     14  C   UNL     1      22.602 -25.236  -8.293  1.00  0.00     0.004 C 
BRANCH  14  15
ATOM     15  C   UNL     1      23.865 -25.586  -7.487  1.00  0.00     0.000 C 
BRANCH  15  16
ATOM     16  C   UNL     1      25.160 -25.133  -8.181  1.00  0.00    -0.000 C 
BRANCH  16  17
ATOM     17  C   UNL     1      26.401 -25.864  -7.645  1.00  0.00    -0.003 C 
ATOM     18  C   UNL     1      26.106 -27.304  -7.223  1.00  0.00     0.004 C 
ENDBRANCH  16  17
ENDBRANCH  15  16
ENDBRANCH  14  15
ENDBRANCH  13  14
ENDBRANCH  12  13
ENDBRANCH  10  11
ENDBRANCH   1  10
TORSDOF 13
ENDMDL
MODEL 7
REMARK VINA RESULT:    -5.477      1.836      3.791
REMARK INTER + INTRA:         -12.145
REMARK INTER:                  -9.918
REMARK INTRA:                  -2.227
REMARK UNBOUND:                -2.507
REMARK SMILES CCCCCCC=CCCCCCCCC(=O)[O-]
REMARK SMILES IDX 10 1 11 2 12 3 13 4 14 5 15 6 16 7 17 8 18 9 9 10 8 11 7 12
REMARK SMILES IDX 6 13 5 14 4 15 3 16 2 17 1 18
REMARK H PARENT
REMARK Flexibility Score: inf
ROOT
ATOM      1  C   UNL     1      20.336 -23.867 -10.247  1.00  0.00     0.004 C 
ENDROOT
BRANCH   1   2
ATOM      2  C   UNL     1      21.054 -25.227 -10.255  1.00  0.00     0.000 C 
BRANCH   2   3
ATOM      3  C   UNL     1      22.368 -25.208  -9.458  1.00  0.00     0.000 C 
BRANCH   3   4
ATOM      4  C   UNL     1      22.144 -25.298  -7.942  1.00  0.00     0.000 C 
BRANCH   4   5
ATOM      5  C   UNL     1      23.476 -25.251  -7.186  1.00  0.00     0.006 C 
BRANCH   5   6
ATOM      6  C   UNL     1      24.645 -25.615  -8.105  1.00  0.00     0.053 C 
BRANCH   6   7
ATOM      7  C   UNL     1      25.747 -26.257  -7.324  1.00  0.00     0.041 C 
ATOM      8  O   UNL     1      26.533 -27.066  -7.884  1.00  0.00    -0.550 OA
ATOM      9  O   UNL     1      25.876 -26.001  -5.965  1.00  0.00    -0.550 OA
ENDBRANCH   6   7
ENDBRANCH   5   6
ENDBRANCH   4   5
ENDBRANCH   3   4
ENDBRANCH   2   3
ENDBRANCH   1   2
BRANCH   1  10
ATOM     10  C   UNL     1      21.323 -22.693 -10.169  1.00  0.00     0.027 C 
BRANCH  10  11
ATOM     11  C   UNL     1      20.765 -21.541  -9.371  1.00  0.00    -0.031 C 
ATOM     12  C   UNL     1      21.233 -21.142  -8.172  1.00  0.00    -0.031 C 
BRANCH  12  13
ATOM     13  C   UNL     1      22.326 -21.843  -7.404  1.00  0.00     0.027 C 
BRANCH  13  14
ATOM     14  C   UNL     1      23.717 -21.240  -7.683  1.00  0.00     0.004 C 
BRANCH  14  15
ATOM     15  C   UNL     1      24.514 -21.989  -8.766  1.00  0.00     0.000 C 
BRANCH  15  16
ATOM     16  C   UNL     1      25.046 -21.057  -9.866  1.00  0.00    -0.000 C 
BRANCH  16  17
ATOM     17  C   UNL     1      24.596 -21.488 -11.271  1.00  0.00    -0.003 C 
ATOM     18  C   UNL     1      24.811 -22.980 -11.531  1.00  0.00     0.004 C 
ENDBRANCH  16  17
ENDBRANCH  15  16
ENDBRANCH  14  15
ENDBRANCH  13  14
ENDBRANCH  12  13
ENDBRANCH  10  11
ENDBRANCH   1  10
TORSDOF 13
ENDMDL
MODEL 8
REMARK VINA RESULT:    -5.463      2.364      4.212
REMARK INTER + INTRA:         -12.122
REMARK INTER:                  -9.625
REMARK INTRA:                  -2.496
REMARK UNBOUND:                -2.507
REMARK SMILES CCCCCCC=CCCCCCCCC(=O)[O-]
REMARK SMILES IDX 10 1 11 2 12 3 13 4 14 5 15 6 16 7 17 8 18 9 9 10 8 11 7 12
REMARK SMILES IDX 6 13 5 14 4 15 3 16 2 17 1 18
REMARK H PARENT
REMARK Flexibility Score: inf
ROOT
ATOM      1  C   UNL     1      23.924 -23.285 -12.017  1.00  0.00     0.004 C 
ENDROOT
BRANCH   1   2
ATOM      2  C   UNL     1      24.211 -21.889 -11.439  1.00  0.00     0.000 C 
BRANCH   2   3
ATOM      3  C   UNL     1      25.197 -21.927 -10.260  1.00  0.00     0.000 C 
BRANCH   3   4
ATOM      4  C   UNL     1      24.569 -21.443  -8.945  1.00  0.00     0.000 C 
BRANCH   4   5
ATOM      5  C   UNL     1      23.039 -21.433  -9.038  1.00  0.00     0.006 C 
BRANCH   5   6
ATOM      6  C   UNL     1      22.403 -21.294  -7.652  1.00  0.00     0.053 C 
BRANCH   6   7
ATOM      7  C   UNL     1      20.932 -21.054  -7.771  1.00  0.00     0.041 C 
ATOM      8  O   UNL     1      20.377 -21.067  -8.901  1.00  0.00    -0.550 OA
ATOM      9  O   UNL     1      20.180 -20.767  -6.638  1.00  0.00    -0.550 OA
ENDBRANCH   6   7
ENDBRANCH   5   6
ENDBRANCH   4   5
ENDBRANCH   3   4
ENDBRANCH   2   3
ENDBRANCH   1   2
BRANCH   1  10
ATOM     10  C   UNL     1      22.589 -23.334 -12.773  1.00  0.00     0.027 C 
BRANCH  10  11
ATOM     11  C   UNL     1      21.428 -22.940 -11.893  1.00  0.00    -0.031 C 
ATOM     12  C   UNL     1      20.681 -23.803 -11.179  1.00  0.00    -0.031 C 
BRANCH  12  13
ATOM     13  C   UNL     1      20.832 -25.304 -11.221  1.00  0.00     0.027 C 
BRANCH  13  14
ATOM     14  C   UNL     1      21.693 -25.839 -10.060  1.00  0.00     0.004 C 
BRANCH  14  15
ATOM     15  C   UNL     1      21.621 -24.980  -8.786  1.00  0.00     0.000 C 
BRANCH  15  16
ATOM     16  C   UNL     1      22.938 -24.980  -7.992  1.00  0.00    -0.000 C 
BRANCH  16  17
ATOM     17  C   UNL     1      24.156 -25.294  -8.873  1.00  0.00    -0.003 C 
ATOM     18  C   UNL     1      25.302 -25.939  -8.092  1.00  0.00     0.004 C 
ENDBRANCH  16  17
ENDBRANCH  15  16
ENDBRANCH  14  15
ENDBRANCH  13  14
ENDBRANCH  12  13
ENDBRANCH  10  11
ENDBRANCH   1  10
TORSDOF 13
ENDMDL
MODEL 9
REMARK VINA RESULT:    -5.463      1.243      3.185
REMARK INTER + INTRA:         -12.121
REMARK INTER:                  -9.306
REMARK INTRA:                  -2.815
REMARK UNBOUND:                -2.507
REMARK SMILES CCCCCCC=CCCCCCCCC(=O)[O-]
REMARK SMILES IDX 10 1 11 2 12 3 13 4 14 5 15 6 16 7 17 8 18 9 9 10 8 11 7 12
REMARK SMILES IDX 6 13 5 14 4 15 3 16 2 17 1 18
REMARK H PARENT
REMARK Flexibility Score: inf
ROOT
ATOM      1  C   UNL     1      21.864 -24.217 -11.203  1.00  0.00     0.004 C 
ENDROOT
BRANCH   1   2
ATOM      2  C   UNL     1      22.653 -25.363 -10.545  1.00  0.00     0.000 C 
BRANCH   2   3
ATOM      3  C   UNL     1      22.776 -25.199  -9.021  1.00  0.00     0.000 C 
BRANCH   3   4
ATOM      4  C   UNL     1      24.175 -25.556  -8.498  1.00  0.00     0.000 C 
BRANCH   4   5
ATOM      5  C   UNL     1      24.295 -25.251  -7.001  1.00  0.00     0.006 C 
BRANCH   5   6
ATOM      6  C   UNL     1      22.925 -24.948  -6.388  1.00  0.00     0.053 C 
BRANCH   6   7
ATOM      7  C   UNL     1      23.078 -24.398  -5.005  1.00  0.00     0.041 C 
ATOM      8  O   UNL     1      22.490 -23.335  -4.677  1.00  0.00    -0.550 OA
ATOM      9  O   UNL     1      23.912 -25.034  -4.093  1.00  0.00    -0.550 OA
ENDBRANCH   6   7
ENDBRANCH   5   6
ENDBRANCH   4   5
ENDBRANCH   3   4
ENDBRANCH   2   3
ENDBRANCH   1   2
BRANCH   1  10
ATOM     10  C   UNL     1      20.983 -23.468 -10.193  1.00  0.00     0.027 C 
BRANCH  10  11
ATOM     11  C   UNL     1      21.198 -21.976 -10.256  1.00  0.00    -0.031 C 
ATOM     12  C   UNL     1      21.759 -21.241  -9.276  1.00  0.00    -0.031 C 
BRANCH  12  13
ATOM     13  C   UNL     1      22.175 -21.784  -7.931  1.00  0.00     0.027 C 
BRANCH  13  14
ATOM     14  C   UNL     1      23.662 -21.513  -7.625  1.00  0.00     0.004 C 
BRANCH  14  15
ATOM     15  C   UNL     1      24.501 -21.171  -8.869  1.00  0.00     0.000 C 
BRANCH  15  16
ATOM     16  C   UNL     1      25.142 -22.410  -9.514  1.00  0.00    -0.000 C 
BRANCH  16  17
ATOM     17  C   UNL     1      25.107 -22.359 -11.049  1.00  0.00    -0.003 C 
ATOM     18  C   UNL     1      24.607 -21.017 -11.586  1.00  0.00     0.004 C 
ENDBRANCH  16  17
ENDBRANCH  15  16
ENDBRANCH  14  15
ENDBRANCH  13  14
ENDBRANCH  12  13
ENDBRANCH  10  11
ENDBRANCH   1  10
TORSDOF 13
ENDMDL
