MODEL 1
REMARK VINA RESULT:    -5.359      0.000      0.000
REMARK INTER + INTRA:          -6.244
REMARK INTER:                  -5.986
REMARK INTRA:                  -0.259
REMARK UNBOUND:                -0.259
REMARK SMILES COc1cc2c(cc1C(C)=O)C=CC(C)(C)O2
REMARK SMILES IDX 8 1 3 2 4 3 5 4 6 5 7 6 12 7 13 8 14 9 17 10 15 11 16 12
REMARK SMILES IDX 9 13 10 14 11 15 2 16 1 17
REMARK H PARENT
REMARK Flexibility Score: inf
ROOT
ATOM      1  C   UNL     1     -27.538  -7.824  21.467  1.00  0.00     0.060 A 
ATOM      2  C   UNL     1     -26.237  -7.315  21.230  1.00  0.00     0.133 A 
ATOM      3  C   UNL     1     -25.114  -8.092  21.581  1.00  0.00     0.094 A 
ATOM      4  C   UNL     1     -25.275  -9.345  22.172  1.00  0.00     0.131 A 
ATOM      5  C   UNL     1     -26.554  -9.851  22.406  1.00  0.00     0.017 A 
ATOM      6  C   UNL     1     -27.679  -9.099  22.055  1.00  0.00     0.027 A 
ATOM      7  C   UNL     1     -26.687 -11.201  22.976  1.00  0.00     0.012 C 
ATOM      8  C   UNL     1     -25.608 -11.883  23.371  1.00  0.00     0.021 C 
ATOM      9  C   UNL     1     -24.222 -11.262  23.369  1.00  0.00     0.122 C 
ATOM     10  O   UNL     1     -24.156 -10.111  22.513  1.00  0.00    -0.483 OA
ATOM     11  C   UNL     1     -23.204 -12.292  22.868  1.00  0.00     0.061 C 
ATOM     12  C   UNL     1     -23.869 -10.829  24.797  1.00  0.00     0.061 C 
ENDROOT
BRANCH   1  13
ATOM     13  C   UNL     1     -28.751  -7.041  21.094  1.00  0.00     0.163 C 
ATOM     14  C   UNL     1     -29.581  -6.337  22.126  1.00  0.00     0.093 C 
ATOM     15  O   UNL     1     -29.125  -6.986  19.891  1.00  0.00    -0.294 OA
ENDBRANCH   1  13
BRANCH   2  16
ATOM     16  O   UNL     1     -26.088  -6.039  20.660  1.00  0.00    -0.496 OA
ATOM     17  C   UNL     1     -25.692  -5.790  19.316  1.00  0.00     0.278 C 
ENDBRANCH   2  16
TORSDOF 2
ENDMDL
MODEL 2
REMARK VINA RESULT:    -5.116      2.135      3.071
REMARK INTER + INTRA:          -5.973
REMARK INTER:                  -5.739
REMARK INTRA:                  -0.234
REMARK UNBOUND:                -0.259
REMARK SMILES COc1cc2c(cc1C(C)=O)C=CC(C)(C)O2
REMARK SMILES IDX 8 1 3 2 4 3 5 4 6 5 7 6 12 7 13 8 14 9 17 10 15 11 16 12
REMARK SMILES IDX 9 13 10 14 11 15 2 16 1 17
REMARK H PARENT
REMARK Flexibility Score: inf
ROOT
ATOM      1  C   UNL     1     -25.978  -6.235  19.797  1.00  0.00     0.060 A 
ATOM      2  C   UNL     1     -24.854  -6.313  20.658  1.00  0.00     0.133 A 
ATOM      3  C   UNL     1     -24.774  -7.362  21.598  1.00  0.00     0.094 A 
ATOM      4  C   UNL     1     -25.795  -8.306  21.697  1.00  0.00     0.131 A 
ATOM      5  C   UNL     1     -26.902  -8.234  20.851  1.00  0.00     0.017 A 
ATOM      6  C   UNL     1     -26.994  -7.208  19.905  1.00  0.00     0.027 A 
ATOM      7  C   UNL     1     -27.931  -9.281  20.942  1.00  0.00     0.012 C 
ATOM      8  C   UNL     1     -27.868 -10.218  21.893  1.00  0.00     0.021 C 
ATOM      9  C   UNL     1     -26.817 -10.178  22.989  1.00  0.00     0.122 C 
ATOM     10  O   UNL     1     -25.703  -9.345  22.628  1.00  0.00    -0.483 OA
ATOM     11  C   UNL     1     -26.294 -11.595  23.244  1.00  0.00     0.061 C 
ATOM     12  C   UNL     1     -27.453  -9.616  24.267  1.00  0.00     0.061 C 
ENDROOT
BRANCH   1  13
ATOM     13  C   UNL     1     -26.094  -5.152  18.779  1.00  0.00     0.163 C 
ATOM     14  C   UNL     1     -26.909  -3.919  19.030  1.00  0.00     0.093 C 
ATOM     15  O   UNL     1     -25.528  -5.273  17.658  1.00  0.00    -0.294 OA
ENDBRANCH   1  13
BRANCH   2  16
ATOM     16  O   UNL     1     -23.847  -5.338  20.568  1.00  0.00    -0.496 OA
ATOM     17  C   UNL     1     -22.509  -5.508  21.024  1.00  0.00     0.278 C 
ENDBRANCH   2  16
TORSDOF 2
ENDMDL
MODEL 3
REMARK VINA RESULT:    -5.095      9.539     12.666
REMARK INTER + INTRA:          -5.949
REMARK INTER:                  -5.717
REMARK INTRA:                  -0.233
REMARK UNBOUND:                -0.259
REMARK SMILES COc1cc2c(cc1C(C)=O)C=CC(C)(C)O2
REMARK SMILES IDX 8 1 3 2 4 3 5 4 6 5 7 6 12 7 13 8 14 9 17 10 15 11 16 12
REMARK SMILES IDX 9 13 10 14 11 15 2 16 1 17
REMARK H PARENT
REMARK Flexibility Score: inf
ROOT
ATOM      1  C   UNL     1     -35.512  -0.203  17.244  1.00  0.00     0.060 A 
ATOM      2  C   UNL     1     -36.062  -0.179  18.551  1.00  0.00     0.133 A 
ATOM      3  C   UNL     1     -35.198  -0.209  19.665  1.00  0.00     0.094 A 
ATOM      4  C   UNL     1     -33.816  -0.278  19.491  1.00  0.00     0.131 A 
ATOM      5  C   UNL     1     -33.271  -0.300  18.207  1.00  0.00     0.017 A 
ATOM      6  C   UNL     1     -34.112  -0.261  17.089  1.00  0.00     0.027 A 
ATOM      7  C   UNL     1     -31.808  -0.313  18.060  1.00  0.00     0.012 C 
ATOM      8  C   UNL     1     -31.016  -0.419  19.132  1.00  0.00     0.021 C 
ATOM      9  C   UNL     1     -31.578  -0.655  20.522  1.00  0.00     0.122 C 
ATOM     10  O   UNL     1     -32.968  -0.302  20.602  1.00  0.00    -0.483 OA
ATOM     11  C   UNL     1     -30.806   0.199  21.534  1.00  0.00     0.061 C 
ATOM     12  C   UNL     1     -31.431  -2.141  20.873  1.00  0.00     0.061 C 
ENDROOT
BRANCH   1  13
ATOM     13  C   UNL     1     -36.390  -0.157  16.039  1.00  0.00     0.163 C 
ATOM     14  C   UNL     1     -36.607  -1.363  15.176  1.00  0.00     0.093 C 
ATOM     15  O   UNL     1     -36.945   0.924  15.701  1.00  0.00    -0.294 OA
ENDBRANCH   1  13
BRANCH   2  16
ATOM     16  O   UNL     1     -37.457  -0.140  18.713  1.00  0.00    -0.496 OA
ATOM     17  C   UNL     1     -38.257  -1.236  19.142  1.00  0.00     0.278 C 
ENDBRANCH   2  16
TORSDOF 2
ENDMDL
MODEL 4
REMARK VINA RESULT:    -4.998     10.196     13.729
REMARK INTER + INTRA:          -5.841
REMARK INTER:                  -5.591
REMARK INTRA:                  -0.250
REMARK UNBOUND:                -0.259
REMARK SMILES COc1cc2c(cc1C(C)=O)C=CC(C)(C)O2
REMARK SMILES IDX 8 1 3 2 4 3 5 4 6 5 7 6 12 7 13 8 14 9 17 10 15 11 16 12
REMARK SMILES IDX 9 13 10 14 11 15 2 16 1 17
REMARK H PARENT
REMARK Flexibility Score: inf
ROOT
ATOM      1  C   UNL     1     -36.717   0.788  17.441  1.00  0.00     0.060 A 
ATOM      2  C   UNL     1     -36.910   0.841  18.845  1.00  0.00     0.133 A 
ATOM      3  C   UNL     1     -35.836   0.530  19.704  1.00  0.00     0.094 A 
ATOM      4  C   UNL     1     -34.597   0.156  19.184  1.00  0.00     0.131 A 
ATOM      5  C   UNL     1     -34.401   0.105  17.804  1.00  0.00     0.017 A 
ATOM      6  C   UNL     1     -35.452   0.420  16.936  1.00  0.00     0.027 A 
ATOM      7  C   UNL     1     -33.065  -0.235  17.292  1.00  0.00     0.012 C 
ATOM      8  C   UNL     1     -32.087  -0.601  18.126  1.00  0.00     0.021 C 
ATOM      9  C   UNL     1     -32.336  -0.803  19.611  1.00  0.00     0.122 C 
ATOM     10  O   UNL     1     -33.537  -0.146  20.045  1.00  0.00    -0.483 OA
ATOM     11  C   UNL     1     -31.159  -0.228  20.406  1.00  0.00     0.061 C 
ATOM     12  C   UNL     1     -32.473  -2.305  19.891  1.00  0.00     0.061 C 
ENDROOT
BRANCH   1  13
ATOM     13  C   UNL     1     -37.822   1.126  16.498  1.00  0.00     0.163 C 
ATOM     14  C   UNL     1     -37.907   2.467  15.833  1.00  0.00     0.093 C 
ATOM     15  O   UNL     1     -38.737   0.290  16.270  1.00  0.00    -0.294 OA
ENDBRANCH   1  13
BRANCH   2  16
ATOM     16  O   UNL     1     -38.172   1.190  19.355  1.00  0.00    -0.496 OA
ATOM     17  C   UNL     1     -38.495   2.451  19.931  1.00  0.00     0.278 C 
ENDBRANCH   2  16
TORSDOF 2
ENDMDL
MODEL 5
REMARK VINA RESULT:    -4.970     10.878     12.978
REMARK INTER + INTRA:          -5.810
REMARK INTER:                  -5.568
REMARK INTRA:                  -0.243
REMARK UNBOUND:                -0.259
REMARK SMILES COc1cc2c(cc1C(C)=O)C=CC(C)(C)O2
REMARK SMILES IDX 8 1 3 2 4 3 5 4 6 5 7 6 12 7 13 8 14 9 17 10 15 11 16 12
REMARK SMILES IDX 9 13 10 14 11 15 2 16 1 17
REMARK H PARENT
REMARK Flexibility Score: inf
ROOT
ATOM      1  C   UNL     1     -28.677  -9.133   8.321  1.00  0.00     0.060 A 
ATOM      2  C   UNL     1     -27.362  -9.141   7.790  1.00  0.00     0.133 A 
ATOM      3  C   UNL     1     -26.274  -8.830   8.631  1.00  0.00     0.094 A 
ATOM      4  C   UNL     1     -26.484  -8.498   9.970  1.00  0.00     0.131 A 
ATOM      5  C   UNL     1     -27.775  -8.490  10.496  1.00  0.00     0.017 A 
ATOM      6  C   UNL     1     -28.866  -8.806   9.680  1.00  0.00     0.027 A 
ATOM      7  C   UNL     1     -27.954  -8.193  11.926  1.00  0.00     0.012 C 
ATOM      8  C   UNL     1     -26.914  -7.826  12.681  1.00  0.00     0.021 C 
ATOM      9  C   UNL     1     -25.540  -7.576  12.085  1.00  0.00     0.122 C 
ATOM     10  O   UNL     1     -25.398  -8.195  10.797  1.00  0.00    -0.483 OA
ATOM     11  C   UNL     1     -24.469  -8.154  13.016  1.00  0.00     0.061 C 
ATOM     12  C   UNL     1     -25.334  -6.065  11.926  1.00  0.00     0.061 C 
ENDROOT
BRANCH   1  13
ATOM     13  C   UNL     1     -29.853  -9.473   7.469  1.00  0.00     0.163 C 
ATOM     14  C   UNL     1     -30.510 -10.819   7.535  1.00  0.00     0.093 C 
ATOM     15  O   UNL     1     -30.299  -8.633   6.641  1.00  0.00    -0.294 OA
ENDBRANCH   1  13
BRANCH   2  16
ATOM     16  O   UNL     1     -27.168  -9.448   6.433  1.00  0.00    -0.496 OA
ATOM     17  C   UNL     1     -26.654 -10.683   5.944  1.00  0.00     0.278 C 
ENDBRANCH   2  16
TORSDOF 2
ENDMDL
MODEL 6
REMARK VINA RESULT:    -4.950      9.234     11.988
REMARK INTER + INTRA:          -5.787
REMARK INTER:                  -5.644
REMARK INTRA:                  -0.143
REMARK UNBOUND:                -0.259
REMARK SMILES COc1cc2c(cc1C(C)=O)C=CC(C)(C)O2
REMARK SMILES IDX 8 1 3 2 4 3 5 4 6 5 7 6 12 7 13 8 14 9 17 10 15 11 16 12
REMARK SMILES IDX 9 13 10 14 11 15 2 16 1 17
REMARK H PARENT
REMARK Flexibility Score: inf
ROOT
ATOM      1  C   UNL     1     -25.234  -7.632  12.492  1.00  0.00     0.060 A 
ATOM      2  C   UNL     1     -24.547  -7.708  11.253  1.00  0.00     0.133 A 
ATOM      3  C   UNL     1     -25.278  -7.933  10.069  1.00  0.00     0.094 A 
ATOM      4  C   UNL     1     -26.663  -8.098  10.109  1.00  0.00     0.131 A 
ATOM      5  C   UNL     1     -27.343  -8.022  11.325  1.00  0.00     0.017 A 
ATOM      6  C   UNL     1     -26.636  -7.790  12.509  1.00  0.00     0.027 A 
ATOM      7  C   UNL     1     -28.809  -8.142  11.323  1.00  0.00     0.012 C 
ATOM      8  C   UNL     1     -29.468  -8.432  10.198  1.00  0.00     0.021 C 
ATOM      9  C   UNL     1     -28.741  -8.773   8.909  1.00  0.00     0.122 C 
ATOM     10  O   UNL     1     -27.379  -8.316   8.928  1.00  0.00    -0.483 OA
ATOM     11  C   UNL     1     -29.455  -8.103   7.729  1.00  0.00     0.061 C 
ATOM     12  C   UNL     1     -28.742 -10.295   8.725  1.00  0.00     0.061 C 
ENDROOT
BRANCH   1  13
ATOM     13  C   UNL     1     -24.500  -7.379  13.765  1.00  0.00     0.163 C 
ATOM     14  C   UNL     1     -24.718  -6.129  14.564  1.00  0.00     0.093 C 
ATOM     15  O   UNL     1     -23.644  -8.207  14.178  1.00  0.00    -0.294 OA
ENDBRANCH   1  13
BRANCH   2  16
ATOM     16  O   UNL     1     -23.149  -7.569  11.230  1.00  0.00    -0.496 OA
ATOM     17  C   UNL     1     -22.455  -6.408  10.789  1.00  0.00     0.278 C 
ENDBRANCH   2  16
TORSDOF 2
ENDMDL
MODEL 7
REMARK VINA RESULT:    -4.941      8.521     12.659
REMARK INTER + INTRA:          -5.777
REMARK INTER:                  -5.579
REMARK INTRA:                  -0.198
REMARK UNBOUND:                -0.259
REMARK SMILES COc1cc2c(cc1C(C)=O)C=CC(C)(C)O2
REMARK SMILES IDX 8 1 3 2 4 3 5 4 6 5 7 6 12 7 13 8 14 9 17 10 15 11 16 12
REMARK SMILES IDX 9 13 10 14 11 15 2 16 1 17
REMARK H PARENT
REMARK Flexibility Score: inf
ROOT
ATOM      1  C   UNL     1     -31.607  -0.702  20.283  1.00  0.00     0.060 A 
ATOM      2  C   UNL     1     -32.758  -0.630  21.108  1.00  0.00     0.133 A 
ATOM      3  C   UNL     1     -34.027  -0.472  20.513  1.00  0.00     0.094 A 
ATOM      4  C   UNL     1     -34.154  -0.369  19.128  1.00  0.00     0.131 A 
ATOM      5  C   UNL     1     -33.025  -0.441  18.313  1.00  0.00     0.017 A 
ATOM      6  C   UNL     1     -31.759  -0.609  18.884  1.00  0.00     0.027 A 
ATOM      7  C   UNL     1     -33.202  -0.389  16.854  1.00  0.00     0.012 C 
ATOM      8  C   UNL     1     -34.406  -0.161  16.320  1.00  0.00     0.021 C 
ATOM      9  C   UNL     1     -35.611   0.177  17.180  1.00  0.00     0.122 C 
ATOM     10  O   UNL     1     -35.418  -0.217  18.548  1.00  0.00    -0.483 OA
ATOM     11  C   UNL     1     -36.844  -0.557  16.639  1.00  0.00     0.061 C 
ATOM     12  C   UNL     1     -35.844   1.692  17.137  1.00  0.00     0.061 C 
ENDROOT
BRANCH   1  13
ATOM     13  C   UNL     1     -30.250  -0.886  20.871  1.00  0.00     0.163 C 
ATOM     14  C   UNL     1     -29.485  -2.165  20.702  1.00  0.00     0.093 C 
ATOM     15  O   UNL     1     -29.729   0.031  21.563  1.00  0.00    -0.294 OA
ENDBRANCH   1  13
BRANCH   2  16
ATOM     16  O   UNL     1     -32.614  -0.705  22.503  1.00  0.00    -0.496 OA
ATOM     17  C   UNL     1     -32.899   0.356  23.408  1.00  0.00     0.278 C 
ENDBRANCH   2  16
TORSDOF 2
ENDMDL
MODEL 8
REMARK VINA RESULT:    -4.833      6.425     10.341
REMARK INTER + INTRA:          -5.657
REMARK INTER:                  -5.382
REMARK INTRA:                  -0.275
REMARK UNBOUND:                -0.259
REMARK SMILES COc1cc2c(cc1C(C)=O)C=CC(C)(C)O2
REMARK SMILES IDX 8 1 3 2 4 3 5 4 6 5 7 6 12 7 13 8 14 9 17 10 15 11 16 12
REMARK SMILES IDX 9 13 10 14 11 15 2 16 1 17
REMARK H PARENT
REMARK Flexibility Score: inf
ROOT
ATOM      1  C   UNL     1     -24.777  -2.630  18.192  1.00  0.00     0.060 A 
ATOM      2  C   UNL     1     -23.659  -2.525  19.057  1.00  0.00     0.133 A 
ATOM      3  C   UNL     1     -22.747  -1.464  18.884  1.00  0.00     0.094 A 
ATOM      4  C   UNL     1     -22.928  -0.532  17.862  1.00  0.00     0.131 A 
ATOM      5  C   UNL     1     -24.027  -0.631  17.009  1.00  0.00     0.017 A 
ATOM      6  C   UNL     1     -24.948  -1.670  17.172  1.00  0.00     0.027 A 
ATOM      7  C   UNL     1     -24.219   0.403  15.980  1.00  0.00     0.012 C 
ATOM      8  C   UNL     1     -23.298   1.353  15.788  1.00  0.00     0.021 C 
ATOM      9  C   UNL     1     -21.970   1.341  16.524  1.00  0.00     0.122 C 
ATOM     10  O   UNL     1     -22.020   0.519  17.701  1.00  0.00    -0.483 OA
ATOM     11  C   UNL     1     -21.611   2.769  16.950  1.00  0.00     0.061 C 
ATOM     12  C   UNL     1     -20.888   0.787  15.588  1.00  0.00     0.061 C 
ENDROOT
BRANCH   1  13
ATOM     13  C   UNL     1     -25.774  -3.728  18.352  1.00  0.00     0.163 C 
ATOM     14  C   UNL     1     -27.014  -3.551  19.176  1.00  0.00     0.093 C 
ATOM     15  O   UNL     1     -25.570  -4.852  17.819  1.00  0.00    -0.294 OA
ENDBRANCH   1  13
BRANCH   2  16
ATOM     16  O   UNL     1     -23.473  -3.487  20.064  1.00  0.00    -0.496 OA
ATOM     17  C   UNL     1     -23.689  -3.263  21.453  1.00  0.00     0.278 C 
ENDBRANCH   2  16
TORSDOF 2
ENDMDL
MODEL 9
REMARK VINA RESULT:    -4.778      1.742      5.928
REMARK INTER + INTRA:          -5.596
REMARK INTER:                  -5.366
REMARK INTRA:                  -0.230
REMARK UNBOUND:                -0.259
REMARK SMILES COc1cc2c(cc1C(C)=O)C=CC(C)(C)O2
REMARK SMILES IDX 8 1 3 2 4 3 5 4 6 5 7 6 12 7 13 8 14 9 17 10 15 11 16 12
REMARK SMILES IDX 9 13 10 14 11 15 2 16 1 17
REMARK H PARENT
REMARK Flexibility Score: inf
ROOT
ATOM      1  C   UNL     1     -25.344  -9.056  22.325  1.00  0.00     0.060 A 
ATOM      2  C   UNL     1     -26.568  -9.241  21.633  1.00  0.00     0.133 A 
ATOM      3  C   UNL     1     -26.951  -8.313  20.643  1.00  0.00     0.094 A 
ATOM      4  C   UNL     1     -26.146  -7.211  20.354  1.00  0.00     0.131 A 
ATOM      5  C   UNL     1     -24.940  -7.026  21.031  1.00  0.00     0.017 A 
ATOM      6  C   UNL     1     -24.539  -7.942  22.008  1.00  0.00     0.027 A 
ATOM      7  C   UNL     1     -24.088  -5.887  20.658  1.00  0.00     0.012 C 
ATOM      8  C   UNL     1     -24.511  -4.979  19.772  1.00  0.00     0.021 C 
ATOM      9  C   UNL     1     -25.920  -5.009  19.207  1.00  0.00     0.122 C 
ATOM     10  O   UNL     1     -26.532  -6.298  19.367  1.00  0.00    -0.483 OA
ATOM     11  C   UNL     1     -25.876  -4.681  17.711  1.00  0.00     0.061 C 
ATOM     12  C   UNL     1     -26.773  -3.969  19.945  1.00  0.00     0.061 C 
ENDROOT
BRANCH   1  13
ATOM     13  C   UNL     1     -24.895 -10.024  23.366  1.00  0.00     0.163 C 
ATOM     14  C   UNL     1     -24.147 -11.273  23.010  1.00  0.00     0.093 C 
ATOM     15  O   UNL     1     -25.173  -9.823  24.580  1.00  0.00    -0.294 OA
ENDBRANCH   1  13
BRANCH   2  16
ATOM     16  O   UNL     1     -27.384 -10.339  21.955  1.00  0.00    -0.496 OA
ATOM     17  C   UNL     1     -28.700 -10.548  21.454  1.00  0.00     0.278 C 
ENDBRANCH   2  16
TORSDOF 2
ENDMDL
