MODEL 1
REMARK VINA RESULT:    -6.654      0.000      0.000
REMARK INTER + INTRA:          -8.379
REMARK INTER:                  -8.016
REMARK INTRA:                  -0.363
REMARK UNBOUND:                -0.363
REMARK SMILES O=c1c(O)c(-c2ccc(O)cc2O)oc2cc(O)cc(O)c12
REMARK SMILES IDX 5 1 3 2 2 3 1 4 22 5 20 6 19 7 17 8 16 9 15 10 14 11 6 12
REMARK SMILES IDX 8 13 7 14 9 15 11 16 12 17 10 18 13 20 4 22 21 24 18 26
REMARK H PARENT 10 19 13 21 4 23 21 25 18 27
REMARK Flexibility Score: inf
ROOT
ATOM      1  C   UNL     1      -5.848 -22.091  34.786  1.00  0.00     0.184 A 
ATOM      2  C   UNL     1      -6.747 -21.199  35.388  1.00  0.00     0.208 A 
ATOM      3  C   UNL     1      -6.499 -19.820  35.300  1.00  0.00     0.238 A 
ATOM      4  O   UNL     1      -7.276 -19.028  35.895  1.00  0.00    -0.285 OA
ATOM      5  C   UNL     1      -5.370 -19.353  34.585  1.00  0.00     0.111 A 
ATOM      6  C   UNL     1      -5.042 -17.976  34.398  1.00  0.00     0.134 A 
ATOM      7  C   UNL     1      -3.834 -17.632  33.777  1.00  0.00     0.093 A 
ATOM      8  C   UNL     1      -2.974 -18.615  33.280  1.00  0.00     0.123 A 
ATOM      9  C   UNL     1      -3.313 -19.960  33.407  1.00  0.00     0.094 A 
ATOM     10  C   UNL     1      -4.493 -20.335  34.054  1.00  0.00     0.146 A 
ATOM     11  O   UNL     1      -4.771 -21.629  34.165  1.00  0.00    -0.451 OA
ENDROOT
BRANCH   1  12
ATOM     12  C   UNL     1      -6.072 -23.553  34.826  1.00  0.00     0.063 A 
ATOM     13  C   UNL     1      -6.187 -25.610  36.122  1.00  0.00     0.047 A 
ATOM     14  C   UNL     1      -5.928 -24.239  36.044  1.00  0.00     0.020 A 
ATOM     15  C   UNL     1      -6.601 -26.312  34.985  1.00  0.00     0.119 A 
ATOM     16  C   UNL     1      -6.750 -25.638  33.769  1.00  0.00     0.093 A 
ATOM     17  C   UNL     1      -6.484 -24.267  33.676  1.00  0.00     0.130 A 
BRANCH  15  18
ATOM     18  O   UNL     1      -6.868 -27.678  35.052  1.00  0.00    -0.508 OA
ATOM     19  H   UNL     1      -7.010 -28.147  35.938  1.00  0.00     0.293 HD
ENDBRANCH  15  18
BRANCH  17  20
ATOM     20  O   UNL     1      -6.614 -23.653  32.428  1.00  0.00    -0.507 OA
ATOM     21  H   UNL     1      -5.889 -23.678  31.723  1.00  0.00     0.293 HD
ENDBRANCH  17  20
ENDBRANCH   1  12
BRANCH   2  22
ATOM     22  O   UNL     1      -7.856 -21.688  36.085  1.00  0.00    -0.502 OA
ATOM     23  H   UNL     1      -8.078 -22.675  36.128  1.00  0.00     0.293 HD
ENDBRANCH   2  22
BRANCH   6  24
ATOM     24  O   UNL     1      -5.872 -16.917  34.774  1.00  0.00    -0.507 OA
ATOM     25  H   UNL     1      -6.565 -16.960  35.507  1.00  0.00     0.293 HD
ENDBRANCH   6  24
BRANCH   8  26
ATOM     26  O   UNL     1      -1.782 -18.263  32.650  1.00  0.00    -0.508 OA
ATOM     27  H   UNL     1      -1.182 -17.535  33.019  1.00  0.00     0.293 HD
ENDBRANCH   8  26
TORSDOF 6
ENDMDL
MODEL 2
REMARK VINA RESULT:    -6.205      1.636      6.870
REMARK INTER + INTRA:          -7.837
REMARK INTER:                  -7.528
REMARK INTRA:                  -0.310
REMARK UNBOUND:                -0.363
REMARK SMILES O=c1c(O)c(-c2ccc(O)cc2O)oc2cc(O)cc(O)c12
REMARK SMILES IDX 5 1 3 2 2 3 1 4 22 5 20 6 19 7 17 8 16 9 15 10 14 11 6 12
REMARK SMILES IDX 8 13 7 14 9 15 11 16 12 17 10 18 13 20 4 22 21 24 18 26
REMARK H PARENT 10 19 13 21 4 23 21 25 18 27
REMARK Flexibility Score: inf
ROOT
ATOM      1  C   UNL     1      -6.466 -22.281  34.550  1.00  0.00     0.184 A 
ATOM      2  C   UNL     1      -6.839 -22.656  33.251  1.00  0.00     0.208 A 
ATOM      3  C   UNL     1      -7.009 -24.018  32.957  1.00  0.00     0.238 A 
ATOM      4  O   UNL     1      -7.283 -24.352  31.775  1.00  0.00    -0.285 OA
ATOM      5  C   UNL     1      -6.831 -24.984  33.977  1.00  0.00     0.111 A 
ATOM      6  C   UNL     1      -7.016 -26.390  33.803  1.00  0.00     0.134 A 
ATOM      7  C   UNL     1      -6.693 -27.263  34.850  1.00  0.00     0.093 A 
ATOM      8  C   UNL     1      -6.255 -26.777  36.085  1.00  0.00     0.123 A 
ATOM      9  C   UNL     1      -6.127 -25.404  36.283  1.00  0.00     0.094 A 
ATOM     10  C   UNL     1      -6.406 -24.510  35.246  1.00  0.00     0.146 A 
ATOM     11  O   UNL     1      -6.257 -23.211  35.473  1.00  0.00    -0.451 OA
ENDROOT
BRANCH   1  12
ATOM     12  C   UNL     1      -6.296 -20.860  34.922  1.00  0.00     0.063 A 
ATOM     13  C   UNL     1      -6.992 -18.961  36.276  1.00  0.00     0.047 A 
ATOM     14  C   UNL     1      -7.165 -20.286  35.866  1.00  0.00     0.020 A 
ATOM     15  C   UNL     1      -5.945 -18.195  35.754  1.00  0.00     0.119 A 
ATOM     16  C   UNL     1      -5.074 -18.757  34.816  1.00  0.00     0.093 A 
ATOM     17  C   UNL     1      -5.242 -20.080  34.389  1.00  0.00     0.130 A 
BRANCH  15  18
ATOM     18  O   UNL     1      -5.760 -16.875  36.160  1.00  0.00    -0.508 OA
ATOM     19  H   UNL     1      -6.253 -16.492  36.958  1.00  0.00     0.293 HD
ENDBRANCH  15  18
BRANCH  17  20
ATOM     20  O   UNL     1      -4.365 -20.577  33.423  1.00  0.00    -0.507 OA
ATOM     21  H   UNL     1      -3.476 -20.145  33.210  1.00  0.00     0.293 HD
ENDBRANCH  17  20
ENDBRANCH   1  12
BRANCH   2  22
ATOM     22  O   UNL     1      -7.011 -21.680  32.264  1.00  0.00    -0.502 OA
ATOM     23  H   UNL     1      -7.325 -20.742  32.478  1.00  0.00     0.293 HD
ENDBRANCH   2  22
BRANCH   6  24
ATOM     24  O   UNL     1      -7.534 -26.972  32.643  1.00  0.00    -0.507 OA
ATOM     25  H   UNL     1      -7.905 -27.908  32.585  1.00  0.00     0.293 HD
ENDBRANCH   6  24
BRANCH   8  26
ATOM     26  O   UNL     1      -5.951 -27.653  37.125  1.00  0.00    -0.508 OA
ATOM     27  H   UNL     1      -5.746 -28.630  36.953  1.00  0.00     0.293 HD
ENDBRANCH   8  26
TORSDOF 6
ENDMDL
MODEL 3
REMARK VINA RESULT:    -6.183      2.168      3.067
REMARK INTER + INTRA:          -7.811
REMARK INTER:                  -7.395
REMARK INTRA:                  -0.416
REMARK UNBOUND:                -0.363
REMARK SMILES O=c1c(O)c(-c2ccc(O)cc2O)oc2cc(O)cc(O)c12
REMARK SMILES IDX 5 1 3 2 2 3 1 4 22 5 20 6 19 7 17 8 16 9 15 10 14 11 6 12
REMARK SMILES IDX 8 13 7 14 9 15 11 16 12 17 10 18 13 20 4 22 21 24 18 26
REMARK H PARENT 10 19 13 21 4 23 21 25 18 27
REMARK Flexibility Score: inf
ROOT
ATOM      1  C   UNL     1      -6.649 -23.700  34.969  1.00  0.00     0.184 A 
ATOM      2  C   UNL     1      -7.103 -22.762  34.030  1.00  0.00     0.208 A 
ATOM      3  C   UNL     1      -6.376 -21.576  33.845  1.00  0.00     0.238 A 
ATOM      4  O   UNL     1      -6.822 -20.712  33.047  1.00  0.00    -0.285 OA
ATOM      5  C   UNL     1      -5.186 -21.359  34.582  1.00  0.00     0.111 A 
ATOM      6  C   UNL     1      -4.347 -20.211  34.448  1.00  0.00     0.134 A 
ATOM      7  C   UNL     1      -3.260 -20.045  35.316  1.00  0.00     0.093 A 
ATOM      8  C   UNL     1      -2.946 -21.015  36.270  1.00  0.00     0.123 A 
ATOM      9  C   UNL     1      -3.724 -22.166  36.371  1.00  0.00     0.094 A 
ATOM     10  C   UNL     1      -4.836 -22.343  35.543  1.00  0.00     0.146 A 
ATOM     11  O   UNL     1      -5.559 -23.448  35.682  1.00  0.00    -0.451 OA
ENDROOT
BRANCH   1  12
ATOM     12  C   UNL     1      -7.362 -24.977  35.188  1.00  0.00     0.063 A 
ATOM     13  C   UNL     1      -7.585 -27.351  34.701  1.00  0.00     0.047 A 
ATOM     14  C   UNL     1      -6.965 -26.120  34.473  1.00  0.00     0.020 A 
ATOM     15  C   UNL     1      -8.604 -27.458  35.653  1.00  0.00     0.119 A 
ATOM     16  C   UNL     1      -9.005 -26.328  36.371  1.00  0.00     0.093 A 
ATOM     17  C   UNL     1      -8.399 -25.086  36.144  1.00  0.00     0.130 A 
BRANCH  15  18
ATOM     18  O   UNL     1      -9.226 -28.682  35.892  1.00  0.00    -0.508 OA
ATOM     19  H   UNL     1      -9.273 -29.401  35.180  1.00  0.00     0.293 HD
ENDBRANCH  15  18
BRANCH  17  20
ATOM     20  O   UNL     1      -8.865 -23.984  36.865  1.00  0.00    -0.507 OA
ATOM     21  H   UNL     1      -8.254 -23.267  37.232  1.00  0.00     0.293 HD
ENDBRANCH  17  20
ENDBRANCH   1  12
BRANCH   2  22
ATOM     22  O   UNL     1      -8.279 -23.005  33.314  1.00  0.00    -0.502 OA
ATOM     23  H   UNL     1      -9.069 -23.494  33.716  1.00  0.00     0.293 HD
ENDBRANCH   2  22
BRANCH   6  24
ATOM     24  O   UNL     1      -4.519 -19.228  33.469  1.00  0.00    -0.507 OA
ATOM     25  H   UNL     1      -4.080 -19.236  32.561  1.00  0.00     0.293 HD
ENDBRANCH   6  24
BRANCH   8  26
ATOM     26  O   UNL     1      -1.854 -20.848  37.119  1.00  0.00    -0.508 OA
ATOM     27  H   UNL     1      -0.911 -21.072  36.822  1.00  0.00     0.293 HD
ENDBRANCH   8  26
TORSDOF 6
ENDMDL
MODEL 4
REMARK VINA RESULT:    -6.062      1.652      6.366
REMARK INTER + INTRA:          -7.666
REMARK INTER:                  -7.321
REMARK INTRA:                  -0.344
REMARK UNBOUND:                -0.363
REMARK SMILES O=c1c(O)c(-c2ccc(O)cc2O)oc2cc(O)cc(O)c12
REMARK SMILES IDX 5 1 3 2 2 3 1 4 22 5 20 6 19 7 17 8 16 9 15 10 14 11 6 12
REMARK SMILES IDX 8 13 7 14 9 15 11 16 12 17 10 18 13 20 4 22 21 24 18 26
REMARK H PARENT 10 19 13 21 4 23 21 25 18 27
REMARK Flexibility Score: inf
ROOT
ATOM      1  C   UNL     1      -4.901 -20.949  34.942  1.00  0.00     0.184 A 
ATOM      2  C   UNL     1      -6.249 -20.568  34.870  1.00  0.00     0.208 A 
ATOM      3  C   UNL     1      -7.242 -21.552  35.002  1.00  0.00     0.238 A 
ATOM      4  O   UNL     1      -8.448 -21.213  34.875  1.00  0.00    -0.285 OA
ATOM      5  C   UNL     1      -6.872 -22.898  35.233  1.00  0.00     0.111 A 
ATOM      6  C   UNL     1      -7.794 -23.972  35.421  1.00  0.00     0.134 A 
ATOM      7  C   UNL     1      -7.315 -25.285  35.521  1.00  0.00     0.093 A 
ATOM      8  C   UNL     1      -5.944 -25.555  35.503  1.00  0.00     0.123 A 
ATOM      9  C   UNL     1      -5.034 -24.508  35.378  1.00  0.00     0.094 A 
ATOM     10  C   UNL     1      -5.483 -23.192  35.240  1.00  0.00     0.146 A 
ATOM     11  O   UNL     1      -4.581 -22.226  35.109  1.00  0.00    -0.451 OA
ENDROOT
BRANCH   1  12
ATOM     12  C   UNL     1      -3.813 -19.953  34.834  1.00  0.00     0.063 A 
ATOM     13  C   UNL     1      -1.962 -18.766  35.876  1.00  0.00     0.047 A 
ATOM     14  C   UNL     1      -3.030 -19.662  35.965  1.00  0.00     0.020 A 
ATOM     15  C   UNL     1      -1.656 -18.155  34.656  1.00  0.00     0.119 A 
ATOM     16  C   UNL     1      -2.427 -18.440  33.525  1.00  0.00     0.093 A 
ATOM     17  C   UNL     1      -3.507 -19.327  33.602  1.00  0.00     0.130 A 
BRANCH  15  18
ATOM     18  O   UNL     1      -0.589 -17.264  34.555  1.00  0.00    -0.508 OA
ATOM     19  H   UNL     1       0.334 -17.573  34.277  1.00  0.00     0.293 HD
ENDBRANCH  15  18
BRANCH  17  20
ATOM     20  O   UNL     1      -4.265 -19.546  32.449  1.00  0.00    -0.507 OA
ATOM     21  H   UNL     1      -4.406 -18.839  31.740  1.00  0.00     0.293 HD
ENDBRANCH  17  20
ENDBRANCH   1  12
BRANCH   2  22
ATOM     22  O   UNL     1      -6.586 -19.230  34.645  1.00  0.00    -0.502 OA
ATOM     23  H   UNL     1      -7.471 -18.954  34.239  1.00  0.00     0.293 HD
ENDBRANCH   2  22
BRANCH   6  24
ATOM     24  O   UNL     1      -9.176 -23.802  35.544  1.00  0.00    -0.507 OA
ATOM     25  H   UNL     1      -9.625 -23.199  36.216  1.00  0.00     0.293 HD
ENDBRANCH   6  24
BRANCH   8  26
ATOM     26  O   UNL     1      -5.477 -26.862  35.618  1.00  0.00    -0.508 OA
ATOM     27  H   UNL     1      -4.825 -27.254  34.948  1.00  0.00     0.293 HD
ENDBRANCH   8  26
TORSDOF 6
ENDMDL
MODEL 5
REMARK VINA RESULT:    -5.694      1.805      3.208
REMARK INTER + INTRA:          -7.223
REMARK INTER:                  -7.008
REMARK INTRA:                  -0.215
REMARK UNBOUND:                -0.363
REMARK SMILES O=c1c(O)c(-c2ccc(O)cc2O)oc2cc(O)cc(O)c12
REMARK SMILES IDX 5 1 3 2 2 3 1 4 22 5 20 6 19 7 17 8 16 9 15 10 14 11 6 12
REMARK SMILES IDX 8 13 7 14 9 15 11 16 12 17 10 18 13 20 4 22 21 24 18 26
REMARK H PARENT 10 19 13 21 4 23 21 25 18 27
REMARK Flexibility Score: inf
ROOT
ATOM      1  C   UNL     1      -6.348 -22.653  35.542  1.00  0.00     0.184 A 
ATOM      2  C   UNL     1      -5.190 -22.512  34.763  1.00  0.00     0.208 A 
ATOM      3  C   UNL     1      -4.712 -21.223  34.482  1.00  0.00     0.238 A 
ATOM      4  O   UNL     1      -3.709 -21.102  33.731  1.00  0.00    -0.285 OA
ATOM      5  C   UNL     1      -5.383 -20.094  35.009  1.00  0.00     0.111 A 
ATOM      6  C   UNL     1      -4.964 -18.741  34.821  1.00  0.00     0.134 A 
ATOM      7  C   UNL     1      -5.774 -17.697  35.288  1.00  0.00     0.093 A 
ATOM      8  C   UNL     1      -6.953 -17.958  35.990  1.00  0.00     0.123 A 
ATOM      9  C   UNL     1      -7.340 -19.274  36.228  1.00  0.00     0.094 A 
ATOM     10  C   UNL     1      -6.573 -20.337  35.744  1.00  0.00     0.146 A 
ATOM     11  O   UNL     1      -6.985 -21.576  35.982  1.00  0.00    -0.451 OA
ENDROOT
BRANCH   1  12
ATOM     12  C   UNL     1      -6.884 -23.987  35.890  1.00  0.00     0.063 A 
ATOM     13  C   UNL     1      -6.521 -26.195  36.848  1.00  0.00     0.047 A 
ATOM     14  C   UNL     1      -6.028 -24.947  36.459  1.00  0.00     0.020 A 
ATOM     15  C   UNL     1      -7.876 -26.499  36.680  1.00  0.00     0.119 A 
ATOM     16  C   UNL     1      -8.735 -25.551  36.118  1.00  0.00     0.093 A 
ATOM     17  C   UNL     1      -8.252 -24.300  35.714  1.00  0.00     0.130 A 
BRANCH  15  18
ATOM     18  O   UNL     1      -8.379 -27.739  37.070  1.00  0.00    -0.508 OA
ATOM     19  H   UNL     1      -9.307 -28.042  36.800  1.00  0.00     0.293 HD
ENDBRANCH  15  18
BRANCH  17  20
ATOM     20  O   UNL     1      -9.149 -23.406  35.124  1.00  0.00    -0.507 OA
ATOM     21  H   UNL     1      -9.581 -23.571  34.225  1.00  0.00     0.293 HD
ENDBRANCH  17  20
ENDBRANCH   1  12
BRANCH   2  22
ATOM     22  O   UNL     1      -4.546 -23.646  34.258  1.00  0.00    -0.502 OA
ATOM     23  H   UNL     1      -5.036 -24.512  34.073  1.00  0.00     0.293 HD
ENDBRANCH   2  22
BRANCH   6  24
ATOM     24  O   UNL     1      -3.760 -18.373  34.215  1.00  0.00    -0.507 OA
ATOM     25  H   UNL     1      -3.470 -18.658  33.291  1.00  0.00     0.293 HD
ENDBRANCH   6  24
BRANCH   8  26
ATOM     26  O   UNL     1      -7.744 -16.913  36.462  1.00  0.00    -0.508 OA
ATOM     27  H   UNL     1      -8.367 -17.034  37.252  1.00  0.00     0.293 HD
ENDBRANCH   8  26
TORSDOF 6
ENDMDL
MODEL 6
REMARK VINA RESULT:    -5.688      1.918      6.884
REMARK INTER + INTRA:          -7.216
REMARK INTER:                  -6.819
REMARK INTRA:                  -0.397
REMARK UNBOUND:                -0.363
REMARK SMILES O=c1c(O)c(-c2ccc(O)cc2O)oc2cc(O)cc(O)c12
REMARK SMILES IDX 5 1 3 2 2 3 1 4 22 5 20 6 19 7 17 8 16 9 15 10 14 11 6 12
REMARK SMILES IDX 8 13 7 14 9 15 11 16 12 17 10 18 13 20 4 22 21 24 18 26
REMARK H PARENT 10 19 13 21 4 23 21 25 18 27
REMARK Flexibility Score: inf
ROOT
ATOM      1  C   UNL     1      -6.516 -22.993  35.096  1.00  0.00     0.184 A 
ATOM      2  C   UNL     1      -7.516 -22.958  36.078  1.00  0.00     0.208 A 
ATOM      3  C   UNL     1      -8.310 -24.098  36.282  1.00  0.00     0.238 A 
ATOM      4  O   UNL     1      -9.246 -24.040  37.121  1.00  0.00    -0.285 OA
ATOM      5  C   UNL     1      -8.072 -25.266  35.518  1.00  0.00     0.111 A 
ATOM      6  C   UNL     1      -8.789 -26.492  35.667  1.00  0.00     0.134 A 
ATOM      7  C   UNL     1      -8.550 -27.544  34.773  1.00  0.00     0.093 A 
ATOM      8  C   UNL     1      -7.575 -27.437  33.778  1.00  0.00     0.123 A 
ATOM      9  C   UNL     1      -6.830 -26.266  33.662  1.00  0.00     0.094 A 
ATOM     10  C   UNL     1      -7.071 -25.186  34.515  1.00  0.00     0.146 A 
ATOM     11  O   UNL     1      -6.347 -24.084  34.360  1.00  0.00    -0.451 OA
ENDROOT
BRANCH   1  12
ATOM     12  C   UNL     1      -5.633 -21.830  34.855  1.00  0.00     0.063 A 
ATOM     13  C   UNL     1      -5.253 -19.694  33.751  1.00  0.00     0.047 A 
ATOM     14  C   UNL     1      -6.041 -20.830  33.955  1.00  0.00     0.020 A 
ATOM     15  C   UNL     1      -4.050 -19.540  34.449  1.00  0.00     0.119 A 
ATOM     16  C   UNL     1      -3.637 -20.527  35.347  1.00  0.00     0.093 A 
ATOM     17  C   UNL     1      -4.413 -21.675  35.553  1.00  0.00     0.130 A 
BRANCH  15  18
ATOM     18  O   UNL     1      -3.259 -18.409  34.257  1.00  0.00    -0.508 OA
ATOM     19  H   UNL     1      -2.249 -18.470  34.215  1.00  0.00     0.293 HD
ENDBRANCH  15  18
BRANCH  17  20
ATOM     20  O   UNL     1      -3.932 -22.646  36.435  1.00  0.00    -0.507 OA
ATOM     21  H   UNL     1      -4.503 -23.066  37.156  1.00  0.00     0.293 HD
ENDBRANCH  17  20
ENDBRANCH   1  12
BRANCH   2  22
ATOM     22  O   UNL     1      -7.726 -21.792  36.820  1.00  0.00    -0.502 OA
ATOM     23  H   UNL     1      -7.132 -20.977  36.731  1.00  0.00     0.293 HD
ENDBRANCH   2  22
BRANCH   6  24
ATOM     24  O   UNL     1      -9.718 -26.735  36.682  1.00  0.00    -0.507 OA
ATOM     25  H   UNL     1      -9.968 -26.076  37.404  1.00  0.00     0.293 HD
ENDBRANCH   6  24
BRANCH   8  26
ATOM     26  O   UNL     1      -7.334 -28.495  32.904  1.00  0.00    -0.508 OA
ATOM     27  H   UNL     1      -6.715 -29.258  33.152  1.00  0.00     0.293 HD
ENDBRANCH   8  26
TORSDOF 6
ENDMDL
MODEL 7
REMARK VINA RESULT:    -5.559      2.187      2.879
REMARK INTER + INTRA:          -7.060
REMARK INTER:                  -6.774
REMARK INTRA:                  -0.286
REMARK UNBOUND:                -0.363
REMARK SMILES O=c1c(O)c(-c2ccc(O)cc2O)oc2cc(O)cc(O)c12
REMARK SMILES IDX 5 1 3 2 2 3 1 4 22 5 20 6 19 7 17 8 16 9 15 10 14 11 6 12
REMARK SMILES IDX 8 13 7 14 9 15 11 16 12 17 10 18 13 20 4 22 21 24 18 26
REMARK H PARENT 10 19 13 21 4 23 21 25 18 27
REMARK Flexibility Score: inf
ROOT
ATOM      1  C   UNL     1      -4.907 -21.396  34.867  1.00  0.00     0.184 A 
ATOM      2  C   UNL     1      -5.109 -20.521  33.789  1.00  0.00     0.208 A 
ATOM      3  C   UNL     1      -4.160 -19.517  33.541  1.00  0.00     0.238 A 
ATOM      4  O   UNL     1      -4.377 -18.698  32.610  1.00  0.00    -0.285 OA
ATOM      5  C   UNL     1      -3.008 -19.421  34.358  1.00  0.00     0.111 A 
ATOM      6  C   UNL     1      -1.961 -18.467  34.174  1.00  0.00     0.134 A 
ATOM      7  C   UNL     1      -0.928 -18.386  35.117  1.00  0.00     0.093 A 
ATOM      8  C   UNL     1      -0.871 -19.265  36.201  1.00  0.00     0.123 A 
ATOM      9  C   UNL     1      -1.856 -20.237  36.357  1.00  0.00     0.094 A 
ATOM     10  C   UNL     1      -2.919 -20.319  35.453  1.00  0.00     0.146 A 
ATOM     11  O   UNL     1      -3.844 -21.252  35.647  1.00  0.00    -0.451 OA
ENDROOT
BRANCH   1  12
ATOM     12  C   UNL     1      -5.861 -22.487  35.161  1.00  0.00     0.063 A 
ATOM     13  C   UNL     1      -7.601 -23.408  36.594  1.00  0.00     0.047 A 
ATOM     14  C   UNL     1      -6.653 -22.418  36.321  1.00  0.00     0.020 A 
ATOM     15  C   UNL     1      -7.776 -24.476  35.707  1.00  0.00     0.119 A 
ATOM     16  C   UNL     1      -6.996 -24.552  34.550  1.00  0.00     0.093 A 
ATOM     17  C   UNL     1      -6.035 -23.573  34.270  1.00  0.00     0.130 A 
BRANCH  15  18
ATOM     18  O   UNL     1      -8.722 -25.465  35.967  1.00  0.00    -0.508 OA
ATOM     19  H   UNL     1      -9.528 -25.287  36.554  1.00  0.00     0.293 HD
ENDBRANCH  15  18
BRANCH  17  20
ATOM     20  O   UNL     1      -5.259 -23.721  33.118  1.00  0.00    -0.507 OA
ATOM     21  H   UNL     1      -4.779 -22.950  32.675  1.00  0.00     0.293 HD
ENDBRANCH  17  20
ENDBRANCH   1  12
BRANCH   2  22
ATOM     22  O   UNL     1      -6.254 -20.642  32.996  1.00  0.00    -0.502 OA
ATOM     23  H   UNL     1      -6.731 -21.525  32.862  1.00  0.00     0.293 HD
ENDBRANCH   2  22
BRANCH   6  24
ATOM     24  O   UNL     1      -1.874 -17.604  33.078  1.00  0.00    -0.507 OA
ATOM     25  H   UNL     1      -2.494 -17.619  32.282  1.00  0.00     0.293 HD
ENDBRANCH   6  24
BRANCH   8  26
ATOM     26  O   UNL     1       0.169 -19.186  37.125  1.00  0.00    -0.508 OA
ATOM     27  H   UNL     1       1.134 -19.092  36.832  1.00  0.00     0.293 HD
ENDBRANCH   8  26
TORSDOF 6
ENDMDL
MODEL 8
REMARK VINA RESULT:    -5.512      1.996      7.162
REMARK INTER + INTRA:          -7.003
REMARK INTER:                  -6.743
REMARK INTRA:                  -0.260
REMARK UNBOUND:                -0.363
REMARK SMILES O=c1c(O)c(-c2ccc(O)cc2O)oc2cc(O)cc(O)c12
REMARK SMILES IDX 5 1 3 2 2 3 1 4 22 5 20 6 19 7 17 8 16 9 15 10 14 11 6 12
REMARK SMILES IDX 8 13 7 14 9 15 11 16 12 17 10 18 13 20 4 22 21 24 18 26
REMARK H PARENT 10 19 13 21 4 23 21 25 18 27
REMARK Flexibility Score: inf
ROOT
ATOM      1  C   UNL     1      -6.273 -22.340  35.180  1.00  0.00     0.184 A 
ATOM      2  C   UNL     1      -5.594 -23.023  34.160  1.00  0.00     0.208 A 
ATOM      3  C   UNL     1      -5.944 -24.354  33.882  1.00  0.00     0.238 A 
ATOM      4  O   UNL     1      -5.290 -24.981  33.009  1.00  0.00    -0.285 OA
ATOM      5  C   UNL     1      -6.990 -24.972  34.609  1.00  0.00     0.111 A 
ATOM      6  C   UNL     1      -7.455 -26.304  34.386  1.00  0.00     0.134 A 
ATOM      7  C   UNL     1      -8.414 -26.854  35.247  1.00  0.00     0.093 A 
ATOM      8  C   UNL     1      -8.969 -26.099  36.283  1.00  0.00     0.123 A 
ATOM      9  C   UNL     1      -8.563 -24.780  36.473  1.00  0.00     0.094 A 
ATOM     10  C   UNL     1      -7.583 -24.216  35.654  1.00  0.00     0.146 A 
ATOM     11  O   UNL     1      -7.215 -22.960  35.879  1.00  0.00    -0.451 OA
ENDROOT
BRANCH   1  12
ATOM     12  C   UNL     1      -5.963 -20.930  35.499  1.00  0.00     0.063 A 
ATOM     13  C   UNL     1      -4.319 -19.243  36.114  1.00  0.00     0.047 A 
ATOM     14  C   UNL     1      -4.651 -20.577  35.860  1.00  0.00     0.020 A 
ATOM     15  C   UNL     1      -5.291 -18.244  36.002  1.00  0.00     0.119 A 
ATOM     16  C   UNL     1      -6.598 -18.584  35.642  1.00  0.00     0.093 A 
ATOM     17  C   UNL     1      -6.947 -19.918  35.396  1.00  0.00     0.130 A 
BRANCH  15  18
ATOM     18  O   UNL     1      -4.969 -16.911  36.247  1.00  0.00    -0.508 OA
ATOM     19  H   UNL     1      -4.502 -16.342  35.551  1.00  0.00     0.293 HD
ENDBRANCH  15  18
BRANCH  17  20
ATOM     20  O   UNL     1      -8.276 -20.203  35.075  1.00  0.00    -0.507 OA
ATOM     21  H   UNL     1      -8.564 -20.541  34.167  1.00  0.00     0.293 HD
ENDBRANCH  17  20
ENDBRANCH   1  12
BRANCH   2  22
ATOM     22  O   UNL     1      -4.568 -22.386  33.456  1.00  0.00    -0.502 OA
ATOM     23  H   UNL     1      -3.691 -22.843  33.242  1.00  0.00     0.293 HD
ENDBRANCH   2  22
BRANCH   6  24
ATOM     24  O   UNL     1      -7.034 -27.111  33.325  1.00  0.00    -0.507 OA
ATOM     25  H   UNL     1      -6.235 -27.727  33.352  1.00  0.00     0.293 HD
ENDBRANCH   6  24
BRANCH   8  26
ATOM     26  O   UNL     1      -9.933 -26.650  37.125  1.00  0.00    -0.508 OA
ATOM     27  H   UNL     1     -10.922 -26.577  36.919  1.00  0.00     0.293 HD
ENDBRANCH   8  26
TORSDOF 6
ENDMDL
MODEL 9
REMARK VINA RESULT:    -5.400      2.176      3.142
REMARK INTER + INTRA:          -6.869
REMARK INTER:                  -6.492
REMARK INTRA:                  -0.377
REMARK UNBOUND:                -0.363
REMARK SMILES O=c1c(O)c(-c2ccc(O)cc2O)oc2cc(O)cc(O)c12
REMARK SMILES IDX 5 1 3 2 2 3 1 4 22 5 20 6 19 7 17 8 16 9 15 10 14 11 6 12
REMARK SMILES IDX 8 13 7 14 9 15 11 16 12 17 10 18 13 20 4 22 21 24 18 26
REMARK H PARENT 10 19 13 21 4 23 21 25 18 27
REMARK Flexibility Score: inf
ROOT
ATOM      1  C   UNL     1      -5.888 -23.710  35.249  1.00  0.00     0.184 A 
ATOM      2  C   UNL     1      -4.871 -23.726  36.215  1.00  0.00     0.208 A 
ATOM      3  C   UNL     1      -3.990 -22.637  36.294  1.00  0.00     0.238 A 
ATOM      4  O   UNL     1      -3.042 -22.686  37.120  1.00  0.00    -0.285 OA
ATOM      5  C   UNL     1      -4.157 -21.532  35.424  1.00  0.00     0.111 A 
ATOM      6  C   UNL     1      -3.347 -20.356  35.442  1.00  0.00     0.134 A 
ATOM      7  C   UNL     1      -3.528 -19.379  34.454  1.00  0.00     0.093 A 
ATOM      8  C   UNL     1      -4.530 -19.506  33.489  1.00  0.00     0.123 A 
ATOM      9  C   UNL     1      -5.363 -20.622  33.499  1.00  0.00     0.094 A 
ATOM     10  C   UNL     1      -5.184 -21.631  34.449  1.00  0.00     0.146 A 
ATOM     11  O   UNL     1      -5.992 -22.685  34.414  1.00  0.00    -0.451 OA
ENDROOT
BRANCH   1  12
ATOM     12  C   UNL     1      -6.860 -24.819  35.136  1.00  0.00     0.063 A 
ATOM     13  C   UNL     1      -7.519 -26.916  34.090  1.00  0.00     0.047 A 
ATOM     14  C   UNL     1      -6.646 -25.828  34.181  1.00  0.00     0.020 A 
ATOM     15  C   UNL     1      -8.611 -27.014  34.958  1.00  0.00     0.119 A 
ATOM     16  C   UNL     1      -8.831 -26.017  35.913  1.00  0.00     0.093 A 
ATOM     17  C   UNL     1      -7.970 -24.917  36.007  1.00  0.00     0.130 A 
BRANCH  15  18
ATOM     18  O   UNL     1      -9.484 -28.097  34.880  1.00  0.00    -0.508 OA
ATOM     19  H   UNL     1      -9.231 -28.948  34.393  1.00  0.00     0.293 HD
ENDBRANCH  15  18
BRANCH  17  20
ATOM     20  O   UNL     1      -8.260 -23.933  36.955  1.00  0.00    -0.507 OA
ATOM     21  H   UNL     1      -8.899 -23.169  36.780  1.00  0.00     0.293 HD
ENDBRANCH  17  20
ENDBRANCH   1  12
BRANCH   2  22
ATOM     22  O   UNL     1      -4.731 -24.829  37.063  1.00  0.00    -0.502 OA
ATOM     23  H   UNL     1      -5.128 -25.734  36.846  1.00  0.00     0.293 HD
ENDBRANCH   2  22
BRANCH   6  24
ATOM     24  O   UNL     1      -2.380 -20.088  36.414  1.00  0.00    -0.507 OA
ATOM     25  H   UNL     1      -2.514 -19.482  37.209  1.00  0.00     0.293 HD
ENDBRANCH   6  24
BRANCH   8  26
ATOM     26  O   UNL     1      -4.712 -18.521  32.521  1.00  0.00    -0.508 OA
ATOM     27  H   UNL     1      -5.082 -18.740  31.604  1.00  0.00     0.293 HD
ENDBRANCH   8  26
TORSDOF 6
ENDMDL
