MODEL 1
REMARK VINA RESULT:    -4.074      0.000      0.000
REMARK INTER + INTRA:          -4.906
REMARK INTER:                  -4.789
REMARK INTRA:                  -0.118
REMARK UNBOUND:                -0.118
REMARK SMILES O=C([O-])CCC(=O)[O-]
REMARK SMILES IDX 4 1 2 2 1 3 3 4 5 5 6 6 7 7 8 8
REMARK H PARENT
REMARK Flexibility Score: inf
ROOT
ATOM      1  C   UNL     1       7.401   0.673  -1.776  1.00  0.00     0.059 C 
ENDROOT
BRANCH   1   2
ATOM      2  C   UNL     1       6.946   0.640  -3.200  1.00  0.00     0.042 C 
ATOM      3  O   UNL     1       6.190   1.543  -3.645  1.00  0.00    -0.550 OA
ATOM      4  O   UNL     1       7.316  -0.416  -4.024  1.00  0.00    -0.550 OA
ENDBRANCH   1   2
BRANCH   1   5
ATOM      5  C   UNL     1       6.203   0.594  -0.828  1.00  0.00     0.059 C 
BRANCH   5   6
ATOM      6  C   UNL     1       6.126   1.820   0.024  1.00  0.00     0.042 C 
ATOM      7  O   UNL     1       5.483   1.801   1.107  1.00  0.00    -0.550 OA
ATOM      8  O   UNL     1       6.722   3.001  -0.401  1.00  0.00    -0.550 OA
ENDBRANCH   5   6
ENDBRANCH   1   5
TORSDOF 3
ENDMDL
MODEL 2
REMARK VINA RESULT:    -4.068      0.069      3.979
REMARK INTER + INTRA:          -4.900
REMARK INTER:                  -4.781
REMARK INTRA:                  -0.119
REMARK UNBOUND:                -0.118
REMARK SMILES O=C([O-])CCC(=O)[O-]
REMARK SMILES IDX 4 1 2 2 1 3 3 4 5 5 6 6 7 7 8 8
REMARK H PARENT
REMARK Flexibility Score: inf
ROOT
ATOM      1  C   UNL     1       6.136   0.591  -0.889  1.00  0.00     0.059 C 
ENDROOT
BRANCH   1   2
ATOM      2  C   UNL     1       6.105   1.810  -0.024  1.00  0.00     0.042 C 
ATOM      3  O   UNL     1       5.506   1.787   1.083  1.00  0.00    -0.550 OA
ATOM      4  O   UNL     1       6.696   2.989  -0.462  1.00  0.00    -0.550 OA
ENDBRANCH   1   2
BRANCH   1   5
ATOM      5  C   UNL     1       7.373   0.603  -1.789  1.00  0.00     0.059 C 
BRANCH   5   6
ATOM      6  C   UNL     1       6.973   0.596  -3.231  1.00  0.00     0.042 C 
ATOM      7  O   UNL     1       6.265   1.528  -3.696  1.00  0.00    -0.550 OA
ATOM      8  O   UNL     1       7.340  -0.465  -4.049  1.00  0.00    -0.550 OA
ENDBRANCH   5   6
ENDBRANCH   1   5
TORSDOF 3
ENDMDL
MODEL 3
REMARK VINA RESULT:    -4.014      0.308      3.922
REMARK INTER + INTRA:          -4.836
REMARK INTER:                  -4.751
REMARK INTRA:                  -0.085
REMARK UNBOUND:                -0.118
REMARK SMILES O=C([O-])CCC(=O)[O-]
REMARK SMILES IDX 4 1 2 2 1 3 3 4 5 5 6 6 7 7 8 8
REMARK H PARENT
REMARK Flexibility Score: inf
ROOT
ATOM      1  C   UNL     1       6.419   0.460  -0.871  1.00  0.00     0.059 C 
ENDROOT
BRANCH   1   2
ATOM      2  C   UNL     1       5.992   1.726  -0.198  1.00  0.00     0.042 C 
ATOM      3  O   UNL     1       6.127   2.832  -0.783  1.00  0.00    -0.550 OA
ATOM      4  O   UNL     1       5.490   1.689   1.097  1.00  0.00    -0.550 OA
ENDBRANCH   1   2
BRANCH   1   5
ATOM      5  C   UNL     1       7.538   0.739  -1.876  1.00  0.00     0.059 C 
BRANCH   5   6
ATOM      6  C   UNL     1       7.029   0.610  -3.277  1.00  0.00     0.042 C 
ATOM      7  O   UNL     1       6.242   1.473  -3.747  1.00  0.00    -0.550 OA
ATOM      8  O   UNL     1       7.382  -0.492  -4.046  1.00  0.00    -0.550 OA
ENDBRANCH   5   6
ENDBRANCH   1   5
TORSDOF 3
ENDMDL
MODEL 4
REMARK VINA RESULT:    -3.651     18.420     19.435
REMARK INTER + INTRA:          -4.409
REMARK INTER:                  -4.343
REMARK INTRA:                  -0.065
REMARK UNBOUND:                -0.118
REMARK SMILES O=C([O-])CCC(=O)[O-]
REMARK SMILES IDX 4 1 2 2 1 3 3 4 5 5 6 6 7 7 8 8
REMARK H PARENT
REMARK Flexibility Score: inf
ROOT
ATOM      1  C   UNL     1     -10.180  -4.722   6.139  1.00  0.00     0.059 C 
ENDROOT
BRANCH   1   2
ATOM      2  C   UNL     1      -9.024  -5.373   6.830  1.00  0.00     0.042 C 
ATOM      3  O   UNL     1      -7.851  -4.963   6.628  1.00  0.00    -0.550 OA
ATOM      4  O   UNL     1      -9.237  -6.467   7.659  1.00  0.00    -0.550 OA
ENDBRANCH   1   2
BRANCH   1   5
ATOM      5  C   UNL     1     -11.033  -5.768   5.419  1.00  0.00     0.059 C 
BRANCH   5   6
ATOM      6  C   UNL     1     -10.506  -6.015   4.041  1.00  0.00     0.042 C 
ATOM      7  O   UNL     1     -11.124  -5.572   3.037  1.00  0.00    -0.550 OA
ATOM      8  O   UNL     1      -9.359  -6.778   3.861  1.00  0.00    -0.550 OA
ENDBRANCH   5   6
ENDBRANCH   1   5
TORSDOF 3
ENDMDL
MODEL 5
REMARK VINA RESULT:    -3.645     18.441     19.126
REMARK INTER + INTRA:          -4.402
REMARK INTER:                  -4.315
REMARK INTRA:                  -0.087
REMARK UNBOUND:                -0.118
REMARK SMILES O=C([O-])CCC(=O)[O-]
REMARK SMILES IDX 4 1 2 2 1 3 3 4 5 5 6 6 7 7 8 8
REMARK H PARENT
REMARK Flexibility Score: inf
ROOT
ATOM      1  C   UNL     1     -10.941  -5.752   5.425  1.00  0.00     0.059 C 
ENDROOT
BRANCH   1   2
ATOM      2  C   UNL     1     -10.384  -5.916   4.047  1.00  0.00     0.042 C 
ATOM      3  O   UNL     1     -10.980  -5.415   3.058  1.00  0.00    -0.550 OA
ATOM      4  O   UNL     1      -9.230  -6.664   3.848  1.00  0.00    -0.550 OA
ENDBRANCH   1   2
BRANCH   1   5
ATOM      5  C   UNL     1     -10.147  -4.702   6.204  1.00  0.00     0.059 C 
BRANCH   5   6
ATOM      6  C   UNL     1      -9.008  -5.340   6.935  1.00  0.00     0.042 C 
ATOM      7  O   UNL     1      -7.825  -4.978   6.704  1.00  0.00    -0.550 OA
ATOM      8  O   UNL     1      -9.250  -6.371   7.834  1.00  0.00    -0.550 OA
ENDBRANCH   5   6
ENDBRANCH   1   5
TORSDOF 3
ENDMDL
MODEL 6
REMARK VINA RESULT:    -3.629      1.599      4.320
REMARK INTER + INTRA:          -4.384
REMARK INTER:                  -4.273
REMARK INTRA:                  -0.110
REMARK UNBOUND:                -0.118
REMARK SMILES O=C([O-])CCC(=O)[O-]
REMARK SMILES IDX 4 1 2 2 1 3 3 4 5 5 6 6 7 7 8 8
REMARK H PARENT
REMARK Flexibility Score: inf
ROOT
ATOM      1  C   UNL     1       6.406   0.968  -2.873  1.00  0.00     0.059 C 
ENDROOT
BRANCH   1   2
ATOM      2  C   UNL     1       6.453   1.202  -1.396  1.00  0.00     0.042 C 
ATOM      3  O   UNL     1       6.938   0.328  -0.631  1.00  0.00    -0.550 OA
ATOM      4  O   UNL     1       5.914   2.365  -0.860  1.00  0.00    -0.550 OA
ENDBRANCH   1   2
BRANCH   1   5
ATOM      5  C   UNL     1       7.821   0.894  -3.449  1.00  0.00     0.059 C 
BRANCH   5   6
ATOM      6  C   UNL     1       8.165  -0.516  -3.814  1.00  0.00     0.042 C 
ATOM      7  O   UNL     1       7.687  -1.035  -4.856  1.00  0.00    -0.550 OA
ATOM      8  O   UNL     1       8.975  -1.273  -2.977  1.00  0.00    -0.550 OA
ENDBRANCH   5   6
ENDBRANCH   1   5
TORSDOF 3
ENDMDL
MODEL 7
REMARK VINA RESULT:    -3.587     18.127     18.816
REMARK INTER + INTRA:          -4.334
REMARK INTER:                  -4.230
REMARK INTRA:                  -0.104
REMARK UNBOUND:                -0.118
REMARK SMILES O=C([O-])CCC(=O)[O-]
REMARK SMILES IDX 4 1 2 2 1 3 3 4 5 5 6 6 7 7 8 8
REMARK H PARENT
REMARK Flexibility Score: inf
ROOT
ATOM      1  C   UNL     1      -8.402  -7.048   4.975  1.00  0.00     0.059 C 
ENDROOT
BRANCH   1   2
ATOM      2  C   UNL     1      -9.417  -6.807   3.903  1.00  0.00     0.042 C 
ATOM      3  O   UNL     1      -9.722  -7.728   3.100  1.00  0.00    -0.550 OA
ATOM      4  O   UNL     1      -9.989  -5.550   3.757  1.00  0.00    -0.550 OA
ENDBRANCH   1   2
BRANCH   1   5
ATOM      5  C   UNL     1      -9.074  -7.088   6.349  1.00  0.00     0.059 C 
BRANCH   5   6
ATOM      6  C   UNL     1      -8.896  -5.782   7.057  1.00  0.00     0.042 C 
ATOM      7  O   UNL     1      -9.734  -5.412   7.922  1.00  0.00    -0.550 OA
ATOM      8  O   UNL     1      -7.834  -4.950   6.727  1.00  0.00    -0.550 OA
ENDBRANCH   5   6
ENDBRANCH   1   5
TORSDOF 3
ENDMDL
MODEL 8
REMARK VINA RESULT:    -3.554      2.237      4.610
REMARK INTER + INTRA:          -4.296
REMARK INTER:                  -4.269
REMARK INTRA:                  -0.026
REMARK UNBOUND:                -0.118
REMARK SMILES O=C([O-])CCC(=O)[O-]
REMARK SMILES IDX 4 1 2 2 1 3 3 4 5 5 6 6 7 7 8 8
REMARK H PARENT
REMARK Flexibility Score: inf
ROOT
ATOM      1  C   UNL     1       6.761   3.284   0.414  1.00  0.00     0.059 C 
ENDROOT
BRANCH   1   2
ATOM      2  C   UNL     1       7.563   4.483   0.809  1.00  0.00     0.042 C 
ATOM      3  O   UNL     1       8.580   4.354   1.540  1.00  0.00    -0.550 OA
ATOM      4  O   UNL     1       7.158   5.752   0.412  1.00  0.00    -0.550 OA
ENDBRANCH   1   2
BRANCH   1   5
ATOM      5  C   UNL     1       7.453   2.529  -0.723  1.00  0.00     0.059 C 
BRANCH   5   6
ATOM      6  C   UNL     1       6.489   1.610  -1.404  1.00  0.00     0.042 C 
ATOM      7  O   UNL     1       6.216   1.768  -2.623  1.00  0.00    -0.550 OA
ATOM      8  O   UNL     1       5.852   0.609  -0.680  1.00  0.00    -0.550 OA
ENDBRANCH   5   6
ENDBRANCH   1   5
TORSDOF 3
ENDMDL
MODEL 9
REMARK VINA RESULT:    -3.383     18.089     19.317
REMARK INTER + INTRA:          -4.094
REMARK INTER:                  -3.933
REMARK INTRA:                  -0.161
REMARK UNBOUND:                -0.118
REMARK SMILES O=C([O-])CCC(=O)[O-]
REMARK SMILES IDX 4 1 2 2 1 3 3 4 5 5 6 6 7 7 8 8
REMARK H PARENT
REMARK Flexibility Score: inf
ROOT
ATOM      1  C   UNL     1      -9.479  -5.786   5.361  1.00  0.00     0.059 C 
ENDROOT
BRANCH   1   2
ATOM      2  C   UNL     1      -8.805  -5.540   6.673  1.00  0.00     0.042 C 
ATOM      3  O   UNL     1      -7.690  -4.956   6.714  1.00  0.00    -0.550 OA
ATOM      4  O   UNL     1      -9.384  -5.999   7.850  1.00  0.00    -0.550 OA
ENDBRANCH   1   2
BRANCH   1   5
ATOM      5  C   UNL     1      -8.723  -6.849   4.561  1.00  0.00     0.059 C 
BRANCH   5   6
ATOM      6  C   UNL     1      -9.020  -8.215   5.092  1.00  0.00     0.042 C 
ATOM      7  O   UNL     1     -10.213  -8.594   5.235  1.00  0.00    -0.550 OA
ATOM      8  O   UNL     1      -7.981  -9.053   5.478  1.00  0.00    -0.550 OA
ENDBRANCH   5   6
ENDBRANCH   1   5
TORSDOF 3
ENDMDL
