MODEL 1
REMARK VINA RESULT:    -4.013      0.000      0.000
REMARK INTER + INTRA:         -12.419
REMARK INTER:                  -8.705
REMARK INTRA:                  -3.715
REMARK UNBOUND:                -3.715
REMARK SMILES CCCCCCCCCCCCCCCCCCCCCC(=O)[O-]
REMARK SMILES IDX 12 1 11 2 10 3 9 4 8 5 7 6 6 7 5 8 4 9 3 10 2 11 1 12 13 13
REMARK SMILES IDX 14 14 15 15 16 16 17 17 18 18 19 19 20 20 21 21 22 22 23 23
REMARK SMILES IDX 24 24
REMARK H PARENT
REMARK Flexibility Score: inf
ROOT
ATOM      1  C   UNL     1     -22.890 -14.214 -20.545  1.00  0.00     0.000 C 
ENDROOT
BRANCH   1   2
ATOM      2  C   UNL     1     -21.754 -14.750 -21.432  1.00  0.00     0.000 C 
BRANCH   2   3
ATOM      3  C   UNL     1     -22.205 -15.910 -22.333  1.00  0.00     0.000 C 
BRANCH   3   4
ATOM      4  C   UNL     1     -21.138 -16.232 -23.389  1.00  0.00    -0.000 C 
BRANCH   4   5
ATOM      5  C   UNL     1     -21.462 -15.632 -24.766  1.00  0.00    -0.000 C 
BRANCH   5   6
ATOM      6  C   UNL     1     -20.261 -14.895 -25.387  1.00  0.00    -0.000 C 
BRANCH   6   7
ATOM      7  C   UNL     1     -19.914 -13.598 -24.639  1.00  0.00    -0.000 C 
BRANCH   7   8
ATOM      8  C   UNL     1     -18.484 -13.603 -24.075  1.00  0.00    -0.000 C 
BRANCH   8   9
ATOM      9  C   UNL     1     -18.480 -13.241 -22.585  1.00  0.00    -0.000 C 
BRANCH   9  10
ATOM     10  C   UNL     1     -18.000 -14.421 -21.732  1.00  0.00    -0.000 C 
BRANCH  10  11
ATOM     11  C   UNL     1     -16.880 -13.992 -20.779  1.00  0.00    -0.003 C 
ATOM     12  C   UNL     1     -16.160 -15.204 -20.193  1.00  0.00     0.004 C 
ENDBRANCH  10  11
ENDBRANCH   9  10
ENDBRANCH   8   9
ENDBRANCH   7   8
ENDBRANCH   6   7
ENDBRANCH   5   6
ENDBRANCH   4   5
ENDBRANCH   3   4
ENDBRANCH   2   3
ENDBRANCH   1   2
BRANCH   1  13
ATOM     13  C   UNL     1     -22.472 -12.977 -19.732  1.00  0.00     0.000 C 
BRANCH  13  14
ATOM     14  C   UNL     1     -21.331 -12.186 -20.394  1.00  0.00     0.000 C 
BRANCH  14  15
ATOM     15  C   UNL     1     -20.042 -12.142 -19.545  1.00  0.00     0.000 C 
BRANCH  15  16
ATOM     16  C   UNL     1     -20.205 -12.882 -18.205  1.00  0.00     0.000 C 
BRANCH  16  17
ATOM     17  C   UNL     1     -18.915 -13.581 -17.746  1.00  0.00     0.000 C 
BRANCH  17  18
ATOM     18  C   UNL     1     -18.974 -15.122 -17.754  1.00  0.00     0.000 C 
BRANCH  18  19
ATOM     19  C   UNL     1     -20.341 -15.723 -18.136  1.00  0.00     0.000 C 
BRANCH  19  20
ATOM     20  C   UNL     1     -21.219 -16.150 -16.947  1.00  0.00     0.006 C 
BRANCH  20  21
ATOM     21  C   UNL     1     -22.620 -15.527 -16.985  1.00  0.00     0.053 C 
BRANCH  21  22
ATOM     22  C   UNL     1     -22.879 -14.742 -15.739  1.00  0.00     0.041 C 
ATOM     23  O   UNL     1     -22.277 -13.655 -15.538  1.00  0.00    -0.550 OA
ATOM     24  O   UNL     1     -23.761 -15.227 -14.782  1.00  0.00    -0.550 OA
ENDBRANCH  21  22
ENDBRANCH  20  21
ENDBRANCH  19  20
ENDBRANCH  18  19
ENDBRANCH  17  18
ENDBRANCH  16  17
ENDBRANCH  15  16
ENDBRANCH  14  15
ENDBRANCH  13  14
ENDBRANCH   1  13
TORSDOF 20
ENDMDL
MODEL 2
REMARK VINA RESULT:    -3.984      2.939      7.127
REMARK INTER + INTRA:         -12.358
REMARK INTER:                  -8.633
REMARK INTRA:                  -3.724
REMARK UNBOUND:                -3.715
REMARK SMILES CCCCCCCCCCCCCCCCCCCCCC(=O)[O-]
REMARK SMILES IDX 12 1 11 2 10 3 9 4 8 5 7 6 6 7 5 8 4 9 3 10 2 11 1 12 13 13
REMARK SMILES IDX 14 14 15 15 16 16 17 17 18 18 19 19 20 20 21 21 22 22 23 23
REMARK SMILES IDX 24 24
REMARK H PARENT
REMARK Flexibility Score: inf
ROOT
ATOM      1  C   UNL     1     -20.957 -13.358 -17.618  1.00  0.00     0.000 C 
ENDROOT
BRANCH   1   2
ATOM      2  C   UNL     1     -19.491 -13.660 -17.966  1.00  0.00     0.000 C 
BRANCH   2   3
ATOM      3  C   UNL     1     -19.173 -15.163 -17.938  1.00  0.00     0.000 C 
BRANCH   3   4
ATOM      4  C   UNL     1     -20.230 -15.932 -17.133  1.00  0.00    -0.000 C 
BRANCH   4   5
ATOM      5  C   UNL     1     -20.715 -17.204 -17.847  1.00  0.00    -0.000 C 
BRANCH   5   6
ATOM      6  C   UNL     1     -22.221 -17.454 -17.652  1.00  0.00    -0.000 C 
BRANCH   6   7
ATOM      7  C   UNL     1     -22.938 -16.261 -17.000  1.00  0.00    -0.000 C 
BRANCH   7   8
ATOM      8  C   UNL     1     -23.991 -16.694 -15.968  1.00  0.00    -0.000 C 
BRANCH   8   9
ATOM      9  C   UNL     1     -24.034 -15.719 -14.784  1.00  0.00    -0.000 C 
BRANCH   9  10
ATOM     10  C   UNL     1     -23.111 -14.519 -15.025  1.00  0.00    -0.000 C 
BRANCH  10  11
ATOM     11  C   UNL     1     -23.815 -13.204 -14.674  1.00  0.00    -0.003 C 
ATOM     12  C   UNL     1     -25.115 -13.459 -13.915  1.00  0.00     0.004 C 
ENDBRANCH  10  11
ENDBRANCH   9  10
ENDBRANCH   8   9
ENDBRANCH   7   8
ENDBRANCH   6   7
ENDBRANCH   5   6
ENDBRANCH   4   5
ENDBRANCH   3   4
ENDBRANCH   2   3
ENDBRANCH   1   2
BRANCH   1  13
ATOM     13  C   UNL     1     -21.465 -12.059 -18.266  1.00  0.00     0.000 C 
BRANCH  13  14
ATOM     14  C   UNL     1     -22.527 -12.309 -19.351  1.00  0.00     0.000 C 
BRANCH  14  15
ATOM     15  C   UNL     1     -22.976 -13.783 -19.442  1.00  0.00     0.000 C 
BRANCH  15  16
ATOM     16  C   UNL     1     -22.679 -14.396 -20.822  1.00  0.00     0.000 C 
BRANCH  16  17
ATOM     17  C   UNL     1     -21.355 -15.177 -20.859  1.00  0.00     0.000 C 
BRANCH  17  18
ATOM     18  C   UNL     1     -20.325 -14.660 -21.883  1.00  0.00     0.000 C 
BRANCH  18  19
ATOM     19  C   UNL     1     -20.195 -13.126 -21.964  1.00  0.00     0.000 C 
BRANCH  19  20
ATOM     20  C   UNL     1     -18.919 -12.548 -21.328  1.00  0.00     0.006 C 
BRANCH  20  21
ATOM     21  C   UNL     1     -17.708 -12.602 -22.268  1.00  0.00     0.053 C 
BRANCH  21  22
ATOM     22  C   UNL     1     -16.532 -13.210 -21.572  1.00  0.00     0.041 C 
ATOM     23  O   UNL     1     -15.366 -13.004 -22.000  1.00  0.00    -0.550 OA
ATOM     24  O   UNL     1     -16.725 -14.032 -20.469  1.00  0.00    -0.550 OA
ENDBRANCH  21  22
ENDBRANCH  20  21
ENDBRANCH  19  20
ENDBRANCH  18  19
ENDBRANCH  17  18
ENDBRANCH  16  17
ENDBRANCH  15  16
ENDBRANCH  14  15
ENDBRANCH  13  14
ENDBRANCH   1  13
TORSDOF 20
ENDMDL
MODEL 3
REMARK VINA RESULT:    -3.971      3.670      6.418
REMARK INTER + INTRA:         -12.329
REMARK INTER:                  -9.558
REMARK INTRA:                  -2.771
REMARK UNBOUND:                -3.715
REMARK SMILES CCCCCCCCCCCCCCCCCCCCCC(=O)[O-]
REMARK SMILES IDX 12 1 11 2 10 3 9 4 8 5 7 6 6 7 5 8 4 9 3 10 2 11 1 12 13 13
REMARK SMILES IDX 14 14 15 15 16 16 17 17 18 18 19 19 20 20 21 21 22 22 23 23
REMARK SMILES IDX 24 24
REMARK H PARENT
REMARK Flexibility Score: inf
ROOT
ATOM      1  C   UNL     1     -22.148 -14.090 -16.411  1.00  0.00     0.000 C 
ENDROOT
BRANCH   1   2
ATOM      2  C   UNL     1     -22.781 -15.333 -17.058  1.00  0.00     0.000 C 
BRANCH   2   3
ATOM      3  C   UNL     1     -22.091 -16.638 -16.631  1.00  0.00     0.000 C 
BRANCH   3   4
ATOM      4  C   UNL     1     -20.620 -16.650 -17.068  1.00  0.00    -0.000 C 
BRANCH   4   5
ATOM      5  C   UNL     1     -20.450 -16.550 -18.593  1.00  0.00    -0.000 C 
BRANCH   5   6
ATOM      6  C   UNL     1     -19.226 -15.709 -18.998  1.00  0.00    -0.000 C 
BRANCH   6   7
ATOM      7  C   UNL     1     -18.648 -14.904 -17.823  1.00  0.00    -0.000 C 
BRANCH   7   8
ATOM      8  C   UNL     1     -19.014 -13.413 -17.889  1.00  0.00    -0.000 C 
BRANCH   8   9
ATOM      9  C   UNL     1     -19.322 -12.986 -19.330  1.00  0.00    -0.000 C 
BRANCH   9  10
ATOM     10  C   UNL     1     -20.548 -12.067 -19.383  1.00  0.00    -0.000 C 
BRANCH  10  11
ATOM     11  C   UNL     1     -21.421 -12.384 -20.602  1.00  0.00    -0.003 C 
ATOM     12  C   UNL     1     -22.403 -13.512 -20.299  1.00  0.00     0.004 C 
ENDBRANCH  10  11
ENDBRANCH   9  10
ENDBRANCH   8   9
ENDBRANCH   7   8
ENDBRANCH   6   7
ENDBRANCH   5   6
ENDBRANCH   4   5
ENDBRANCH   3   4
ENDBRANCH   2   3
ENDBRANCH   1   2
BRANCH   1  13
ATOM     13  C   UNL     1     -22.943 -12.804 -16.696  1.00  0.00     0.000 C 
BRANCH  13  14
ATOM     14  C   UNL     1     -23.617 -12.229 -15.438  1.00  0.00     0.000 C 
BRANCH  14  15
ATOM     15  C   UNL     1     -23.649 -13.218 -14.253  1.00  0.00     0.000 C 
BRANCH  15  16
ATOM     16  C   UNL     1     -25.062 -13.774 -14.000  1.00  0.00     0.000 C 
BRANCH  16  17
ATOM     17  C   UNL     1     -25.158 -15.291 -14.229  1.00  0.00     0.000 C 
BRANCH  17  18
ATOM     18  C   UNL     1     -26.029 -16.048 -13.207  1.00  0.00     0.000 C 
BRANCH  18  19
ATOM     19  C   UNL     1     -27.350 -16.616 -13.765  1.00  0.00     0.000 C 
BRANCH  19  20
ATOM     20  C   UNL     1     -28.578 -15.710 -13.575  1.00  0.00     0.006 C 
BRANCH  20  21
ATOM     21  C   UNL     1     -29.684 -15.980 -14.603  1.00  0.00     0.053 C 
BRANCH  21  22
ATOM     22  C   UNL     1     -30.224 -14.694 -15.142  1.00  0.00     0.041 C 
ATOM     23  O   UNL     1     -31.132 -14.704 -16.014  1.00  0.00    -0.550 OA
ATOM     24  O   UNL     1     -29.701 -13.483 -14.706  1.00  0.00    -0.550 OA
ENDBRANCH  21  22
ENDBRANCH  20  21
ENDBRANCH  19  20
ENDBRANCH  18  19
ENDBRANCH  17  18
ENDBRANCH  16  17
ENDBRANCH  15  16
ENDBRANCH  14  15
ENDBRANCH  13  14
ENDBRANCH   1  13
TORSDOF 20
ENDMDL
MODEL 4
REMARK VINA RESULT:    -3.932      1.607      4.197
REMARK INTER + INTRA:         -12.244
REMARK INTER:                  -8.668
REMARK INTRA:                  -3.577
REMARK UNBOUND:                -3.715
REMARK SMILES CCCCCCCCCCCCCCCCCCCCCC(=O)[O-]
REMARK SMILES IDX 12 1 11 2 10 3 9 4 8 5 7 6 6 7 5 8 4 9 3 10 2 11 1 12 13 13
REMARK SMILES IDX 14 14 15 15 16 16 17 17 18 18 19 19 20 20 21 21 22 22 23 23
REMARK SMILES IDX 24 24
REMARK H PARENT
REMARK Flexibility Score: inf
ROOT
ATOM      1  C   UNL     1     -18.913 -13.430 -18.055  1.00  0.00     0.000 C 
ENDROOT
BRANCH   1   2
ATOM      2  C   UNL     1     -20.294 -12.871 -18.436  1.00  0.00     0.000 C 
BRANCH   2   3
ATOM      3  C   UNL     1     -20.261 -12.047 -19.732  1.00  0.00     0.000 C 
BRANCH   3   4
ATOM      4  C   UNL     1     -21.450 -12.400 -20.637  1.00  0.00    -0.000 C 
BRANCH   4   5
ATOM      5  C   UNL     1     -22.601 -13.073 -19.873  1.00  0.00    -0.000 C 
BRANCH   5   6
ATOM      6  C   UNL     1     -22.895 -14.497 -20.381  1.00  0.00    -0.000 C 
BRANCH   6   7
ATOM      7  C   UNL     1     -22.240 -14.785 -21.741  1.00  0.00    -0.000 C 
BRANCH   7   8
ATOM      8  C   UNL     1     -21.070 -15.776 -21.637  1.00  0.00    -0.000 C 
BRANCH   8   9
ATOM      9  C   UNL     1     -19.799 -15.194 -22.267  1.00  0.00    -0.000 C 
BRANCH   9  10
ATOM     10  C   UNL     1     -18.632 -15.212 -21.273  1.00  0.00    -0.000 C 
BRANCH  10  11
ATOM     11  C   UNL     1     -17.652 -14.067 -21.553  1.00  0.00    -0.003 C 
ATOM     12  C   UNL     1     -16.315 -14.303 -20.856  1.00  0.00     0.004 C 
ENDBRANCH  10  11
ENDBRANCH   9  10
ENDBRANCH   8   9
ENDBRANCH   7   8
ENDBRANCH   6   7
ENDBRANCH   5   6
ENDBRANCH   4   5
ENDBRANCH   3   4
ENDBRANCH   2   3
ENDBRANCH   1   2
BRANCH   1  13
ATOM     13  C   UNL     1     -18.951 -14.932 -17.728  1.00  0.00     0.000 C 
BRANCH  13  14
ATOM     14  C   UNL     1     -20.328 -15.565 -17.992  1.00  0.00     0.000 C 
BRANCH  14  15
ATOM     15  C   UNL     1     -20.697 -16.672 -16.982  1.00  0.00     0.000 C 
BRANCH  15  16
ATOM     16  C   UNL     1     -22.068 -16.425 -16.326  1.00  0.00     0.000 C 
BRANCH  16  17
ATOM     17  C   UNL     1     -22.689 -15.077 -16.727  1.00  0.00     0.000 C 
BRANCH  17  18
ATOM     18  C   UNL     1     -22.346 -13.901 -15.791  1.00  0.00     0.000 C 
BRANCH  18  19
ATOM     19  C   UNL     1     -23.535 -12.994 -15.416  1.00  0.00     0.000 C 
BRANCH  19  20
ATOM     20  C   UNL     1     -24.094 -13.207 -13.998  1.00  0.00     0.006 C 
BRANCH  20  21
ATOM     21  C   UNL     1     -25.549 -13.691 -13.997  1.00  0.00     0.053 C 
BRANCH  21  22
ATOM     22  C   UNL     1     -25.607 -15.176 -13.840  1.00  0.00     0.041 C 
ATOM     23  O   UNL     1     -26.719 -15.767 -13.798  1.00  0.00    -0.550 OA
ATOM     24  O   UNL     1     -24.434 -15.908 -13.705  1.00  0.00    -0.550 OA
ENDBRANCH  21  22
ENDBRANCH  20  21
ENDBRANCH  19  20
ENDBRANCH  18  19
ENDBRANCH  17  18
ENDBRANCH  16  17
ENDBRANCH  15  16
ENDBRANCH  14  15
ENDBRANCH  13  14
ENDBRANCH   1  13
TORSDOF 20
ENDMDL
MODEL 5
REMARK VINA RESULT:    -3.921      4.160      6.918
REMARK INTER + INTRA:         -12.220
REMARK INTER:                  -9.628
REMARK INTRA:                  -2.592
REMARK UNBOUND:                -3.715
REMARK SMILES CCCCCCCCCCCCCCCCCCCCCC(=O)[O-]
REMARK SMILES IDX 12 1 11 2 10 3 9 4 8 5 7 6 6 7 5 8 4 9 3 10 2 11 1 12 13 13
REMARK SMILES IDX 14 14 15 15 16 16 17 17 18 18 19 19 20 20 21 21 22 22 23 23
REMARK SMILES IDX 24 24
REMARK H PARENT
REMARK Flexibility Score: inf
ROOT
ATOM      1  C   UNL     1     -23.413 -15.617 -15.016  1.00  0.00     0.000 C 
ENDROOT
BRANCH   1   2
ATOM      2  C   UNL     1     -22.955 -14.935 -16.315  1.00  0.00     0.000 C 
BRANCH   2   3
ATOM      3  C   UNL     1     -22.399 -13.522 -16.078  1.00  0.00     0.000 C 
BRANCH   3   4
ATOM      4  C   UNL     1     -23.021 -12.516 -17.057  1.00  0.00    -0.000 C 
BRANCH   4   5
ATOM      5  C   UNL     1     -22.013 -11.993 -18.094  1.00  0.00    -0.000 C 
BRANCH   5   6
ATOM      6  C   UNL     1     -22.486 -12.216 -19.542  1.00  0.00    -0.000 C 
BRANCH   6   7
ATOM      7  C   UNL     1     -22.759 -13.697 -19.852  1.00  0.00    -0.000 C 
BRANCH   7   8
ATOM      8  C   UNL     1     -21.505 -14.443 -20.335  1.00  0.00    -0.000 C 
BRANCH   8   9
ATOM      9  C   UNL     1     -21.294 -15.736 -19.536  1.00  0.00    -0.000 C 
BRANCH   9  10
ATOM     10  C   UNL     1     -20.146 -15.582 -18.532  1.00  0.00    -0.000 C 
BRANCH  10  11
ATOM     11  C   UNL     1     -19.252 -14.392 -18.896  1.00  0.00    -0.003 C 
ATOM     12  C   UNL     1     -18.860 -13.596 -17.654  1.00  0.00     0.004 C 
ENDBRANCH  10  11
ENDBRANCH   9  10
ENDBRANCH   8   9
ENDBRANCH   7   8
ENDBRANCH   6   7
ENDBRANCH   5   6
ENDBRANCH   4   5
ENDBRANCH   3   4
ENDBRANCH   2   3
ENDBRANCH   1   2
BRANCH   1  13
ATOM     13  C   UNL     1     -24.120 -14.646 -14.055  1.00  0.00     0.000 C 
BRANCH  13  14
ATOM     14  C   UNL     1     -25.622 -14.942 -13.905  1.00  0.00     0.000 C 
BRANCH  14  15
ATOM     15  C   UNL     1     -25.958 -16.448 -13.956  1.00  0.00     0.000 C 
BRANCH  15  16
ATOM     16  C   UNL     1     -26.145 -17.049 -12.551  1.00  0.00     0.000 C 
BRANCH  16  17
ATOM     17  C   UNL     1     -24.935 -17.879 -12.089  1.00  0.00     0.000 C 
BRANCH  17  18
ATOM     18  C   UNL     1     -24.322 -18.789 -13.171  1.00  0.00     0.000 C 
BRANCH  18  19
ATOM     19  C   UNL     1     -23.283 -19.807 -12.659  1.00  0.00     0.000 C 
BRANCH  19  20
ATOM     20  C   UNL     1     -21.824 -19.325 -12.703  1.00  0.00     0.006 C 
BRANCH  20  21
ATOM     21  C   UNL     1     -20.813 -20.477 -12.657  1.00  0.00     0.053 C 
BRANCH  21  22
ATOM     22  C   UNL     1     -20.469 -20.817 -11.242  1.00  0.00     0.041 C 
ATOM     23  O   UNL     1     -19.851 -19.988 -10.523  1.00  0.00    -0.550 OA
ATOM     24  O   UNL     1     -20.802 -22.062 -10.725  1.00  0.00    -0.550 OA
ENDBRANCH  21  22
ENDBRANCH  20  21
ENDBRANCH  19  20
ENDBRANCH  18  19
ENDBRANCH  17  18
ENDBRANCH  16  17
ENDBRANCH  15  16
ENDBRANCH  14  15
ENDBRANCH  13  14
ENDBRANCH   1  13
TORSDOF 20
ENDMDL
MODEL 6
REMARK VINA RESULT:    -3.906      2.239      5.085
REMARK INTER + INTRA:         -12.187
REMARK INTER:                  -8.771
REMARK INTRA:                  -3.416
REMARK UNBOUND:                -3.715
REMARK SMILES CCCCCCCCCCCCCCCCCCCCCC(=O)[O-]
REMARK SMILES IDX 12 1 11 2 10 3 9 4 8 5 7 6 6 7 5 8 4 9 3 10 2 11 1 12 13 13
REMARK SMILES IDX 14 14 15 15 16 16 17 17 18 18 19 19 20 20 21 21 22 22 23 23
REMARK SMILES IDX 24 24
REMARK H PARENT
REMARK Flexibility Score: inf
ROOT
ATOM      1  C   UNL     1     -21.324 -15.021 -17.084  1.00  0.00     0.000 C 
ENDROOT
BRANCH   1   2
ATOM      2  C   UNL     1     -19.876 -15.101 -17.593  1.00  0.00     0.000 C 
BRANCH   2   3
ATOM      3  C   UNL     1     -19.203 -13.723 -17.684  1.00  0.00     0.000 C 
BRANCH   3   4
ATOM      4  C   UNL     1     -19.314 -13.151 -19.105  1.00  0.00    -0.000 C 
BRANCH   4   5
ATOM      5  C   UNL     1     -20.232 -11.920 -19.182  1.00  0.00    -0.000 C 
BRANCH   5   6
ATOM      6  C   UNL     1     -21.289 -12.040 -20.295  1.00  0.00    -0.000 C 
BRANCH   6   7
ATOM      7  C   UNL     1     -22.532 -12.826 -19.845  1.00  0.00    -0.000 C 
BRANCH   7   8
ATOM      8  C   UNL     1     -22.899 -13.959 -20.815  1.00  0.00    -0.000 C 
BRANCH   8   9
ATOM      9  C   UNL     1     -22.031 -15.199 -20.565  1.00  0.00    -0.000 C 
BRANCH   9  10
ATOM     10  C   UNL     1     -21.455 -15.743 -21.877  1.00  0.00    -0.000 C 
BRANCH  10  11
ATOM     11  C   UNL     1     -19.948 -15.478 -21.969  1.00  0.00    -0.003 C 
ATOM     12  C   UNL     1     -19.661 -14.183 -22.725  1.00  0.00     0.004 C 
ENDBRANCH  10  11
ENDBRANCH   9  10
ENDBRANCH   8   9
ENDBRANCH   7   8
ENDBRANCH   6   7
ENDBRANCH   5   6
ENDBRANCH   4   5
ENDBRANCH   3   4
ENDBRANCH   2   3
ENDBRANCH   1   2
BRANCH   1  13
ATOM     13  C   UNL     1     -21.591 -13.754 -16.253  1.00  0.00     0.000 C 
BRANCH  13  14
ATOM     14  C   UNL     1     -22.985 -13.156 -16.507  1.00  0.00     0.000 C 
BRANCH  14  15
ATOM     15  C   UNL     1     -23.487 -12.258 -15.356  1.00  0.00     0.000 C 
BRANCH  15  16
ATOM     16  C   UNL     1     -23.788 -13.065 -14.080  1.00  0.00     0.000 C 
BRANCH  16  17
ATOM     17  C   UNL     1     -25.100 -13.862 -14.171  1.00  0.00     0.000 C 
BRANCH  17  18
ATOM     18  C   UNL     1     -24.977 -15.358 -13.821  1.00  0.00     0.000 C 
BRANCH  18  19
ATOM     19  C   UNL     1     -23.795 -16.091 -14.487  1.00  0.00     0.000 C 
BRANCH  19  20
ATOM     20  C   UNL     1     -24.029 -17.586 -14.761  1.00  0.00     0.006 C 
BRANCH  20  21
ATOM     21  C   UNL     1     -23.083 -18.152 -15.827  1.00  0.00     0.053 C 
BRANCH  21  22
ATOM     22  C   UNL     1     -21.777 -18.546 -15.214  1.00  0.00     0.041 C 
ATOM     23  O   UNL     1     -21.749 -19.102 -14.085  1.00  0.00    -0.550 OA
ATOM     24  O   UNL     1     -20.587 -18.269 -15.875  1.00  0.00    -0.550 OA
ENDBRANCH  21  22
ENDBRANCH  20  21
ENDBRANCH  19  20
ENDBRANCH  18  19
ENDBRANCH  17  18
ENDBRANCH  16  17
ENDBRANCH  15  16
ENDBRANCH  14  15
ENDBRANCH  13  14
ENDBRANCH   1  13
TORSDOF 20
ENDMDL
MODEL 7
REMARK VINA RESULT:    -3.894      3.056      5.156
REMARK INTER + INTRA:         -12.161
REMARK INTER:                  -8.564
REMARK INTRA:                  -3.598
REMARK UNBOUND:                -3.715
REMARK SMILES CCCCCCCCCCCCCCCCCCCCCC(=O)[O-]
REMARK SMILES IDX 12 1 11 2 10 3 9 4 8 5 7 6 6 7 5 8 4 9 3 10 2 11 1 12 13 13
REMARK SMILES IDX 14 14 15 15 16 16 17 17 18 18 19 19 20 20 21 21 22 22 23 23
REMARK SMILES IDX 24 24
REMARK H PARENT
REMARK Flexibility Score: inf
ROOT
ATOM      1  C   UNL     1     -22.368 -15.419 -19.111  1.00  0.00     0.000 C 
ENDROOT
BRANCH   1   2
ATOM      2  C   UNL     1     -23.220 -14.498 -20.000  1.00  0.00     0.000 C 
BRANCH   2   3
ATOM      3  C   UNL     1     -22.687 -13.057 -20.041  1.00  0.00     0.000 C 
BRANCH   3   4
ATOM      4  C   UNL     1     -21.306 -13.002 -20.710  1.00  0.00    -0.000 C 
BRANCH   4   5
ATOM      5  C   UNL     1     -20.368 -11.975 -20.055  1.00  0.00    -0.000 C 
BRANCH   5   6
ATOM      6  C   UNL     1     -19.517 -12.586 -18.927  1.00  0.00    -0.000 C 
BRANCH   6   7
ATOM      7  C   UNL     1     -18.972 -13.978 -19.287  1.00  0.00    -0.000 C 
BRANCH   7   8
ATOM      8  C   UNL     1     -18.595 -14.805 -18.048  1.00  0.00    -0.000 C 
BRANCH   8   9
ATOM      9  C   UNL     1     -18.891 -16.294 -18.271  1.00  0.00    -0.000 C 
BRANCH   9  10
ATOM     10  C   UNL     1     -18.860 -17.067 -16.948  1.00  0.00    -0.000 C 
BRANCH  10  11
ATOM     11  C   UNL     1     -19.404 -18.488 -17.127  1.00  0.00    -0.003 C 
ATOM     12  C   UNL     1     -20.884 -18.562 -16.762  1.00  0.00     0.004 C 
ENDBRANCH  10  11
ENDBRANCH   9  10
ENDBRANCH   8   9
ENDBRANCH   7   8
ENDBRANCH   6   7
ENDBRANCH   5   6
ENDBRANCH   4   5
ENDBRANCH   3   4
ENDBRANCH   2   3
ENDBRANCH   1   2
BRANCH   1  13
ATOM     13  C   UNL     1     -22.947 -15.576 -17.695  1.00  0.00     0.000 C 
BRANCH  13  14
ATOM     14  C   UNL     1     -22.015 -15.019 -16.605  1.00  0.00     0.000 C 
BRANCH  14  15
ATOM     15  C   UNL     1     -22.042 -13.479 -16.503  1.00  0.00     0.000 C 
BRANCH  15  16
ATOM     16  C   UNL     1     -23.207 -12.976 -15.632  1.00  0.00     0.000 C 
BRANCH  16  17
ATOM     17  C   UNL     1     -23.454 -13.856 -14.395  1.00  0.00     0.000 C 
BRANCH  17  18
ATOM     18  C   UNL     1     -24.930 -14.218 -14.140  1.00  0.00     0.000 C 
BRANCH  18  19
ATOM     19  C   UNL     1     -25.180 -15.672 -13.695  1.00  0.00     0.000 C 
BRANCH  19  20
ATOM     20  C   UNL     1     -24.842 -16.742 -14.747  1.00  0.00     0.006 C 
BRANCH  20  21
ATOM     21  C   UNL     1     -23.666 -17.636 -14.333  1.00  0.00     0.053 C 
BRANCH  21  22
ATOM     22  C   UNL     1     -24.114 -18.664 -13.343  1.00  0.00     0.041 C 
ATOM     23  O   UNL     1     -23.355 -19.006 -12.398  1.00  0.00    -0.550 OA
ATOM     24  O   UNL     1     -25.355 -19.270 -13.483  1.00  0.00    -0.550 OA
ENDBRANCH  21  22
ENDBRANCH  20  21
ENDBRANCH  19  20
ENDBRANCH  18  19
ENDBRANCH  17  18
ENDBRANCH  16  17
ENDBRANCH  15  16
ENDBRANCH  14  15
ENDBRANCH  13  14
ENDBRANCH   1  13
TORSDOF 20
ENDMDL
MODEL 8
REMARK VINA RESULT:    -3.884      2.771      6.426
REMARK INTER + INTRA:         -12.141
REMARK INTER:                  -7.983
REMARK INTRA:                  -4.158
REMARK UNBOUND:                -3.715
REMARK SMILES CCCCCCCCCCCCCCCCCCCCCC(=O)[O-]
REMARK SMILES IDX 12 1 11 2 10 3 9 4 8 5 7 6 6 7 5 8 4 9 3 10 2 11 1 12 13 13
REMARK SMILES IDX 14 14 15 15 16 16 17 17 18 18 19 19 20 20 21 21 22 22 23 23
REMARK SMILES IDX 24 24
REMARK H PARENT
REMARK Flexibility Score: inf
ROOT
ATOM      1  C   UNL     1     -20.094 -13.353 -18.320  1.00  0.00     0.000 C 
ENDROOT
BRANCH   1   2
ATOM      2  C   UNL     1     -20.354 -12.005 -19.013  1.00  0.00     0.000 C 
BRANCH   2   3
ATOM      3  C   UNL     1     -21.548 -12.056 -19.979  1.00  0.00     0.000 C 
BRANCH   3   4
ATOM      4  C   UNL     1     -22.544 -13.148 -19.563  1.00  0.00    -0.000 C 
BRANCH   4   5
ATOM      5  C   UNL     1     -22.851 -14.139 -20.697  1.00  0.00    -0.000 C 
BRANCH   5   6
ATOM      6  C   UNL     1     -22.630 -15.604 -20.279  1.00  0.00    -0.000 C 
BRANCH   6   7
ATOM      7  C   UNL     1     -23.034 -15.868 -18.819  1.00  0.00    -0.000 C 
BRANCH   7   8
ATOM      8  C   UNL     1     -21.887 -16.458 -17.985  1.00  0.00    -0.000 C 
BRANCH   8   9
ATOM      9  C   UNL     1     -21.953 -15.964 -16.534  1.00  0.00    -0.000 C 
BRANCH   9  10
ATOM     10  C   UNL     1     -22.997 -14.852 -16.377  1.00  0.00    -0.000 C 
BRANCH  10  11
ATOM     11  C   UNL     1     -22.445 -13.693 -15.540  1.00  0.00    -0.003 C 
ATOM     12  C   UNL     1     -23.112 -12.373 -15.918  1.00  0.00     0.004 C 
ENDBRANCH  10  11
ENDBRANCH   9  10
ENDBRANCH   8   9
ENDBRANCH   7   8
ENDBRANCH   6   7
ENDBRANCH   5   6
ENDBRANCH   4   5
ENDBRANCH   3   4
ENDBRANCH   2   3
ENDBRANCH   1   2
BRANCH   1  13
ATOM     13  C   UNL     1     -18.792 -14.020 -18.794  1.00  0.00     0.000 C 
BRANCH  13  14
ATOM     14  C   UNL     1     -19.025 -15.062 -19.902  1.00  0.00     0.000 C 
BRANCH  14  15
ATOM     15  C   UNL     1     -17.854 -15.164 -20.903  1.00  0.00     0.000 C 
BRANCH  15  16
ATOM     16  C   UNL     1     -17.002 -13.883 -20.932  1.00  0.00     0.000 C 
BRANCH  16  17
ATOM     17  C   UNL     1     -17.235 -13.037 -22.195  1.00  0.00     0.000 C 
BRANCH  17  18
ATOM     18  C   UNL     1     -18.507 -12.168 -22.170  1.00  0.00     0.000 C 
BRANCH  18  19
ATOM     19  C   UNL     1     -19.641 -12.640 -23.102  1.00  0.00     0.000 C 
BRANCH  19  20
ATOM     20  C   UNL     1     -19.215 -13.641 -24.189  1.00  0.00     0.006 C 
BRANCH  20  21
ATOM     21  C   UNL     1     -20.406 -14.346 -24.850  1.00  0.00     0.053 C 
BRANCH  21  22
ATOM     22  C   UNL     1     -20.862 -15.500 -24.015  1.00  0.00     0.041 C 
ATOM     23  O   UNL     1     -20.019 -16.265 -23.476  1.00  0.00    -0.550 OA
ATOM     24  O   UNL     1     -22.219 -15.752 -23.858  1.00  0.00    -0.550 OA
ENDBRANCH  21  22
ENDBRANCH  20  21
ENDBRANCH  19  20
ENDBRANCH  18  19
ENDBRANCH  17  18
ENDBRANCH  16  17
ENDBRANCH  15  16
ENDBRANCH  14  15
ENDBRANCH  13  14
ENDBRANCH   1  13
TORSDOF 20
ENDMDL
MODEL 9
REMARK VINA RESULT:    -3.862      2.773      5.490
REMARK INTER + INTRA:         -12.092
REMARK INTER:                  -9.206
REMARK INTRA:                  -2.886
REMARK UNBOUND:                -3.715
REMARK SMILES CCCCCCCCCCCCCCCCCCCCCC(=O)[O-]
REMARK SMILES IDX 12 1 11 2 10 3 9 4 8 5 7 6 6 7 5 8 4 9 3 10 2 11 1 12 13 13
REMARK SMILES IDX 14 14 15 15 16 16 17 17 18 18 19 19 20 20 21 21 22 22 23 23
REMARK SMILES IDX 24 24
REMARK H PARENT
REMARK Flexibility Score: inf
ROOT
ATOM      1  C   UNL     1     -23.370 -12.240 -15.542  1.00  0.00     0.000 C 
ENDROOT
BRANCH   1   2
ATOM      2  C   UNL     1     -22.534 -13.476 -15.912  1.00  0.00     0.000 C 
BRANCH   2   3
ATOM      3  C   UNL     1     -22.097 -13.475 -17.385  1.00  0.00     0.000 C 
BRANCH   3   4
ATOM      4  C   UNL     1     -22.667 -12.258 -18.126  1.00  0.00    -0.000 C 
BRANCH   4   5
ATOM      5  C   UNL     1     -22.292 -12.238 -19.617  1.00  0.00    -0.000 C 
BRANCH   5   6
ATOM      6  C   UNL     1     -22.639 -13.557 -20.331  1.00  0.00    -0.000 C 
BRANCH   6   7
ATOM      7  C   UNL     1     -21.448 -14.136 -21.112  1.00  0.00    -0.000 C 
BRANCH   7   8
ATOM      8  C   UNL     1     -20.263 -13.161 -21.194  1.00  0.00    -0.000 C 
BRANCH   8   9
ATOM      9  C   UNL     1     -18.967 -13.830 -20.719  1.00  0.00    -0.000 C 
BRANCH   9  10
ATOM     10  C   UNL     1     -19.265 -15.004 -19.779  1.00  0.00    -0.000 C 
BRANCH  10  11
ATOM     11  C   UNL     1     -18.482 -14.874 -18.469  1.00  0.00    -0.003 C 
ATOM     12  C   UNL     1     -18.738 -13.524 -17.805  1.00  0.00     0.004 C 
ENDBRANCH  10  11
ENDBRANCH   9  10
ENDBRANCH   8   9
ENDBRANCH   7   8
ENDBRANCH   6   7
ENDBRANCH   5   6
ENDBRANCH   4   5
ENDBRANCH   3   4
ENDBRANCH   2   3
ENDBRANCH   1   2
BRANCH   1  13
ATOM     13  C   UNL     1     -24.320 -12.499 -14.361  1.00  0.00     0.000 C 
BRANCH  13  14
ATOM     14  C   UNL     1     -24.382 -13.983 -13.959  1.00  0.00     0.000 C 
BRANCH  14  15
ATOM     15  C   UNL     1     -25.814 -14.559 -13.958  1.00  0.00     0.000 C 
BRANCH  15  16
ATOM     16  C   UNL     1     -25.868 -15.980 -13.370  1.00  0.00     0.000 C 
BRANCH  16  17
ATOM     17  C   UNL     1     -25.825 -17.077 -14.447  1.00  0.00     0.000 C 
BRANCH  17  18
ATOM     18  C   UNL     1     -24.414 -17.593 -14.792  1.00  0.00     0.000 C 
BRANCH  18  19
ATOM     19  C   UNL     1     -23.736 -16.895 -15.987  1.00  0.00     0.000 C 
BRANCH  19  20
ATOM     20  C   UNL     1     -23.933 -17.591 -17.344  1.00  0.00     0.006 C 
BRANCH  20  21
ATOM     21  C   UNL     1     -23.462 -16.736 -18.528  1.00  0.00     0.053 C 
BRANCH  21  22
ATOM     22  C   UNL     1     -22.230 -17.322 -19.140  1.00  0.00     0.041 C 
ATOM     23  O   UNL     1     -21.223 -17.568 -18.426  1.00  0.00    -0.550 OA
ATOM     24  O   UNL     1     -22.182 -17.567 -20.507  1.00  0.00    -0.550 OA
ENDBRANCH  21  22
ENDBRANCH  20  21
ENDBRANCH  19  20
ENDBRANCH  18  19
ENDBRANCH  17  18
ENDBRANCH  16  17
ENDBRANCH  15  16
ENDBRANCH  14  15
ENDBRANCH  13  14
ENDBRANCH   1  13
TORSDOF 20
ENDMDL
