MODEL 1
REMARK VINA RESULT:    -4.390      0.000      0.000
REMARK INTER + INTRA:          -4.518
REMARK INTER:                  -4.518
REMARK INTRA:                   0.000
REMARK UNBOUND:                 0.000
REMARK SMILES Oc1ccc2[nH]ccc2c1
REMARK SMILES IDX 3 1 4 2 5 3 9 4 8 5 7 6 6 7 10 8 2 9 1 11
REMARK H PARENT 6 10 1 12
REMARK Flexibility Score: inf
ROOT
ATOM      1  C   UNL     1      28.717  30.944 138.171  1.00  0.00     0.048 A 
ATOM      2  C   UNL     1      27.407  30.990 137.662  1.00  0.00     0.030 A 
ATOM      3  C   UNL     1      26.406  30.339 138.382  1.00  0.00     0.046 A 
ATOM      4  C   UNL     1      26.675  29.673 139.548  1.00  0.00     0.003 A 
ATOM      5  C   UNL     1      25.487  29.146 140.005  1.00  0.00     0.028 A 
ATOM      6  C   UNL     1      24.534  29.531 139.067  1.00  0.00     0.083 A 
ATOM      7  N   UNL     1      25.101  30.259 138.078  1.00  0.00    -0.361 N 
ATOM      8  C   UNL     1      27.962  29.608 140.078  1.00  0.00     0.056 A 
ATOM      9  C   UNL     1      28.999  30.257 139.375  1.00  0.00     0.116 A 
ATOM     10  H   UNL     1      24.618  30.673 137.250  1.00  0.00     0.166 HD
ENDROOT
BRANCH   9  11
ATOM     11  O   UNL     1      30.304  30.227 139.857  1.00  0.00    -0.508 OA
ATOM     12  H   UNL     1      30.646  30.928 140.503  1.00  0.00     0.293 HD
ENDBRANCH   9  11
TORSDOF 1
ENDMDL
MODEL 2
REMARK VINA RESULT:    -4.342     14.413     14.924
REMARK INTER + INTRA:          -4.469
REMARK INTER:                  -4.469
REMARK INTRA:                   0.000
REMARK UNBOUND:                 0.000
REMARK SMILES Oc1ccc2[nH]ccc2c1
REMARK SMILES IDX 3 1 4 2 5 3 9 4 8 5 7 6 6 7 10 8 2 9 1 11
REMARK H PARENT 6 10 1 12
REMARK Flexibility Score: inf
ROOT
ATOM      1  C   UNL     1      25.376  45.394 141.963  1.00  0.00     0.048 A 
ATOM      2  C   UNL     1      26.753  45.278 141.697  1.00  0.00     0.030 A 
ATOM      3  C   UNL     1      27.469  44.301 142.386  1.00  0.00     0.046 A 
ATOM      4  C   UNL     1      26.865  43.473 143.295  1.00  0.00     0.003 A 
ATOM      5  C   UNL     1      27.835  42.631 143.794  1.00  0.00     0.028 A 
ATOM      6  C   UNL     1      29.008  43.003 143.143  1.00  0.00     0.083 A 
ATOM      7  N   UNL     1      28.779  44.024 142.285  1.00  0.00    -0.361 N 
ATOM      8  C   UNL     1      25.504  43.561 143.582  1.00  0.00     0.056 A 
ATOM      9  C   UNL     1      24.750  44.540 142.901  1.00  0.00     0.116 A 
ATOM     10  H   UNL     1      29.479  44.495 141.671  1.00  0.00     0.166 HD
ENDROOT
BRANCH   9  11
ATOM     11  O   UNL     1      23.386  44.675 143.146  1.00  0.00    -0.508 OA
ATOM     12  H   UNL     1      23.034  45.334 143.829  1.00  0.00     0.293 HD
ENDBRANCH   9  11
TORSDOF 1
ENDMDL
MODEL 3
REMARK VINA RESULT:    -4.166      2.653      4.113
REMARK INTER + INTRA:          -4.288
REMARK INTER:                  -4.288
REMARK INTRA:                   0.000
REMARK UNBOUND:                 0.000
REMARK SMILES Oc1ccc2[nH]ccc2c1
REMARK SMILES IDX 3 1 4 2 5 3 9 4 8 5 7 6 6 7 10 8 2 9 1 11
REMARK H PARENT 6 10 1 12
REMARK Flexibility Score: inf
ROOT
ATOM      1  C   UNL     1      24.482  29.473 139.301  1.00  0.00     0.048 A 
ATOM      2  C   UNL     1      25.651  28.988 139.914  1.00  0.00     0.030 A 
ATOM      3  C   UNL     1      26.865  29.568 139.549  1.00  0.00     0.046 A 
ATOM      4  C   UNL     1      26.933  30.577 138.626  1.00  0.00     0.003 A 
ATOM      5  C   UNL     1      28.259  30.925 138.491  1.00  0.00     0.028 A 
ATOM      6  C   UNL     1      28.945  30.086 139.364  1.00  0.00     0.083 A 
ATOM      7  N   UNL     1      28.089  29.259 140.007  1.00  0.00    -0.361 N 
ATOM      8  C   UNL     1      25.794  31.080 138.000  1.00  0.00     0.056 A 
ATOM      9  C   UNL     1      24.548  30.516 138.347  1.00  0.00     0.116 A 
ATOM     10  H   UNL     1      28.334  28.531 140.715  1.00  0.00     0.166 HD
ENDROOT
BRANCH   9  11
ATOM     11  O   UNL     1      23.376  30.977 137.755  1.00  0.00    -0.508 OA
ATOM     12  H   UNL     1      22.990  31.886 137.983  1.00  0.00     0.293 HD
ENDBRANCH   9  11
TORSDOF 1
ENDMDL
MODEL 4
REMARK VINA RESULT:    -4.138     13.495     14.028
REMARK INTER + INTRA:          -4.259
REMARK INTER:                  -4.259
REMARK INTRA:                   0.000
REMARK UNBOUND:                 0.000
REMARK SMILES Oc1ccc2[nH]ccc2c1
REMARK SMILES IDX 3 1 4 2 5 3 9 4 8 5 7 6 6 7 10 8 2 9 1 11
REMARK H PARENT 6 10 1 12
REMARK Flexibility Score: inf
ROOT
ATOM      1  C   UNL     1      24.608  42.212 143.384  1.00  0.00     0.048 A 
ATOM      2  C   UNL     1      25.720  41.354 143.313  1.00  0.00     0.030 A 
ATOM      3  C   UNL     1      26.987  41.919 143.442  1.00  0.00     0.046 A 
ATOM      4  C   UNL     1      27.160  43.264 143.631  1.00  0.00     0.003 A 
ATOM      5  C   UNL     1      28.515  43.498 143.718  1.00  0.00     0.028 A 
ATOM      6  C   UNL     1      29.109  42.249 143.574  1.00  0.00     0.083 A 
ATOM      7  N   UNL     1      28.172  41.287 143.405  1.00  0.00    -0.361 N 
ATOM      8  C   UNL     1      26.080  44.142 143.705  1.00  0.00     0.056 A 
ATOM      9  C   UNL     1      24.782  43.602 143.579  1.00  0.00     0.116 A 
ATOM     10  H   UNL     1      28.339  40.265 143.274  1.00  0.00     0.166 HD
ENDROOT
BRANCH   9  11
ATOM     11  O   UNL     1      23.665  44.430 143.645  1.00  0.00    -0.508 OA
ATOM     12  H   UNL     1      23.136  44.673 142.816  1.00  0.00     0.293 HD
ENDBRANCH   9  11
TORSDOF 1
ENDMDL
MODEL 5
REMARK VINA RESULT:    -4.115      1.688      2.660
REMARK INTER + INTRA:          -4.235
REMARK INTER:                  -4.235
REMARK INTRA:                   0.000
REMARK UNBOUND:                 0.000
REMARK SMILES Oc1ccc2[nH]ccc2c1
REMARK SMILES IDX 3 1 4 2 5 3 9 4 8 5 7 6 6 7 10 8 2 9 1 11
REMARK H PARENT 6 10 1 12
REMARK Flexibility Score: inf
ROOT
ATOM      1  C   UNL     1      28.463  30.109 142.044  1.00  0.00     0.048 A 
ATOM      2  C   UNL     1      27.330  30.723 141.479  1.00  0.00     0.030 A 
ATOM      3  C   UNL     1      27.227  30.744 140.089  1.00  0.00     0.046 A 
ATOM      4  C   UNL     1      28.190  30.189 139.287  1.00  0.00     0.003 A 
ATOM      5  C   UNL     1      27.794  30.375 137.980  1.00  0.00     0.028 A 
ATOM      6  C   UNL     1      26.581  31.050 138.060  1.00  0.00     0.083 A 
ATOM      7  N   UNL     1      26.239  31.274 139.350  1.00  0.00    -0.361 N 
ATOM      8  C   UNL     1      29.323  29.575 139.816  1.00  0.00     0.056 A 
ATOM      9  C   UNL     1      29.458  29.535 141.219  1.00  0.00     0.116 A 
ATOM     10  H   UNL     1      25.381  31.758 139.696  1.00  0.00     0.166 HD
ENDROOT
BRANCH   9  11
ATOM     11  O   UNL     1      30.569  28.934 141.804  1.00  0.00    -0.508 OA
ATOM     12  H   UNL     1      30.546  27.971 142.117  1.00  0.00     0.293 HD
ENDBRANCH   9  11
TORSDOF 1
ENDMDL
MODEL 6
REMARK VINA RESULT:    -4.105      3.052      3.718
REMARK INTER + INTRA:          -4.225
REMARK INTER:                  -4.225
REMARK INTRA:                   0.000
REMARK UNBOUND:                 0.000
REMARK SMILES Oc1ccc2[nH]ccc2c1
REMARK SMILES IDX 3 1 4 2 5 3 9 4 8 5 7 6 6 7 10 8 2 9 1 11
REMARK H PARENT 6 10 1 12
REMARK Flexibility Score: inf
ROOT
ATOM      1  C   UNL     1      29.589  32.100 137.336  1.00  0.00     0.048 A 
ATOM      2  C   UNL     1      30.153  32.124 138.624  1.00  0.00     0.030 A 
ATOM      3  C   UNL     1      29.745  31.147 139.531  1.00  0.00     0.046 A 
ATOM      4  C   UNL     1      28.825  30.190 139.193  1.00  0.00     0.003 A 
ATOM      5  C   UNL     1      28.641  29.386 140.297  1.00  0.00     0.028 A 
ATOM      6  C   UNL     1      29.482  29.912 141.273  1.00  0.00     0.083 A 
ATOM      7  N   UNL     1      30.154  30.988 140.800  1.00  0.00    -0.361 N 
ATOM      8  C   UNL     1      28.247  30.139 137.926  1.00  0.00     0.056 A 
ATOM      9  C   UNL     1      28.639  31.113 136.984  1.00  0.00     0.116 A 
ATOM     10  H   UNL     1      30.847  31.571 141.319  1.00  0.00     0.166 HD
ENDROOT
BRANCH   9  11
ATOM     11  O   UNL     1      28.096  31.113 135.702  1.00  0.00    -0.508 OA
ATOM     12  H   UNL     1      27.098  31.021 135.550  1.00  0.00     0.293 HD
ENDBRANCH   9  11
TORSDOF 1
ENDMDL
MODEL 7
REMARK VINA RESULT:    -4.020      2.606      3.568
REMARK INTER + INTRA:          -4.137
REMARK INTER:                  -4.137
REMARK INTRA:                   0.000
REMARK UNBOUND:                 0.000
REMARK SMILES Oc1ccc2[nH]ccc2c1
REMARK SMILES IDX 3 1 4 2 5 3 9 4 8 5 7 6 6 7 10 8 2 9 1 11
REMARK H PARENT 6 10 1 12
REMARK Flexibility Score: inf
ROOT
ATOM      1  C   UNL     1      27.137  30.960 137.375  1.00  0.00     0.048 A 
ATOM      2  C   UNL     1      28.494  31.003 137.745  1.00  0.00     0.030 A 
ATOM      3  C   UNL     1      28.843  30.501 138.997  1.00  0.00     0.046 A 
ATOM      4  C   UNL     1      27.906  29.981 139.851  1.00  0.00     0.003 A 
ATOM      5  C   UNL     1      28.566  29.576 140.990  1.00  0.00     0.028 A 
ATOM      6  C   UNL     1      29.904  29.880 140.762  1.00  0.00     0.083 A 
ATOM      7  N   UNL     1      30.068  30.446 139.543  1.00  0.00    -0.361 N 
ATOM      8  C   UNL     1      26.555  29.924 139.515  1.00  0.00     0.056 A 
ATOM      9  C   UNL     1      26.168  30.424 138.253  1.00  0.00     0.116 A 
ATOM     10  H   UNL     1      30.965  30.770 139.119  1.00  0.00     0.166 HD
ENDROOT
BRANCH   9  11
ATOM     11  O   UNL     1      24.832  30.393 137.863  1.00  0.00    -0.508 OA
ATOM     12  H   UNL     1      24.247  31.219 137.914  1.00  0.00     0.293 HD
ENDBRANCH   9  11
TORSDOF 1
ENDMDL
MODEL 8
REMARK VINA RESULT:    -3.977     13.205     13.484
REMARK INTER + INTRA:          -4.093
REMARK INTER:                  -4.093
REMARK INTRA:                   0.000
REMARK UNBOUND:                 0.000
REMARK SMILES Oc1ccc2[nH]ccc2c1
REMARK SMILES IDX 3 1 4 2 5 3 9 4 8 5 7 6 6 7 10 8 2 9 1 11
REMARK H PARENT 6 10 1 12
REMARK Flexibility Score: inf
ROOT
ATOM      1  C   UNL     1      28.906  43.363 144.110  1.00  0.00     0.048 A 
ATOM      2  C   UNL     1      27.730  44.135 144.129  1.00  0.00     0.030 A 
ATOM      3  C   UNL     1      26.533  43.506 143.788  1.00  0.00     0.046 A 
ATOM      4  C   UNL     1      26.489  42.181 143.443  1.00  0.00     0.003 A 
ATOM      5  C   UNL     1      25.176  41.871 143.166  1.00  0.00     0.028 A 
ATOM      6  C   UNL     1      24.473  43.056 143.363  1.00  0.00     0.083 A 
ATOM      7  N   UNL     1      25.307  44.052 143.742  1.00  0.00    -0.361 N 
ATOM      8  C   UNL     1      27.635  41.390 143.414  1.00  0.00     0.056 A 
ATOM      9  C   UNL     1      28.864  41.995 143.754  1.00  0.00     0.116 A 
ATOM     10  H   UNL     1      25.046  45.040 143.956  1.00  0.00     0.166 HD
ENDROOT
BRANCH   9  11
ATOM     11  O   UNL     1      30.042  41.254 143.743  1.00  0.00    -0.508 OA
ATOM     12  H   UNL     1      30.707  41.306 144.505  1.00  0.00     0.293 HD
ENDBRANCH   9  11
TORSDOF 1
ENDMDL
MODEL 9
REMARK VINA RESULT:    -3.976     14.137     14.720
REMARK INTER + INTRA:          -4.092
REMARK INTER:                  -4.092
REMARK INTRA:                   0.000
REMARK UNBOUND:                 0.000
REMARK SMILES Oc1ccc2[nH]ccc2c1
REMARK SMILES IDX 3 1 4 2 5 3 9 4 8 5 7 6 6 7 10 8 2 9 1 11
REMARK H PARENT 6 10 1 12
REMARK Flexibility Score: inf
ROOT
ATOM      1  C   UNL     1      25.188  43.893 143.432  1.00  0.00     0.048 A 
ATOM      2  C   UNL     1      26.102  43.355 142.508  1.00  0.00     0.030 A 
ATOM      3  C   UNL     1      25.845  43.546 141.151  1.00  0.00     0.046 A 
ATOM      4  C   UNL     1      24.742  44.233 140.718  1.00  0.00     0.003 A 
ATOM      5  C   UNL     1      24.779  44.244 139.340  1.00  0.00     0.028 A 
ATOM      6  C   UNL     1      25.933  43.545 139.002  1.00  0.00     0.083 A 
ATOM      7  N   UNL     1      26.580  43.120 140.112  1.00  0.00    -0.361 N 
ATOM      8  C   UNL     1      23.817  44.778 141.606  1.00  0.00     0.056 A 
ATOM      9  C   UNL     1      24.048  44.603 142.987  1.00  0.00     0.116 A 
ATOM     10  H   UNL     1      27.469  42.575 140.148  1.00  0.00     0.166 HD
ENDROOT
BRANCH   9  11
ATOM     11  O   UNL     1      23.159  45.125 143.922  1.00  0.00    -0.508 OA
ATOM     12  H   UNL     1      22.354  44.598 144.239  1.00  0.00     0.293 HD
ENDBRANCH   9  11
TORSDOF 1
ENDMDL
