MODEL 1
REMARK VINA RESULT:    -1.898      0.000      0.000
REMARK INTER + INTRA:          -2.598
REMARK INTER:                  -2.452
REMARK INTRA:                  -0.146
REMARK UNBOUND:                -0.146
REMARK SMILES CCCCCCC(=O)[O-]
REMARK SMILES IDX 5 1 6 2 7 3 8 4 9 5 4 6 3 7 2 8 1 9
REMARK H PARENT
REMARK Flexibility Score: inf
ROOT
ATOM      1  C   UNL     1     -15.224  23.995 -20.871  1.00  0.00     0.006 C 
ENDROOT
BRANCH   1   2
ATOM      2  C   UNL     1     -14.534  22.942 -21.746  1.00  0.00     0.053 C 
BRANCH   2   3
ATOM      3  C   UNL     1     -13.549  23.561 -22.691  1.00  0.00     0.041 C 
ATOM      4  O   UNL     1     -12.574  22.890 -23.118  1.00  0.00    -0.550 OA
ATOM      5  O   UNL     1     -13.730  24.868 -23.125  1.00  0.00    -0.550 OA
ENDBRANCH   2   3
ENDBRANCH   1   2
BRANCH   1   6
ATOM      6  C   UNL     1     -16.197  23.367 -19.862  1.00  0.00     0.000 C 
BRANCH   6   7
ATOM      7  C   UNL     1     -16.582  24.372 -18.771  1.00  0.00    -0.000 C 
BRANCH   7   8
ATOM      8  C   UNL     1     -16.706  25.787 -19.346  1.00  0.00    -0.003 C 
ATOM      9  C   UNL     1     -17.111  26.787 -18.267  1.00  0.00     0.004 C 
ENDBRANCH   7   8
ENDBRANCH   6   7
ENDBRANCH   1   6
TORSDOF 5
ENDMDL
MODEL 2
REMARK VINA RESULT:    -1.257     12.772     13.800
REMARK INTER + INTRA:          -1.770
REMARK INTER:                  -1.512
REMARK INTRA:                  -0.258
REMARK UNBOUND:                -0.146
REMARK SMILES CCCCCCC(=O)[O-]
REMARK SMILES IDX 5 1 6 2 7 3 8 4 9 5 4 6 3 7 2 8 1 9
REMARK H PARENT
REMARK Flexibility Score: inf
ROOT
ATOM      1  C   UNL     1      -7.553  34.477 -15.606  1.00  0.00     0.006 C 
ENDROOT
BRANCH   1   2
ATOM      2  C   UNL     1      -8.568  33.560 -16.301  1.00  0.00     0.053 C 
BRANCH   2   3
ATOM      3  C   UNL     1      -8.157  32.122 -16.232  1.00  0.00     0.041 C 
ATOM      4  O   UNL     1      -7.811  31.512 -17.277  1.00  0.00    -0.550 OA
ATOM      5  O   UNL     1      -8.123  31.466 -15.008  1.00  0.00    -0.550 OA
ENDBRANCH   2   3
ENDBRANCH   1   2
BRANCH   1   6
ATOM      6  C   UNL     1      -6.127  34.277 -16.141  1.00  0.00     0.000 C 
BRANCH   6   7
ATOM      7  C   UNL     1      -5.948  34.967 -17.498  1.00  0.00    -0.000 C 
BRANCH   7   8
ATOM      8  C   UNL     1      -5.875  36.490 -17.335  1.00  0.00    -0.003 C 
ATOM      9  C   UNL     1      -6.260  37.202 -18.628  1.00  0.00     0.004 C 
ENDBRANCH   7   8
ENDBRANCH   6   7
ENDBRANCH   1   6
TORSDOF 5
ENDMDL
MODEL 3
REMARK VINA RESULT:    -0.995     13.301     14.260
REMARK INTER + INTRA:          -1.431
REMARK INTER:                  -1.264
REMARK INTRA:                  -0.168
REMARK UNBOUND:                -0.146
REMARK SMILES CCCCCCC(=O)[O-]
REMARK SMILES IDX 5 1 6 2 7 3 8 4 9 5 4 6 3 7 2 8 1 9
REMARK H PARENT
REMARK Flexibility Score: inf
ROOT
ATOM      1  C   UNL     1      -5.875  34.515 -16.344  1.00  0.00     0.006 C 
ENDROOT
BRANCH   1   2
ATOM      2  C   UNL     1      -5.880  35.179 -17.727  1.00  0.00     0.053 C 
BRANCH   2   3
ATOM      3  C   UNL     1      -6.154  36.649 -17.638  1.00  0.00     0.041 C 
ATOM      4  O   UNL     1      -6.326  37.326 -18.685  1.00  0.00    -0.550 OA
ATOM      5  O   UNL     1      -6.253  37.264 -16.396  1.00  0.00    -0.550 OA
ENDBRANCH   2   3
ENDBRANCH   1   2
BRANCH   1   6
ATOM      6  C   UNL     1      -7.285  34.109 -15.889  1.00  0.00     0.000 C 
BRANCH   6   7
ATOM      7  C   UNL     1      -7.941  33.169 -16.906  1.00  0.00    -0.000 C 
BRANCH   7   8
ATOM      8  C   UNL     1      -8.484  31.909 -16.221  1.00  0.00    -0.003 C 
ATOM      9  C   UNL     1      -8.388  32.023 -14.702  1.00  0.00     0.004 C 
ENDBRANCH   7   8
ENDBRANCH   6   7
ENDBRANCH   1   6
TORSDOF 5
ENDMDL
MODEL 4
REMARK VINA RESULT:    -0.794      3.177      5.227
REMARK INTER + INTRA:          -1.172
REMARK INTER:                  -1.070
REMARK INTRA:                  -0.102
REMARK UNBOUND:                -0.146
REMARK SMILES CCCCCCC(=O)[O-]
REMARK SMILES IDX 5 1 6 2 7 3 8 4 9 5 4 6 3 7 2 8 1 9
REMARK H PARENT
REMARK Flexibility Score: inf
ROOT
ATOM      1  C   UNL     1     -15.723  23.670 -19.293  1.00  0.00     0.006 C 
ENDROOT
BRANCH   1   2
ATOM      2  C   UNL     1     -16.981  24.545 -19.350  1.00  0.00     0.053 C 
BRANCH   2   3
ATOM      3  C   UNL     1     -16.917  25.677 -18.371  1.00  0.00     0.041 C 
ATOM      4  O   UNL     1     -16.815  26.863 -18.780  1.00  0.00    -0.550 OA
ATOM      5  O   UNL     1     -17.004  25.423 -17.008  1.00  0.00    -0.550 OA
ENDBRANCH   2   3
ENDBRANCH   1   2
BRANCH   1   6
ATOM      6  C   UNL     1     -15.504  22.880 -20.592  1.00  0.00     0.000 C 
BRANCH   6   7
ATOM      7  C   UNL     1     -14.812  23.746 -21.651  1.00  0.00    -0.000 C 
BRANCH   7   8
ATOM      8  C   UNL     1     -14.145  22.875 -22.723  1.00  0.00    -0.003 C 
ATOM      9  C   UNL     1     -12.662  23.205 -22.858  1.00  0.00     0.004 C 
ENDBRANCH   7   8
ENDBRANCH   6   7
ENDBRANCH   1   6
TORSDOF 5
ENDMDL
