MODEL 1
REMARK VINA RESULT:    -6.177      0.000      0.000
REMARK INTER + INTRA:          -7.384
REMARK INTER:                  -7.080
REMARK INTRA:                  -0.305
REMARK UNBOUND:                -0.305
REMARK SMILES O=C1C[C@H](c2ccc(O)cc2)Oc2cc(O)cc(O)c21
REMARK SMILES IDX 3 1 4 2 12 3 13 4 14 5 15 6 17 7 18 8 20 9 2 10 1 11 5 12
REMARK SMILES IDX 6 13 11 14 7 15 10 16 8 17 9 18 19 20 16 22
REMARK H PARENT 9 19 19 21 16 23
REMARK Flexibility Score: inf
ROOT
ATOM      1  C   UNL     1    -114.510  -3.752  77.633  1.00  0.00     0.131 C 
ATOM      2  C   UNL     1    -115.099  -2.336  77.544  1.00  0.00     0.211 C 
ATOM      3  O   UNL     1    -114.820  -1.756  76.267  1.00  0.00    -0.484 OA
ATOM      4  C   UNL     1    -113.594  -1.928  75.609  1.00  0.00     0.138 A 
ATOM      5  C   UNL     1    -113.294  -1.115  74.514  1.00  0.00     0.093 A 
ATOM      6  C   UNL     1    -112.077  -1.251  73.847  1.00  0.00     0.123 A 
ATOM      7  C   UNL     1    -111.164  -2.228  74.260  1.00  0.00     0.093 A 
ATOM      8  C   UNL     1    -111.461  -3.081  75.330  1.00  0.00     0.133 A 
ATOM      9  C   UNL     1    -112.679  -2.912  76.041  1.00  0.00     0.102 A 
ATOM     10  C   UNL     1    -113.066  -3.709  77.231  1.00  0.00     0.174 C 
ATOM     11  O   UNL     1    -112.210  -4.302  77.939  1.00  0.00    -0.294 OA
ENDROOT
BRANCH   2  12
ATOM     12  C   UNL     1    -116.588  -2.362  77.788  1.00  0.00    -0.007 A 
ATOM     13  C   UNL     1    -117.093  -2.260  79.095  1.00  0.00     0.011 A 
ATOM     14  C   UNL     1    -117.485  -2.544  76.719  1.00  0.00     0.011 A 
ATOM     15  C   UNL     1    -118.471  -2.314  79.326  1.00  0.00     0.046 A 
ATOM     16  C   UNL     1    -118.861  -2.597  76.953  1.00  0.00     0.046 A 
ATOM     17  C   UNL     1    -119.358  -2.481  78.258  1.00  0.00     0.115 A 
BRANCH  17  18
ATOM     18  O   UNL     1    -120.728  -2.531  78.504  1.00  0.00    -0.508 OA
ATOM     19  H   UNL     1    -121.392  -2.728  77.764  1.00  0.00     0.293 HD
ENDBRANCH  17  18
ENDBRANCH   2  12
BRANCH   8  20
ATOM     20  O   UNL     1    -110.540  -4.090  75.622  1.00  0.00    -0.507 OA
ATOM     21  H   UNL     1    -109.873  -4.455  74.957  1.00  0.00     0.293 HD
ENDBRANCH   8  20
BRANCH   6  22
ATOM     22  O   UNL     1    -111.786  -0.417  72.770  1.00  0.00    -0.508 OA
ATOM     23  H   UNL     1    -111.750   0.591  72.875  1.00  0.00     0.293 HD
ENDBRANCH   6  22
TORSDOF 4
ENDMDL
MODEL 2
REMARK VINA RESULT:    -6.109      2.402      3.150
REMARK INTER + INTRA:          -7.306
REMARK INTER:                  -6.994
REMARK INTRA:                  -0.313
REMARK UNBOUND:                -0.305
REMARK SMILES O=C1C[C@H](c2ccc(O)cc2)Oc2cc(O)cc(O)c21
REMARK SMILES IDX 3 1 4 2 12 3 13 4 14 5 15 6 17 7 18 8 20 9 2 10 1 11 5 12
REMARK SMILES IDX 6 13 11 14 7 15 10 16 8 17 9 18 19 20 16 22
REMARK H PARENT 9 19 19 21 16 23
REMARK Flexibility Score: inf
ROOT
ATOM      1  C   UNL     1    -115.729  -1.222  79.624  1.00  0.00     0.131 C 
ATOM      2  C   UNL     1    -116.455  -0.912  78.307  1.00  0.00     0.211 C 
ATOM      3  O   UNL     1    -115.578  -1.102  77.193  1.00  0.00    -0.484 OA
ATOM      4  C   UNL     1    -114.226  -0.734  77.223  1.00  0.00     0.138 A 
ATOM      5  C   UNL     1    -113.510  -0.691  76.024  1.00  0.00     0.093 A 
ATOM      6  C   UNL     1    -112.167  -0.314  76.019  1.00  0.00     0.123 A 
ATOM      7  C   UNL     1    -111.526  -0.006  77.224  1.00  0.00     0.093 A 
ATOM      8  C   UNL     1    -112.215  -0.081  78.441  1.00  0.00     0.133 A 
ATOM      9  C   UNL     1    -113.595  -0.418  78.445  1.00  0.00     0.102 A 
ATOM     10  C   UNL     1    -114.438  -0.459  79.665  1.00  0.00     0.174 C 
ATOM     11  O   UNL     1    -114.126   0.171  80.709  1.00  0.00    -0.294 OA
ENDROOT
BRANCH   2  12
ATOM     12  C   UNL     1    -117.681  -1.780  78.156  1.00  0.00    -0.007 A 
ATOM     13  C   UNL     1    -118.133  -2.150  76.879  1.00  0.00     0.011 A 
ATOM     14  C   UNL     1    -118.415  -2.182  79.286  1.00  0.00     0.011 A 
ATOM     15  C   UNL     1    -119.284  -2.929  76.734  1.00  0.00     0.046 A 
ATOM     16  C   UNL     1    -119.566  -2.961  79.140  1.00  0.00     0.046 A 
ATOM     17  C   UNL     1    -120.003  -3.338  77.862  1.00  0.00     0.115 A 
BRANCH  17  18
ATOM     18  O   UNL     1    -121.148  -4.115  77.704  1.00  0.00    -0.508 OA
ATOM     19  H   UNL     1    -121.418  -4.482  76.799  1.00  0.00     0.293 HD
ENDBRANCH  17  18
ENDBRANCH   2  12
BRANCH   8  20
ATOM     20  O   UNL     1    -111.482   0.150  79.608  1.00  0.00    -0.507 OA
ATOM     21  H   UNL     1    -110.544   0.524  79.620  1.00  0.00     0.293 HD
ENDBRANCH   8  20
BRANCH   6  22
ATOM     22  O   UNL     1    -111.475  -0.256  74.811  1.00  0.00    -0.508 OA
ATOM     23  H   UNL     1    -111.765   0.364  74.063  1.00  0.00     0.293 HD
ENDBRANCH   6  22
TORSDOF 4
ENDMDL
MODEL 3
REMARK VINA RESULT:    -6.038      5.035      7.416
REMARK INTER + INTRA:          -7.226
REMARK INTER:                  -6.924
REMARK INTRA:                  -0.302
REMARK UNBOUND:                -0.305
REMARK SMILES O=C1C[C@H](c2ccc(O)cc2)Oc2cc(O)cc(O)c21
REMARK SMILES IDX 3 1 4 2 12 3 13 4 14 5 15 6 17 7 18 8 20 9 2 10 1 11 5 12
REMARK SMILES IDX 6 13 11 14 7 15 10 16 8 17 9 18 19 20 16 22
REMARK H PARENT 9 19 19 21 16 23
REMARK Flexibility Score: inf
ROOT
ATOM      1  C   UNL     1    -108.997  -3.844  73.030  1.00  0.00     0.131 C 
ATOM      2  C   UNL     1    -109.440  -2.748  74.009  1.00  0.00     0.211 C 
ATOM      3  O   UNL     1    -108.402  -1.779  74.183  1.00  0.00    -0.484 OA
ATOM      4  C   UNL     1    -107.047  -2.129  74.263  1.00  0.00     0.138 A 
ATOM      5  C   UNL     1    -106.128  -1.176  74.707  1.00  0.00     0.093 A 
ATOM      6  C   UNL     1    -104.774  -1.497  74.811  1.00  0.00     0.123 A 
ATOM      7  C   UNL     1    -104.332  -2.772  74.440  1.00  0.00     0.093 A 
ATOM      8  C   UNL     1    -105.231  -3.729  73.954  1.00  0.00     0.133 A 
ATOM      9  C   UNL     1    -106.616  -3.421  73.892  1.00  0.00     0.102 A 
ATOM     10  C   UNL     1    -107.664  -4.379  73.462  1.00  0.00     0.174 C 
ATOM     11  O   UNL     1    -107.481  -5.624  73.503  1.00  0.00    -0.294 OA
ENDROOT
BRANCH   2  12
ATOM     12  C   UNL     1    -110.700  -2.075  73.521  1.00  0.00    -0.007 A 
ATOM     13  C   UNL     1    -110.623  -0.970  72.657  1.00  0.00     0.011 A 
ATOM     14  C   UNL     1    -111.962  -2.508  73.968  1.00  0.00     0.011 A 
ATOM     15  C   UNL     1    -111.787  -0.326  72.228  1.00  0.00     0.046 A 
ATOM     16  C   UNL     1    -113.124  -1.863  73.536  1.00  0.00     0.046 A 
ATOM     17  C   UNL     1    -113.039  -0.770  72.664  1.00  0.00     0.115 A 
BRANCH  17  18
ATOM     18  O   UNL     1    -114.190  -0.119  72.226  1.00  0.00    -0.508 OA
ATOM     19  H   UNL     1    -114.807   0.358  72.874  1.00  0.00     0.293 HD
ENDBRANCH  17  18
ENDBRANCH   2  12
BRANCH   8  20
ATOM     20  O   UNL     1    -104.699  -4.945  73.517  1.00  0.00    -0.507 OA
ATOM     21  H   UNL     1    -104.050  -5.503  74.054  1.00  0.00     0.293 HD
ENDBRANCH   8  20
BRANCH   6  22
ATOM     22  O   UNL     1    -103.875  -0.541  75.277  1.00  0.00    -0.508 OA
ATOM     23  H   UNL     1    -103.279  -0.021  74.643  1.00  0.00     0.293 HD
ENDBRANCH   6  22
TORSDOF 4
ENDMDL
MODEL 4
REMARK VINA RESULT:    -5.984      7.901      8.638
REMARK INTER + INTRA:          -7.164
REMARK INTER:                  -6.843
REMARK INTRA:                  -0.321
REMARK UNBOUND:                -0.305
REMARK SMILES O=C1C[C@H](c2ccc(O)cc2)Oc2cc(O)cc(O)c21
REMARK SMILES IDX 3 1 4 2 12 3 13 4 14 5 15 6 17 7 18 8 20 9 2 10 1 11 5 12
REMARK SMILES IDX 6 13 11 14 7 15 10 16 8 17 9 18 19 20 16 22
REMARK H PARENT 9 19 19 21 16 23
REMARK Flexibility Score: inf
ROOT
ATOM      1  C   UNL     1    -114.041  -9.780  81.024  1.00  0.00     0.131 C 
ATOM      2  C   UNL     1    -115.450  -9.629  80.434  1.00  0.00     0.211 C 
ATOM      3  O   UNL     1    -115.521 -10.238  79.141  1.00  0.00    -0.484 OA
ATOM      4  C   UNL     1    -114.478 -10.158  78.208  1.00  0.00     0.138 A 
ATOM      5  C   UNL     1    -114.724 -10.530  76.885  1.00  0.00     0.093 A 
ATOM      6  C   UNL     1    -113.711 -10.448  75.929  1.00  0.00     0.123 A 
ATOM      7  C   UNL     1    -112.433 -10.017  76.306  1.00  0.00     0.093 A 
ATOM      8  C   UNL     1    -112.155  -9.677  77.635  1.00  0.00     0.133 A 
ATOM      9  C   UNL     1    -113.196  -9.714  78.600  1.00  0.00     0.102 A 
ATOM     10  C   UNL     1    -113.033  -9.309  80.018  1.00  0.00     0.174 C 
ATOM     11  O   UNL     1    -112.106  -8.539  80.386  1.00  0.00    -0.294 OA
ENDROOT
BRANCH   2  12
ATOM     12  C   UNL     1    -116.481 -10.239  81.352  1.00  0.00    -0.007 A 
ATOM     13  C   UNL     1    -116.434  -9.990  82.734  1.00  0.00     0.011 A 
ATOM     14  C   UNL     1    -117.466 -11.106  80.845  1.00  0.00     0.011 A 
ATOM     15  C   UNL     1    -117.369 -10.577  83.590  1.00  0.00     0.046 A 
ATOM     16  C   UNL     1    -118.400 -11.692  81.704  1.00  0.00     0.046 A 
ATOM     17  C   UNL     1    -118.354 -11.428  83.079  1.00  0.00     0.115 A 
BRANCH  17  18
ATOM     18  O   UNL     1    -119.281 -12.005  83.944  1.00  0.00    -0.508 OA
ATOM     19  H   UNL     1    -119.740 -11.463  84.667  1.00  0.00     0.293 HD
ENDBRANCH  17  18
ENDBRANCH   2  12
BRANCH   8  20
ATOM     20  O   UNL     1    -110.834  -9.346  77.950  1.00  0.00    -0.507 OA
ATOM     21  H   UNL     1    -110.564  -8.502  78.433  1.00  0.00     0.293 HD
ENDBRANCH   8  20
BRANCH   6  22
ATOM     22  O   UNL     1    -113.980 -10.803  74.610  1.00  0.00    -0.508 OA
ATOM     23  H   UNL     1    -114.663 -11.517  74.383  1.00  0.00     0.293 HD
ENDBRANCH   6  22
TORSDOF 4
ENDMDL
MODEL 5
REMARK VINA RESULT:    -5.839      4.767      7.928
REMARK INTER + INTRA:          -6.997
REMARK INTER:                  -6.686
REMARK INTRA:                  -0.311
REMARK UNBOUND:                -0.305
REMARK SMILES O=C1C[C@H](c2ccc(O)cc2)Oc2cc(O)cc(O)c21
REMARK SMILES IDX 3 1 4 2 12 3 13 4 14 5 15 6 17 7 18 8 20 9 2 10 1 11 5 12
REMARK SMILES IDX 6 13 11 14 7 15 10 16 8 17 9 18 19 20 16 22
REMARK H PARENT 9 19 19 21 16 23
REMARK Flexibility Score: inf
ROOT
ATOM      1  C   UNL     1    -107.454  -2.605  74.103  1.00  0.00     0.131 C 
ATOM      2  C   UNL     1    -108.668  -3.511  73.854  1.00  0.00     0.211 C 
ATOM      3  O   UNL     1    -108.737  -4.542  74.844  1.00  0.00    -0.484 OA
ATOM      4  C   UNL     1    -107.599  -5.200  75.331  1.00  0.00     0.138 A 
ATOM      5  C   UNL     1    -107.762  -6.370  76.076  1.00  0.00     0.093 A 
ATOM      6  C   UNL     1    -106.649  -7.056  76.563  1.00  0.00     0.123 A 
ATOM      7  C   UNL     1    -105.364  -6.553  76.327  1.00  0.00     0.093 A 
ATOM      8  C   UNL     1    -105.181  -5.361  75.617  1.00  0.00     0.133 A 
ATOM      9  C   UNL     1    -106.309  -4.686  75.079  1.00  0.00     0.102 A 
ATOM     10  C   UNL     1    -106.228  -3.457  74.252  1.00  0.00     0.174 C 
ATOM     11  O   UNL     1    -105.178  -3.142  73.632  1.00  0.00    -0.294 OA
ENDROOT
BRANCH   2  12
ATOM     12  C   UNL     1    -109.944  -2.705  73.857  1.00  0.00    -0.007 A 
ATOM     13  C   UNL     1    -110.256  -1.872  72.770  1.00  0.00     0.011 A 
ATOM     14  C   UNL     1    -110.807  -2.734  74.967  1.00  0.00     0.011 A 
ATOM     15  C   UNL     1    -111.422  -1.101  72.782  1.00  0.00     0.046 A 
ATOM     16  C   UNL     1    -111.972  -1.963  74.977  1.00  0.00     0.046 A 
ATOM     17  C   UNL     1    -112.283  -1.145  73.883  1.00  0.00     0.115 A 
BRANCH  17  18
ATOM     18  O   UNL     1    -113.443  -0.372  73.881  1.00  0.00    -0.508 OA
ATOM     19  H   UNL     1    -114.347  -0.774  74.097  1.00  0.00     0.293 HD
ENDBRANCH  17  18
ENDBRANCH   2  12
BRANCH   8  20
ATOM     20  O   UNL     1    -103.875  -4.876  75.503  1.00  0.00    -0.507 OA
ATOM     21  H   UNL     1    -103.647  -3.907  75.329  1.00  0.00     0.293 HD
ENDBRANCH   8  20
BRANCH   6  22
ATOM     22  O   UNL     1    -106.829  -8.233  77.286  1.00  0.00    -0.508 OA
ATOM     23  H   UNL     1    -106.058  -8.864  77.472  1.00  0.00     0.293 HD
ENDBRANCH   6  22
TORSDOF 4
ENDMDL
MODEL 6
REMARK VINA RESULT:    -5.802      1.917      6.834
REMARK INTER + INTRA:          -6.955
REMARK INTER:                  -6.645
REMARK INTRA:                  -0.310
REMARK UNBOUND:                -0.305
REMARK SMILES O=C1C[C@H](c2ccc(O)cc2)Oc2cc(O)cc(O)c21
REMARK SMILES IDX 3 1 4 2 12 3 13 4 14 5 15 6 17 7 18 8 20 9 2 10 1 11 5 12
REMARK SMILES IDX 6 13 11 14 7 15 10 16 8 17 9 18 19 20 16 22
REMARK H PARENT 9 19 19 21 16 23
REMARK Flexibility Score: inf
ROOT
ATOM      1  C   UNL     1    -115.702  -1.519  78.402  1.00  0.00     0.131 C 
ATOM      2  C   UNL     1    -115.313  -2.403  77.209  1.00  0.00     0.211 C 
ATOM      3  O   UNL     1    -116.407  -2.523  76.295  1.00  0.00    -0.484 OA
ATOM      4  C   UNL     1    -117.737  -2.655  76.719  1.00  0.00     0.138 A 
ATOM      5  C   UNL     1    -118.707  -3.044  75.792  1.00  0.00     0.093 A 
ATOM      6  C   UNL     1    -120.036  -3.199  76.186  1.00  0.00     0.123 A 
ATOM      7  C   UNL     1    -120.404  -2.935  77.511  1.00  0.00     0.093 A 
ATOM      8  C   UNL     1    -119.454  -2.505  78.446  1.00  0.00     0.133 A 
ATOM      9  C   UNL     1    -118.092  -2.393  78.059  1.00  0.00     0.102 A 
ATOM     10  C   UNL     1    -116.993  -2.017  78.982  1.00  0.00     0.174 C 
ATOM     11  O   UNL     1    -117.097  -2.156  80.230  1.00  0.00    -0.294 OA
ENDROOT
BRANCH   2  12
ATOM     12  C   UNL     1    -114.105  -1.841  76.500  1.00  0.00    -0.007 A 
ATOM     13  C   UNL     1    -113.319  -0.853  77.117  1.00  0.00     0.011 A 
ATOM     14  C   UNL     1    -113.784  -2.256  75.195  1.00  0.00     0.011 A 
ATOM     15  C   UNL     1    -112.217  -0.309  76.452  1.00  0.00     0.046 A 
ATOM     16  C   UNL     1    -112.681  -1.710  74.532  1.00  0.00     0.046 A 
ATOM     17  C   UNL     1    -111.894  -0.736  75.160  1.00  0.00     0.115 A 
BRANCH  17  18
ATOM     18  O   UNL     1    -110.792  -0.185  74.509  1.00  0.00    -0.508 OA
ATOM     19  H   UNL     1    -109.995  -0.752  74.244  1.00  0.00     0.293 HD
ENDBRANCH  17  18
ENDBRANCH   2  12
BRANCH   8  20
ATOM     20  O   UNL     1    -119.916  -2.173  79.722  1.00  0.00    -0.507 OA
ATOM     21  H   UNL     1    -119.368  -1.671  80.407  1.00  0.00     0.293 HD
ENDBRANCH   8  20
BRANCH   6  22
ATOM     22  O   UNL     1    -120.986  -3.607  75.253  1.00  0.00    -0.508 OA
ATOM     23  H   UNL     1    -121.916  -3.205  75.233  1.00  0.00     0.293 HD
ENDBRANCH   6  22
TORSDOF 4
ENDMDL
MODEL 7
REMARK VINA RESULT:    -5.795      3.951      6.814
REMARK INTER + INTRA:          -6.947
REMARK INTER:                  -6.649
REMARK INTRA:                  -0.298
REMARK UNBOUND:                -0.305
REMARK SMILES O=C1C[C@H](c2ccc(O)cc2)Oc2cc(O)cc(O)c21
REMARK SMILES IDX 3 1 4 2 12 3 13 4 14 5 15 6 17 7 18 8 20 9 2 10 1 11 5 12
REMARK SMILES IDX 6 13 11 14 7 15 10 16 8 17 9 18 19 20 16 22
REMARK H PARENT 9 19 19 21 16 23
REMARK Flexibility Score: inf
ROOT
ATOM      1  C   UNL     1    -109.229  -0.835  74.753  1.00  0.00     0.131 C 
ATOM      2  C   UNL     1    -109.789  -1.969  73.883  1.00  0.00     0.211 C 
ATOM      3  O   UNL     1    -108.931  -3.113  73.935  1.00  0.00    -0.484 OA
ATOM      4  C   UNL     1    -107.533  -3.010  73.944  1.00  0.00     0.138 A 
ATOM      5  C   UNL     1    -106.769  -4.157  73.716  1.00  0.00     0.093 A 
ATOM      6  C   UNL     1    -105.376  -4.086  73.703  1.00  0.00     0.123 A 
ATOM      7  C   UNL     1    -104.741  -2.863  73.950  1.00  0.00     0.093 A 
ATOM      8  C   UNL     1    -105.487  -1.710  74.221  1.00  0.00     0.133 A 
ATOM      9  C   UNL     1    -106.906  -1.770  74.187  1.00  0.00     0.102 A 
ATOM     10  C   UNL     1    -107.793  -0.598  74.388  1.00  0.00     0.174 C 
ATOM     11  O   UNL     1    -107.388   0.580  74.207  1.00  0.00    -0.294 OA
ENDROOT
BRANCH   2  12
ATOM     12  C   UNL     1    -111.181  -2.345  74.328  1.00  0.00    -0.007 A 
ATOM     13  C   UNL     1    -112.300  -1.886  73.613  1.00  0.00     0.011 A 
ATOM     14  C   UNL     1    -111.378  -3.110  75.491  1.00  0.00     0.011 A 
ATOM     15  C   UNL     1    -113.592  -2.207  74.040  1.00  0.00     0.046 A 
ATOM     16  C   UNL     1    -112.671  -3.431  75.916  1.00  0.00     0.046 A 
ATOM     17  C   UNL     1    -113.781  -2.981  75.190  1.00  0.00     0.115 A 
BRANCH  17  18
ATOM     18  O   UNL     1    -115.074  -3.294  75.603  1.00  0.00    -0.508 OA
ATOM     19  H   UNL     1    -115.744  -2.571  75.841  1.00  0.00     0.293 HD
ENDBRANCH  17  18
ENDBRANCH   2  12
BRANCH   8  20
ATOM     20  O   UNL     1    -104.779  -0.550  74.549  1.00  0.00    -0.507 OA
ATOM     21  H   UNL     1    -103.778  -0.517  74.674  1.00  0.00     0.293 HD
ENDBRANCH   8  20
BRANCH   6  22
ATOM     22  O   UNL     1    -104.631  -5.236  73.453  1.00  0.00    -0.508 OA
ATOM     23  H   UNL     1    -104.047  -5.320  72.629  1.00  0.00     0.293 HD
ENDBRANCH   6  22
TORSDOF 4
ENDMDL
MODEL 8
REMARK VINA RESULT:    -5.782     13.574     15.526
REMARK INTER + INTRA:          -6.931
REMARK INTER:                  -6.644
REMARK INTRA:                  -0.287
REMARK UNBOUND:                -0.305
REMARK SMILES O=C1C[C@H](c2ccc(O)cc2)Oc2cc(O)cc(O)c21
REMARK SMILES IDX 3 1 4 2 12 3 13 4 14 5 15 6 17 7 18 8 20 9 2 10 1 11 5 12
REMARK SMILES IDX 6 13 11 14 7 15 10 16 8 17 9 18 19 20 16 22
REMARK H PARENT 9 19 19 21 16 23
REMARK Flexibility Score: inf
ROOT
ATOM      1  C   UNL     1    -117.803 -12.390  87.800  1.00  0.00     0.131 C 
ATOM      2  C   UNL     1    -119.093 -13.125  87.411  1.00  0.00     0.211 C 
ATOM      3  O   UNL     1    -119.114 -13.394  86.006  1.00  0.00    -0.484 OA
ATOM      4  C   UNL     1    -118.646 -12.478  85.054  1.00  0.00     0.138 A 
ATOM      5  C   UNL     1    -118.951 -12.688  83.707  1.00  0.00     0.093 A 
ATOM      6  C   UNL     1    -118.512 -11.787  82.736  1.00  0.00     0.123 A 
ATOM      7  C   UNL     1    -117.737 -10.684  83.112  1.00  0.00     0.093 A 
ATOM      8  C   UNL     1    -117.386 -10.477  84.451  1.00  0.00     0.133 A 
ATOM      9  C   UNL     1    -117.872 -11.366  85.447  1.00  0.00     0.102 A 
ATOM     10  C   UNL     1    -117.622 -11.204  86.901  1.00  0.00     0.174 C 
ATOM     11  O   UNL     1    -117.319 -10.089  87.402  1.00  0.00    -0.294 OA
ENDROOT
BRANCH   2  12
ATOM     12  C   UNL     1    -119.228 -14.413  88.187  1.00  0.00    -0.007 A 
ATOM     13  C   UNL     1    -120.376 -14.656  88.961  1.00  0.00     0.011 A 
ATOM     14  C   UNL     1    -118.187 -15.359  88.190  1.00  0.00     0.011 A 
ATOM     15  C   UNL     1    -120.490 -15.834  89.704  1.00  0.00     0.046 A 
ATOM     16  C   UNL     1    -118.304 -16.536  88.934  1.00  0.00     0.046 A 
ATOM     17  C   UNL     1    -119.458 -16.777  89.692  1.00  0.00     0.115 A 
BRANCH  17  18
ATOM     18  O   UNL     1    -119.586 -17.947  90.437  1.00  0.00    -0.508 OA
ATOM     19  H   UNL     1    -118.882 -18.227  91.110  1.00  0.00     0.293 HD
ENDBRANCH  17  18
ENDBRANCH   2  12
BRANCH   8  20
ATOM     20  O   UNL     1    -116.534  -9.406  84.733  1.00  0.00    -0.507 OA
ATOM     21  H   UNL     1    -116.812  -8.585  85.251  1.00  0.00     0.293 HD
ENDBRANCH   8  20
BRANCH   6  22
ATOM     22  O   UNL     1    -118.844 -12.001  81.400  1.00  0.00    -0.508 OA
ATOM     23  H   UNL     1    -118.132 -12.081  80.684  1.00  0.00     0.293 HD
ENDBRANCH   6  22
TORSDOF 4
ENDMDL
MODEL 9
REMARK VINA RESULT:    -5.713     14.102     16.221
REMARK INTER + INTRA:          -6.852
REMARK INTER:                  -6.537
REMARK INTRA:                  -0.315
REMARK UNBOUND:                -0.305
REMARK SMILES O=C1C[C@H](c2ccc(O)cc2)Oc2cc(O)cc(O)c21
REMARK SMILES IDX 3 1 4 2 12 3 13 4 14 5 15 6 17 7 18 8 20 9 2 10 1 11 5 12
REMARK SMILES IDX 6 13 11 14 7 15 10 16 8 17 9 18 19 20 16 22
REMARK H PARENT 9 19 19 21 16 23
REMARK Flexibility Score: inf
ROOT
ATOM      1  C   UNL     1    -119.334 -13.915  85.725  1.00  0.00     0.131 C 
ATOM      2  C   UNL     1    -118.610 -14.346  87.009  1.00  0.00     0.211 C 
ATOM      3  O   UNL     1    -118.348 -13.214  87.843  1.00  0.00    -0.484 OA
ATOM      4  C   UNL     1    -117.950 -11.972  87.329  1.00  0.00     0.138 A 
ATOM      5  C   UNL     1    -117.448 -11.007  88.205  1.00  0.00     0.093 A 
ATOM      6  C   UNL     1    -117.029  -9.766  87.723  1.00  0.00     0.123 A 
ATOM      7  C   UNL     1    -117.141  -9.477  86.358  1.00  0.00     0.093 A 
ATOM      8  C   UNL     1    -117.679 -10.415  85.469  1.00  0.00     0.133 A 
ATOM      9  C   UNL     1    -118.061 -11.696  85.949  1.00  0.00     0.102 A 
ATOM     10  C   UNL     1    -118.575 -12.789  85.087  1.00  0.00     0.174 C 
ATOM     11  O   UNL     1    -118.344 -12.823  83.850  1.00  0.00    -0.294 OA
ENDROOT
BRANCH   2  12
ATOM     12  C   UNL     1    -119.425 -15.368  87.763  1.00  0.00    -0.007 A 
ATOM     13  C   UNL     1    -119.742 -16.600  87.167  1.00  0.00     0.011 A 
ATOM     14  C   UNL     1    -119.924 -15.079  89.046  1.00  0.00     0.011 A 
ATOM     15  C   UNL     1    -120.522 -17.537  87.851  1.00  0.00     0.046 A 
ATOM     16  C   UNL     1    -120.704 -16.017  89.729  1.00  0.00     0.046 A 
ATOM     17  C   UNL     1    -121.003 -17.249  89.133  1.00  0.00     0.115 A 
BRANCH  17  18
ATOM     18  O   UNL     1    -121.779 -18.192  89.804  1.00  0.00    -0.508 OA
ATOM     19  H   UNL     1    -122.764 -18.311  89.597  1.00  0.00     0.293 HD
ENDBRANCH  17  18
ENDBRANCH   2  12
BRANCH   8  20
ATOM     20  O   UNL     1    -117.844 -10.018  84.140  1.00  0.00    -0.507 OA
ATOM     21  H   UNL     1    -118.525 -10.419  83.511  1.00  0.00     0.293 HD
ENDBRANCH   8  20
BRANCH   6  22
ATOM     22  O   UNL     1    -116.512  -8.824  88.609  1.00  0.00    -0.508 OA
ATOM     23  H   UNL     1    -117.053  -8.019  88.902  1.00  0.00     0.293 HD
ENDBRANCH   6  22
TORSDOF 4
ENDMDL
