MODEL 1
REMARK VINA RESULT:    -5.347      0.000      0.000
REMARK INTER + INTRA:          -8.217
REMARK INTER:                  -7.222
REMARK INTRA:                  -0.995
REMARK UNBOUND:                -0.995
REMARK SMILES CC(=O)CCC=C(C)CCC=C(C)C
REMARK SMILES IDX 7 1 6 2 8 3 9 4 10 5 11 6 13 7 12 8 14 9 5 10 4 11 2 12 3 13
REMARK SMILES IDX 1 14
REMARK H PARENT
REMARK Flexibility Score: inf
ROOT
ATOM      1  C   UNL     1      84.607   4.941  27.125  1.00  0.00    -0.077 C 
ATOM      2  C   UNL     1      83.802   4.558  26.107  1.00  0.00    -0.028 C 
ATOM      3  C   UNL     1      84.479   6.297  27.779  1.00  0.00     0.039 C 
ENDROOT
BRANCH   1   4
ATOM      4  C   UNL     1      85.683   3.989  27.611  1.00  0.00     0.034 C 
BRANCH   4   5
ATOM      5  C   UNL     1      85.087   2.686  28.164  1.00  0.00     0.032 C 
BRANCH   5   6
ATOM      6  C   UNL     1      83.950   2.953  29.121  1.00  0.00    -0.028 C 
ATOM      7  C   UNL     1      81.646   2.898  29.971  1.00  0.00     0.039 C 
ATOM      8  C   UNL     1      82.685   2.505  28.953  1.00  0.00    -0.080 C 
ATOM      9  C   UNL     1      82.296   1.616  27.796  1.00  0.00     0.039 C 
ENDBRANCH   5   6
ENDBRANCH   4   5
ENDBRANCH   1   4
BRANCH   2  10
ATOM     10  C   UNL     1      82.677   5.394  25.548  1.00  0.00     0.035 C 
BRANCH  10  11
ATOM     11  C   UNL     1      81.364   5.095  26.278  1.00  0.00     0.079 C 
BRANCH  11  12
ATOM     12  C   UNL     1      81.030   6.197  27.246  1.00  0.00     0.130 C 
ATOM     13  O   UNL     1      81.394   6.116  28.409  1.00  0.00    -0.300 OA
ATOM     14  C   UNL     1      80.230   7.384  26.797  1.00  0.00     0.087 C 
ENDBRANCH  11  12
ENDBRANCH  10  11
ENDBRANCH   2  10
TORSDOF 6
ENDMDL
MODEL 2
REMARK VINA RESULT:    -5.232      1.956      4.530
REMARK INTER + INTRA:          -8.062
REMARK INTER:                  -7.134
REMARK INTRA:                  -0.928
REMARK UNBOUND:                -0.995
REMARK SMILES CC(=O)CCC=C(C)CCC=C(C)C
REMARK SMILES IDX 7 1 6 2 8 3 9 4 10 5 11 6 13 7 12 8 14 9 5 10 4 11 2 12 3 13
REMARK SMILES IDX 1 14
REMARK H PARENT
REMARK Flexibility Score: inf
ROOT
ATOM      1  C   UNL     1      83.766   3.435  27.531  1.00  0.00    -0.077 C 
ATOM      2  C   UNL     1      82.589   2.925  27.962  1.00  0.00    -0.028 C 
ATOM      3  C   UNL     1      85.016   3.383  28.378  1.00  0.00     0.039 C 
ENDROOT
BRANCH   1   4
ATOM      4  C   UNL     1      83.828   4.094  26.168  1.00  0.00     0.034 C 
BRANCH   4   5
ATOM      5  C   UNL     1      83.673   5.619  26.261  1.00  0.00     0.032 C 
BRANCH   5   6
ATOM      6  C   UNL     1      82.235   6.047  26.087  1.00  0.00    -0.028 C 
ATOM      7  C   UNL     1      79.972   6.712  26.770  1.00  0.00     0.039 C 
ATOM      8  C   UNL     1      81.396   6.351  27.102  1.00  0.00    -0.080 C 
ATOM      9  C   UNL     1      81.849   6.356  28.543  1.00  0.00     0.039 C 
ENDBRANCH   5   6
ENDBRANCH   4   5
ENDBRANCH   1   4
BRANCH   2  10
ATOM     10  C   UNL     1      82.396   2.218  29.281  1.00  0.00     0.035 C 
BRANCH  10  11
ATOM     11  C   UNL     1      81.663   3.120  30.278  1.00  0.00     0.079 C 
BRANCH  11  12
ATOM     12  C   UNL     1      80.758   2.310  31.165  1.00  0.00     0.130 C 
ATOM     13  O   UNL     1      80.768   1.090  31.090  1.00  0.00    -0.300 OA
ATOM     14  C   UNL     1      79.826   2.990  32.122  1.00  0.00     0.087 C 
ENDBRANCH  11  12
ENDBRANCH  10  11
ENDBRANCH   2  10
TORSDOF 6
ENDMDL
MODEL 3
REMARK VINA RESULT:    -4.767      1.387      2.138
REMARK INTER + INTRA:          -7.434
REMARK INTER:                  -7.120
REMARK INTRA:                  -0.314
REMARK UNBOUND:                -0.995
REMARK SMILES CC(=O)CCC=C(C)CCC=C(C)C
REMARK SMILES IDX 7 1 6 2 8 3 9 4 10 5 11 6 13 7 12 8 14 9 5 10 4 11 2 12 3 13
REMARK SMILES IDX 1 14
REMARK H PARENT
REMARK Flexibility Score: inf
ROOT
ATOM      1  C   UNL     1      83.805   3.929  27.671  1.00  0.00    -0.077 C 
ATOM      2  C   UNL     1      82.741   4.053  26.845  1.00  0.00    -0.028 C 
ATOM      3  C   UNL     1      84.932   4.936  27.680  1.00  0.00     0.039 C 
ENDROOT
BRANCH   1   4
ATOM      4  C   UNL     1      83.881   2.733  28.600  1.00  0.00     0.034 C 
BRANCH   4   5
ATOM      5  C   UNL     1      82.486   2.216  28.982  1.00  0.00     0.032 C 
BRANCH   5   6
ATOM      6  C   UNL     1      81.877   3.023  30.103  1.00  0.00    -0.028 C 
ATOM      7  C   UNL     1      80.472   3.470  32.068  1.00  0.00     0.039 C 
ATOM      8  C   UNL     1      81.039   2.525  31.040  1.00  0.00    -0.080 C 
ATOM      9  C   UNL     1      80.676   1.061  31.094  1.00  0.00     0.039 C 
ENDBRANCH   5   6
ENDBRANCH   4   5
ENDBRANCH   1   4
BRANCH   2  10
ATOM     10  C   UNL     1      82.528   5.205  25.895  1.00  0.00     0.035 C 
BRANCH  10  11
ATOM     11  C   UNL     1      81.083   5.707  25.964  1.00  0.00     0.079 C 
BRANCH  11  12
ATOM     12  C   UNL     1      80.913   6.689  27.091  1.00  0.00     0.130 C 
ATOM     13  O   UNL     1      80.239   7.694  26.924  1.00  0.00    -0.300 OA
ATOM     14  C   UNL     1      81.587   6.454  28.410  1.00  0.00     0.087 C 
ENDBRANCH  11  12
ENDBRANCH  10  11
ENDBRANCH   2  10
TORSDOF 6
ENDMDL
MODEL 4
REMARK VINA RESULT:    -4.608      1.758      4.065
REMARK INTER + INTRA:          -7.219
REMARK INTER:                  -6.745
REMARK INTRA:                  -0.474
REMARK UNBOUND:                -0.995
REMARK SMILES CC(=O)CCC=C(C)CCC=C(C)C
REMARK SMILES IDX 7 1 6 2 8 3 9 4 10 5 11 6 13 7 12 8 14 9 5 10 4 11 2 12 3 13
REMARK SMILES IDX 1 14
REMARK H PARENT
REMARK Flexibility Score: inf
ROOT
ATOM      1  C   UNL     1      82.199   5.784  27.495  1.00  0.00    -0.077 C 
ATOM      2  C   UNL     1      82.614   5.390  28.721  1.00  0.00    -0.028 C 
ATOM      3  C   UNL     1      80.812   6.336  27.260  1.00  0.00     0.039 C 
ENDROOT
BRANCH   1   4
ATOM      4  C   UNL     1      83.145   5.647  26.318  1.00  0.00     0.034 C 
BRANCH   4   5
ATOM      5  C   UNL     1      83.822   4.270  26.284  1.00  0.00     0.032 C 
BRANCH   5   6
ATOM      6  C   UNL     1      85.206   4.312  26.888  1.00  0.00    -0.028 C 
ATOM      7  C   UNL     1      86.996   3.787  28.486  1.00  0.00     0.039 C 
ATOM      8  C   UNL     1      85.593   3.599  27.969  1.00  0.00    -0.080 C 
ATOM      9  C   UNL     1      84.674   2.616  28.654  1.00  0.00     0.039 C 
ENDBRANCH   5   6
ENDBRANCH   4   5
ENDBRANCH   1   4
BRANCH   2  10
ATOM     10  C   UNL     1      81.786   5.499  29.978  1.00  0.00     0.035 C 
BRANCH  10  11
ATOM     11  C   UNL     1      82.174   4.407  30.980  1.00  0.00     0.079 C 
BRANCH  11  12
ATOM     12  C   UNL     1      81.367   3.160  30.749  1.00  0.00     0.130 C 
ATOM     13  O   UNL     1      81.608   2.449  29.785  1.00  0.00    -0.300 OA
ATOM     14  C   UNL     1      80.250   2.796  31.681  1.00  0.00     0.087 C 
ENDBRANCH  11  12
ENDBRANCH  10  11
ENDBRANCH   2  10
TORSDOF 6
ENDMDL
MODEL 5
REMARK VINA RESULT:    -4.357     14.972     17.243
REMARK INTER + INTRA:          -6.880
REMARK INTER:                  -6.453
REMARK INTRA:                  -0.427
REMARK UNBOUND:                -0.995
REMARK SMILES CC(=O)CCC=C(C)CCC=C(C)C
REMARK SMILES IDX 7 1 6 2 8 3 9 4 10 5 11 6 13 7 12 8 14 9 5 10 4 11 2 12 3 13
REMARK SMILES IDX 1 14
REMARK H PARENT
REMARK Flexibility Score: inf
ROOT
ATOM      1  C   UNL     1      79.143  -9.248  18.352  1.00  0.00    -0.077 C 
ATOM      2  C   UNL     1      80.381  -9.016  18.845  1.00  0.00    -0.028 C 
ATOM      3  C   UNL     1      77.948  -9.450  19.254  1.00  0.00     0.039 C 
ENDROOT
BRANCH   1   4
ATOM      4  C   UNL     1      78.952  -9.328  16.850  1.00  0.00     0.034 C 
BRANCH   4   5
ATOM      5  C   UNL     1      79.742  -8.236  16.113  1.00  0.00     0.032 C 
BRANCH   5   6
ATOM      6  C   UNL     1      78.838  -7.355  15.285  1.00  0.00    -0.028 C 
ATOM      7  C   UNL     1      78.192  -5.884  13.426  1.00  0.00     0.039 C 
ATOM      8  C   UNL     1      79.189  -6.783  14.112  1.00  0.00    -0.080 C 
ATOM      9  C   UNL     1      80.532  -7.032  13.468  1.00  0.00     0.039 C 
ENDBRANCH   5   6
ENDBRANCH   4   5
ENDBRANCH   1   4
BRANCH   2  10
ATOM     10  C   UNL     1      80.704  -8.884  20.313  1.00  0.00     0.035 C 
BRANCH  10  11
ATOM     11  C   UNL     1      81.904  -9.758  20.687  1.00  0.00     0.079 C 
BRANCH  11  12
ATOM     12  C   UNL     1      82.652  -9.169  21.851  1.00  0.00     0.130 C 
ATOM     13  O   UNL     1      83.342  -8.174  21.690  1.00  0.00    -0.300 OA
ATOM     14  C   UNL     1      82.575  -9.810  23.204  1.00  0.00     0.087 C 
ENDBRANCH  11  12
ENDBRANCH  10  11
ENDBRANCH   2  10
TORSDOF 6
ENDMDL
MODEL 6
REMARK VINA RESULT:    -4.342      1.377      3.344
REMARK INTER + INTRA:          -6.860
REMARK INTER:                  -6.189
REMARK INTRA:                  -0.671
REMARK UNBOUND:                -0.995
REMARK SMILES CC(=O)CCC=C(C)CCC=C(C)C
REMARK SMILES IDX 7 1 6 2 8 3 9 4 10 5 11 6 13 7 12 8 14 9 5 10 4 11 2 12 3 13
REMARK SMILES IDX 1 14
REMARK H PARENT
REMARK Flexibility Score: inf
ROOT
ATOM      1  C   UNL     1      82.055   3.881  29.808  1.00  0.00    -0.077 C 
ATOM      2  C   UNL     1      81.971   4.743  28.769  1.00  0.00    -0.028 C 
ATOM      3  C   UNL     1      81.907   4.341  31.240  1.00  0.00     0.039 C 
ENDROOT
BRANCH   1   4
ATOM      4  C   UNL     1      82.325   2.416  29.530  1.00  0.00     0.034 C 
BRANCH   4   5
ATOM      5  C   UNL     1      83.245   2.223  28.317  1.00  0.00     0.032 C 
BRANCH   5   6
ATOM      6  C   UNL     1      84.678   2.572  28.641  1.00  0.00    -0.028 C 
ATOM      7  C   UNL     1      86.831   3.734  28.421  1.00  0.00     0.039 C 
ATOM      8  C   UNL     1      85.392   3.538  28.020  1.00  0.00    -0.080 C 
ATOM      9  C   UNL     1      84.786   4.428  26.961  1.00  0.00     0.039 C 
ENDBRANCH   5   6
ENDBRANCH   4   5
ENDBRANCH   1   4
BRANCH   2  10
ATOM     10  C   UNL     1      81.679   6.217  28.903  1.00  0.00     0.035 C 
BRANCH  10  11
ATOM     11  C   UNL     1      81.799   6.920  27.547  1.00  0.00     0.079 C 
BRANCH  11  12
ATOM     12  C   UNL     1      80.891   6.282  26.533  1.00  0.00     0.130 C 
ATOM     13  O   UNL     1      79.711   6.597  26.489  1.00  0.00    -0.300 OA
ATOM     14  C   UNL     1      81.419   5.242  25.591  1.00  0.00     0.087 C 
ENDBRANCH  11  12
ENDBRANCH  10  11
ENDBRANCH   2  10
TORSDOF 6
ENDMDL
MODEL 7
REMARK VINA RESULT:    -4.297      1.877      3.362
REMARK INTER + INTRA:          -6.799
REMARK INTER:                  -6.129
REMARK INTRA:                  -0.670
REMARK UNBOUND:                -0.995
REMARK SMILES CC(=O)CCC=C(C)CCC=C(C)C
REMARK SMILES IDX 7 1 6 2 8 3 9 4 10 5 11 6 13 7 12 8 14 9 5 10 4 11 2 12 3 13
REMARK SMILES IDX 1 14
REMARK H PARENT
REMARK Flexibility Score: inf
ROOT
ATOM      1  C   UNL     1      82.336   5.789  28.809  1.00  0.00    -0.077 C 
ATOM      2  C   UNL     1      83.651   5.805  28.493  1.00  0.00    -0.028 C 
ATOM      3  C   UNL     1      81.269   6.164  27.806  1.00  0.00     0.039 C 
ENDROOT
BRANCH   1   4
ATOM      4  C   UNL     1      81.921   5.406  30.215  1.00  0.00     0.034 C 
BRANCH   4   5
ATOM      5  C   UNL     1      82.275   3.947  30.540  1.00  0.00     0.032 C 
BRANCH   5   6
ATOM      6  C   UNL     1      81.891   3.015  29.416  1.00  0.00    -0.028 C 
ATOM      7  C   UNL     1      82.232   1.525  27.493  1.00  0.00     0.039 C 
ATOM      8  C   UNL     1      82.771   2.386  28.606  1.00  0.00    -0.080 C 
ATOM      9  C   UNL     1      84.265   2.508  28.795  1.00  0.00     0.039 C 
ENDBRANCH   5   6
ENDBRANCH   4   5
ENDBRANCH   1   4
BRANCH   2  10
ATOM     10  C   UNL     1      84.198   6.138  27.127  1.00  0.00     0.035 C 
BRANCH  10  11
ATOM     11  C   UNL     1      84.607   4.865  26.380  1.00  0.00     0.079 C 
BRANCH  11  12
ATOM     12  C   UNL     1      83.871   4.753  25.074  1.00  0.00     0.130 C 
ATOM     13  O   UNL     1      84.473   4.420  24.064  1.00  0.00    -0.300 OA
ATOM     14  C   UNL     1      82.408   5.071  24.998  1.00  0.00     0.087 C 
ENDBRANCH  11  12
ENDBRANCH  10  11
ENDBRANCH   2  10
TORSDOF 6
ENDMDL
MODEL 8
REMARK VINA RESULT:    -4.178     15.266     17.014
REMARK INTER + INTRA:          -6.638
REMARK INTER:                  -6.264
REMARK INTRA:                  -0.374
REMARK UNBOUND:                -0.995
REMARK SMILES CC(=O)CCC=C(C)CCC=C(C)C
REMARK SMILES IDX 7 1 6 2 8 3 9 4 10 5 11 6 13 7 12 8 14 9 5 10 4 11 2 12 3 13
REMARK SMILES IDX 1 14
REMARK H PARENT
REMARK Flexibility Score: inf
ROOT
ATOM      1  C   UNL     1      79.272  -9.139  17.599  1.00  0.00    -0.077 C 
ATOM      2  C   UNL     1      79.978  -8.397  16.715  1.00  0.00    -0.028 C 
ATOM      3  C   UNL     1      78.173 -10.077  17.156  1.00  0.00     0.039 C 
ENDROOT
BRANCH   1   4
ATOM      4  C   UNL     1      79.580  -9.012  19.078  1.00  0.00     0.034 C 
BRANCH   4   5
ATOM      5  C   UNL     1      81.036  -9.380  19.394  1.00  0.00     0.032 C 
BRANCH   5   6
ATOM      6  C   UNL     1      81.382  -9.105  20.838  1.00  0.00    -0.028 C 
ATOM      7  C   UNL     1      82.818  -8.863  22.816  1.00  0.00     0.039 C 
ATOM      8  C   UNL     1      82.637  -9.105  21.340  1.00  0.00    -0.080 C 
ATOM      9  C   UNL     1      83.850  -9.320  20.467  1.00  0.00     0.039 C 
ENDBRANCH   5   6
ENDBRANCH   4   5
ENDBRANCH   1   4
BRANCH   2  10
ATOM     10  C   UNL     1      79.795  -8.449  15.218  1.00  0.00     0.035 C 
BRANCH  10  11
ATOM     11  C   UNL     1      80.184  -7.114  14.576  1.00  0.00     0.079 C 
BRANCH  11  12
ATOM     12  C   UNL     1      79.237  -6.762  13.462  1.00  0.00     0.130 C 
ATOM     13  O   UNL     1      79.463  -7.153  12.326  1.00  0.00    -0.300 OA
ATOM     14  C   UNL     1      78.030  -5.915  13.731  1.00  0.00     0.087 C 
ENDBRANCH  11  12
ENDBRANCH  10  11
ENDBRANCH   2  10
TORSDOF 6
ENDMDL
MODEL 9
REMARK VINA RESULT:    -3.929     11.890     13.332
REMARK INTER + INTRA:          -6.301
REMARK INTER:                  -5.691
REMARK INTRA:                  -0.610
REMARK UNBOUND:                -0.995
REMARK SMILES CC(=O)CCC=C(C)CCC=C(C)C
REMARK SMILES IDX 7 1 6 2 8 3 9 4 10 5 11 6 13 7 12 8 14 9 5 10 4 11 2 12 3 13
REMARK SMILES IDX 1 14
REMARK H PARENT
REMARK Flexibility Score: inf
ROOT
ATOM      1  C   UNL     1      84.550  -7.910  28.070  1.00  0.00    -0.077 C 
ATOM      2  C   UNL     1      84.155  -7.986  26.778  1.00  0.00    -0.028 C 
ATOM      3  C   UNL     1      84.262  -9.015  29.059  1.00  0.00     0.039 C 
ENDROOT
BRANCH   1   4
ATOM      4  C   UNL     1      85.284  -6.671  28.544  1.00  0.00     0.034 C 
BRANCH   4   5
ATOM      5  C   UNL     1      85.408  -6.629  30.074  1.00  0.00     0.032 C 
BRANCH   5   6
ATOM      6  C   UNL     1      86.835  -6.400  30.513  1.00  0.00    -0.028 C 
ATOM      7  C   UNL     1      88.984  -6.915  31.585  1.00  0.00     0.039 C 
ATOM      8  C   UNL     1      87.591  -7.310  31.167  1.00  0.00    -0.080 C 
ATOM      9  C   UNL     1      87.091  -8.702  31.468  1.00  0.00     0.039 C 
ENDBRANCH   5   6
ENDBRANCH   4   5
ENDBRANCH   1   4
BRANCH   2  10
ATOM     10  C   UNL     1      83.446  -9.170  26.170  1.00  0.00     0.035 C 
BRANCH  10  11
ATOM     11  C   UNL     1      83.902  -9.394  24.725  1.00  0.00     0.079 C 
BRANCH  11  12
ATOM     12  C   UNL     1      82.851  -8.929  23.756  1.00  0.00     0.130 C 
ATOM     13  O   UNL     1      81.742  -8.618  24.165  1.00  0.00    -0.300 OA
ATOM     14  C   UNL     1      83.147  -8.868  22.287  1.00  0.00     0.087 C 
ENDBRANCH  11  12
ENDBRANCH  10  11
ENDBRANCH   2  10
TORSDOF 6
ENDMDL
