MODEL 1
REMARK VINA RESULT:     3.293      0.000      0.000
REMARK INTER + INTRA:           5.395
REMARK INTER:                   6.374
REMARK INTRA:                  -0.979
REMARK UNBOUND:                -0.979
REMARK SMILES CCCCCCCCCCCCCCCCCC(=O)[O-]
REMARK SMILES IDX 10 1 11 2 12 3 13 4 14 5 15 6 16 7 17 8 18 9 19 10 20 11
REMARK SMILES IDX 9 12 8 13 7 14 6 15 5 16 4 17 3 18 2 19 1 20
REMARK H PARENT
REMARK Flexibility Score: inf
ROOT
ATOM      1  C   UNL     1      19.188   1.119  24.707  1.00  0.00     0.000 C 
ENDROOT
BRANCH   1   2
ATOM      2  C   UNL     1      17.799   1.238  25.347  1.00  0.00     0.000 C 
BRANCH   2   3
ATOM      3  C   UNL     1      17.072   2.495  24.847  1.00  0.00     0.000 C 
BRANCH   3   4
ATOM      4  C   UNL     1      16.601   3.404  25.995  1.00  0.00     0.000 C 
BRANCH   4   5
ATOM      5  C   UNL     1      15.072   3.569  26.025  1.00  0.00     0.000 C 
BRANCH   5   6
ATOM      6  C   UNL     1      14.326   2.335  25.483  1.00  0.00     0.000 C 
BRANCH   6   7
ATOM      7  C   UNL     1      13.386   2.611  24.294  1.00  0.00     0.006 C 
BRANCH   7   8
ATOM      8  C   UNL     1      14.024   3.497  23.219  1.00  0.00     0.053 C 
BRANCH   8   9
ATOM      9  C   UNL     1      13.067   4.563  22.785  1.00  0.00     0.041 C 
ATOM     10  O   UNL     1      11.934   4.252  22.334  1.00  0.00    -0.550 OA
ATOM     11  O   UNL     1      13.409   5.903  22.923  1.00  0.00    -0.550 OA
ENDBRANCH   8   9
ENDBRANCH   7   8
ENDBRANCH   6   7
ENDBRANCH   5   6
ENDBRANCH   4   5
ENDBRANCH   3   4
ENDBRANCH   2   3
ENDBRANCH   1   2
BRANCH   1  12
ATOM     12  C   UNL     1      20.292   1.160  25.772  1.00  0.00     0.000 C 
BRANCH  12  13
ATOM     13  C   UNL     1      19.739   0.778  27.152  1.00  0.00    -0.000 C 
BRANCH  13  14
ATOM     14  C   UNL     1      19.136   1.974  27.911  1.00  0.00    -0.000 C 
BRANCH  14  15
ATOM     15  C   UNL     1      19.456   2.023  29.417  1.00  0.00    -0.000 C 
BRANCH  15  16
ATOM     16  C   UNL     1      19.469   3.454  29.981  1.00  0.00    -0.000 C 
BRANCH  16  17
ATOM     17  C   UNL     1      18.555   3.613  31.207  1.00  0.00    -0.000 C 
BRANCH  17  18
ATOM     18  C   UNL     1      17.434   4.642  30.980  1.00  0.00    -0.000 C 
BRANCH  18  19
ATOM     19  C   UNL     1      16.908   4.628  29.535  1.00  0.00    -0.003 C 
ATOM     20  C   UNL     1      15.418   4.951  29.444  1.00  0.00     0.004 C 
ENDBRANCH  18  19
ENDBRANCH  17  18
ENDBRANCH  16  17
ENDBRANCH  15  16
ENDBRANCH  14  15
ENDBRANCH  13  14
ENDBRANCH  12  13
ENDBRANCH   1  12
TORSDOF 16
ENDMDL
MODEL 2
REMARK VINA RESULT:     3.711      0.610      1.454
REMARK INTER + INTRA:           6.203
REMARK INTER:                   6.825
REMARK INTRA:                  -0.622
REMARK UNBOUND:                -0.979
REMARK SMILES CCCCCCCCCCCCCCCCCC(=O)[O-]
REMARK SMILES IDX 10 1 11 2 12 3 13 4 14 5 15 6 16 7 17 8 18 9 19 10 20 11
REMARK SMILES IDX 9 12 8 13 7 14 6 15 5 16 4 17 3 18 2 19 1 20
REMARK H PARENT
REMARK Flexibility Score: inf
ROOT
ATOM      1  C   UNL     1      17.976   1.252  25.241  1.00  0.00     0.000 C 
ENDROOT
BRANCH   1   2
ATOM      2  C   UNL     1      17.533   2.679  24.894  1.00  0.00     0.000 C 
BRANCH   2   3
ATOM      3  C   UNL     1      16.896   3.367  26.111  1.00  0.00     0.000 C 
BRANCH   3   4
ATOM      4  C   UNL     1      15.369   3.501  25.984  1.00  0.00     0.000 C 
BRANCH   4   5
ATOM      5  C   UNL     1      14.679   2.150  25.729  1.00  0.00     0.000 C 
BRANCH   5   6
ATOM      6  C   UNL     1      13.209   2.301  25.295  1.00  0.00     0.000 C 
BRANCH   6   7
ATOM      7  C   UNL     1      12.985   2.424  23.776  1.00  0.00     0.006 C 
BRANCH   7   8
ATOM      8  C   UNL     1      13.835   3.526  23.133  1.00  0.00     0.053 C 
BRANCH   8   9
ATOM      9  C   UNL     1      12.975   4.688  22.744  1.00  0.00     0.041 C 
ATOM     10  O   UNL     1      11.854   4.494  22.204  1.00  0.00    -0.550 OA
ATOM     11  O   UNL     1      13.391   5.984  23.022  1.00  0.00    -0.550 OA
ENDBRANCH   8   9
ENDBRANCH   7   8
ENDBRANCH   6   7
ENDBRANCH   5   6
ENDBRANCH   4   5
ENDBRANCH   3   4
ENDBRANCH   2   3
ENDBRANCH   1   2
BRANCH   1  12
ATOM     12  C   UNL     1      19.383   0.965  24.703  1.00  0.00     0.000 C 
BRANCH  12  13
ATOM     13  C   UNL     1      20.458   1.442  25.691  1.00  0.00    -0.000 C 
BRANCH  13  14
ATOM     14  C   UNL     1      20.479   0.626  26.996  1.00  0.00    -0.000 C 
BRANCH  14  15
ATOM     15  C   UNL     1      19.303   0.894  27.954  1.00  0.00    -0.000 C 
BRANCH  15  16
ATOM     16  C   UNL     1      19.247   2.351  28.443  1.00  0.00    -0.000 C 
BRANCH  16  17
ATOM     17  C   UNL     1      19.365   2.466  29.972  1.00  0.00    -0.000 C 
BRANCH  17  18
ATOM     18  C   UNL     1      19.263   3.919  30.465  1.00  0.00    -0.000 C 
BRANCH  18  19
ATOM     19  C   UNL     1      17.877   4.247  31.045  1.00  0.00    -0.003 C 
ATOM     20  C   UNL     1      16.842   4.562  29.965  1.00  0.00     0.004 C 
ENDBRANCH  18  19
ENDBRANCH  17  18
ENDBRANCH  16  17
ENDBRANCH  15  16
ENDBRANCH  14  15
ENDBRANCH  13  14
ENDBRANCH  12  13
ENDBRANCH   1  12
TORSDOF 16
ENDMDL
MODEL 3
REMARK VINA RESULT:     4.084      3.240      6.974
REMARK INTER + INTRA:           6.926
REMARK INTER:                   8.150
REMARK INTRA:                  -1.224
REMARK UNBOUND:                -0.979
REMARK SMILES CCCCCCCCCCCCCCCCCC(=O)[O-]
REMARK SMILES IDX 10 1 11 2 12 3 13 4 14 5 15 6 16 7 17 8 18 9 19 10 20 11
REMARK SMILES IDX 9 12 8 13 7 14 6 15 5 16 4 17 3 18 2 19 1 20
REMARK H PARENT
REMARK Flexibility Score: inf
ROOT
ATOM      1  C   UNL     1      17.621   1.244  25.060  1.00  0.00     0.000 C 
ENDROOT
BRANCH   1   2
ATOM      2  C   UNL     1      19.040   0.874  24.607  1.00  0.00     0.000 C 
BRANCH   2   3
ATOM      3  C   UNL     1      20.067   1.879  25.150  1.00  0.00     0.000 C 
BRANCH   3   4
ATOM      4  C   UNL     1      21.161   1.209  25.998  1.00  0.00     0.000 C 
BRANCH   4   5
ATOM      5  C   UNL     1      20.581   0.390  27.163  1.00  0.00     0.000 C 
BRANCH   5   6
ATOM      6  C   UNL     1      19.307   1.016  27.760  1.00  0.00     0.000 C 
BRANCH   6   7
ATOM      7  C   UNL     1      19.518   1.815  29.060  1.00  0.00     0.006 C 
BRANCH   7   8
ATOM      8  C   UNL     1      18.834   3.187  29.037  1.00  0.00     0.053 C 
BRANCH   8   9
ATOM      9  C   UNL     1      18.688   3.721  30.427  1.00  0.00     0.041 C 
ATOM     10  O   UNL     1      19.629   3.599  31.255  1.00  0.00    -0.550 OA
ATOM     11  O   UNL     1      17.532   4.398  30.794  1.00  0.00    -0.550 OA
ENDBRANCH   8   9
ENDBRANCH   7   8
ENDBRANCH   6   7
ENDBRANCH   5   6
ENDBRANCH   4   5
ENDBRANCH   3   4
ENDBRANCH   2   3
ENDBRANCH   1   2
BRANCH   1  12
ATOM     12  C   UNL     1      17.375   2.752  24.929  1.00  0.00     0.000 C 
BRANCH  12  13
ATOM     13  C   UNL     1      16.598   3.290  26.139  1.00  0.00    -0.000 C 
BRANCH  13  14
ATOM     14  C   UNL     1      15.121   3.586  25.822  1.00  0.00    -0.000 C 
BRANCH  14  15
ATOM     15  C   UNL     1      14.208   2.348  25.740  1.00  0.00    -0.000 C 
BRANCH  15  16
ATOM     16  C   UNL     1      13.200   2.422  24.582  1.00  0.00    -0.000 C 
BRANCH  16  17
ATOM     17  C   UNL     1      13.765   3.154  23.353  1.00  0.00    -0.000 C 
BRANCH  17  18
ATOM     18  C   UNL     1      12.796   4.211  22.796  1.00  0.00    -0.000 C 
BRANCH  18  19
ATOM     19  C   UNL     1      13.400   5.625  22.807  1.00  0.00    -0.003 C 
ATOM     20  C   UNL     1      13.166   6.360  24.126  1.00  0.00     0.004 C 
ENDBRANCH  18  19
ENDBRANCH  17  18
ENDBRANCH  16  17
ENDBRANCH  15  16
ENDBRANCH  14  15
ENDBRANCH  13  14
ENDBRANCH  12  13
ENDBRANCH   1  12
TORSDOF 16
ENDMDL
MODEL 4
REMARK VINA RESULT:     4.311      2.783      6.789
REMARK INTER + INTRA:           7.365
REMARK INTER:                   8.687
REMARK INTRA:                  -1.321
REMARK UNBOUND:                -0.979
REMARK SMILES CCCCCCCCCCCCCCCCCC(=O)[O-]
REMARK SMILES IDX 10 1 11 2 12 3 13 4 14 5 15 6 16 7 17 8 18 9 19 10 20 11
REMARK SMILES IDX 9 12 8 13 7 14 6 15 5 16 4 17 3 18 2 19 1 20
REMARK H PARENT
REMARK Flexibility Score: inf
ROOT
ATOM      1  C   UNL     1      18.096   1.377  25.115  1.00  0.00     0.000 C 
ENDROOT
BRANCH   1   2
ATOM      2  C   UNL     1      19.603   1.636  24.993  1.00  0.00     0.000 C 
BRANCH   2   3
ATOM      3  C   UNL     1      20.369   0.978  26.151  1.00  0.00     0.000 C 
BRANCH   3   4
ATOM      4  C   UNL     1      19.459   0.632  27.342  1.00  0.00     0.000 C 
BRANCH   4   5
ATOM      5  C   UNL     1      19.104   1.867  28.187  1.00  0.00     0.000 C 
BRANCH   5   6
ATOM      6  C   UNL     1      19.823   1.886  29.550  1.00  0.00     0.000 C 
BRANCH   6   7
ATOM      7  C   UNL     1      19.324   2.959  30.536  1.00  0.00     0.006 C 
BRANCH   7   8
ATOM      8  C   UNL     1      18.713   4.178  29.836  1.00  0.00     0.053 C 
BRANCH   8   9
ATOM      9  C   UNL     1      17.339   4.450  30.363  1.00  0.00     0.041 C 
ATOM     10  O   UNL     1      17.119   4.422  31.602  1.00  0.00    -0.550 OA
ATOM     11  O   UNL     1      16.311   4.783  29.489  1.00  0.00    -0.550 OA
ENDBRANCH   8   9
ENDBRANCH   7   8
ENDBRANCH   6   7
ENDBRANCH   5   6
ENDBRANCH   4   5
ENDBRANCH   3   4
ENDBRANCH   2   3
ENDBRANCH   1   2
BRANCH   1  12
ATOM     12  C   UNL     1      17.291   2.639  24.782  1.00  0.00     0.000 C 
BRANCH  12  13
ATOM     13  C   UNL     1      16.581   3.184  26.030  1.00  0.00    -0.000 C 
BRANCH  13  14
ATOM     14  C   UNL     1      15.111   3.561  25.769  1.00  0.00    -0.000 C 
BRANCH  14  15
ATOM     15  C   UNL     1      14.125   2.378  25.753  1.00  0.00    -0.000 C 
BRANCH  15  16
ATOM     16  C   UNL     1      13.179   2.402  24.541  1.00  0.00    -0.000 C 
BRANCH  16  17
ATOM     17  C   UNL     1      13.758   3.194  23.356  1.00  0.00    -0.000 C 
BRANCH  17  18
ATOM     18  C   UNL     1      12.791   4.272  22.837  1.00  0.00    -0.000 C 
BRANCH  18  19
ATOM     19  C   UNL     1      13.434   5.668  22.800  1.00  0.00    -0.003 C 
ATOM     20  C   UNL     1      13.239   6.444  24.102  1.00  0.00     0.004 C 
ENDBRANCH  18  19
ENDBRANCH  17  18
ENDBRANCH  16  17
ENDBRANCH  15  16
ENDBRANCH  14  15
ENDBRANCH  13  14
ENDBRANCH  12  13
ENDBRANCH   1  12
TORSDOF 16
ENDMDL
MODEL 5
REMARK VINA RESULT:     4.738      3.140      6.998
REMARK INTER + INTRA:           8.190
REMARK INTER:                   9.471
REMARK INTRA:                  -1.281
REMARK UNBOUND:                -0.979
REMARK SMILES CCCCCCCCCCCCCCCCCC(=O)[O-]
REMARK SMILES IDX 10 1 11 2 12 3 13 4 14 5 15 6 16 7 17 8 18 9 19 10 20 11
REMARK SMILES IDX 9 12 8 13 7 14 6 15 5 16 4 17 3 18 2 19 1 20
REMARK H PARENT
REMARK Flexibility Score: inf
ROOT
ATOM      1  C   UNL     1      16.151   4.575  29.693  1.00  0.00     0.000 C 
ENDROOT
BRANCH   1   2
ATOM      2  C   UNL     1      17.445   4.948  30.429  1.00  0.00     0.000 C 
BRANCH   2   3
ATOM      3  C   UNL     1      18.314   3.705  30.673  1.00  0.00     0.000 C 
BRANCH   3   4
ATOM      4  C   UNL     1      19.103   3.279  29.425  1.00  0.00     0.000 C 
BRANCH   4   5
ATOM      5  C   UNL     1      19.628   1.837  29.525  1.00  0.00     0.000 C 
BRANCH   5   6
ATOM      6  C   UNL     1      19.418   1.031  28.230  1.00  0.00     0.000 C 
BRANCH   6   7
ATOM      7  C   UNL     1      18.692   1.786  27.101  1.00  0.00     0.006 C 
BRANCH   7   8
ATOM      8  C   UNL     1      19.076   1.287  25.704  1.00  0.00     0.053 C 
BRANCH   8   9
ATOM      9  C   UNL     1      20.565   1.206  25.568  1.00  0.00     0.041 C 
ATOM     10  O   UNL     1      21.242   2.252  25.389  1.00  0.00    -0.550 OA
ATOM     11  O   UNL     1      21.208  -0.020  25.688  1.00  0.00    -0.550 OA
ENDBRANCH   8   9
ENDBRANCH   7   8
ENDBRANCH   6   7
ENDBRANCH   5   6
ENDBRANCH   4   5
ENDBRANCH   3   4
ENDBRANCH   2   3
ENDBRANCH   1   2
BRANCH   1  12
ATOM     12  C   UNL     1      16.060   5.292  28.340  1.00  0.00     0.000 C 
BRANCH  12  13
ATOM     13  C   UNL     1      15.382   4.400  27.290  1.00  0.00    -0.000 C 
BRANCH  13  14
ATOM     14  C   UNL     1      16.378   3.779  26.295  1.00  0.00    -0.000 C 
BRANCH  14  15
ATOM     15  C   UNL     1      15.773   2.754  25.316  1.00  0.00    -0.000 C 
BRANCH  15  16
ATOM     16  C   UNL     1      14.355   2.311  25.713  1.00  0.00    -0.000 C 
BRANCH  16  17
ATOM     17  C   UNL     1      13.330   2.536  24.589  1.00  0.00    -0.000 C 
BRANCH  17  18
ATOM     18  C   UNL     1      13.916   3.320  23.402  1.00  0.00    -0.000 C 
BRANCH  18  19
ATOM     19  C   UNL     1      12.903   4.301  22.790  1.00  0.00    -0.003 C 
ATOM     20  C   UNL     1      13.260   5.764  23.053  1.00  0.00     0.004 C 
ENDBRANCH  18  19
ENDBRANCH  17  18
ENDBRANCH  16  17
ENDBRANCH  15  16
ENDBRANCH  14  15
ENDBRANCH  13  14
ENDBRANCH  12  13
ENDBRANCH   1  12
TORSDOF 16
ENDMDL
MODEL 6
REMARK VINA RESULT:     5.239      0.795      4.100
REMARK INTER + INTRA:           9.161
REMARK INTER:                  10.158
REMARK INTRA:                  -0.997
REMARK UNBOUND:                -0.979
REMARK SMILES CCCCCCCCCCCCCCCCCC(=O)[O-]
REMARK SMILES IDX 10 1 11 2 12 3 13 4 14 5 15 6 16 7 17 8 18 9 19 10 20 11
REMARK SMILES IDX 9 12 8 13 7 14 6 15 5 16 4 17 3 18 2 19 1 20
REMARK H PARENT
REMARK Flexibility Score: inf
ROOT
ATOM      1  C   UNL     1      16.147   4.592  29.904  1.00  0.00     0.000 C 
ENDROOT
BRANCH   1   2
ATOM      2  C   UNL     1      15.860   5.073  28.475  1.00  0.00     0.000 C 
BRANCH   2   3
ATOM      3  C   UNL     1      15.463   3.897  27.571  1.00  0.00     0.000 C 
BRANCH   3   4
ATOM      4  C   UNL     1      16.094   3.986  26.171  1.00  0.00     0.000 C 
BRANCH   4   5
ATOM      5  C   UNL     1      15.784   2.752  25.308  1.00  0.00     0.000 C 
BRANCH   5   6
ATOM      6  C   UNL     1      14.352   2.224  25.509  1.00  0.00     0.000 C 
BRANCH   6   7
ATOM      7  C   UNL     1      13.301   2.800  24.541  1.00  0.00     0.006 C 
BRANCH   7   8
ATOM      8  C   UNL     1      13.923   3.452  23.302  1.00  0.00     0.053 C 
BRANCH   8   9
ATOM      9  C   UNL     1      13.033   4.536  22.778  1.00  0.00     0.041 C 
ATOM     10  O   UNL     1      11.933   4.246  22.239  1.00  0.00    -0.550 OA
ATOM     11  O   UNL     1      13.395   5.869  22.932  1.00  0.00    -0.550 OA
ENDBRANCH   8   9
ENDBRANCH   7   8
ENDBRANCH   6   7
ENDBRANCH   5   6
ENDBRANCH   4   5
ENDBRANCH   3   4
ENDBRANCH   2   3
ENDBRANCH   1   2
BRANCH   1  12
ATOM     12  C   UNL     1      17.582   4.937  30.324  1.00  0.00     0.000 C 
BRANCH  12  13
ATOM     13  C   UNL     1      18.374   3.668  30.669  1.00  0.00    -0.000 C 
BRANCH  13  14
ATOM     14  C   UNL     1      19.347   3.245  29.553  1.00  0.00    -0.000 C 
BRANCH  14  15
ATOM     15  C   UNL     1      19.628   1.733  29.468  1.00  0.00    -0.000 C 
BRANCH  15  16
ATOM     16  C   UNL     1      19.208   1.120  28.121  1.00  0.00    -0.000 C 
BRANCH  16  17
ATOM     17  C   UNL     1      19.080   2.173  27.007  1.00  0.00    -0.000 C 
BRANCH  17  18
ATOM     18  C   UNL     1      18.799   1.547  25.631  1.00  0.00    -0.000 C 
BRANCH  18  19
ATOM     19  C   UNL     1      20.019   0.802  25.065  1.00  0.00    -0.003 C 
ATOM     20  C   UNL     1      21.311   1.125  25.814  1.00  0.00     0.004 C 
ENDBRANCH  18  19
ENDBRANCH  17  18
ENDBRANCH  16  17
ENDBRANCH  15  16
ENDBRANCH  14  15
ENDBRANCH  13  14
ENDBRANCH  12  13
ENDBRANCH   1  12
TORSDOF 16
ENDMDL
MODEL 7
REMARK VINA RESULT:     5.679      1.144      4.561
REMARK INTER + INTRA:          10.012
REMARK INTER:                  11.321
REMARK INTRA:                  -1.308
REMARK UNBOUND:                -0.979
REMARK SMILES CCCCCCCCCCCCCCCCCC(=O)[O-]
REMARK SMILES IDX 10 1 11 2 12 3 13 4 14 5 15 6 16 7 17 8 18 9 19 10 20 11
REMARK SMILES IDX 9 12 8 13 7 14 6 15 5 16 4 17 3 18 2 19 1 20
REMARK H PARENT
REMARK Flexibility Score: inf
ROOT
ATOM      1  C   UNL     1      17.058   4.685  30.694  1.00  0.00     0.000 C 
ENDROOT
BRANCH   1   2
ATOM      2  C   UNL     1      15.844   4.757  29.759  1.00  0.00     0.000 C 
BRANCH   2   3
ATOM      3  C   UNL     1      16.285   4.963  28.302  1.00  0.00     0.000 C 
BRANCH   3   4
ATOM      4  C   UNL     1      15.490   4.094  27.314  1.00  0.00     0.000 C 
BRANCH   4   5
ATOM      5  C   UNL     1      16.350   3.606  26.136  1.00  0.00     0.000 C 
BRANCH   5   6
ATOM      6  C   UNL     1      15.529   2.879  25.055  1.00  0.00     0.000 C 
BRANCH   6   7
ATOM      7  C   UNL     1      14.080   2.542  25.452  1.00  0.00     0.006 C 
BRANCH   7   8
ATOM      8  C   UNL     1      13.140   2.429  24.247  1.00  0.00     0.053 C 
BRANCH   8   9
ATOM      9  C   UNL     1      13.476   3.467  23.222  1.00  0.00     0.041 C 
ATOM     10  O   UNL     1      13.112   4.661  23.387  1.00  0.00    -0.550 OA
ATOM     11  O   UNL     1      14.236   3.126  22.109  1.00  0.00    -0.550 OA
ENDBRANCH   8   9
ENDBRANCH   7   8
ENDBRANCH   6   7
ENDBRANCH   5   6
ENDBRANCH   4   5
ENDBRANCH   3   4
ENDBRANCH   2   3
ENDBRANCH   1   2
BRANCH   1  12
ATOM     12  C   UNL     1      18.343   4.391  29.908  1.00  0.00     0.000 C 
BRANCH  12  13
ATOM     13  C   UNL     1      19.108   3.213  30.527  1.00  0.00    -0.000 C 
BRANCH  13  14
ATOM     14  C   UNL     1      19.470   2.125  29.501  1.00  0.00    -0.000 C 
BRANCH  14  15
ATOM     15  C   UNL     1      19.070   2.438  28.046  1.00  0.00    -0.000 C 
BRANCH  15  16
ATOM     16  C   UNL     1      18.861   1.174  27.196  1.00  0.00    -0.000 C 
BRANCH  16  17
ATOM     17  C   UNL     1      18.709   1.488  25.698  1.00  0.00    -0.000 C 
BRANCH  17  18
ATOM     18  C   UNL     1      20.003   1.232  24.906  1.00  0.00    -0.000 C 
BRANCH  18  19
ATOM     19  C   UNL     1      20.927   0.221  25.603  1.00  0.00    -0.003 C 
ATOM     20  C   UNL     1      22.255   0.836  26.042  1.00  0.00     0.004 C 
ENDBRANCH  18  19
ENDBRANCH  17  18
ENDBRANCH  16  17
ENDBRANCH  15  16
ENDBRANCH  14  15
ENDBRANCH  13  14
ENDBRANCH  12  13
ENDBRANCH   1  12
TORSDOF 16
ENDMDL
