MODEL 1
REMARK VINA RESULT:    -4.346      0.000      0.000
REMARK INTER + INTRA:          -4.779
REMARK INTER:                  -4.600
REMARK INTRA:                  -0.179
REMARK UNBOUND:                -0.179
REMARK SMILES CC1=CCC(C(C)C)=CC1
REMARK SMILES IDX 1 1 2 2 3 3 4 4 5 5 9 6 10 7 6 8 7 9 8 10
REMARK H PARENT
REMARK Flexibility Score: inf
ROOT
ATOM      1  C   UNL     1     167.813 168.391 202.540  1.00  0.00     0.039 C 
ATOM      2  C   UNL     1     166.747 169.023 201.689  1.00  0.00    -0.073 C 
ATOM      3  C   UNL     1     166.981 169.261 200.384  1.00  0.00    -0.023 C 
ATOM      4  C   UNL     1     165.937 169.931 199.525  1.00  0.00     0.058 C 
ATOM      5  C   UNL     1     164.534 169.557 199.973  1.00  0.00    -0.068 C 
ATOM      6  C   UNL     1     164.306 169.317 201.282  1.00  0.00    -0.023 C 
ATOM      7  C   UNL     1     165.419 169.426 202.295  1.00  0.00     0.057 C 
ENDROOT
BRANCH   5   8
ATOM      8  C   UNL     1     163.402 169.427 198.965  1.00  0.00     0.009 C 
ATOM      9  C   UNL     1     163.903 168.844 197.637  1.00  0.00     0.012 C 
ATOM     10  C   UNL     1     162.257 168.585 199.539  1.00  0.00     0.012 C 
ENDBRANCH   5   8
TORSDOF 1
ENDMDL
MODEL 2
REMARK VINA RESULT:    -4.339      5.982      7.475
REMARK INTER + INTRA:          -4.772
REMARK INTER:                  -4.593
REMARK INTRA:                  -0.179
REMARK UNBOUND:                -0.179
REMARK SMILES CC1=CCC(C(C)C)=CC1
REMARK SMILES IDX 1 1 2 2 3 3 4 4 5 5 9 6 10 7 6 8 7 9 8 10
REMARK H PARENT
REMARK Flexibility Score: inf
ROOT
ATOM      1  C   UNL     1     163.514 162.452 199.135  1.00  0.00     0.039 C 
ATOM      2  C   UNL     1     164.850 162.470 199.824  1.00  0.00    -0.073 C 
ATOM      3  C   UNL     1     165.911 161.872 199.250  1.00  0.00    -0.023 C 
ATOM      4  C   UNL     1     167.249 161.845 199.947  1.00  0.00     0.058 C 
ATOM      5  C   UNL     1     167.462 163.101 200.776  1.00  0.00    -0.068 C 
ATOM      6  C   UNL     1     166.394 163.698 201.347  1.00  0.00    -0.023 C 
ATOM      7  C   UNL     1     165.006 163.129 201.178  1.00  0.00     0.057 C 
ENDROOT
BRANCH   5   8
ATOM      8  C   UNL     1     168.851 163.698 200.945  1.00  0.00     0.009 C 
ATOM      9  C   UNL     1     169.738 163.395 199.731  1.00  0.00     0.012 C 
ATOM     10  C   UNL     1     168.766 165.206 201.203  1.00  0.00     0.012 C 
ENDBRANCH   5   8
TORSDOF 1
ENDMDL
MODEL 3
REMARK VINA RESULT:    -4.338      2.690      3.990
REMARK INTER + INTRA:          -4.771
REMARK INTER:                  -4.599
REMARK INTRA:                  -0.172
REMARK UNBOUND:                -0.179
REMARK SMILES CC1=CCC(C(C)C)=CC1
REMARK SMILES IDX 1 1 2 2 3 3 4 4 5 5 9 6 10 7 6 8 7 9 8 10
REMARK H PARENT
REMARK Flexibility Score: inf
ROOT
ATOM      1  C   UNL     1     169.388 164.817 200.316  1.00  0.00     0.039 C 
ATOM      2  C   UNL     1     169.217 166.287 200.054  1.00  0.00    -0.073 C 
ATOM      3  C   UNL     1     169.162 166.743 198.788  1.00  0.00    -0.023 C 
ATOM      4  C   UNL     1     169.032 168.219 198.507  1.00  0.00     0.058 C 
ATOM      5  C   UNL     1     168.214 168.914 199.584  1.00  0.00    -0.068 C 
ATOM      6  C   UNL     1     168.271 168.451 200.851  1.00  0.00    -0.023 C 
ATOM      7  C   UNL     1     169.139 167.267 201.205  1.00  0.00     0.057 C 
ENDROOT
BRANCH   5   8
ATOM      8  C   UNL     1     167.322 170.098 199.244  1.00  0.00     0.009 C 
ATOM      9  C   UNL     1     167.357 170.408 197.742  1.00  0.00     0.012 C 
ATOM     10  C   UNL     1     165.887 169.852 199.722  1.00  0.00     0.012 C 
ENDBRANCH   5   8
TORSDOF 1
ENDMDL
MODEL 4
REMARK VINA RESULT:    -4.335      1.349      2.365
REMARK INTER + INTRA:          -4.767
REMARK INTER:                  -4.588
REMARK INTRA:                  -0.179
REMARK UNBOUND:                -0.179
REMARK SMILES CC1=CCC(C(C)C)=CC1
REMARK SMILES IDX 1 1 2 2 3 3 4 4 5 5 9 6 10 7 6 8 7 9 8 10
REMARK H PARENT
REMARK Flexibility Score: inf
ROOT
ATOM      1  C   UNL     1     168.454 169.644 198.861  1.00  0.00     0.039 C 
ATOM      2  C   UNL     1     167.179 169.625 199.656  1.00  0.00    -0.073 C 
ATOM      3  C   UNL     1     166.063 170.186 199.153  1.00  0.00    -0.023 C 
ATOM      4  C   UNL     1     164.786 170.212 199.955  1.00  0.00     0.058 C 
ATOM      5  C   UNL     1     164.665 168.981 200.838  1.00  0.00    -0.068 C 
ATOM      6  C   UNL     1     165.788 168.421 201.338  1.00  0.00    -0.023 C 
ATOM      7  C   UNL     1     167.146 169.008 201.038  1.00  0.00     0.057 C 
ENDROOT
BRANCH   5   8
ATOM      8  C   UNL     1     163.307 168.365 201.138  1.00  0.00     0.009 C 
ATOM      9  C   UNL     1     162.377 168.450 199.921  1.00  0.00     0.012 C 
ATOM     10  C   UNL     1     163.460 166.917 201.614  1.00  0.00     0.012 C 
ENDBRANCH   5   8
TORSDOF 1
ENDMDL
MODEL 5
REMARK VINA RESULT:    -4.325      6.392      7.424
REMARK INTER + INTRA:          -4.756
REMARK INTER:                  -4.578
REMARK INTRA:                  -0.179
REMARK UNBOUND:                -0.179
REMARK SMILES CC1=CCC(C(C)C)=CC1
REMARK SMILES IDX 1 1 2 2 3 3 4 4 5 5 9 6 10 7 6 8 7 9 8 10
REMARK H PARENT
REMARK Flexibility Score: inf
ROOT
ATOM      1  C   UNL     1     164.009 163.619 202.259  1.00  0.00     0.039 C 
ATOM      2  C   UNL     1     165.124 162.992 201.471  1.00  0.00    -0.073 C 
ATOM      3  C   UNL     1     164.949 162.707 200.167  1.00  0.00    -0.023 C 
ATOM      4  C   UNL     1     166.044 162.040 199.371  1.00  0.00     0.058 C 
ATOM      5  C   UNL     1     167.419 162.467 199.861  1.00  0.00    -0.068 C 
ATOM      6  C   UNL     1     167.587 162.755 201.170  1.00  0.00    -0.023 C 
ATOM      7  C   UNL     1     166.437 162.647 202.142  1.00  0.00     0.057 C 
ENDROOT
BRANCH   5   8
ATOM      8  C   UNL     1     168.586 162.598 198.895  1.00  0.00     0.009 C 
ATOM      9  C   UNL     1     168.149 163.257 197.580  1.00  0.00     0.012 C 
ATOM     10  C   UNL     1     169.742 163.370 199.540  1.00  0.00     0.012 C 
ENDBRANCH   5   8
TORSDOF 1
ENDMDL
MODEL 6
REMARK VINA RESULT:    -4.317      6.359      7.031
REMARK INTER + INTRA:          -4.748
REMARK INTER:                  -4.577
REMARK INTRA:                  -0.172
REMARK UNBOUND:                -0.179
REMARK SMILES CC1=CCC(C(C)C)=CC1
REMARK SMILES IDX 1 1 2 2 3 3 4 4 5 5 9 6 10 7 6 8 7 9 8 10
REMARK H PARENT
REMARK Flexibility Score: inf
ROOT
ATOM      1  C   UNL     1     169.726 164.951 199.915  1.00  0.00     0.039 C 
ATOM      2  C   UNL     1     168.735 163.852 199.655  1.00  0.00    -0.073 C 
ATOM      3  C   UNL     1     168.212 163.159 200.684  1.00  0.00    -0.023 C 
ATOM      4  C   UNL     1     167.247 162.026 200.438  1.00  0.00     0.058 C 
ATOM      5  C   UNL     1     166.393 162.287 199.208  1.00  0.00    -0.068 C 
ATOM      6  C   UNL     1     166.923 162.985 198.179  1.00  0.00    -0.023 C 
ATOM      7  C   UNL     1     168.343 163.492 198.237  1.00  0.00     0.057 C 
ENDROOT
BRANCH   5   8
ATOM      8  C   UNL     1     164.955 161.798 199.138  1.00  0.00     0.009 C 
ATOM      9  C   UNL     1     164.026 162.676 199.987  1.00  0.00     0.012 C 
ATOM     10  C   UNL     1     164.473 161.732 197.684  1.00  0.00     0.012 C 
ENDBRANCH   5   8
TORSDOF 1
ENDMDL
MODEL 7
REMARK VINA RESULT:    -4.316      6.287      7.695
REMARK INTER + INTRA:          -4.747
REMARK INTER:                  -4.572
REMARK INTRA:                  -0.175
REMARK UNBOUND:                -0.179
REMARK SMILES CC1=CCC(C(C)C)=CC1
REMARK SMILES IDX 1 1 2 2 3 3 4 4 5 5 9 6 10 7 6 8 7 9 8 10
REMARK H PARENT
REMARK Flexibility Score: inf
ROOT
ATOM      1  C   UNL     1     162.315 164.153 198.398  1.00  0.00     0.039 C 
ATOM      2  C   UNL     1     163.422 163.278 198.915  1.00  0.00    -0.073 C 
ATOM      3  C   UNL     1     164.179 162.572 198.055  1.00  0.00    -0.023 C 
ATOM      4  C   UNL     1     165.267 161.657 198.560  1.00  0.00     0.058 C 
ATOM      5  C   UNL     1     165.899 162.203 199.831  1.00  0.00    -0.068 C 
ATOM      6  C   UNL     1     165.135 162.913 200.688  1.00  0.00    -0.023 C 
ATOM      7  C   UNL     1     163.673 163.159 200.404  1.00  0.00     0.057 C 
ENDROOT
BRANCH   5   8
ATOM      8  C   UNL     1     167.373 161.979 200.127  1.00  0.00     0.009 C 
ATOM      9  C   UNL     1     168.262 162.666 199.082  1.00  0.00     0.012 C 
ATOM     10  C   UNL     1     167.721 162.454 201.542  1.00  0.00     0.012 C 
ENDBRANCH   5   8
TORSDOF 1
ENDMDL
MODEL 8
REMARK VINA RESULT:    -4.310      5.270      6.461
REMARK INTER + INTRA:          -4.741
REMARK INTER:                  -4.570
REMARK INTRA:                  -0.171
REMARK UNBOUND:                -0.179
REMARK SMILES CC1=CCC(C(C)C)=CC1
REMARK SMILES IDX 1 1 2 2 3 3 4 4 5 5 9 6 10 7 6 8 7 9 8 10
REMARK H PARENT
REMARK Flexibility Score: inf
ROOT
ATOM      1  C   UNL     1     162.625 167.253 200.226  1.00  0.00     0.039 C 
ATOM      2  C   UNL     1     162.773 165.778 199.985  1.00  0.00    -0.073 C 
ATOM      3  C   UNL     1     162.841 165.305 198.726  1.00  0.00    -0.023 C 
ATOM      4  C   UNL     1     162.949 163.823 198.466  1.00  0.00     0.058 C 
ATOM      5  C   UNL     1     163.735 163.126 199.564  1.00  0.00    -0.068 C 
ATOM      6  C   UNL     1     163.665 163.607 200.825  1.00  0.00    -0.023 C 
ATOM      7  C   UNL     1     162.813 164.810 201.149  1.00  0.00     0.057 C 
ENDROOT
BRANCH   5   8
ATOM      8  C   UNL     1     164.611 161.923 199.254  1.00  0.00     0.009 C 
ATOM      9  C   UNL     1     164.548 161.556 197.766  1.00  0.00     0.012 C 
ATOM     10  C   UNL     1     166.056 162.173 199.699  1.00  0.00     0.012 C 
ENDBRANCH   5   8
TORSDOF 1
ENDMDL
MODEL 9
REMARK VINA RESULT:    -4.306      1.467      4.125
REMARK INTER + INTRA:          -4.737
REMARK INTER:                  -4.564
REMARK INTRA:                  -0.173
REMARK UNBOUND:                -0.179
REMARK SMILES CC1=CCC(C(C)C)=CC1
REMARK SMILES IDX 1 1 2 2 3 3 4 4 5 5 9 6 10 7 6 8 7 9 8 10
REMARK H PARENT
REMARK Flexibility Score: inf
ROOT
ATOM      1  C   UNL     1     162.270 166.963 199.989  1.00  0.00     0.039 C 
ATOM      2  C   UNL     1     163.234 168.082 199.712  1.00  0.00    -0.073 C 
ATOM      3  C   UNL     1     163.742 168.800 200.731  1.00  0.00    -0.023 C 
ATOM      4  C   UNL     1     164.679 169.953 200.468  1.00  0.00     0.058 C 
ATOM      5  C   UNL     1     165.537 169.696 199.240  1.00  0.00    -0.068 C 
ATOM      6  C   UNL     1     165.022 168.972 198.222  1.00  0.00    -0.023 C 
ATOM      7  C   UNL     1     163.615 168.432 198.289  1.00  0.00     0.057 C 
ENDROOT
BRANCH   5   8
ATOM      8  C   UNL     1     166.963 170.218 199.160  1.00  0.00     0.009 C 
ATOM      9  C   UNL     1     167.905 169.403 200.055  1.00  0.00     0.012 C 
ATOM     10  C   UNL     1     167.456 170.234 197.710  1.00  0.00     0.012 C 
ENDBRANCH   5   8
TORSDOF 1
ENDMDL
