MODEL 1
REMARK VINA RESULT:    -4.691      0.000      0.000
REMARK INTER + INTRA:          -8.058
REMARK INTER:                  -7.159
REMARK INTRA:                  -0.899
REMARK UNBOUND:                -0.899
REMARK SMILES CCCCCCCCCCC(=O)[O-]
REMARK SMILES IDX 7 1 8 2 9 3 10 4 11 5 12 6 13 7 6 8 5 9 4 10 3 11 2 12 1 13
REMARK H PARENT
REMARK Flexibility Score: inf
ROOT
ATOM      1  C   UNL     1       4.080  46.332  11.095  1.00  0.00     0.000 C 
ENDROOT
BRANCH   1   2
ATOM      2  C   UNL     1       4.615  46.621   9.675  1.00  0.00     0.000 C 
BRANCH   2   3
ATOM      3  C   UNL     1       3.583  47.296   8.751  1.00  0.00     0.006 C 
BRANCH   3   4
ATOM      4  C   UNL     1       4.135  48.491   7.958  1.00  0.00     0.053 C 
BRANCH   4   5
ATOM      5  C   UNL     1       3.076  49.516   7.685  1.00  0.00     0.041 C 
ATOM      6  O   UNL     1       3.387  50.725   7.520  1.00  0.00    -0.550 OA
ATOM      7  O   UNL     1       1.745  49.130   7.591  1.00  0.00    -0.550 OA
ENDBRANCH   4   5
ENDBRANCH   3   4
ENDBRANCH   2   3
ENDBRANCH   1   2
BRANCH   1   8
ATOM      8  C   UNL     1       4.423  44.913  11.570  1.00  0.00     0.000 C 
BRANCH   8   9
ATOM      9  C   UNL     1       3.294  44.330  12.431  1.00  0.00    -0.000 C 
BRANCH   9  10
ATOM     10  C   UNL     1       2.282  43.507  11.615  1.00  0.00    -0.000 C 
BRANCH  10  11
ATOM     11  C   UNL     1       2.905  42.787  10.401  1.00  0.00    -0.000 C 
BRANCH  11  12
ATOM     12  C   UNL     1       2.391  43.347   9.066  1.00  0.00    -0.003 C 
ATOM     13  C   UNL     1       1.323  44.413   9.290  1.00  0.00     0.004 C 
ENDBRANCH  11  12
ENDBRANCH  10  11
ENDBRANCH   9  10
ENDBRANCH   8   9
ENDBRANCH   1   8
TORSDOF 9
ENDMDL
MODEL 2
REMARK VINA RESULT:    -4.578      2.102      3.369
REMARK INTER + INTRA:          -7.885
REMARK INTER:                  -6.693
REMARK INTRA:                  -1.193
REMARK UNBOUND:                -0.899
REMARK SMILES CCCCCCCCCCC(=O)[O-]
REMARK SMILES IDX 7 1 8 2 9 3 10 4 11 5 12 6 13 7 6 8 5 9 4 10 3 11 2 12 1 13
REMARK H PARENT
REMARK Flexibility Score: inf
ROOT
ATOM      1  C   UNL     1       1.711  45.918  10.099  1.00  0.00     0.000 C 
ENDROOT
BRANCH   1   2
ATOM      2  C   UNL     1       2.619  47.060   9.592  1.00  0.00     0.000 C 
BRANCH   2   3
ATOM      3  C   UNL     1       3.998  46.581   9.099  1.00  0.00     0.006 C 
BRANCH   3   4
ATOM      4  C   UNL     1       5.165  46.971  10.019  1.00  0.00     0.053 C 
BRANCH   4   5
ATOM      5  C   UNL     1       6.177  47.818   9.308  1.00  0.00     0.041 C 
ATOM      6  O   UNL     1       5.825  48.576   8.367  1.00  0.00    -0.550 OA
ATOM      7  O   UNL     1       7.509  47.784   9.701  1.00  0.00    -0.550 OA
ENDBRANCH   4   5
ENDBRANCH   3   4
ENDBRANCH   2   3
ENDBRANCH   1   2
BRANCH   1   8
ATOM      8  C   UNL     1       1.463  44.849   9.025  1.00  0.00     0.000 C 
BRANCH   8   9
ATOM      9  C   UNL     1       1.844  43.453   9.535  1.00  0.00    -0.000 C 
BRANCH   9  10
ATOM     10  C   UNL     1       3.302  43.077   9.220  1.00  0.00    -0.000 C 
BRANCH  10  11
ATOM     11  C   UNL     1       4.237  43.142  10.445  1.00  0.00    -0.000 C 
BRANCH  11  12
ATOM     12  C   UNL     1       3.463  43.330  11.758  1.00  0.00    -0.003 C 
ATOM     13  C   UNL     1       4.074  44.443  12.605  1.00  0.00     0.004 C 
ENDBRANCH  11  12
ENDBRANCH  10  11
ENDBRANCH   9  10
ENDBRANCH   8   9
ENDBRANCH   1   8
TORSDOF 9
ENDMDL
MODEL 3
REMARK VINA RESULT:    -4.486      1.960      3.365
REMARK INTER + INTRA:          -7.745
REMARK INTER:                  -6.727
REMARK INTRA:                  -1.018
REMARK UNBOUND:                -0.899
REMARK SMILES CCCCCCCCCCC(=O)[O-]
REMARK SMILES IDX 7 1 8 2 9 3 10 4 11 5 12 6 13 7 6 8 5 9 4 10 3 11 2 12 1 13
REMARK H PARENT
REMARK Flexibility Score: inf
ROOT
ATOM      1  C   UNL     1       2.833  44.110  11.752  1.00  0.00     0.000 C 
ENDROOT
BRANCH   1   2
ATOM      2  C   UNL     1       4.160  44.902  11.747  1.00  0.00     0.000 C 
BRANCH   2   3
ATOM      3  C   UNL     1       4.066  46.260  11.026  1.00  0.00     0.006 C 
BRANCH   3   4
ATOM      4  C   UNL     1       4.531  46.229   9.562  1.00  0.00     0.053 C 
BRANCH   4   5
ATOM      5  C   UNL     1       5.317  47.454   9.200  1.00  0.00     0.041 C 
ATOM      6  O   UNL     1       6.459  47.647   9.693  1.00  0.00    -0.550 OA
ATOM      7  O   UNL     1       4.792  48.372   8.299  1.00  0.00    -0.550 OA
ENDBRANCH   4   5
ENDBRANCH   3   4
ENDBRANCH   2   3
ENDBRANCH   1   2
BRANCH   1   8
ATOM      8  C   UNL     1       2.778  43.059  10.634  1.00  0.00     0.000 C 
BRANCH   8   9
ATOM      9  C   UNL     1       2.031  43.596   9.405  1.00  0.00    -0.000 C 
BRANCH   9  10
ATOM     10  C   UNL     1       1.066  44.745   9.746  1.00  0.00    -0.000 C 
BRANCH  10  11
ATOM     11  C   UNL     1       0.748  45.662   8.547  1.00  0.00    -0.000 C 
BRANCH  11  12
ATOM     12  C   UNL     1       0.900  47.150   8.896  1.00  0.00    -0.003 C 
ATOM     13  C   UNL     1       1.388  47.953   7.693  1.00  0.00     0.004 C 
ENDBRANCH  11  12
ENDBRANCH  10  11
ENDBRANCH   9  10
ENDBRANCH   8   9
ENDBRANCH   1   8
TORSDOF 9
ENDMDL
MODEL 4
REMARK VINA RESULT:    -4.405      2.708      5.496
REMARK INTER + INTRA:          -7.621
REMARK INTER:                  -6.892
REMARK INTRA:                  -0.729
REMARK UNBOUND:                -0.899
REMARK SMILES CCCCCCCCCCC(=O)[O-]
REMARK SMILES IDX 7 1 8 2 9 3 10 4 11 5 12 6 13 7 6 8 5 9 4 10 3 11 2 12 1 13
REMARK H PARENT
REMARK Flexibility Score: inf
ROOT
ATOM      1  C   UNL     1       4.553  46.036  10.892  1.00  0.00     0.000 C 
ENDROOT
BRANCH   1   2
ATOM      2  C   UNL     1       3.227  45.400  11.367  1.00  0.00     0.000 C 
BRANCH   2   3
ATOM      3  C   UNL     1       3.369  43.928  11.801  1.00  0.00     0.006 C 
BRANCH   3   4
ATOM      4  C   UNL     1       2.605  42.934  10.912  1.00  0.00     0.053 C 
BRANCH   4   5
ATOM      5  C   UNL     1       2.738  43.271   9.457  1.00  0.00     0.041 C 
ATOM      6  O   UNL     1       3.858  43.199   8.886  1.00  0.00    -0.550 OA
ATOM      7  O   UNL     1       1.617  43.644   8.727  1.00  0.00    -0.550 OA
ENDBRANCH   4   5
ENDBRANCH   3   4
ENDBRANCH   2   3
ENDBRANCH   1   2
BRANCH   1   8
ATOM      8  C   UNL     1       4.421  46.698   9.513  1.00  0.00     0.000 C 
BRANCH   8   9
ATOM      9  C   UNL     1       2.949  46.939   9.154  1.00  0.00    -0.000 C 
BRANCH   9  10
ATOM     10  C   UNL     1       2.773  47.796   7.888  1.00  0.00    -0.000 C 
BRANCH  10  11
ATOM     11  C   UNL     1       3.918  48.804   7.659  1.00  0.00    -0.000 C 
BRANCH  11  12
ATOM     12  C   UNL     1       3.402  50.240   7.480  1.00  0.00    -0.003 C 
ATOM     13  C   UNL     1       1.920  50.341   7.831  1.00  0.00     0.004 C 
ENDBRANCH  11  12
ENDBRANCH  10  11
ENDBRANCH   9  10
ENDBRANCH   8   9
ENDBRANCH   1   8
TORSDOF 9
ENDMDL
MODEL 5
REMARK VINA RESULT:    -4.364      2.412      3.769
REMARK INTER + INTRA:          -7.560
REMARK INTER:                  -6.504
REMARK INTRA:                  -1.056
REMARK UNBOUND:                -0.899
REMARK SMILES CCCCCCCCCCC(=O)[O-]
REMARK SMILES IDX 7 1 8 2 9 3 10 4 11 5 12 6 13 7 6 8 5 9 4 10 3 11 2 12 1 13
REMARK H PARENT
REMARK Flexibility Score: inf
ROOT
ATOM      1  C   UNL     1       1.328  47.700   8.679  1.00  0.00     0.000 C 
ENDROOT
BRANCH   1   2
ATOM      2  C   UNL     1       2.375  48.366   7.758  1.00  0.00     0.000 C 
BRANCH   2   3
ATOM      3  C   UNL     1       3.829  48.144   8.214  1.00  0.00     0.006 C 
BRANCH   3   4
ATOM      4  C   UNL     1       4.085  46.770   8.854  1.00  0.00     0.053 C 
BRANCH   4   5
ATOM      5  C   UNL     1       5.030  46.862  10.013  1.00  0.00     0.041 C 
ATOM      6  O   UNL     1       4.759  46.293  11.103  1.00  0.00    -0.550 OA
ATOM      7  O   UNL     1       6.223  47.561   9.882  1.00  0.00    -0.550 OA
ENDBRANCH   4   5
ENDBRANCH   3   4
ENDBRANCH   2   3
ENDBRANCH   1   2
BRANCH   1   8
ATOM      8  C   UNL     1       0.483  46.653   7.939  1.00  0.00     0.000 C 
BRANCH   8   9
ATOM      9  C   UNL     1       0.595  45.277   8.610  1.00  0.00    -0.000 C 
BRANCH   9  10
ATOM     10  C   UNL     1       0.963  45.366  10.101  1.00  0.00    -0.000 C 
BRANCH  10  11
ATOM     11  C   UNL     1       1.767  44.153  10.614  1.00  0.00    -0.000 C 
BRANCH  11  12
ATOM     12  C   UNL     1       2.529  43.442   9.485  1.00  0.00    -0.003 C 
ATOM     13  C   UNL     1       3.952  43.095   9.913  1.00  0.00     0.004 C 
ENDBRANCH  11  12
ENDBRANCH  10  11
ENDBRANCH   9  10
ENDBRANCH   8   9
ENDBRANCH   1   8
TORSDOF 9
ENDMDL
MODEL 6
REMARK VINA RESULT:    -4.364      2.097      2.709
REMARK INTER + INTRA:          -7.559
REMARK INTER:                  -6.714
REMARK INTRA:                  -0.846
REMARK UNBOUND:                -0.899
REMARK SMILES CCCCCCCCCCC(=O)[O-]
REMARK SMILES IDX 7 1 8 2 9 3 10 4 11 5 12 6 13 7 6 8 5 9 4 10 3 11 2 12 1 13
REMARK H PARENT
REMARK Flexibility Score: inf
ROOT
ATOM      1  C   UNL     1       4.651  46.695   9.800  1.00  0.00     0.000 C 
ENDROOT
BRANCH   1   2
ATOM      2  C   UNL     1       3.798  47.341   8.686  1.00  0.00     0.000 C 
BRANCH   2   3
ATOM      3  C   UNL     1       2.288  47.350   8.992  1.00  0.00     0.006 C 
BRANCH   3   4
ATOM      4  C   UNL     1       1.402  47.662   7.776  1.00  0.00     0.053 C 
BRANCH   4   5
ATOM      5  C   UNL     1       0.338  46.625   7.579  1.00  0.00     0.041 C 
ATOM      6  O   UNL     1       0.398  45.527   8.193  1.00  0.00    -0.550 OA
ATOM      7  O   UNL     1      -0.732  46.881   6.732  1.00  0.00    -0.550 OA
ENDBRANCH   4   5
ENDBRANCH   3   4
ENDBRANCH   2   3
ENDBRANCH   1   2
BRANCH   1   8
ATOM      8  C   UNL     1       3.806  46.264  11.007  1.00  0.00     0.000 C 
BRANCH   8   9
ATOM      9  C   UNL     1       4.495  45.140  11.792  1.00  0.00    -0.000 C 
BRANCH   9  10
ATOM     10  C   UNL     1       3.498  44.182  12.467  1.00  0.00    -0.000 C 
BRANCH  10  11
ATOM     11  C   UNL     1       2.346  43.735  11.543  1.00  0.00    -0.000 C 
BRANCH  11  12
ATOM     12  C   UNL     1       2.787  42.652  10.547  1.00  0.00    -0.003 C 
ATOM     13  C   UNL     1       2.895  43.214   9.133  1.00  0.00     0.004 C 
ENDBRANCH  11  12
ENDBRANCH  10  11
ENDBRANCH   9  10
ENDBRANCH   8   9
ENDBRANCH   1   8
TORSDOF 9
ENDMDL
MODEL 7
REMARK VINA RESULT:    -4.318      3.105      5.737
REMARK INTER + INTRA:          -7.488
REMARK INTER:                  -6.489
REMARK INTRA:                  -0.999
REMARK UNBOUND:                -0.899
REMARK SMILES CCCCCCCCCCC(=O)[O-]
REMARK SMILES IDX 7 1 8 2 9 3 10 4 11 5 12 6 13 7 6 8 5 9 4 10 3 11 2 12 1 13
REMARK H PARENT
REMARK Flexibility Score: inf
ROOT
ATOM      1  C   UNL     1       0.234  45.874   8.274  1.00  0.00     0.000 C 
ENDROOT
BRANCH   1   2
ATOM      2  C   UNL     1       0.669  45.743   9.750  1.00  0.00     0.000 C 
BRANCH   2   3
ATOM      3  C   UNL     1       1.481  44.468  10.045  1.00  0.00     0.006 C 
BRANCH   3   4
ATOM      4  C   UNL     1       1.960  44.350  11.500  1.00  0.00     0.053 C 
BRANCH   4   5
ATOM      5  C   UNL     1       3.421  44.027  11.583  1.00  0.00     0.041 C 
ATOM      6  O   UNL     1       4.045  44.172  12.667  1.00  0.00    -0.550 OA
ATOM      7  O   UNL     1       4.089  43.547  10.464  1.00  0.00    -0.550 OA
ENDBRANCH   4   5
ENDBRANCH   3   4
ENDBRANCH   2   3
ENDBRANCH   1   2
BRANCH   1   8
ATOM      8  C   UNL     1       0.752  47.166   7.625  1.00  0.00     0.000 C 
BRANCH   8   9
ATOM      9  C   UNL     1       1.635  47.958   8.599  1.00  0.00    -0.000 C 
BRANCH   9  10
ATOM     10  C   UNL     1       2.763  48.730   7.893  1.00  0.00    -0.000 C 
BRANCH  10  11
ATOM     11  C   UNL     1       4.170  48.159   8.166  1.00  0.00    -0.000 C 
BRANCH  11  12
ATOM     12  C   UNL     1       4.128  46.924   9.079  1.00  0.00    -0.003 C 
ATOM     13  C   UNL     1       5.196  47.005  10.166  1.00  0.00     0.004 C 
ENDBRANCH  11  12
ENDBRANCH  10  11
ENDBRANCH   9  10
ENDBRANCH   8   9
ENDBRANCH   1   8
TORSDOF 9
ENDMDL
MODEL 8
REMARK VINA RESULT:    -4.294      3.309      5.803
REMARK INTER + INTRA:          -7.453
REMARK INTER:                  -6.621
REMARK INTRA:                  -0.831
REMARK UNBOUND:                -0.899
REMARK SMILES CCCCCCCCCCC(=O)[O-]
REMARK SMILES IDX 7 1 8 2 9 3 10 4 11 5 12 6 13 7 6 8 5 9 4 10 3 11 2 12 1 13
REMARK H PARENT
REMARK Flexibility Score: inf
ROOT
ATOM      1  C   UNL     1       2.966  46.486   9.890  1.00  0.00     0.000 C 
ENDROOT
BRANCH   1   2
ATOM      2  C   UNL     1       4.093  45.497   9.518  1.00  0.00     0.000 C 
BRANCH   2   3
ATOM      3  C   UNL     1       3.635  44.027   9.473  1.00  0.00     0.006 C 
BRANCH   3   4
ATOM      4  C   UNL     1       4.074  43.194  10.686  1.00  0.00     0.053 C 
BRANCH   4   5
ATOM      5  C   UNL     1       3.414  43.656  11.950  1.00  0.00     0.041 C 
ATOM      6  O   UNL     1       2.213  43.360  12.186  1.00  0.00    -0.550 OA
ATOM      7  O   UNL     1       4.134  44.400  12.876  1.00  0.00    -0.550 OA
ENDBRANCH   4   5
ENDBRANCH   3   4
ENDBRANCH   2   3
ENDBRANCH   1   2
BRANCH   1   8
ATOM      8  C   UNL     1       1.572  45.927   9.573  1.00  0.00     0.000 C 
BRANCH   8   9
ATOM      9  C   UNL     1       0.765  46.906   8.710  1.00  0.00    -0.000 C 
BRANCH   9  10
ATOM     10  C   UNL     1       1.647  47.726   7.752  1.00  0.00    -0.000 C 
BRANCH  10  11
ATOM     11  C   UNL     1       1.554  49.249   7.976  1.00  0.00    -0.000 C 
BRANCH  11  12
ATOM     12  C   UNL     1       2.838  49.979   7.552  1.00  0.00    -0.003 C 
ATOM     13  C   UNL     1       4.041  49.040   7.581  1.00  0.00     0.004 C 
ENDBRANCH  11  12
ENDBRANCH  10  11
ENDBRANCH   9  10
ENDBRANCH   8   9
ENDBRANCH   1   8
TORSDOF 9
ENDMDL
MODEL 9
REMARK VINA RESULT:    -4.265      1.424      2.822
REMARK INTER + INTRA:          -7.407
REMARK INTER:                  -6.395
REMARK INTRA:                  -1.013
REMARK UNBOUND:                -0.899
REMARK SMILES CCCCCCCCCCC(=O)[O-]
REMARK SMILES IDX 7 1 8 2 9 3 10 4 11 5 12 6 13 7 6 8 5 9 4 10 3 11 2 12 1 13
REMARK H PARENT
REMARK Flexibility Score: inf
ROOT
ATOM      1  C   UNL     1       1.064  45.004   9.456  1.00  0.00     0.000 C 
ENDROOT
BRANCH   1   2
ATOM      2  C   UNL     1       0.425  46.385   9.194  1.00  0.00     0.000 C 
BRANCH   2   3
ATOM      3  C   UNL     1       1.211  47.250   8.191  1.00  0.00     0.006 C 
BRANCH   3   4
ATOM      4  C   UNL     1       1.892  48.477   8.817  1.00  0.00     0.053 C 
BRANCH   4   5
ATOM      5  C   UNL     1       2.686  49.250   7.807  1.00  0.00     0.041 C 
ATOM      6  O   UNL     1       2.297  50.385   7.425  1.00  0.00    -0.550 OA
ATOM      7  O   UNL     1       3.868  48.723   7.304  1.00  0.00    -0.550 OA
ENDBRANCH   4   5
ENDBRANCH   3   4
ENDBRANCH   2   3
ENDBRANCH   1   2
BRANCH   1   8
ATOM      8  C   UNL     1       1.083  44.643  10.949  1.00  0.00     0.000 C 
BRANCH   8   9
ATOM      9  C   UNL     1       2.066  43.499  11.230  1.00  0.00    -0.000 C 
BRANCH   9  10
ATOM     10  C   UNL     1       3.526  43.873  10.918  1.00  0.00    -0.000 C 
BRANCH  10  11
ATOM     11  C   UNL     1       4.062  45.040  11.772  1.00  0.00    -0.000 C 
BRANCH  11  12
ATOM     12  C   UNL     1       4.334  46.298  10.933  1.00  0.00    -0.003 C 
ATOM     13  C   UNL     1       4.487  45.953   9.455  1.00  0.00     0.004 C 
ENDBRANCH  11  12
ENDBRANCH  10  11
ENDBRANCH   9  10
ENDBRANCH   8   9
ENDBRANCH   1   8
TORSDOF 9
ENDMDL
