MODEL 1
REMARK VINA RESULT:    -3.826      0.000      0.000
REMARK INTER + INTRA:          -8.219
REMARK INTER:                  -6.734
REMARK INTRA:                  -1.485
REMARK UNBOUND:                -1.485
REMARK SMILES CCCCCCCCCCCCCCC(=O)[O-]
REMARK SMILES IDX 9 1 10 2 11 3 12 4 13 5 14 6 15 7 16 8 17 9 8 10 7 11 6 12
REMARK SMILES IDX 5 13 4 14 3 15 2 16 1 17
REMARK H PARENT
REMARK Flexibility Score: inf
ROOT
ATOM      1  C   UNL     1      39.078  25.519 223.712  1.00  0.00     0.000 C 
ENDROOT
BRANCH   1   2
ATOM      2  C   UNL     1      37.560  25.575 223.934  1.00  0.00     0.000 C 
BRANCH   2   3
ATOM      3  C   UNL     1      36.805  25.355 222.617  1.00  0.00     0.000 C 
BRANCH   3   4
ATOM      4  C   UNL     1      35.716  24.288 222.779  1.00  0.00     0.000 C 
BRANCH   4   5
ATOM      5  C   UNL     1      35.804  23.238 221.666  1.00  0.00     0.006 C 
BRANCH   5   6
ATOM      6  C   UNL     1      36.824  23.649 220.601  1.00  0.00     0.053 C 
BRANCH   6   7
ATOM      7  C   UNL     1      36.158  23.807 219.270  1.00  0.00     0.041 C 
ATOM      8  O   UNL     1      36.815  23.640 218.209  1.00  0.00    -0.550 OA
ATOM      9  O   UNL     1      34.800  24.088 219.203  1.00  0.00    -0.550 OA
ENDBRANCH   6   7
ENDBRANCH   5   6
ENDBRANCH   4   5
ENDBRANCH   3   4
ENDBRANCH   2   3
ENDBRANCH   1   2
BRANCH   1  10
ATOM     10  C   UNL     1      39.596  24.088 223.478  1.00  0.00     0.000 C 
BRANCH  10  11
ATOM     11  C   UNL     1      40.227  23.842 222.096  1.00  0.00    -0.000 C 
BRANCH  11  12
ATOM     12  C   UNL     1      40.257  22.371 221.641  1.00  0.00    -0.000 C 
BRANCH  12  13
ATOM     13  C   UNL     1      41.611  21.671 221.879  1.00  0.00    -0.000 C 
BRANCH  13  14
ATOM     14  C   UNL     1      41.613  20.802 223.149  1.00  0.00    -0.000 C 
BRANCH  14  15
ATOM     15  C   UNL     1      40.942  19.433 222.938  1.00  0.00    -0.000 C 
BRANCH  15  16
ATOM     16  C   UNL     1      39.870  19.073 223.982  1.00  0.00    -0.003 C 
ATOM     17  C   UNL     1      39.083  20.286 224.475  1.00  0.00     0.004 C 
ENDBRANCH  15  16
ENDBRANCH  14  15
ENDBRANCH  13  14
ENDBRANCH  12  13
ENDBRANCH  11  12
ENDBRANCH  10  11
ENDBRANCH   1  10
TORSDOF 13
ENDMDL
MODEL 2
REMARK VINA RESULT:    -3.760      1.534      2.169
REMARK INTER + INTRA:          -8.103
REMARK INTER:                  -6.293
REMARK INTRA:                  -1.811
REMARK UNBOUND:                -1.485
REMARK SMILES CCCCCCCCCCCCCCC(=O)[O-]
REMARK SMILES IDX 9 1 10 2 11 3 12 4 13 5 14 6 15 7 16 8 17 9 8 10 7 11 6 12
REMARK SMILES IDX 5 13 4 14 3 15 2 16 1 17
REMARK H PARENT
REMARK Flexibility Score: inf
ROOT
ATOM      1  C   UNL     1      39.793  24.802 223.564  1.00  0.00     0.000 C 
ENDROOT
BRANCH   1   2
ATOM      2  C   UNL     1      38.686  25.810 223.901  1.00  0.00     0.000 C 
BRANCH   2   3
ATOM      3  C   UNL     1      37.561  25.758 222.861  1.00  0.00     0.000 C 
BRANCH   3   4
ATOM      4  C   UNL     1      36.351  24.984 223.397  1.00  0.00     0.000 C 
BRANCH   4   5
ATOM      5  C   UNL     1      36.109  23.707 222.584  1.00  0.00     0.006 C 
BRANCH   5   6
ATOM      6  C   UNL     1      35.160  23.973 221.411  1.00  0.00     0.053 C 
BRANCH   6   7
ATOM      7  C   UNL     1      35.895  23.882 220.111  1.00  0.00     0.041 C 
ATOM      8  O   UNL     1      37.037  23.353 220.065  1.00  0.00    -0.550 OA
ATOM      9  O   UNL     1      35.297  24.333 218.942  1.00  0.00    -0.550 OA
ENDBRANCH   6   7
ENDBRANCH   5   6
ENDBRANCH   4   5
ENDBRANCH   3   4
ENDBRANCH   2   3
ENDBRANCH   1   2
BRANCH   1  10
ATOM     10  C   UNL     1      39.758  24.343 222.095  1.00  0.00     0.000 C 
BRANCH  10  11
ATOM     11  C   UNL     1      39.925  22.827 221.883  1.00  0.00    -0.000 C 
BRANCH  11  12
ATOM     12  C   UNL     1      39.583  21.953 223.105  1.00  0.00    -0.000 C 
BRANCH  12  13
ATOM     13  C   UNL     1      40.485  20.710 223.256  1.00  0.00    -0.000 C 
BRANCH  13  14
ATOM     14  C   UNL     1      41.569  20.893 224.334  1.00  0.00    -0.000 C 
BRANCH  14  15
ATOM     15  C   UNL     1      42.745  21.764 223.858  1.00  0.00    -0.000 C 
BRANCH  15  16
ATOM     16  C   UNL     1      42.922  23.085 224.628  1.00  0.00    -0.003 C 
ATOM     17  C   UNL     1      42.087  23.149 225.906  1.00  0.00     0.004 C 
ENDBRANCH  15  16
ENDBRANCH  14  15
ENDBRANCH  13  14
ENDBRANCH  12  13
ENDBRANCH  11  12
ENDBRANCH  10  11
ENDBRANCH   1  10
TORSDOF 13
ENDMDL
MODEL 3
REMARK VINA RESULT:    -3.720      1.912      3.371
REMARK INTER + INTRA:          -8.032
REMARK INTER:                  -5.606
REMARK INTRA:                  -2.425
REMARK UNBOUND:                -1.485
REMARK SMILES CCCCCCCCCCCCCCC(=O)[O-]
REMARK SMILES IDX 9 1 10 2 11 3 12 4 13 5 14 6 15 7 16 8 17 9 8 10 7 11 6 12
REMARK SMILES IDX 5 13 4 14 3 15 2 16 1 17
REMARK H PARENT
REMARK Flexibility Score: inf
ROOT
ATOM      1  C   UNL     1      42.549  23.374 224.220  1.00  0.00     0.000 C 
ENDROOT
BRANCH   1   2
ATOM      2  C   UNL     1      41.224  23.852 224.830  1.00  0.00     0.000 C 
BRANCH   2   3
ATOM      3  C   UNL     1      40.200  24.174 223.735  1.00  0.00     0.000 C 
BRANCH   3   4
ATOM      4  C   UNL     1      40.661  23.635 222.375  1.00  0.00     0.000 C 
BRANCH   4   5
ATOM      5  C   UNL     1      39.469  23.147 221.543  1.00  0.00     0.006 C 
BRANCH   5   6
ATOM      6  C   UNL     1      38.169  23.220 222.349  1.00  0.00     0.053 C 
BRANCH   6   7
ATOM      7  C   UNL     1      36.985  23.187 221.436  1.00  0.00     0.041 C 
ATOM      8  O   UNL     1      35.826  23.044 221.907  1.00  0.00    -0.550 OA
ATOM      9  O   UNL     1      37.155  23.367 220.070  1.00  0.00    -0.550 OA
ENDBRANCH   6   7
ENDBRANCH   5   6
ENDBRANCH   4   5
ENDBRANCH   3   4
ENDBRANCH   2   3
ENDBRANCH   1   2
BRANCH   1  10
ATOM     10  C   UNL     1      43.355  22.471 225.172  1.00  0.00     0.000 C 
BRANCH  10  11
ATOM     11  C   UNL     1      43.766  21.109 224.582  1.00  0.00    -0.000 C 
BRANCH  11  12
ATOM     12  C   UNL     1      43.647  20.996 223.050  1.00  0.00    -0.000 C 
BRANCH  12  13
ATOM     13  C   UNL     1      42.932  19.714 222.573  1.00  0.00    -0.000 C 
BRANCH  13  14
ATOM     14  C   UNL     1      41.448  19.952 222.243  1.00  0.00    -0.000 C 
BRANCH  14  15
ATOM     15  C   UNL     1      40.498  19.377 223.310  1.00  0.00    -0.000 C 
BRANCH  15  16
ATOM     16  C   UNL     1      39.817  20.430 224.201  1.00  0.00    -0.003 C 
ATOM     17  C   UNL     1      40.254  20.350 225.663  1.00  0.00     0.004 C 
ENDBRANCH  15  16
ENDBRANCH  14  15
ENDBRANCH  13  14
ENDBRANCH  12  13
ENDBRANCH  11  12
ENDBRANCH  10  11
ENDBRANCH   1  10
TORSDOF 13
ENDMDL
MODEL 4
REMARK VINA RESULT:    -3.704      3.551      6.691
REMARK INTER + INTRA:          -8.004
REMARK INTER:                  -6.837
REMARK INTRA:                  -1.167
REMARK UNBOUND:                -1.485
REMARK SMILES CCCCCCCCCCCCCCC(=O)[O-]
REMARK SMILES IDX 9 1 10 2 11 3 12 4 13 5 14 6 15 7 16 8 17 9 8 10 7 11 6 12
REMARK SMILES IDX 5 13 4 14 3 15 2 16 1 17
REMARK H PARENT
REMARK Flexibility Score: inf
ROOT
ATOM      1  C   UNL     1      41.152  22.130 221.996  1.00  0.00     0.000 C 
ENDROOT
BRANCH   1   2
ATOM      2  C   UNL     1      41.294  20.789 221.264  1.00  0.00     0.000 C 
BRANCH   2   3
ATOM      3  C   UNL     1      41.017  19.615 222.210  1.00  0.00     0.000 C 
BRANCH   3   4
ATOM      4  C   UNL     1      40.826  20.103 223.651  1.00  0.00     0.000 C 
BRANCH   4   5
ATOM      5  C   UNL     1      39.499  19.599 224.232  1.00  0.00     0.006 C 
BRANCH   5   6
ATOM      6  C   UNL     1      39.668  18.220 224.875  1.00  0.00     0.053 C 
BRANCH   6   7
ATOM      7  C   UNL     1      38.395  17.787 225.530  1.00  0.00     0.041 C 
ATOM      8  O   UNL     1      37.305  18.338 225.222  1.00  0.00    -0.550 OA
ATOM      9  O   UNL     1      38.404  16.741 226.443  1.00  0.00    -0.550 OA
ENDBRANCH   6   7
ENDBRANCH   5   6
ENDBRANCH   4   5
ENDBRANCH   3   4
ENDBRANCH   2   3
ENDBRANCH   1   2
BRANCH   1  10
ATOM     10  C   UNL     1      39.896  22.914 221.571  1.00  0.00     0.000 C 
BRANCH  10  11
ATOM     11  C   UNL     1      39.499  24.065 222.514  1.00  0.00    -0.000 C 
BRANCH  11  12
ATOM     12  C   UNL     1      37.992  24.386 222.556  1.00  0.00    -0.000 C 
BRANCH  12  13
ATOM     13  C   UNL     1      37.101  23.161 222.852  1.00  0.00    -0.000 C 
BRANCH  13  14
ATOM     14  C   UNL     1      36.153  22.825 221.689  1.00  0.00    -0.000 C 
BRANCH  14  15
ATOM     15  C   UNL     1      35.506  24.074 221.063  1.00  0.00    -0.000 C 
BRANCH  15  16
ATOM     16  C   UNL     1      35.829  24.291 219.575  1.00  0.00    -0.003 C 
ATOM     17  C   UNL     1      36.978  23.414 219.077  1.00  0.00     0.004 C 
ENDBRANCH  15  16
ENDBRANCH  14  15
ENDBRANCH  13  14
ENDBRANCH  12  13
ENDBRANCH  11  12
ENDBRANCH  10  11
ENDBRANCH   1  10
TORSDOF 13
ENDMDL
MODEL 5
REMARK VINA RESULT:    -3.703      1.582      2.442
REMARK INTER + INTRA:          -8.002
REMARK INTER:                  -6.159
REMARK INTRA:                  -1.843
REMARK UNBOUND:                -1.485
REMARK SMILES CCCCCCCCCCCCCCC(=O)[O-]
REMARK SMILES IDX 9 1 10 2 11 3 12 4 13 5 14 6 15 7 16 8 17 9 8 10 7 11 6 12
REMARK SMILES IDX 5 13 4 14 3 15 2 16 1 17
REMARK H PARENT
REMARK Flexibility Score: inf
ROOT
ATOM      1  C   UNL     1      38.947  25.032 223.886  1.00  0.00     0.000 C 
ENDROOT
BRANCH   1   2
ATOM      2  C   UNL     1      39.401  24.397 222.564  1.00  0.00     0.000 C 
BRANCH   2   3
ATOM      3  C   UNL     1      38.705  23.051 222.335  1.00  0.00     0.000 C 
BRANCH   3   4
ATOM      4  C   UNL     1      37.320  23.027 222.993  1.00  0.00     0.000 C 
BRANCH   4   5
ATOM      5  C   UNL     1      36.215  22.847 221.946  1.00  0.00     0.006 C 
BRANCH   5   6
ATOM      6  C   UNL     1      35.975  24.145 221.169  1.00  0.00     0.053 C 
BRANCH   6   7
ATOM      7  C   UNL     1      36.079  23.901 219.697  1.00  0.00     0.041 C 
ATOM      8  O   UNL     1      37.127  23.404 219.209  1.00  0.00    -0.550 OA
ATOM      9  O   UNL     1      34.997  24.175 218.870  1.00  0.00    -0.550 OA
ENDBRANCH   6   7
ENDBRANCH   5   6
ENDBRANCH   4   5
ENDBRANCH   3   4
ENDBRANCH   2   3
ENDBRANCH   1   2
BRANCH   1  10
ATOM     10  C   UNL     1      40.096  25.193 224.899  1.00  0.00     0.000 C 
BRANCH  10  11
ATOM     11  C   UNL     1      41.509  25.035 224.309  1.00  0.00    -0.000 C 
BRANCH  11  12
ATOM     12  C   UNL     1      42.329  23.861 224.879  1.00  0.00    -0.000 C 
BRANCH  12  13
ATOM     13  C   UNL     1      41.471  22.656 225.319  1.00  0.00    -0.000 C 
BRANCH  13  14
ATOM     14  C   UNL     1      41.543  21.484 224.324  1.00  0.00    -0.000 C 
BRANCH  14  15
ATOM     15  C   UNL     1      42.518  21.745 223.162  1.00  0.00    -0.000 C 
BRANCH  15  16
ATOM     16  C   UNL     1      41.966  21.401 221.767  1.00  0.00    -0.003 C 
ATOM     17  C   UNL     1      41.251  20.052 221.722  1.00  0.00     0.004 C 
ENDBRANCH  15  16
ENDBRANCH  14  15
ENDBRANCH  13  14
ENDBRANCH  12  13
ENDBRANCH  11  12
ENDBRANCH  10  11
ENDBRANCH   1  10
TORSDOF 13
ENDMDL
MODEL 6
REMARK VINA RESULT:    -3.630      1.696      2.411
REMARK INTER + INTRA:          -7.874
REMARK INTER:                  -6.366
REMARK INTRA:                  -1.508
REMARK UNBOUND:                -1.485
REMARK SMILES CCCCCCCCCCCCCCC(=O)[O-]
REMARK SMILES IDX 9 1 10 2 11 3 12 4 13 5 14 6 15 7 16 8 17 9 8 10 7 11 6 12
REMARK SMILES IDX 5 13 4 14 3 15 2 16 1 17
REMARK H PARENT
REMARK Flexibility Score: inf
ROOT
ATOM      1  C   UNL     1      39.246  23.609 224.578  1.00  0.00     0.000 C 
ENDROOT
BRANCH   1   2
ATOM      2  C   UNL     1      39.083  24.787 223.608  1.00  0.00     0.000 C 
BRANCH   2   3
ATOM      3  C   UNL     1      38.102  24.439 222.482  1.00  0.00     0.000 C 
BRANCH   3   4
ATOM      4  C   UNL     1      37.617  22.990 222.603  1.00  0.00     0.000 C 
BRANCH   4   5
ATOM      5  C   UNL     1      36.155  22.860 222.161  1.00  0.00     0.006 C 
BRANCH   5   6
ATOM      6  C   UNL     1      35.605  24.204 221.675  1.00  0.00     0.053 C 
BRANCH   6   7
ATOM      7  C   UNL     1      34.784  24.018 220.438  1.00  0.00     0.041 C 
ATOM      8  O   UNL     1      35.331  24.050 219.304  1.00  0.00    -0.550 OA
ATOM      9  O   UNL     1      33.424  23.757 220.539  1.00  0.00    -0.550 OA
ENDBRANCH   6   7
ENDBRANCH   5   6
ENDBRANCH   4   5
ENDBRANCH   3   4
ENDBRANCH   2   3
ENDBRANCH   1   2
BRANCH   1  10
ATOM     10  C   UNL     1      40.669  23.021 224.574  1.00  0.00     0.000 C 
BRANCH  10  11
ATOM     11  C   UNL     1      41.490  23.318 223.306  1.00  0.00    -0.000 C 
BRANCH  11  12
ATOM     12  C   UNL     1      41.311  22.307 222.157  1.00  0.00    -0.000 C 
BRANCH  12  13
ATOM     13  C   UNL     1      40.902  20.895 222.627  1.00  0.00    -0.000 C 
BRANCH  13  14
ATOM     14  C   UNL     1      42.021  19.858 222.429  1.00  0.00    -0.000 C 
BRANCH  14  15
ATOM     15  C   UNL     1      43.379  20.499 222.093  1.00  0.00    -0.000 C 
BRANCH  15  16
ATOM     16  C   UNL     1      44.494  20.222 223.117  1.00  0.00    -0.003 C 
ATOM     17  C   UNL     1      44.216  20.839 224.487  1.00  0.00     0.004 C 
ENDBRANCH  15  16
ENDBRANCH  14  15
ENDBRANCH  13  14
ENDBRANCH  12  13
ENDBRANCH  11  12
ENDBRANCH  10  11
ENDBRANCH   1  10
TORSDOF 13
ENDMDL
MODEL 7
REMARK VINA RESULT:    -3.611      1.620      4.649
REMARK INTER + INTRA:          -7.841
REMARK INTER:                  -5.680
REMARK INTRA:                  -2.161
REMARK UNBOUND:                -1.485
REMARK SMILES CCCCCCCCCCCCCCC(=O)[O-]
REMARK SMILES IDX 9 1 10 2 11 3 12 4 13 5 14 6 15 7 16 8 17 9 8 10 7 11 6 12
REMARK SMILES IDX 5 13 4 14 3 15 2 16 1 17
REMARK H PARENT
REMARK Flexibility Score: inf
ROOT
ATOM      1  C   UNL     1      39.953  21.131 223.955  1.00  0.00     0.000 C 
ENDROOT
BRANCH   1   2
ATOM      2  C   UNL     1      40.281  21.572 222.521  1.00  0.00     0.000 C 
BRANCH   2   3
ATOM      3  C   UNL     1      40.843  22.999 222.501  1.00  0.00     0.000 C 
BRANCH   3   4
ATOM      4  C   UNL     1      39.857  23.969 221.840  1.00  0.00     0.000 C 
BRANCH   4   5
ATOM      5  C   UNL     1      38.794  23.211 221.036  1.00  0.00     0.006 C 
BRANCH   5   6
ATOM      6  C   UNL     1      37.389  23.728 221.358  1.00  0.00     0.053 C 
BRANCH   6   7
ATOM      7  C   UNL     1      36.497  23.601 220.163  1.00  0.00     0.041 C 
ATOM      8  O   UNL     1      35.277  23.898 220.249  1.00  0.00    -0.550 OA
ATOM      9  O   UNL     1      37.025  23.204 218.942  1.00  0.00    -0.550 OA
ENDBRANCH   6   7
ENDBRANCH   5   6
ENDBRANCH   4   5
ENDBRANCH   3   4
ENDBRANCH   2   3
ENDBRANCH   1   2
BRANCH   1  10
ATOM     10  C   UNL     1      38.498  21.438 224.357  1.00  0.00     0.000 C 
BRANCH  10  11
ATOM     11  C   UNL     1      38.327  22.634 225.312  1.00  0.00    -0.000 C 
BRANCH  11  12
ATOM     12  C   UNL     1      37.255  23.659 224.892  1.00  0.00    -0.000 C 
BRANCH  12  13
ATOM     13  C   UNL     1      37.552  25.099 225.360  1.00  0.00    -0.000 C 
BRANCH  13  14
ATOM     14  C   UNL     1      38.376  25.896 224.334  1.00  0.00    -0.000 C 
BRANCH  14  15
ATOM     15  C   UNL     1      39.564  26.642 224.969  1.00  0.00    -0.000 C 
BRANCH  15  16
ATOM     16  C   UNL     1      40.920  25.927 224.837  1.00  0.00    -0.003 C 
ATOM     17  C   UNL     1      41.164  24.899 225.942  1.00  0.00     0.004 C 
ENDBRANCH  15  16
ENDBRANCH  14  15
ENDBRANCH  13  14
ENDBRANCH  12  13
ENDBRANCH  11  12
ENDBRANCH  10  11
ENDBRANCH   1  10
TORSDOF 13
ENDMDL
MODEL 8
REMARK VINA RESULT:    -3.581      2.446      5.953
REMARK INTER + INTRA:          -7.788
REMARK INTER:                  -6.047
REMARK INTRA:                  -1.741
REMARK UNBOUND:                -1.485
REMARK SMILES CCCCCCCCCCCCCCC(=O)[O-]
REMARK SMILES IDX 9 1 10 2 11 3 12 4 13 5 14 6 15 7 16 8 17 9 8 10 7 11 6 12
REMARK SMILES IDX 5 13 4 14 3 15 2 16 1 17
REMARK H PARENT
REMARK Flexibility Score: inf
ROOT
ATOM      1  C   UNL     1      39.072  22.962 224.248  1.00  0.00     0.000 C 
ENDROOT
BRANCH   1   2
ATOM      2  C   UNL     1      38.360  21.710 223.719  1.00  0.00     0.000 C 
BRANCH   2   3
ATOM      3  C   UNL     1      38.572  20.519 224.662  1.00  0.00     0.000 C 
BRANCH   3   4
ATOM      4  C   UNL     1      40.042  20.085 224.680  1.00  0.00     0.000 C 
BRANCH   4   5
ATOM      5  C   UNL     1      40.397  19.288 223.420  1.00  0.00     0.006 C 
BRANCH   5   6
ATOM      6  C   UNL     1      41.783  19.673 222.897  1.00  0.00     0.053 C 
BRANCH   6   7
ATOM      7  C   UNL     1      41.775  21.075 222.373  1.00  0.00     0.041 C 
ATOM      8  O   UNL     1      41.076  21.372 221.369  1.00  0.00    -0.550 OA
ATOM      9  O   UNL     1      42.498  22.065 223.026  1.00  0.00    -0.550 OA
ENDBRANCH   6   7
ENDBRANCH   5   6
ENDBRANCH   4   5
ENDBRANCH   3   4
ENDBRANCH   2   3
ENDBRANCH   1   2
BRANCH   1  10
ATOM     10  C   UNL     1      39.409  23.974 223.138  1.00  0.00     0.000 C 
BRANCH  10  11
ATOM     11  C   UNL     1      38.905  25.407 223.389  1.00  0.00    -0.000 C 
BRANCH  11  12
ATOM     12  C   UNL     1      37.391  25.535 223.639  1.00  0.00    -0.000 C 
BRANCH  12  13
ATOM     13  C   UNL     1      36.538  25.468 222.354  1.00  0.00    -0.000 C 
BRANCH  13  14
ATOM     14  C   UNL     1      35.557  24.283 222.356  1.00  0.00    -0.000 C 
BRANCH  14  15
ATOM     15  C   UNL     1      35.959  23.170 221.372  1.00  0.00    -0.000 C 
BRANCH  15  16
ATOM     16  C   UNL     1      36.557  23.667 220.045  1.00  0.00    -0.003 C 
ATOM     17  C   UNL     1      35.496  24.127 219.045  1.00  0.00     0.004 C 
ENDBRANCH  15  16
ENDBRANCH  14  15
ENDBRANCH  13  14
ENDBRANCH  12  13
ENDBRANCH  11  12
ENDBRANCH  10  11
ENDBRANCH   1  10
TORSDOF 13
ENDMDL
MODEL 9
REMARK VINA RESULT:    -3.527      1.878      4.200
REMARK INTER + INTRA:          -7.693
REMARK INTER:                  -5.858
REMARK INTRA:                  -1.835
REMARK UNBOUND:                -1.485
REMARK SMILES CCCCCCCCCCCCCCC(=O)[O-]
REMARK SMILES IDX 9 1 10 2 11 3 12 4 13 5 14 6 15 7 16 8 17 9 8 10 7 11 6 12
REMARK SMILES IDX 5 13 4 14 3 15 2 16 1 17
REMARK H PARENT
REMARK Flexibility Score: inf
ROOT
ATOM      1  C   UNL     1      40.124  22.582 222.271  1.00  0.00     0.000 C 
ENDROOT
BRANCH   1   2
ATOM      2  C   UNL     1      39.793  24.047 221.950  1.00  0.00     0.000 C 
BRANCH   2   3
ATOM      3  C   UNL     1      38.323  24.357 222.255  1.00  0.00     0.000 C 
BRANCH   3   4
ATOM      4  C   UNL     1      37.564  23.086 222.656  1.00  0.00     0.000 C 
BRANCH   4   5
ATOM      5  C   UNL     1      36.332  22.878 221.768  1.00  0.00     0.006 C 
BRANCH   5   6
ATOM      6  C   UNL     1      35.952  24.170 221.040  1.00  0.00     0.053 C 
BRANCH   6   7
ATOM      7  C   UNL     1      35.944  23.956 219.560  1.00  0.00     0.041 C 
ATOM      8  O   UNL     1      34.946  24.302 218.875  1.00  0.00    -0.550 OA
ATOM      9  O   UNL     1      37.059  23.420 218.929  1.00  0.00    -0.550 OA
ENDBRANCH   6   7
ENDBRANCH   5   6
ENDBRANCH   4   5
ENDBRANCH   3   4
ENDBRANCH   2   3
ENDBRANCH   1   2
BRANCH   1  10
ATOM     10  C   UNL     1      41.273  22.436 223.286  1.00  0.00     0.000 C 
BRANCH  10  11
ATOM     11  C   UNL     1      41.391  23.585 224.303  1.00  0.00    -0.000 C 
BRANCH  11  12
ATOM     12  C   UNL     1      41.359  23.156 225.782  1.00  0.00    -0.000 C 
BRANCH  12  13
ATOM     13  C   UNL     1      40.241  23.832 226.604  1.00  0.00    -0.000 C 
BRANCH  13  14
ATOM     14  C   UNL     1      39.155  24.465 225.717  1.00  0.00    -0.000 C 
BRANCH  14  15
ATOM     15  C   UNL     1      38.943  25.962 226.004  1.00  0.00    -0.000 C 
BRANCH  15  16
ATOM     16  C   UNL     1      39.476  26.909 224.915  1.00  0.00    -0.003 C 
ATOM     17  C   UNL     1      40.954  27.254 225.091  1.00  0.00     0.004 C 
ENDBRANCH  15  16
ENDBRANCH  14  15
ENDBRANCH  13  14
ENDBRANCH  12  13
ENDBRANCH  11  12
ENDBRANCH  10  11
ENDBRANCH   1  10
TORSDOF 13
ENDMDL
