MODEL 1
REMARK VINA RESULT:    -8.795      0.000      0.000
REMARK INTER + INTRA:         -10.630
REMARK INTER:                 -10.338
REMARK INTRA:                  -0.293
REMARK UNBOUND:                -0.293
REMARK SMILES O=c1cc(-c2ccc(O)c(O)c2)oc2cc(O)cc(O)c12
REMARK SMILES IDX 4 1 3 2 2 3 1 4 21 5 19 6 18 7 16 8 15 9 14 10 13 11 5 12
REMARK SMILES IDX 6 13 7 14 8 15 12 16 10 17 9 18 11 20 20 22 17 24
REMARK H PARENT 9 19 11 21 20 23 17 25
REMARK Flexibility Score: inf
ROOT
ATOM      1  C   UNL     1       6.356  -5.077 -27.270  1.00  0.00     0.138 A 
ATOM      2  C   UNL     1       7.212  -5.530 -28.288  1.00  0.00     0.100 A 
ATOM      3  C   UNL     1       7.925  -6.716 -28.108  1.00  0.00     0.197 A 
ATOM      4  O   UNL     1       8.693  -7.113 -29.027  1.00  0.00    -0.289 OA
ATOM      5  C   UNL     1       7.779  -7.440 -26.908  1.00  0.00     0.107 A 
ATOM      6  C   UNL     1       8.463  -8.651 -26.646  1.00  0.00     0.134 A 
ATOM      7  C   UNL     1       8.268  -9.308 -25.423  1.00  0.00     0.093 A 
ATOM      8  C   UNL     1       7.405  -8.781 -24.460  1.00  0.00     0.123 A 
ATOM      9  C   UNL     1       6.725  -7.585 -24.714  1.00  0.00     0.094 A 
ATOM     10  C   UNL     1       6.906  -6.914 -25.927  1.00  0.00     0.146 A 
ATOM     11  O   UNL     1       6.248  -5.779 -26.146  1.00  0.00    -0.456 OA
ENDROOT
BRANCH   1  12
ATOM     12  C   UNL     1       5.574  -3.822 -27.407  1.00  0.00     0.021 A 
ATOM     13  C   UNL     1       4.960  -3.208 -26.299  1.00  0.00     0.016 A 
ATOM     14  C   UNL     1       4.238  -2.021 -26.457  1.00  0.00     0.051 A 
ATOM     15  C   UNL     1       4.124  -1.425 -27.718  1.00  0.00     0.157 A 
ATOM     16  C   UNL     1       5.466  -3.209 -28.668  1.00  0.00     0.062 A 
ATOM     17  C   UNL     1       4.742  -2.019 -28.825  1.00  0.00     0.158 A 
BRANCH  15  18
ATOM     18  O   UNL     1       3.405  -0.243 -27.878  1.00  0.00    -0.504 OA
ATOM     19  H   UNL     1       3.820   0.577 -28.304  1.00  0.00     0.293 HD
ENDBRANCH  15  18
BRANCH  17  20
ATOM     20  O   UNL     1       4.630  -1.421 -30.079  1.00  0.00    -0.504 OA
ATOM     21  H   UNL     1       3.759  -1.010 -30.396  1.00  0.00     0.293 HD
ENDBRANCH  17  20
ENDBRANCH   1  12
BRANCH   6  22
ATOM     22  O   UNL     1       9.334  -9.202 -27.589  1.00  0.00    -0.507 OA
ATOM     23  H   UNL     1       9.232  -9.019 -28.580  1.00  0.00     0.293 HD
ENDBRANCH   6  22
BRANCH   8  24
ATOM     24  O   UNL     1       7.229  -9.454 -23.253  1.00  0.00    -0.508 OA
ATOM     25  H   UNL     1       6.406 -10.020 -23.077  1.00  0.00     0.293 HD
ENDBRANCH   8  24
TORSDOF 5
ENDMDL
MODEL 2
REMARK VINA RESULT:    -8.717      1.698      7.302
REMARK INTER + INTRA:         -10.539
REMARK INTER:                 -10.237
REMARK INTRA:                  -0.302
REMARK UNBOUND:                -0.293
REMARK SMILES O=c1cc(-c2ccc(O)c(O)c2)oc2cc(O)cc(O)c12
REMARK SMILES IDX 4 1 3 2 2 3 1 4 21 5 19 6 18 7 16 8 15 9 14 10 13 11 5 12
REMARK SMILES IDX 6 13 7 14 8 15 12 16 10 17 9 18 11 20 20 22 17 24
REMARK H PARENT 9 19 11 21 20 23 17 25
REMARK Flexibility Score: inf
ROOT
ATOM      1  C   UNL     1       6.377  -3.867 -28.093  1.00  0.00     0.138 A 
ATOM      2  C   UNL     1       6.187  -3.643 -29.467  1.00  0.00     0.100 A 
ATOM      3  C   UNL     1       5.554  -2.473 -29.890  1.00  0.00     0.197 A 
ATOM      4  O   UNL     1       5.386  -2.282 -31.125  1.00  0.00    -0.289 OA
ATOM      5  C   UNL     1       5.111  -1.537 -28.934  1.00  0.00     0.107 A 
ATOM      6  C   UNL     1       4.463  -0.327 -29.278  1.00  0.00     0.134 A 
ATOM      7  C   UNL     1       4.048   0.550 -28.265  1.00  0.00     0.093 A 
ATOM      8  C   UNL     1       4.269   0.243 -26.921  1.00  0.00     0.123 A 
ATOM      9  C   UNL     1       4.909  -0.951 -26.575  1.00  0.00     0.094 A 
ATOM     10  C   UNL     1       5.331  -1.839 -27.569  1.00  0.00     0.146 A 
ATOM     11  O   UNL     1       5.939  -2.968 -27.216  1.00  0.00    -0.456 OA
ENDROOT
BRANCH   1  12
ATOM     12  C   UNL     1       7.043  -5.094 -27.586  1.00  0.00     0.021 A 
ATOM     13  C   UNL     1       8.124  -5.686 -28.267  1.00  0.00     0.016 A 
ATOM     14  C   UNL     1       8.738  -6.835 -27.760  1.00  0.00     0.051 A 
ATOM     15  C   UNL     1       8.290  -7.406 -26.563  1.00  0.00     0.157 A 
ATOM     16  C   UNL     1       6.609  -5.667 -26.377  1.00  0.00     0.062 A 
ATOM     17  C   UNL     1       7.225  -6.819 -25.869  1.00  0.00     0.158 A 
BRANCH  15  18
ATOM     18  O   UNL     1       8.900  -8.551 -26.056  1.00  0.00    -0.504 OA
ATOM     19  H   UNL     1       8.765  -8.842 -25.095  1.00  0.00     0.293 HD
ENDBRANCH  15  18
BRANCH  17  20
ATOM     20  O   UNL     1       6.784  -7.388 -24.676  1.00  0.00    -0.504 OA
ATOM     21  H   UNL     1       6.466  -8.350 -24.631  1.00  0.00     0.293 HD
ENDBRANCH  17  20
ENDBRANCH   1  12
BRANCH   6  22
ATOM     22  O   UNL     1       4.228   0.008 -30.612  1.00  0.00    -0.507 OA
ATOM     23  H   UNL     1       3.801  -0.646 -31.259  1.00  0.00     0.293 HD
ENDBRANCH   6  22
BRANCH   8  24
ATOM     24  O   UNL     1       3.846   1.132 -25.935  1.00  0.00    -0.508 OA
ATOM     25  H   UNL     1       4.224   1.100 -24.995  1.00  0.00     0.293 HD
ENDBRANCH   8  24
TORSDOF 5
ENDMDL
MODEL 3
REMARK VINA RESULT:    -8.441      1.416      7.458
REMARK INTER + INTRA:         -10.214
REMARK INTER:                  -9.920
REMARK INTRA:                  -0.294
REMARK UNBOUND:                -0.293
REMARK SMILES O=c1cc(-c2ccc(O)c(O)c2)oc2cc(O)cc(O)c12
REMARK SMILES IDX 4 1 3 2 2 3 1 4 21 5 19 6 18 7 16 8 15 9 14 10 13 11 5 12
REMARK SMILES IDX 6 13 7 14 8 15 12 16 10 17 9 18 11 20 20 22 17 24
REMARK H PARENT 9 19 11 21 20 23 17 25
REMARK Flexibility Score: inf
ROOT
ATOM      1  C   UNL     1       6.658  -5.242 -27.056  1.00  0.00     0.138 A 
ATOM      2  C   UNL     1       5.740  -4.770 -26.103  1.00  0.00     0.100 A 
ATOM      3  C   UNL     1       5.073  -3.565 -26.331  1.00  0.00     0.197 A 
ATOM      4  O   UNL     1       4.252  -3.148 -25.469  1.00  0.00    -0.289 OA
ATOM      5  C   UNL     1       5.333  -2.839 -27.510  1.00  0.00     0.107 A 
ATOM      6  C   UNL     1       4.699  -1.611 -27.818  1.00  0.00     0.134 A 
ATOM      7  C   UNL     1       5.017  -0.947 -29.012  1.00  0.00     0.093 A 
ATOM      8  C   UNL     1       5.952  -1.484 -29.900  1.00  0.00     0.123 A 
ATOM      9  C   UNL     1       6.581  -2.697 -29.600  1.00  0.00     0.094 A 
ATOM     10  C   UNL     1       6.278  -3.375 -28.417  1.00  0.00     0.146 A 
ATOM     11  O   UNL     1       6.887  -4.528 -28.154  1.00  0.00    -0.456 OA
ENDROOT
BRANCH   1  12
ATOM     12  C   UNL     1       7.397  -6.516 -26.865  1.00  0.00     0.021 A 
ATOM     13  C   UNL     1       8.246  -7.036 -27.860  1.00  0.00     0.016 A 
ATOM     14  C   UNL     1       8.936  -8.234 -27.649  1.00  0.00     0.051 A 
ATOM     15  C   UNL     1       8.798  -8.925 -26.441  1.00  0.00     0.157 A 
ATOM     16  C   UNL     1       7.274  -7.212 -25.649  1.00  0.00     0.062 A 
ATOM     17  C   UNL     1       7.967  -8.412 -25.437  1.00  0.00     0.158 A 
BRANCH  15  18
ATOM     18  O   UNL     1       9.484 -10.119 -26.227  1.00  0.00    -0.504 OA
ATOM     19  H   UNL     1       8.997 -11.004 -26.154  1.00  0.00     0.293 HD
ENDBRANCH  15  18
BRANCH  17  20
ATOM     20  O   UNL     1       7.833  -9.101 -24.233  1.00  0.00    -0.504 OA
ATOM     21  H   UNL     1       7.050  -8.936 -23.611  1.00  0.00     0.293 HD
ENDBRANCH  17  20
ENDBRANCH   1  12
BRANCH   6  22
ATOM     22  O   UNL     1       3.761  -1.049 -26.951  1.00  0.00    -0.507 OA
ATOM     23  H   UNL     1       3.320  -1.593 -26.219  1.00  0.00     0.293 HD
ENDBRANCH   6  22
BRANCH   8  24
ATOM     24  O   UNL     1       6.250  -0.803 -31.078  1.00  0.00    -0.508 OA
ATOM     25  H   UNL     1       5.587  -0.754 -31.844  1.00  0.00     0.293 HD
ENDBRANCH   8  24
TORSDOF 5
ENDMDL
MODEL 4
REMARK VINA RESULT:    -8.358      1.576      7.203
REMARK INTER + INTRA:         -10.117
REMARK INTER:                  -9.829
REMARK INTRA:                  -0.287
REMARK UNBOUND:                -0.293
REMARK SMILES O=c1cc(-c2ccc(O)c(O)c2)oc2cc(O)cc(O)c12
REMARK SMILES IDX 4 1 3 2 2 3 1 4 21 5 19 6 18 7 16 8 15 9 14 10 13 11 5 12
REMARK SMILES IDX 6 13 7 14 8 15 12 16 10 17 9 18 11 20 20 22 17 24
REMARK H PARENT 9 19 11 21 20 23 17 25
REMARK Flexibility Score: inf
ROOT
ATOM      1  C   UNL     1       6.159  -3.974 -28.016  1.00  0.00     0.138 A 
ATOM      2  C   UNL     1       6.006  -3.788 -29.400  1.00  0.00     0.100 A 
ATOM      3  C   UNL     1       5.435  -2.607 -29.875  1.00  0.00     0.197 A 
ATOM      4  O   UNL     1       5.299  -2.450 -31.119  1.00  0.00    -0.289 OA
ATOM      5  C   UNL     1       5.017  -1.620 -28.960  1.00  0.00     0.107 A 
ATOM      6  C   UNL     1       4.431  -0.394 -29.358  1.00  0.00     0.134 A 
ATOM      7  C   UNL     1       4.037   0.535 -28.383  1.00  0.00     0.093 A 
ATOM      8  C   UNL     1       4.217   0.263 -27.025  1.00  0.00     0.123 A 
ATOM      9  C   UNL     1       4.796  -0.946 -26.627  1.00  0.00     0.094 A 
ATOM     10  C   UNL     1       5.197  -1.885 -27.582  1.00  0.00     0.146 A 
ATOM     11  O   UNL     1       5.746  -3.027 -27.179  1.00  0.00    -0.456 OA
ENDROOT
BRANCH   1  12
ATOM     12  C   UNL     1       6.759  -5.212 -27.455  1.00  0.00     0.021 A 
ATOM     13  C   UNL     1       6.425  -5.680 -26.170  1.00  0.00     0.016 A 
ATOM     14  C   UNL     1       6.999  -6.853 -25.672  1.00  0.00     0.051 A 
ATOM     15  C   UNL     1       7.906  -7.582 -26.450  1.00  0.00     0.157 A 
ATOM     16  C   UNL     1       7.662  -5.957 -28.235  1.00  0.00     0.062 A 
ATOM     17  C   UNL     1       8.236  -7.134 -27.735  1.00  0.00     0.158 A 
BRANCH  15  18
ATOM     18  O   UNL     1       8.480  -8.751 -25.956  1.00  0.00    -0.504 OA
ATOM     19  H   UNL     1       9.068  -9.339 -26.535  1.00  0.00     0.293 HD
ENDBRANCH  15  18
BRANCH  17  20
ATOM     20  O   UNL     1       9.137  -7.864 -28.508  1.00  0.00    -0.504 OA
ATOM     21  H   UNL     1       8.996  -8.849 -28.701  1.00  0.00     0.293 HD
ENDBRANCH  17  20
ENDBRANCH   1  12
BRANCH   6  22
ATOM     22  O   UNL     1       4.237  -0.095 -30.707  1.00  0.00    -0.507 OA
ATOM     23  H   UNL     1       4.368   0.842 -31.069  1.00  0.00     0.293 HD
ENDBRANCH   6  22
BRANCH   8  24
ATOM     24  O   UNL     1       3.816   1.204 -26.079  1.00  0.00    -0.508 OA
ATOM     25  H   UNL     1       3.273   2.019 -26.338  1.00  0.00     0.293 HD
ENDBRANCH   8  24
TORSDOF 5
ENDMDL
MODEL 5
REMARK VINA RESULT:    -8.262      1.412      2.096
REMARK INTER + INTRA:         -10.004
REMARK INTER:                  -9.710
REMARK INTRA:                  -0.294
REMARK UNBOUND:                -0.293
REMARK SMILES O=c1cc(-c2ccc(O)c(O)c2)oc2cc(O)cc(O)c12
REMARK SMILES IDX 4 1 3 2 2 3 1 4 21 5 19 6 18 7 16 8 15 9 14 10 13 11 5 12
REMARK SMILES IDX 6 13 7 14 8 15 12 16 10 17 9 18 11 20 20 22 17 24
REMARK H PARENT 9 19 11 21 20 23 17 25
REMARK Flexibility Score: inf
ROOT
ATOM      1  C   UNL     1       6.059  -3.729 -27.813  1.00  0.00     0.138 A 
ATOM      2  C   UNL     1       7.162  -4.200 -28.545  1.00  0.00     0.100 A 
ATOM      3  C   UNL     1       7.793  -5.381 -28.151  1.00  0.00     0.197 A 
ATOM      4  O   UNL     1       8.784  -5.794 -28.813  1.00  0.00    -0.289 OA
ATOM      5  C   UNL     1       7.318  -6.081 -27.025  1.00  0.00     0.107 A 
ATOM      6  C   UNL     1       7.899  -7.286 -26.560  1.00  0.00     0.134 A 
ATOM      7  C   UNL     1       7.369  -7.920 -25.427  1.00  0.00     0.093 A 
ATOM      8  C   UNL     1       6.274  -7.376 -24.752  1.00  0.00     0.123 A 
ATOM      9  C   UNL     1       5.696  -6.186 -25.207  1.00  0.00     0.094 A 
ATOM     10  C   UNL     1       6.208  -5.539 -26.334  1.00  0.00     0.146 A 
ATOM     11  O   UNL     1       5.641  -4.409 -26.749  1.00  0.00    -0.456 OA
ENDROOT
BRANCH   1  12
ATOM     12  C   UNL     1       5.350  -2.479 -28.185  1.00  0.00     0.021 A 
ATOM     13  C   UNL     1       4.991  -2.199 -29.517  1.00  0.00     0.016 A 
ATOM     14  C   UNL     1       4.314  -1.018 -29.836  1.00  0.00     0.051 A 
ATOM     15  C   UNL     1       3.978  -0.103 -28.832  1.00  0.00     0.157 A 
ATOM     16  C   UNL     1       4.996  -1.559 -27.181  1.00  0.00     0.062 A 
ATOM     17  C   UNL     1       4.317  -0.375 -27.501  1.00  0.00     0.158 A 
BRANCH  15  18
ATOM     18  O   UNL     1       3.305   1.076 -29.147  1.00  0.00    -0.504 OA
ATOM     19  H   UNL     1       3.800   1.902 -29.461  1.00  0.00     0.293 HD
ENDBRANCH  15  18
BRANCH  17  20
ATOM     20  O   UNL     1       3.978   0.536 -26.503  1.00  0.00    -0.504 OA
ATOM     21  H   UNL     1       4.312   1.494 -26.522  1.00  0.00     0.293 HD
ENDBRANCH  17  20
ENDBRANCH   1  12
BRANCH   6  22
ATOM     22  O   UNL     1       8.994  -7.853 -27.213  1.00  0.00    -0.507 OA
ATOM     23  H   UNL     1       9.935  -7.771 -26.846  1.00  0.00     0.293 HD
ENDBRANCH   6  22
BRANCH   8  24
ATOM     24  O   UNL     1       5.768  -8.026 -23.628  1.00  0.00    -0.508 OA
ATOM     25  H   UNL     1       5.210  -7.535 -22.939  1.00  0.00     0.293 HD
ENDBRANCH   8  24
TORSDOF 5
ENDMDL
MODEL 6
REMARK VINA RESULT:    -8.247      1.409      6.928
REMARK INTER + INTRA:          -9.986
REMARK INTER:                  -9.672
REMARK INTRA:                  -0.314
REMARK UNBOUND:                -0.293
REMARK SMILES O=c1cc(-c2ccc(O)c(O)c2)oc2cc(O)cc(O)c12
REMARK SMILES IDX 4 1 3 2 2 3 1 4 21 5 19 6 18 7 16 8 15 9 14 10 13 11 5 12
REMARK SMILES IDX 6 13 7 14 8 15 12 16 10 17 9 18 11 20 20 22 17 24
REMARK H PARENT 9 19 11 21 20 23 17 25
REMARK Flexibility Score: inf
ROOT
ATOM      1  C   UNL     1       6.517  -5.333 -27.059  1.00  0.00     0.138 A 
ATOM      2  C   UNL     1       6.284  -4.784 -28.331  1.00  0.00     0.100 A 
ATOM      3  C   UNL     1       5.545  -3.605 -28.445  1.00  0.00     0.197 A 
ATOM      4  O   UNL     1       5.340  -3.121 -29.591  1.00  0.00    -0.289 OA
ATOM      5  C   UNL     1       5.041  -2.986 -27.284  1.00  0.00     0.107 A 
ATOM      6  C   UNL     1       4.285  -1.790 -27.310  1.00  0.00     0.134 A 
ATOM      7  C   UNL     1       3.814  -1.240 -26.109  1.00  0.00     0.093 A 
ATOM      8  C   UNL     1       4.084  -1.859 -24.887  1.00  0.00     0.123 A 
ATOM      9  C   UNL     1       4.831  -3.041 -24.855  1.00  0.00     0.094 A 
ATOM     10  C   UNL     1       5.310  -3.606 -26.040  1.00  0.00     0.146 A 
ATOM     11  O   UNL     1       6.019  -4.729 -25.984  1.00  0.00    -0.456 OA
ENDROOT
BRANCH   1  12
ATOM     12  C   UNL     1       7.296  -6.585 -26.879  1.00  0.00     0.021 A 
ATOM     13  C   UNL     1       8.155  -7.074 -27.881  1.00  0.00     0.016 A 
ATOM     14  C   UNL     1       8.883  -8.251 -27.679  1.00  0.00     0.051 A 
ATOM     15  C   UNL     1       8.772  -8.952 -26.473  1.00  0.00     0.157 A 
ATOM     16  C   UNL     1       7.201  -7.289 -25.665  1.00  0.00     0.062 A 
ATOM     17  C   UNL     1       7.931  -8.469 -25.463  1.00  0.00     0.158 A 
BRANCH  15  18
ATOM     18  O   UNL     1       9.495 -10.125 -26.269  1.00  0.00    -0.504 OA
ATOM     19  H   UNL     1      10.429 -10.110 -25.875  1.00  0.00     0.293 HD
ENDBRANCH  15  18
BRANCH  17  20
ATOM     20  O   UNL     1       7.826  -9.167 -24.261  1.00  0.00    -0.504 OA
ATOM     21  H   UNL     1       7.839  -8.689 -23.366  1.00  0.00     0.293 HD
ENDBRANCH  17  20
ENDBRANCH   1  12
BRANCH   6  22
ATOM     22  O   UNL     1       3.999  -1.148 -28.516  1.00  0.00    -0.507 OA
ATOM     23  H   UNL     1       4.725  -0.924 -29.186  1.00  0.00     0.293 HD
ENDBRANCH   6  22
BRANCH   8  24
ATOM     24  O   UNL     1       3.603  -1.291 -23.709  1.00  0.00    -0.508 OA
ATOM     25  H   UNL     1       3.104  -1.842 -23.020  1.00  0.00     0.293 HD
ENDBRANCH   8  24
TORSDOF 5
ENDMDL
MODEL 7
REMARK VINA RESULT:    -8.126      1.463      7.653
REMARK INTER + INTRA:          -9.844
REMARK INTER:                  -9.549
REMARK INTRA:                  -0.295
REMARK UNBOUND:                -0.293
REMARK SMILES O=c1cc(-c2ccc(O)c(O)c2)oc2cc(O)cc(O)c12
REMARK SMILES IDX 4 1 3 2 2 3 1 4 21 5 19 6 18 7 16 8 15 9 14 10 13 11 5 12
REMARK SMILES IDX 6 13 7 14 8 15 12 16 10 17 9 18 11 20 20 22 17 24
REMARK H PARENT 9 19 11 21 20 23 17 25
REMARK Flexibility Score: inf
ROOT
ATOM      1  C   UNL     1       5.981  -4.130 -27.135  1.00  0.00     0.138 A 
ATOM      2  C   UNL     1       5.419  -3.554 -25.984  1.00  0.00     0.100 A 
ATOM      3  C   UNL     1       4.776  -2.319 -26.077  1.00  0.00     0.197 A 
ATOM      4  O   UNL     1       4.277  -1.809 -25.038  1.00  0.00    -0.289 OA
ATOM      5  C   UNL     1       4.704  -1.666 -27.324  1.00  0.00     0.107 A 
ATOM      6  C   UNL     1       4.069  -0.414 -27.506  1.00  0.00     0.134 A 
ATOM      7  C   UNL     1       4.045   0.173 -28.780  1.00  0.00     0.093 A 
ATOM      8  C   UNL     1       4.639  -0.466 -29.871  1.00  0.00     0.123 A 
ATOM      9  C   UNL     1       5.266  -1.703 -29.696  1.00  0.00     0.094 A 
ATOM     10  C   UNL     1       5.302  -2.306 -28.436  1.00  0.00     0.146 A 
ATOM     11  O   UNL     1       5.903  -3.483 -28.295  1.00  0.00    -0.456 OA
ENDROOT
BRANCH   1  12
ATOM     12  C   UNL     1       6.677  -5.441 -27.094  1.00  0.00     0.021 A 
ATOM     13  C   UNL     1       7.275  -5.999 -28.240  1.00  0.00     0.016 A 
ATOM     14  C   UNL     1       7.932  -7.231 -28.169  1.00  0.00     0.051 A 
ATOM     15  C   UNL     1       8.011  -7.920 -26.954  1.00  0.00     0.157 A 
ATOM     16  C   UNL     1       6.774  -6.135 -25.874  1.00  0.00     0.062 A 
ATOM     17  C   UNL     1       7.433  -7.370 -25.803  1.00  0.00     0.158 A 
BRANCH  15  18
ATOM     18  O   UNL     1       8.665  -9.149 -26.880  1.00  0.00    -0.504 OA
ATOM     19  H   UNL     1       9.388  -9.324 -26.192  1.00  0.00     0.293 HD
ENDBRANCH  15  18
BRANCH  17  20
ATOM     20  O   UNL     1       7.517  -8.057 -24.594  1.00  0.00    -0.504 OA
ATOM     21  H   UNL     1       6.739  -8.083 -23.943  1.00  0.00     0.293 HD
ENDBRANCH  17  20
ENDBRANCH   1  12
BRANCH   6  22
ATOM     22  O   UNL     1       3.467   0.249 -26.435  1.00  0.00    -0.507 OA
ATOM     23  H   UNL     1       3.849   0.203 -25.498  1.00  0.00     0.293 HD
ENDBRANCH   6  22
BRANCH   8  24
ATOM     24  O   UNL     1       4.600   0.140 -31.125  1.00  0.00    -0.508 OA
ATOM     25  H   UNL     1       5.447   0.442 -31.594  1.00  0.00     0.293 HD
ENDBRANCH   8  24
TORSDOF 5
ENDMDL
MODEL 8
REMARK VINA RESULT:    -7.851      1.331      6.814
REMARK INTER + INTRA:          -9.521
REMARK INTER:                  -9.227
REMARK INTRA:                  -0.294
REMARK UNBOUND:                -0.293
REMARK SMILES O=c1cc(-c2ccc(O)c(O)c2)oc2cc(O)cc(O)c12
REMARK SMILES IDX 4 1 3 2 2 3 1 4 21 5 19 6 18 7 16 8 15 9 14 10 13 11 5 12
REMARK SMILES IDX 6 13 7 14 8 15 12 16 10 17 9 18 11 20 20 22 17 24
REMARK H PARENT 9 19 11 21 20 23 17 25
REMARK Flexibility Score: inf
ROOT
ATOM      1  C   UNL     1       6.750  -5.331 -27.161  1.00  0.00     0.138 A 
ATOM      2  C   UNL     1       7.506  -5.276 -28.344  1.00  0.00     0.100 A 
ATOM      3  C   UNL     1       7.337  -4.202 -29.217  1.00  0.00     0.197 A 
ATOM      4  O   UNL     1       8.019  -4.162 -30.278  1.00  0.00    -0.289 OA
ATOM      5  C   UNL     1       6.409  -3.189 -28.903  1.00  0.00     0.107 A 
ATOM      6  C   UNL     1       6.178  -2.066 -29.732  1.00  0.00     0.134 A 
ATOM      7  C   UNL     1       5.231  -1.104 -29.350  1.00  0.00     0.093 A 
ATOM      8  C   UNL     1       4.514  -1.242 -28.159  1.00  0.00     0.123 A 
ATOM      9  C   UNL     1       4.739  -2.350 -27.336  1.00  0.00     0.094 A 
ATOM     10  C   UNL     1       5.678  -3.320 -27.698  1.00  0.00     0.146 A 
ATOM     11  O   UNL     1       5.875  -4.364 -26.899  1.00  0.00    -0.456 OA
ENDROOT
BRANCH   1  12
ATOM     12  C   UNL     1       6.887  -6.452 -26.196  1.00  0.00     0.021 A 
ATOM     13  C   UNL     1       5.981  -6.630 -25.134  1.00  0.00     0.016 A 
ATOM     14  C   UNL     1       6.131  -7.700 -24.246  1.00  0.00     0.051 A 
ATOM     15  C   UNL     1       7.179  -8.612 -24.409  1.00  0.00     0.157 A 
ATOM     16  C   UNL     1       7.930  -7.381 -26.360  1.00  0.00     0.062 A 
ATOM     17  C   UNL     1       8.079  -8.454 -25.470  1.00  0.00     0.158 A 
BRANCH  15  18
ATOM     18  O   UNL     1       7.331  -9.679 -23.526  1.00  0.00    -0.504 OA
ATOM     19  H   UNL     1       8.236  -9.927 -23.145  1.00  0.00     0.293 HD
ENDBRANCH  15  18
BRANCH  17  20
ATOM     20  O   UNL     1       9.120  -9.366 -25.632  1.00  0.00    -0.504 OA
ATOM     21  H   UNL     1       9.933  -9.358 -25.025  1.00  0.00     0.293 HD
ENDBRANCH  17  20
ENDBRANCH   1  12
BRANCH   6  22
ATOM     22  O   UNL     1       6.878  -1.900 -30.928  1.00  0.00    -0.507 OA
ATOM     23  H   UNL     1       6.895  -1.012 -31.417  1.00  0.00     0.293 HD
ENDBRANCH   6  22
BRANCH   8  24
ATOM     24  O   UNL     1       3.580  -0.272 -27.804  1.00  0.00    -0.508 OA
ATOM     25  H   UNL     1       2.802  -0.486 -27.190  1.00  0.00     0.293 HD
ENDBRANCH   8  24
TORSDOF 5
ENDMDL
MODEL 9
REMARK VINA RESULT:    -7.791      1.465      2.225
REMARK INTER + INTRA:          -9.449
REMARK INTER:                  -9.142
REMARK INTRA:                  -0.307
REMARK UNBOUND:                -0.293
REMARK SMILES O=c1cc(-c2ccc(O)c(O)c2)oc2cc(O)cc(O)c12
REMARK SMILES IDX 4 1 3 2 2 3 1 4 21 5 19 6 18 7 16 8 15 9 14 10 13 11 5 12
REMARK SMILES IDX 6 13 7 14 8 15 12 16 10 17 9 18 11 20 20 22 17 24
REMARK H PARENT 9 19 11 21 20 23 17 25
REMARK Flexibility Score: inf
ROOT
ATOM      1  C   UNL     1       7.259  -5.368 -28.216  1.00  0.00     0.138 A 
ATOM      2  C   UNL     1       8.255  -6.240 -28.687  1.00  0.00     0.100 A 
ATOM      3  C   UNL     1       8.580  -7.375 -27.944  1.00  0.00     0.197 A 
ATOM      4  O   UNL     1       9.478  -8.151 -28.373  1.00  0.00    -0.289 OA
ATOM      5  C   UNL     1       7.908  -7.629 -26.732  1.00  0.00     0.107 A 
ATOM      6  C   UNL     1       8.175  -8.757 -25.920  1.00  0.00     0.134 A 
ATOM      7  C   UNL     1       7.465  -8.936 -24.724  1.00  0.00     0.093 A 
ATOM      8  C   UNL     1       6.496  -8.012 -24.326  1.00  0.00     0.123 A 
ATOM      9  C   UNL     1       6.227  -6.896 -25.124  1.00  0.00     0.094 A 
ATOM     10  C   UNL     1       6.923  -6.700 -26.320  1.00  0.00     0.146 A 
ATOM     11  O   UNL     1       6.650  -5.632 -27.064  1.00  0.00    -0.456 OA
ENDROOT
BRANCH   1  12
ATOM     12  C   UNL     1       6.873  -4.145 -28.965  1.00  0.00     0.021 A 
ATOM     13  C   UNL     1       6.956  -4.077 -30.368  1.00  0.00     0.016 A 
ATOM     14  C   UNL     1       6.576  -2.915 -31.046  1.00  0.00     0.051 A 
ATOM     15  C   UNL     1       6.099  -1.807 -30.337  1.00  0.00     0.157 A 
ATOM     16  C   UNL     1       6.380  -3.031 -28.261  1.00  0.00     0.062 A 
ATOM     17  C   UNL     1       5.998  -1.866 -28.942  1.00  0.00     0.158 A 
BRANCH  15  18
ATOM     18  O   UNL     1       5.721  -0.648 -31.010  1.00  0.00    -0.504 OA
ATOM     19  H   UNL     1       5.371   0.163 -30.514  1.00  0.00     0.293 HD
ENDBRANCH  15  18
BRANCH  17  20
ATOM     20  O   UNL     1       5.520  -0.762 -28.238  1.00  0.00    -0.504 OA
ATOM     21  H   UNL     1       5.617  -0.691 -27.231  1.00  0.00     0.293 HD
ENDBRANCH  17  20
ENDBRANCH   1  12
BRANCH   6  22
ATOM     22  O   UNL     1       9.138  -9.697 -26.291  1.00  0.00    -0.507 OA
ATOM     23  H   UNL     1       9.901  -9.461 -26.914  1.00  0.00     0.293 HD
ENDBRANCH   6  22
BRANCH   8  24
ATOM     24  O   UNL     1       5.805  -8.213 -23.132  1.00  0.00    -0.508 OA
ATOM     25  H   UNL     1       5.111  -8.946 -23.039  1.00  0.00     0.293 HD
ENDBRANCH   8  24
TORSDOF 5
ENDMDL
