MODEL 1
REMARK VINA RESULT:    -4.161      0.000      0.000
REMARK INTER + INTRA:          -9.063
REMARK INTER:                  -7.324
REMARK INTRA:                  -1.739
REMARK UNBOUND:                -1.739
REMARK SMILES CCCCCCC=CCCCCCCCC(=O)[O-]
REMARK SMILES IDX 10 1 11 2 12 3 13 4 14 5 15 6 16 7 17 8 18 9 9 10 8 11 7 12
REMARK SMILES IDX 6 13 5 14 4 15 3 16 2 17 1 18
REMARK H PARENT
REMARK Flexibility Score: inf
ROOT
ATOM      1  C   UNL     1      -1.673  31.343  36.282  1.00  0.00     0.004 C 
ENDROOT
BRANCH   1   2
ATOM      2  C   UNL     1      -2.073  29.915  35.881  1.00  0.00     0.000 C 
BRANCH   2   3
ATOM      3  C   UNL     1      -0.902  29.115  35.291  1.00  0.00     0.000 C 
BRANCH   3   4
ATOM      4  C   UNL     1       0.346  29.995  35.149  1.00  0.00     0.000 C 
BRANCH   4   5
ATOM      5  C   UNL     1       0.962  29.855  33.749  1.00  0.00     0.006 C 
BRANCH   5   6
ATOM      6  C   UNL     1      -0.040  29.304  32.727  1.00  0.00     0.053 C 
BRANCH   6   7
ATOM      7  C   UNL     1      -0.633  30.394  31.888  1.00  0.00     0.041 C 
ATOM      8  O   UNL     1      -0.096  31.532  31.856  1.00  0.00    -0.550 OA
ATOM      9  O   UNL     1      -1.760  30.142  31.117  1.00  0.00    -0.550 OA
ENDBRANCH   6   7
ENDBRANCH   5   6
ENDBRANCH   4   5
ENDBRANCH   3   4
ENDBRANCH   2   3
ENDBRANCH   1   2
BRANCH   1  10
ATOM     10  C   UNL     1      -2.506  32.414  35.564  1.00  0.00     0.027 C 
BRANCH  10  11
ATOM     11  C   UNL     1      -1.649  33.206  34.608  1.00  0.00    -0.031 C 
ATOM     12  C   UNL     1      -1.397  34.522  34.725  1.00  0.00    -0.031 C 
BRANCH  12  13
ATOM     13  C   UNL     1      -1.911  35.373  35.864  1.00  0.00     0.027 C 
BRANCH  13  14
ATOM     14  C   UNL     1      -0.777  36.105  36.602  1.00  0.00     0.004 C 
BRANCH  14  15
ATOM     15  C   UNL     1      -0.766  35.867  38.124  1.00  0.00     0.000 C 
BRANCH  15  16
ATOM     16  C   UNL     1      -1.628  34.666  38.543  1.00  0.00    -0.000 C 
BRANCH  16  17
ATOM     17  C   UNL     1      -0.764  33.558  39.155  1.00  0.00    -0.003 C 
ATOM     18  C   UNL     1      -1.561  32.726  40.156  1.00  0.00     0.004 C 
ENDBRANCH  16  17
ENDBRANCH  15  16
ENDBRANCH  14  15
ENDBRANCH  13  14
ENDBRANCH  12  13
ENDBRANCH  10  11
ENDBRANCH   1  10
TORSDOF 13
ENDMDL
MODEL 2
REMARK VINA RESULT:    -4.139      3.029      6.884
REMARK INTER + INTRA:          -9.024
REMARK INTER:                  -7.130
REMARK INTRA:                  -1.895
REMARK UNBOUND:                -1.739
REMARK SMILES CCCCCCC=CCCCCCCCC(=O)[O-]
REMARK SMILES IDX 10 1 11 2 12 3 13 4 14 5 15 6 16 7 17 8 18 9 9 10 8 11 7 12
REMARK SMILES IDX 6 13 5 14 4 15 3 16 2 17 1 18
REMARK H PARENT
REMARK Flexibility Score: inf
ROOT
ATOM      1  C   UNL     1      -1.725  30.396  35.764  1.00  0.00     0.004 C 
ENDROOT
BRANCH   1   2
ATOM      2  C   UNL     1      -1.492  31.757  35.090  1.00  0.00     0.000 C 
BRANCH   2   3
ATOM      3  C   UNL     1      -1.909  32.937  35.980  1.00  0.00     0.000 C 
BRANCH   3   4
ATOM      4  C   UNL     1      -1.687  34.272  35.260  1.00  0.00     0.000 C 
BRANCH   4   5
ATOM      5  C   UNL     1      -1.910  35.456  36.214  1.00  0.00     0.006 C 
BRANCH   5   6
ATOM      6  C   UNL     1      -0.686  35.726  37.098  1.00  0.00     0.053 C 
BRANCH   6   7
ATOM      7  C   UNL     1      -0.928  35.318  38.519  1.00  0.00     0.041 C 
ATOM      8  O   UNL     1      -0.250  34.392  39.036  1.00  0.00    -0.550 OA
ATOM      9  O   UNL     1      -1.880  35.982  39.280  1.00  0.00    -0.550 OA
ENDBRANCH   6   7
ENDBRANCH   5   6
ENDBRANCH   4   5
ENDBRANCH   3   4
ENDBRANCH   2   3
ENDBRANCH   1   2
BRANCH   1  10
ATOM     10  C   UNL     1      -0.724  29.328  35.301  1.00  0.00     0.027 C 
BRANCH  10  11
ATOM     11  C   UNL     1       0.460  29.965  34.618  1.00  0.00    -0.031 C 
ATOM     12  C   UNL     1       0.894  29.639  33.388  1.00  0.00    -0.031 C 
BRANCH  12  13
ATOM     13  C   UNL     1       0.215  28.614  32.507  1.00  0.00     0.027 C 
BRANCH  13  14
ATOM     14  C   UNL     1      -0.558  29.264  31.347  1.00  0.00     0.004 C 
BRANCH  14  15
ATOM     15  C   UNL     1      -1.923  29.852  31.756  1.00  0.00     0.000 C 
BRANCH  15  16
ATOM     16  C   UNL     1      -2.005  31.370  31.532  1.00  0.00    -0.000 C 
BRANCH  16  17
ATOM     17  C   UNL     1      -0.693  31.909  30.951  1.00  0.00    -0.003 C 
ATOM     18  C   UNL     1      -0.068  32.952  31.875  1.00  0.00     0.004 C 
ENDBRANCH  16  17
ENDBRANCH  15  16
ENDBRANCH  14  15
ENDBRANCH  13  14
ENDBRANCH  12  13
ENDBRANCH  10  11
ENDBRANCH   1  10
TORSDOF 13
ENDMDL
MODEL 3
REMARK VINA RESULT:    -4.032      1.291      2.535
REMARK INTER + INTRA:          -8.836
REMARK INTER:                  -6.934
REMARK INTRA:                  -1.901
REMARK UNBOUND:                -1.739
REMARK SMILES CCCCCCC=CCCCCCCCC(=O)[O-]
REMARK SMILES IDX 10 1 11 2 12 3 13 4 14 5 15 6 16 7 17 8 18 9 9 10 8 11 7 12
REMARK SMILES IDX 6 13 5 14 4 15 3 16 2 17 1 18
REMARK H PARENT
REMARK Flexibility Score: inf
ROOT
ATOM      1  C   UNL     1      -2.153  33.667  35.189  1.00  0.00     0.004 C 
ENDROOT
BRANCH   1   2
ATOM      2  C   UNL     1      -2.627  32.438  35.980  1.00  0.00     0.000 C 
BRANCH   2   3
ATOM      3  C   UNL     1      -1.489  31.450  36.275  1.00  0.00     0.000 C 
BRANCH   3   4
ATOM      4  C   UNL     1      -1.313  30.456  35.121  1.00  0.00     0.000 C 
BRANCH   4   5
ATOM      5  C   UNL     1       0.070  29.789  35.175  1.00  0.00     0.006 C 
BRANCH   5   6
ATOM      6  C   UNL     1       0.838  29.941  33.857  1.00  0.00     0.053 C 
BRANCH   6   7
ATOM      7  C   UNL     1       0.100  29.320  32.710  1.00  0.00     0.041 C 
ATOM      8  O   UNL     1      -0.081  28.076  32.673  1.00  0.00    -0.550 OA
ATOM      9  O   UNL     1      -0.415  30.122  31.700  1.00  0.00    -0.550 OA
ENDBRANCH   6   7
ENDBRANCH   5   6
ENDBRANCH   4   5
ENDBRANCH   3   4
ENDBRANCH   2   3
ENDBRANCH   1   2
BRANCH   1  10
ATOM     10  C   UNL     1      -2.386  34.983  35.945  1.00  0.00     0.027 C 
BRANCH  10  11
ATOM     11  C   UNL     1      -1.106  35.773  36.050  1.00  0.00    -0.031 C 
ATOM     12  C   UNL     1      -0.477  36.050  37.206  1.00  0.00    -0.031 C 
BRANCH  12  13
ATOM     13  C   UNL     1      -0.954  35.561  38.555  1.00  0.00     0.027 C 
BRANCH  13  14
ATOM     14  C   UNL     1      -0.325  34.212  38.942  1.00  0.00     0.004 C 
BRANCH  14  15
ATOM     15  C   UNL     1      -1.327  33.201  39.531  1.00  0.00     0.000 C 
BRANCH  15  16
ATOM     16  C   UNL     1      -2.756  33.761  39.613  1.00  0.00    -0.000 C 
BRANCH  16  17
ATOM     17  C   UNL     1      -3.790  32.630  39.593  1.00  0.00    -0.003 C 
ATOM     18  C   UNL     1      -3.128  31.273  39.817  1.00  0.00     0.004 C 
ENDBRANCH  16  17
ENDBRANCH  15  16
ENDBRANCH  14  15
ENDBRANCH  13  14
ENDBRANCH  12  13
ENDBRANCH  10  11
ENDBRANCH   1  10
TORSDOF 13
ENDMDL
MODEL 4
REMARK VINA RESULT:    -4.021      1.603      3.252
REMARK INTER + INTRA:          -8.816
REMARK INTER:                  -7.652
REMARK INTRA:                  -1.165
REMARK UNBOUND:                -1.739
REMARK SMILES CCCCCCC=CCCCCCCCC(=O)[O-]
REMARK SMILES IDX 10 1 11 2 12 3 13 4 14 5 15 6 16 7 17 8 18 9 9 10 8 11 7 12
REMARK SMILES IDX 6 13 5 14 4 15 3 16 2 17 1 18
REMARK H PARENT
REMARK Flexibility Score: inf
ROOT
ATOM      1  C   UNL     1      -1.371  31.777  36.333  1.00  0.00     0.004 C 
ENDROOT
BRANCH   1   2
ATOM      2  C   UNL     1      -2.000  30.392  36.115  1.00  0.00     0.000 C 
BRANCH   2   3
ATOM      3  C   UNL     1      -1.181  29.513  35.159  1.00  0.00     0.000 C 
BRANCH   3   4
ATOM      4  C   UNL     1       0.295  29.929  35.161  1.00  0.00     0.000 C 
BRANCH   4   5
ATOM      5  C   UNL     1       0.821  30.102  33.729  1.00  0.00     0.006 C 
BRANCH   5   6
ATOM      6  C   UNL     1      -0.286  30.514  32.751  1.00  0.00     0.053 C 
BRANCH   6   7
ATOM      7  C   UNL     1      -0.259  31.986  32.471  1.00  0.00     0.041 C 
ATOM      8  O   UNL     1      -1.035  32.762  33.087  1.00  0.00    -0.550 OA
ATOM      9  O   UNL     1       0.647  32.502  31.554  1.00  0.00    -0.550 OA
ENDBRANCH   6   7
ENDBRANCH   5   6
ENDBRANCH   4   5
ENDBRANCH   3   4
ENDBRANCH   2   3
ENDBRANCH   1   2
BRANCH   1  10
ATOM     10  C   UNL     1      -2.101  32.596  37.406  1.00  0.00     0.027 C 
BRANCH  10  11
ATOM     11  C   UNL     1      -1.186  32.893  38.568  1.00  0.00    -0.031 C 
ATOM     12  C   UNL     1      -0.829  34.130  38.956  1.00  0.00    -0.031 C 
BRANCH  12  13
ATOM     13  C   UNL     1      -1.340  35.392  38.299  1.00  0.00     0.027 C 
BRANCH  13  14
ATOM     14  C   UNL     1      -0.260  36.086  37.451  1.00  0.00     0.004 C 
BRANCH  14  15
ATOM     15  C   UNL     1      -0.788  36.680  36.131  1.00  0.00     0.000 C 
BRANCH  15  16
ATOM     16  C   UNL     1      -0.022  37.941  35.700  1.00  0.00    -0.000 C 
BRANCH  16  17
ATOM     17  C   UNL     1       0.827  38.486  36.855  1.00  0.00    -0.003 C 
ATOM     18  C   UNL     1       2.233  38.845  36.384  1.00  0.00     0.004 C 
ENDBRANCH  16  17
ENDBRANCH  15  16
ENDBRANCH  14  15
ENDBRANCH  13  14
ENDBRANCH  12  13
ENDBRANCH  10  11
ENDBRANCH   1  10
TORSDOF 13
ENDMDL
MODEL 5
REMARK VINA RESULT:    -4.013      3.126      7.080
REMARK INTER + INTRA:          -8.801
REMARK INTER:                  -7.483
REMARK INTRA:                  -1.318
REMARK UNBOUND:                -1.739
REMARK SMILES CCCCCCC=CCCCCCCCC(=O)[O-]
REMARK SMILES IDX 10 1 11 2 12 3 13 4 14 5 15 6 16 7 17 8 18 9 9 10 8 11 7 12
REMARK SMILES IDX 6 13 5 14 4 15 3 16 2 17 1 18
REMARK H PARENT
REMARK Flexibility Score: inf
ROOT
ATOM      1  C   UNL     1      -1.537  31.525  35.090  1.00  0.00     0.004 C 
ENDROOT
BRANCH   1   2
ATOM      2  C   UNL     1      -2.206  32.188  36.304  1.00  0.00     0.000 C 
BRANCH   2   3
ATOM      3  C   UNL     1      -1.397  32.009  37.597  1.00  0.00     0.000 C 
BRANCH   3   4
ATOM      4  C   UNL     1      -2.258  32.311  38.829  1.00  0.00     0.000 C 
BRANCH   4   5
ATOM      5  C   UNL     1      -1.544  33.290  39.773  1.00  0.00     0.006 C 
BRANCH   5   6
ATOM      6  C   UNL     1      -0.523  34.166  39.037  1.00  0.00     0.053 C 
BRANCH   6   7
ATOM      7  C   UNL     1      -1.096  35.502  38.677  1.00  0.00     0.041 C 
ATOM      8  O   UNL     1      -2.070  35.969  39.323  1.00  0.00    -0.550 OA
ATOM      9  O   UNL     1      -0.532  36.245  37.648  1.00  0.00    -0.550 OA
ENDBRANCH   6   7
ENDBRANCH   5   6
ENDBRANCH   4   5
ENDBRANCH   3   4
ENDBRANCH   2   3
ENDBRANCH   1   2
BRANCH   1  10
ATOM     10  C   UNL     1      -0.938  30.151  35.422  1.00  0.00     0.027 C 
BRANCH  10  11
ATOM     11  C   UNL     1       0.507  30.082  34.998  1.00  0.00    -0.031 C 
ATOM     12  C   UNL     1       0.919  29.831  33.742  1.00  0.00    -0.031 C 
BRANCH  12  13
ATOM     13  C   UNL     1      -0.024  29.631  32.578  1.00  0.00     0.027 C 
BRANCH  13  14
ATOM     14  C   UNL     1       0.034  28.198  32.021  1.00  0.00     0.004 C 
BRANCH  14  15
ATOM     15  C   UNL     1      -1.346  27.527  31.876  1.00  0.00     0.000 C 
BRANCH  15  16
ATOM     16  C   UNL     1      -2.143  27.521  33.190  1.00  0.00    -0.000 C 
BRANCH  16  17
ATOM     17  C   UNL     1      -1.647  26.413  34.126  1.00  0.00    -0.003 C 
ATOM     18  C   UNL     1      -1.926  26.758  35.586  1.00  0.00     0.004 C 
ENDBRANCH  16  17
ENDBRANCH  15  16
ENDBRANCH  14  15
ENDBRANCH  13  14
ENDBRANCH  12  13
ENDBRANCH  10  11
ENDBRANCH   1  10
TORSDOF 13
ENDMDL
MODEL 6
REMARK VINA RESULT:    -3.974      1.365      2.804
REMARK INTER + INTRA:          -8.734
REMARK INTER:                  -7.304
REMARK INTRA:                  -1.430
REMARK UNBOUND:                -1.739
REMARK SMILES CCCCCCC=CCCCCCCCC(=O)[O-]
REMARK SMILES IDX 10 1 11 2 12 3 13 4 14 5 15 6 16 7 17 8 18 9 9 10 8 11 7 12
REMARK SMILES IDX 6 13 5 14 4 15 3 16 2 17 1 18
REMARK H PARENT
REMARK Flexibility Score: inf
ROOT
ATOM      1  C   UNL     1      -1.848  32.319  35.802  1.00  0.00     0.004 C 
ENDROOT
BRANCH   1   2
ATOM      2  C   UNL     1      -1.533  31.278  34.716  1.00  0.00     0.000 C 
BRANCH   2   3
ATOM      3  C   UNL     1      -0.845  30.025  35.279  1.00  0.00     0.000 C 
BRANCH   3   4
ATOM      4  C   UNL     1       0.644  30.005  34.914  1.00  0.00     0.000 C 
BRANCH   4   5
ATOM      5  C   UNL     1       0.842  29.666  33.429  1.00  0.00     0.006 C 
BRANCH   5   6
ATOM      6  C   UNL     1      -0.106  28.558  32.955  1.00  0.00     0.053 C 
BRANCH   6   7
ATOM      7  C   UNL     1      -0.329  28.615  31.475  1.00  0.00     0.041 C 
ATOM      8  O   UNL     1      -0.734  29.677  30.935  1.00  0.00    -0.550 OA
ATOM      9  O   UNL     1      -0.058  27.503  30.688  1.00  0.00    -0.550 OA
ENDBRANCH   6   7
ENDBRANCH   5   6
ENDBRANCH   4   5
ENDBRANCH   3   4
ENDBRANCH   2   3
ENDBRANCH   1   2
BRANCH   1  10
ATOM     10  C   UNL     1      -2.073  31.685  37.182  1.00  0.00     0.027 C 
BRANCH  10  11
ATOM     11  C   UNL     1      -3.011  32.526  38.010  1.00  0.00    -0.031 C 
ATOM     12  C   UNL     1      -2.657  33.180  39.131  1.00  0.00    -0.031 C 
BRANCH  12  13
ATOM     13  C   UNL     1      -1.249  33.190  39.682  1.00  0.00     0.027 C 
BRANCH  13  14
ATOM     14  C   UNL     1      -0.375  34.273  39.028  1.00  0.00     0.004 C 
BRANCH  14  15
ATOM     15  C   UNL     1      -1.177  35.423  38.389  1.00  0.00     0.000 C 
BRANCH  15  16
ATOM     16  C   UNL     1      -0.726  35.734  36.953  1.00  0.00    -0.000 C 
BRANCH  16  17
ATOM     17  C   UNL     1      -1.881  36.316  36.131  1.00  0.00    -0.003 C 
ATOM     18  C   UNL     1      -3.232  35.910  36.713  1.00  0.00     0.004 C 
ENDBRANCH  16  17
ENDBRANCH  15  16
ENDBRANCH  14  15
ENDBRANCH  13  14
ENDBRANCH  12  13
ENDBRANCH  10  11
ENDBRANCH   1  10
TORSDOF 13
ENDMDL
MODEL 7
REMARK VINA RESULT:    -3.938      3.138      6.139
REMARK INTER + INTRA:          -8.670
REMARK INTER:                  -6.258
REMARK INTRA:                  -2.413
REMARK UNBOUND:                -1.739
REMARK SMILES CCCCCCC=CCCCCCCCC(=O)[O-]
REMARK SMILES IDX 10 1 11 2 12 3 13 4 14 5 15 6 16 7 17 8 18 9 9 10 8 11 7 12
REMARK SMILES IDX 6 13 5 14 4 15 3 16 2 17 1 18
REMARK H PARENT
REMARK Flexibility Score: inf
ROOT
ATOM      1  C   UNL     1      -1.773  30.559  35.435  1.00  0.00     0.004 C 
ENDROOT
BRANCH   1   2
ATOM      2  C   UNL     1      -1.348  31.984  35.049  1.00  0.00     0.000 C 
BRANCH   2   3
ATOM      3  C   UNL     1      -2.135  32.532  33.849  1.00  0.00     0.000 C 
BRANCH   3   4
ATOM      4  C   UNL     1      -1.245  33.416  32.967  1.00  0.00     0.000 C 
BRANCH   4   5
ATOM      5  C   UNL     1      -0.699  32.624  31.769  1.00  0.00     0.006 C 
BRANCH   5   6
ATOM      6  C   UNL     1       0.713  33.074  31.372  1.00  0.00     0.053 C 
BRANCH   6   7
ATOM      7  C   UNL     1       0.735  34.507  30.935  1.00  0.00     0.041 C 
ATOM      8  O   UNL     1       0.054  34.878  29.944  1.00  0.00    -0.550 OA
ATOM      9  O   UNL     1       1.484  35.438  31.643  1.00  0.00    -0.550 OA
ENDBRANCH   6   7
ENDBRANCH   5   6
ENDBRANCH   4   5
ENDBRANCH   3   4
ENDBRANCH   2   3
ENDBRANCH   1   2
BRANCH   1  10
ATOM     10  C   UNL     1      -0.628  29.545  35.303  1.00  0.00     0.027 C 
BRANCH  10  11
ATOM     11  C   UNL     1       0.550  30.158  34.589  1.00  0.00    -0.031 C 
ATOM     12  C   UNL     1       1.031  29.729  33.409  1.00  0.00    -0.031 C 
BRANCH  12  13
ATOM     13  C   UNL     1       0.418  28.594  32.619  1.00  0.00     0.027 C 
BRANCH  13  14
ATOM     14  C   UNL     1      -0.640  29.087  31.617  1.00  0.00     0.004 C 
BRANCH  14  15
ATOM     15  C   UNL     1      -2.076  28.643  31.955  1.00  0.00     0.000 C 
BRANCH  15  16
ATOM     16  C   UNL     1      -2.169  27.148  32.297  1.00  0.00    -0.000 C 
BRANCH  16  17
ATOM     17  C   UNL     1      -2.759  26.942  33.697  1.00  0.00    -0.003 C 
ATOM     18  C   UNL     1      -1.826  26.111  34.573  1.00  0.00     0.004 C 
ENDBRANCH  16  17
ENDBRANCH  15  16
ENDBRANCH  14  15
ENDBRANCH  13  14
ENDBRANCH  12  13
ENDBRANCH  10  11
ENDBRANCH   1  10
TORSDOF 13
ENDMDL
MODEL 8
REMARK VINA RESULT:    -3.847      2.985      6.971
REMARK INTER + INTRA:          -8.510
REMARK INTER:                  -6.842
REMARK INTRA:                  -1.668
REMARK UNBOUND:                -1.739
REMARK SMILES CCCCCCC=CCCCCCCCC(=O)[O-]
REMARK SMILES IDX 10 1 11 2 12 3 13 4 14 5 15 6 16 7 17 8 18 9 9 10 8 11 7 12
REMARK SMILES IDX 6 13 5 14 4 15 3 16 2 17 1 18
REMARK H PARENT
REMARK Flexibility Score: inf
ROOT
ATOM      1  C   UNL     1      -2.768  31.590  35.593  1.00  0.00     0.004 C 
ENDROOT
BRANCH   1   2
ATOM      2  C   UNL     1      -2.768  33.008  36.186  1.00  0.00     0.000 C 
BRANCH   2   3
ATOM      3  C   UNL     1      -1.819  33.960  35.444  1.00  0.00     0.000 C 
BRANCH   3   4
ATOM      4  C   UNL     1      -1.920  35.383  36.006  1.00  0.00     0.000 C 
BRANCH   4   5
ATOM      5  C   UNL     1      -0.674  35.740  36.831  1.00  0.00     0.006 C 
BRANCH   5   6
ATOM      6  C   UNL     1      -1.006  35.985  38.308  1.00  0.00     0.053 C 
BRANCH   6   7
ATOM      7  C   UNL     1      -1.164  34.699  39.060  1.00  0.00     0.041 C 
ATOM      8  O   UNL     1      -2.229  34.456  39.684  1.00  0.00    -0.550 OA
ATOM      9  O   UNL     1      -0.144  33.755  39.044  1.00  0.00    -0.550 OA
ENDBRANCH   6   7
ENDBRANCH   5   6
ENDBRANCH   4   5
ENDBRANCH   3   4
ENDBRANCH   2   3
ENDBRANCH   1   2
BRANCH   1  10
ATOM     10  C   UNL     1      -1.544  31.321  34.706  1.00  0.00     0.027 C 
BRANCH  10  11
ATOM     11  C   UNL     1      -0.539  30.459  35.429  1.00  0.00    -0.031 C 
ATOM     12  C   UNL     1       0.491  29.832  34.834  1.00  0.00    -0.031 C 
BRANCH  12  13
ATOM     13  C   UNL     1       0.800  29.948  33.359  1.00  0.00     0.027 C 
BRANCH  13  14
ATOM     14  C   UNL     1       0.404  28.683  32.579  1.00  0.00     0.004 C 
BRANCH  14  15
ATOM     15  C   UNL     1      -0.921  28.814  31.805  1.00  0.00     0.000 C 
BRANCH  15  16
ATOM     16  C   UNL     1      -2.130  28.314  32.611  1.00  0.00    -0.000 C 
BRANCH  16  17
ATOM     17  C   UNL     1      -1.802  27.002  33.334  1.00  0.00    -0.003 C 
ATOM     18  C   UNL     1      -2.060  27.119  34.833  1.00  0.00     0.004 C 
ENDBRANCH  16  17
ENDBRANCH  15  16
ENDBRANCH  14  15
ENDBRANCH  13  14
ENDBRANCH  12  13
ENDBRANCH  10  11
ENDBRANCH   1  10
TORSDOF 13
ENDMDL
MODEL 9
REMARK VINA RESULT:    -3.829      3.385      7.083
REMARK INTER + INTRA:          -8.478
REMARK INTER:                  -7.344
REMARK INTRA:                  -1.134
REMARK UNBOUND:                -1.739
REMARK SMILES CCCCCCC=CCCCCCCCC(=O)[O-]
REMARK SMILES IDX 10 1 11 2 12 3 13 4 14 5 15 6 16 7 17 8 18 9 9 10 8 11 7 12
REMARK SMILES IDX 6 13 5 14 4 15 3 16 2 17 1 18
REMARK H PARENT
REMARK Flexibility Score: inf
ROOT
ATOM      1  C   UNL     1      -1.919  35.789  35.424  1.00  0.00     0.004 C 
ENDROOT
BRANCH   1   2
ATOM      2  C   UNL     1      -0.756  36.682  35.882  1.00  0.00     0.000 C 
BRANCH   2   3
ATOM      3  C   UNL     1      -0.301  36.373  37.316  1.00  0.00     0.000 C 
BRANCH   3   4
ATOM      4  C   UNL     1      -1.255  35.380  37.991  1.00  0.00     0.000 C 
BRANCH   4   5
ATOM      5  C   UNL     1      -0.498  34.460  38.961  1.00  0.00     0.006 C 
BRANCH   5   6
ATOM      6  C   UNL     1      -1.081  33.042  38.990  1.00  0.00     0.053 C 
BRANCH   6   7
ATOM      7  C   UNL     1      -2.034  32.858  40.131  1.00  0.00     0.041 C 
ATOM      8  O   UNL     1      -1.747  32.080  41.077  1.00  0.00    -0.550 OA
ATOM      9  O   UNL     1      -3.225  33.572  40.163  1.00  0.00    -0.550 OA
ENDBRANCH   6   7
ENDBRANCH   5   6
ENDBRANCH   4   5
ENDBRANCH   3   4
ENDBRANCH   2   3
ENDBRANCH   1   2
BRANCH   1  10
ATOM     10  C   UNL     1      -1.485  34.731  34.401  1.00  0.00     0.027 C 
BRANCH  10  11
ATOM     11  C   UNL     1      -1.796  33.343  34.902  1.00  0.00    -0.031 C 
ATOM     12  C   UNL     1      -1.475  32.210  34.251  1.00  0.00    -0.031 C 
BRANCH  12  13
ATOM     13  C   UNL     1      -0.716  32.185  32.944  1.00  0.00     0.027 C 
BRANCH  13  14
ATOM     14  C   UNL     1       0.284  31.019  32.874  1.00  0.00     0.004 C 
BRANCH  14  15
ATOM     15  C   UNL     1       0.128  29.992  34.012  1.00  0.00     0.000 C 
BRANCH  15  16
ATOM     16  C   UNL     1      -0.340  28.617  33.509  1.00  0.00    -0.000 C 
BRANCH  16  17
ATOM     17  C   UNL     1       0.277  28.295  32.143  1.00  0.00    -0.003 C 
ATOM     18  C   UNL     1      -0.797  27.906  31.131  1.00  0.00     0.004 C 
ENDBRANCH  16  17
ENDBRANCH  15  16
ENDBRANCH  14  15
ENDBRANCH  13  14
ENDBRANCH  12  13
ENDBRANCH  10  11
ENDBRANCH   1  10
TORSDOF 13
ENDMDL
