MODEL 1
REMARK VINA RESULT:    -5.147      0.000      0.000
REMARK INTER + INTRA:          -9.181
REMARK INTER:                  -8.156
REMARK INTRA:                  -1.025
REMARK UNBOUND:                -1.025
REMARK SMILES CCCCCCCCCCCC(=O)[O-]
REMARK SMILES IDX 7 1 8 2 9 3 10 4 11 5 12 6 13 7 14 8 6 9 5 10 4 11 3 12 2 13
REMARK SMILES IDX 1 14
REMARK H PARENT
REMARK Flexibility Score: inf
ROOT
ATOM      1  C   UNL     1      10.546  23.034 -10.041  1.00  0.00     0.000 C 
ENDROOT
BRANCH   1   2
ATOM      2  C   UNL     1       9.073  22.715  -9.745  1.00  0.00     0.000 C 
BRANCH   2   3
ATOM      3  C   UNL     1       8.596  23.279  -8.394  1.00  0.00     0.000 C 
BRANCH   3   4
ATOM      4  C   UNL     1       7.207  23.945  -8.423  1.00  0.00     0.006 C 
BRANCH   4   5
ATOM      5  C   UNL     1       6.789  24.514  -7.061  1.00  0.00     0.053 C 
BRANCH   5   6
ATOM      6  C   UNL     1       6.402  23.407  -6.130  1.00  0.00     0.041 C 
ATOM      7  O   UNL     1       5.220  22.974  -6.119  1.00  0.00    -0.550 OA
ATOM      8  O   UNL     1       7.335  22.887  -5.243  1.00  0.00    -0.550 OA
ENDBRANCH   5   6
ENDBRANCH   4   5
ENDBRANCH   3   4
ENDBRANCH   2   3
ENDBRANCH   1   2
BRANCH   1   9
ATOM      9  C   UNL     1      11.082  24.100  -9.074  1.00  0.00     0.000 C 
BRANCH   9  10
ATOM     10  C   UNL     1      12.272  23.602  -8.235  1.00  0.00    -0.000 C 
BRANCH  10  11
ATOM     11  C   UNL     1      11.969  22.390  -7.331  1.00  0.00    -0.000 C 
BRANCH  11  12
ATOM     12  C   UNL     1      12.523  21.042  -7.835  1.00  0.00    -0.000 C 
BRANCH  12  13
ATOM     13  C   UNL     1      11.491  19.902  -7.897  1.00  0.00    -0.003 C 
ATOM     14  C   UNL     1      10.156  20.273  -7.252  1.00  0.00     0.004 C 
ENDBRANCH  12  13
ENDBRANCH  11  12
ENDBRANCH  10  11
ENDBRANCH   9  10
ENDBRANCH   1   9
TORSDOF 10
ENDMDL
MODEL 2
REMARK VINA RESULT:    -5.056      1.160      2.788
REMARK INTER + INTRA:          -9.036
REMARK INTER:                  -7.753
REMARK INTRA:                  -1.283
REMARK UNBOUND:                -1.025
REMARK SMILES CCCCCCCCCCCC(=O)[O-]
REMARK SMILES IDX 7 1 8 2 9 3 10 4 11 5 12 6 13 7 14 8 6 9 5 10 4 11 3 12 2 13
REMARK SMILES IDX 1 14
REMARK H PARENT
REMARK Flexibility Score: inf
ROOT
ATOM      1  C   UNL     1      10.692  20.769  -7.663  1.00  0.00     0.000 C 
ENDROOT
BRANCH   1   2
ATOM      2  C   UNL     1       9.817  21.956  -7.234  1.00  0.00     0.000 C 
BRANCH   2   3
ATOM      3  C   UNL     1       8.722  22.297  -8.262  1.00  0.00     0.000 C 
BRANCH   3   4
ATOM      4  C   UNL     1       8.166  23.730  -8.167  1.00  0.00     0.006 C 
BRANCH   4   5
ATOM      5  C   UNL     1       6.752  23.784  -7.577  1.00  0.00     0.053 C 
BRANCH   5   6
ATOM      6  C   UNL     1       6.806  24.138  -6.124  1.00  0.00     0.041 C 
ATOM      7  O   UNL     1       6.572  25.317  -5.750  1.00  0.00    -0.550 OA
ATOM      8  O   UNL     1       7.162  23.176  -5.187  1.00  0.00    -0.550 OA
ENDBRANCH   5   6
ENDBRANCH   4   5
ENDBRANCH   3   4
ENDBRANCH   2   3
ENDBRANCH   1   2
BRANCH   1   9
ATOM      9  C   UNL     1      12.147  21.211  -7.881  1.00  0.00     0.000 C 
BRANCH   9  10
ATOM     10  C   UNL     1      12.540  22.422  -7.016  1.00  0.00    -0.000 C 
BRANCH  10  11
ATOM     11  C   UNL     1      13.091  23.630  -7.800  1.00  0.00    -0.000 C 
BRANCH  11  12
ATOM     12  C   UNL     1      12.022  24.541  -8.436  1.00  0.00    -0.000 C 
BRANCH  12  13
ATOM     13  C   UNL     1      12.050  24.595  -9.974  1.00  0.00    -0.003 C 
ATOM     14  C   UNL     1      11.133  23.559 -10.622  1.00  0.00     0.004 C 
ENDBRANCH  12  13
ENDBRANCH  11  12
ENDBRANCH  10  11
ENDBRANCH   9  10
ENDBRANCH   1   9
TORSDOF 10
ENDMDL
MODEL 3
REMARK VINA RESULT:    -5.005      2.834      5.206
REMARK INTER + INTRA:          -8.957
REMARK INTER:                  -8.001
REMARK INTRA:                  -0.956
REMARK UNBOUND:                -1.025
REMARK SMILES CCCCCCCCCCCC(=O)[O-]
REMARK SMILES IDX 7 1 8 2 9 3 10 4 11 5 12 6 13 7 14 8 6 9 5 10 4 11 3 12 2 13
REMARK SMILES IDX 1 14
REMARK H PARENT
REMARK Flexibility Score: inf
ROOT
ATOM      1  C   UNL     1       6.485  22.788  -9.739  1.00  0.00     0.000 C 
ENDROOT
BRANCH   1   2
ATOM      2  C   UNL     1       7.916  22.359 -10.095  1.00  0.00     0.000 C 
BRANCH   2   3
ATOM      3  C   UNL     1       8.984  23.050  -9.228  1.00  0.00     0.000 C 
BRANCH   3   4
ATOM      4  C   UNL     1      10.430  22.892  -9.730  1.00  0.00     0.006 C 
BRANCH   4   5
ATOM      5  C   UNL     1      11.319  24.092  -9.381  1.00  0.00     0.053 C 
BRANCH   5   6
ATOM      6  C   UNL     1      12.258  23.740  -8.270  1.00  0.00     0.041 C 
ATOM      7  O   UNL     1      13.219  24.503  -7.988  1.00  0.00    -0.550 OA
ATOM      8  O   UNL     1      12.101  22.546  -7.579  1.00  0.00    -0.550 OA
ENDBRANCH   5   6
ENDBRANCH   4   5
ENDBRANCH   3   4
ENDBRANCH   2   3
ENDBRANCH   1   2
BRANCH   1   9
ATOM      9  C   UNL     1       6.465  23.608  -8.441  1.00  0.00     0.000 C 
BRANCH   9  10
ATOM     10  C   UNL     1       5.306  23.219  -7.506  1.00  0.00    -0.000 C 
BRANCH  10  11
ATOM     11  C   UNL     1       5.675  23.141  -6.010  1.00  0.00    -0.000 C 
BRANCH  11  12
ATOM     12  C   UNL     1       7.159  23.403  -5.687  1.00  0.00    -0.000 C 
BRANCH  12  13
ATOM     13  C   UNL     1       7.893  22.227  -5.019  1.00  0.00    -0.003 C 
ATOM     14  C   UNL     1       9.053  21.696  -5.860  1.00  0.00     0.004 C 
ENDBRANCH  12  13
ENDBRANCH  11  12
ENDBRANCH  10  11
ENDBRANCH   9  10
ENDBRANCH   1   9
TORSDOF 10
ENDMDL
MODEL 4
REMARK VINA RESULT:    -4.993      1.247      2.467
REMARK INTER + INTRA:          -8.936
REMARK INTER:                  -7.907
REMARK INTRA:                  -1.029
REMARK UNBOUND:                -1.025
REMARK SMILES CCCCCCCCCCCC(=O)[O-]
REMARK SMILES IDX 7 1 8 2 9 3 10 4 11 5 12 6 13 7 14 8 6 9 5 10 4 11 3 12 2 13
REMARK SMILES IDX 1 14
REMARK H PARENT
REMARK Flexibility Score: inf
ROOT
ATOM      1  C   UNL     1       9.729  21.829  -8.948  1.00  0.00     0.000 C 
ENDROOT
BRANCH   1   2
ATOM      2  C   UNL     1       8.508  22.636  -9.413  1.00  0.00     0.000 C 
BRANCH   2   3
ATOM      3  C   UNL     1       8.281  23.914  -8.585  1.00  0.00     0.000 C 
BRANCH   3   4
ATOM      4  C   UNL     1       6.805  24.279  -8.345  1.00  0.00     0.006 C 
BRANCH   4   5
ATOM      5  C   UNL     1       6.168  23.476  -7.205  1.00  0.00     0.053 C 
BRANCH   5   6
ATOM      6  C   UNL     1       6.740  23.897  -5.887  1.00  0.00     0.041 C 
ATOM      7  O   UNL     1       7.259  23.044  -5.121  1.00  0.00    -0.550 OA
ATOM      8  O   UNL     1       6.656  25.224  -5.486  1.00  0.00    -0.550 OA
ENDBRANCH   5   6
ENDBRANCH   4   5
ENDBRANCH   3   4
ENDBRANCH   2   3
ENDBRANCH   1   2
BRANCH   1   9
ATOM      9  C   UNL     1       9.708  21.632  -7.425  1.00  0.00     0.000 C 
BRANCH   9  10
ATOM     10  C   UNL     1      11.060  21.951  -6.762  1.00  0.00    -0.000 C 
BRANCH  10  11
ATOM     11  C   UNL     1      12.287  21.812  -7.687  1.00  0.00    -0.000 C 
BRANCH  11  12
ATOM     12  C   UNL     1      13.399  22.854  -7.459  1.00  0.00    -0.000 C 
BRANCH  12  13
ATOM     13  C   UNL     1      13.051  24.283  -7.914  1.00  0.00    -0.003 C 
ATOM     14  C   UNL     1      12.190  24.311  -9.176  1.00  0.00     0.004 C 
ENDBRANCH  12  13
ENDBRANCH  11  12
ENDBRANCH  10  11
ENDBRANCH   9  10
ENDBRANCH   1   9
TORSDOF 10
ENDMDL
MODEL 5
REMARK VINA RESULT:    -4.966      1.585      2.549
REMARK INTER + INTRA:          -8.893
REMARK INTER:                  -8.092
REMARK INTRA:                  -0.802
REMARK UNBOUND:                -1.025
REMARK SMILES CCCCCCCCCCCC(=O)[O-]
REMARK SMILES IDX 7 1 8 2 9 3 10 4 11 5 12 6 13 7 14 8 6 9 5 10 4 11 3 12 2 13
REMARK SMILES IDX 1 14
REMARK H PARENT
REMARK Flexibility Score: inf
ROOT
ATOM      1  C   UNL     1       9.098  22.364  -8.613  1.00  0.00     0.000 C 
ENDROOT
BRANCH   1   2
ATOM      2  C   UNL     1       8.135  22.371  -9.809  1.00  0.00     0.000 C 
BRANCH   2   3
ATOM      3  C   UNL     1       6.821  23.118  -9.518  1.00  0.00     0.000 C 
BRANCH   3   4
ATOM      4  C   UNL     1       6.869  24.071  -8.309  1.00  0.00     0.006 C 
BRANCH   4   5
ATOM      5  C   UNL     1       6.026  23.580  -7.127  1.00  0.00     0.053 C 
BRANCH   5   6
ATOM      6  C   UNL     1       6.725  23.864  -5.834  1.00  0.00     0.041 C 
ATOM      7  O   UNL     1       6.709  25.026  -5.348  1.00  0.00    -0.550 OA
ATOM      8  O   UNL     1       7.433  22.858  -5.191  1.00  0.00    -0.550 OA
ENDBRANCH   5   6
ENDBRANCH   4   5
ENDBRANCH   3   4
ENDBRANCH   2   3
ENDBRANCH   1   2
BRANCH   1   9
ATOM      9  C   UNL     1      10.555  22.246  -9.082  1.00  0.00     0.000 C 
BRANCH   9  10
ATOM     10  C   UNL     1      10.909  23.251 -10.193  1.00  0.00    -0.000 C 
BRANCH  10  11
ATOM     11  C   UNL     1      11.852  24.393  -9.760  1.00  0.00    -0.000 C 
BRANCH  11  12
ATOM     12  C   UNL     1      12.163  24.450  -8.252  1.00  0.00    -0.000 C 
BRANCH  12  13
ATOM     13  C   UNL     1      13.605  24.068  -7.874  1.00  0.00    -0.003 C 
ATOM     14  C   UNL     1      13.686  22.766  -7.078  1.00  0.00     0.004 C 
ENDBRANCH  12  13
ENDBRANCH  11  12
ENDBRANCH  10  11
ENDBRANCH   9  10
ENDBRANCH   1   9
TORSDOF 10
ENDMDL
MODEL 6
REMARK VINA RESULT:    -4.944      2.519      5.320
REMARK INTER + INTRA:          -8.859
REMARK INTER:                  -7.692
REMARK INTRA:                  -1.167
REMARK UNBOUND:                -1.025
REMARK SMILES CCCCCCCCCCCC(=O)[O-]
REMARK SMILES IDX 7 1 8 2 9 3 10 4 11 5 12 6 13 7 14 8 6 9 5 10 4 11 3 12 2 13
REMARK SMILES IDX 1 14
REMARK H PARENT
REMARK Flexibility Score: inf
ROOT
ATOM      1  C   UNL     1       6.387  22.448 -10.061  1.00  0.00     0.000 C 
ENDROOT
BRANCH   1   2
ATOM      2  C   UNL     1       7.917  22.341  -9.987  1.00  0.00     0.000 C 
BRANCH   2   3
ATOM      3  C   UNL     1       8.532  23.252  -8.909  1.00  0.00     0.000 C 
BRANCH   3   4
ATOM      4  C   UNL     1       9.990  22.927  -8.538  1.00  0.00     0.006 C 
BRANCH   4   5
ATOM      5  C   UNL     1      10.107  22.050  -7.286  1.00  0.00     0.053 C 
BRANCH   5   6
ATOM      6  C   UNL     1      10.834  20.781  -7.605  1.00  0.00     0.041 C 
ATOM      7  O   UNL     1      11.954  20.819  -8.178  1.00  0.00    -0.550 OA
ATOM      8  O   UNL     1      10.252  19.554  -7.312  1.00  0.00    -0.550 OA
ENDBRANCH   5   6
ENDBRANCH   4   5
ENDBRANCH   3   4
ENDBRANCH   2   3
ENDBRANCH   1   2
BRANCH   1   9
ATOM      9  C   UNL     1       5.856  23.450  -9.026  1.00  0.00     0.000 C 
BRANCH   9  10
ATOM     10  C   UNL     1       4.740  22.863  -8.143  1.00  0.00    -0.000 C 
BRANCH  10  11
ATOM     11  C   UNL     1       5.027  22.889  -6.628  1.00  0.00    -0.000 C 
BRANCH  11  12
ATOM     12  C   UNL     1       5.932  24.043  -6.153  1.00  0.00    -0.000 C 
BRANCH  12  13
ATOM     13  C   UNL     1       7.233  23.600  -5.458  1.00  0.00    -0.003 C 
ATOM     14  C   UNL     1       7.209  22.133  -5.032  1.00  0.00     0.004 C 
ENDBRANCH  12  13
ENDBRANCH  11  12
ENDBRANCH  10  11
ENDBRANCH   9  10
ENDBRANCH   1   9
TORSDOF 10
ENDMDL
MODEL 7
REMARK VINA RESULT:    -4.903      2.921      5.621
REMARK INTER + INTRA:          -8.794
REMARK INTER:                  -7.878
REMARK INTRA:                  -0.916
REMARK UNBOUND:                -1.025
REMARK SMILES CCCCCCCCCCCC(=O)[O-]
REMARK SMILES IDX 7 1 8 2 9 3 10 4 11 5 12 6 13 7 14 8 6 9 5 10 4 11 3 12 2 13
REMARK SMILES IDX 1 14
REMARK H PARENT
REMARK Flexibility Score: inf
ROOT
ATOM      1  C   UNL     1       9.344  22.547  -9.341  1.00  0.00     0.000 C 
ENDROOT
BRANCH   1   2
ATOM      2  C   UNL     1       9.708  22.267  -7.875  1.00  0.00     0.000 C 
BRANCH   2   3
ATOM      3  C   UNL     1      10.660  21.069  -7.710  1.00  0.00     0.000 C 
BRANCH   3   4
ATOM      4  C   UNL     1      12.157  21.405  -7.844  1.00  0.00     0.006 C 
BRANCH   4   5
ATOM      5  C   UNL     1      12.598  22.545  -6.919  1.00  0.00     0.053 C 
BRANCH   5   6
ATOM      6  C   UNL     1      13.181  23.669  -7.717  1.00  0.00     0.041 C 
ATOM      7  O   UNL     1      14.311  24.137  -7.420  1.00  0.00    -0.550 OA
ATOM      8  O   UNL     1      12.456  24.230  -8.760  1.00  0.00    -0.550 OA
ENDBRANCH   5   6
ENDBRANCH   4   5
ENDBRANCH   3   4
ENDBRANCH   2   3
ENDBRANCH   1   2
BRANCH   1   9
ATOM      9  C   UNL     1       7.839  22.808  -9.493  1.00  0.00     0.000 C 
BRANCH   9  10
ATOM     10  C   UNL     1       7.278  23.730  -8.395  1.00  0.00    -0.000 C 
BRANCH  10  11
ATOM     11  C   UNL     1       5.892  23.327  -7.853  1.00  0.00    -0.000 C 
BRANCH  11  12
ATOM     12  C   UNL     1       5.755  23.354  -6.318  1.00  0.00    -0.000 C 
BRANCH  12  13
ATOM     13  C   UNL     1       7.078  23.546  -5.554  1.00  0.00    -0.003 C 
ATOM     14  C   UNL     1       7.607  22.248  -4.946  1.00  0.00     0.004 C 
ENDBRANCH  12  13
ENDBRANCH  11  12
ENDBRANCH  10  11
ENDBRANCH   9  10
ENDBRANCH   1   9
TORSDOF 10
ENDMDL
MODEL 8
REMARK VINA RESULT:    -4.898      3.153      6.029
REMARK INTER + INTRA:          -8.786
REMARK INTER:                  -7.823
REMARK INTRA:                  -0.964
REMARK UNBOUND:                -1.025
REMARK SMILES CCCCCCCCCCCC(=O)[O-]
REMARK SMILES IDX 7 1 8 2 9 3 10 4 11 5 12 6 13 7 14 8 6 9 5 10 4 11 3 12 2 13
REMARK SMILES IDX 1 14
REMARK H PARENT
REMARK Flexibility Score: inf
ROOT
ATOM      1  C   UNL     1       7.018  22.664 -10.373  1.00  0.00     0.000 C 
ENDROOT
BRANCH   1   2
ATOM      2  C   UNL     1       7.725  23.256  -9.145  1.00  0.00     0.000 C 
BRANCH   2   3
ATOM      3  C   UNL     1       8.731  22.282  -8.504  1.00  0.00     0.000 C 
BRANCH   3   4
ATOM      4  C   UNL     1      10.164  22.828  -8.364  1.00  0.00     0.006 C 
BRANCH   4   5
ATOM      5  C   UNL     1      10.816  23.147  -9.715  1.00  0.00     0.053 C 
BRANCH   5   6
ATOM      6  C   UNL     1      11.818  24.248  -9.563  1.00  0.00     0.041 C 
ATOM      7  O   UNL     1      12.404  24.423  -8.463  1.00  0.00    -0.550 OA
ATOM      8  O   UNL     1      12.069  25.110 -10.623  1.00  0.00    -0.550 OA
ENDBRANCH   5   6
ENDBRANCH   4   5
ENDBRANCH   3   4
ENDBRANCH   2   3
ENDBRANCH   1   2
BRANCH   1   9
ATOM      9  C   UNL     1       5.591  22.217 -10.023  1.00  0.00     0.000 C 
BRANCH   9  10
ATOM     10  C   UNL     1       4.878  23.186  -9.064  1.00  0.00    -0.000 C 
BRANCH  10  11
ATOM     11  C   UNL     1       4.177  22.517  -7.864  1.00  0.00    -0.000 C 
BRANCH  11  12
ATOM     12  C   UNL     1       4.445  23.177  -6.497  1.00  0.00    -0.000 C 
BRANCH  12  13
ATOM     13  C   UNL     1       5.893  23.052  -5.991  1.00  0.00    -0.003 C 
ATOM     14  C   UNL     1       6.541  24.405  -5.703  1.00  0.00     0.004 C 
ENDBRANCH  12  13
ENDBRANCH  11  12
ENDBRANCH  10  11
ENDBRANCH   9  10
ENDBRANCH   1   9
TORSDOF 10
ENDMDL
MODEL 9
REMARK VINA RESULT:    -4.832      1.880      2.435
REMARK INTER + INTRA:          -8.682
REMARK INTER:                  -7.602
REMARK INTRA:                  -1.080
REMARK UNBOUND:                -1.025
REMARK SMILES CCCCCCCCCCCC(=O)[O-]
REMARK SMILES IDX 7 1 8 2 9 3 10 4 11 5 12 6 13 7 14 8 6 9 5 10 4 11 3 12 2 13
REMARK SMILES IDX 1 14
REMARK H PARENT
REMARK Flexibility Score: inf
ROOT
ATOM      1  C   UNL     1      10.769  23.267 -10.141  1.00  0.00     0.000 C 
ENDROOT
BRANCH   1   2
ATOM      2  C   UNL     1       9.317  22.857  -9.856  1.00  0.00     0.000 C 
BRANCH   2   3
ATOM      3  C   UNL     1       8.667  23.687  -8.734  1.00  0.00     0.000 C 
BRANCH   3   4
ATOM      4  C   UNL     1       7.139  23.535  -8.615  1.00  0.00     0.006 C 
BRANCH   4   5
ATOM      5  C   UNL     1       6.500  22.924  -9.868  1.00  0.00     0.053 C 
BRANCH   5   6
ATOM      6  C   UNL     1       5.048  23.281  -9.939  1.00  0.00     0.041 C 
ATOM      7  O   UNL     1       4.226  22.749  -9.149  1.00  0.00    -0.550 OA
ATOM      8  O   UNL     1       4.596  24.165 -10.911  1.00  0.00    -0.550 OA
ENDBRANCH   5   6
ENDBRANCH   4   5
ENDBRANCH   3   4
ENDBRANCH   2   3
ENDBRANCH   1   2
BRANCH   1   9
ATOM      9  C   UNL     1      11.325  24.140  -9.007  1.00  0.00     0.000 C 
BRANCH   9  10
ATOM     10  C   UNL     1      12.537  23.505  -8.302  1.00  0.00    -0.000 C 
BRANCH  10  11
ATOM     11  C   UNL     1      12.187  22.477  -7.207  1.00  0.00    -0.000 C 
BRANCH  11  12
ATOM     12  C   UNL     1      11.941  21.041  -7.710  1.00  0.00    -0.000 C 
BRANCH  12  13
ATOM     13  C   UNL     1      10.515  20.510  -7.480  1.00  0.00    -0.003 C 
ATOM     14  C   UNL     1       9.751  21.299  -6.418  1.00  0.00     0.004 C 
ENDBRANCH  12  13
ENDBRANCH  11  12
ENDBRANCH  10  11
ENDBRANCH   9  10
ENDBRANCH   1   9
TORSDOF 10
ENDMDL
