MODEL 1
REMARK VINA RESULT:    -4.338      0.000      0.000
REMARK INTER + INTRA:          -6.226
REMARK INTER:                  -5.987
REMARK INTRA:                  -0.239
REMARK UNBOUND:                -0.239
REMARK SMILES OC[C@@H](O)[C@@H](O)[C@@H](O)CO
REMARK SMILES IDX 5 1 7 2 9 3 10 4 8 6 3 8 2 9 1 10 4 12 6 14
REMARK H PARENT 10 5 8 7 1 11 4 13 6 15
REMARK Flexibility Score: inf
ROOT
ATOM      1  C   UNL     1       1.372  -0.090 -22.536  1.00  0.00     0.176 C 
ENDROOT
BRANCH   1   2
ATOM      2  C   UNL     1       1.901   0.195 -23.974  1.00  0.00     0.171 C 
BRANCH   2   3
ATOM      3  C   UNL     1       3.411   0.500 -23.992  1.00  0.00     0.190 C 
BRANCH   3   4
ATOM      4  O   UNL     1       3.639   1.884 -24.020  1.00  0.00    -0.394 OA
ATOM      5  H   UNL     1       4.207   2.071 -24.812  1.00  0.00     0.210 HD
ENDBRANCH   3   4
ENDBRANCH   2   3
BRANCH   2   6
ATOM      6  O   UNL     1       1.199   1.263 -24.563  1.00  0.00    -0.388 OA
ATOM      7  H   UNL     1       0.324   1.337 -24.098  1.00  0.00     0.211 HD
ENDBRANCH   2   6
ENDBRANCH   1   2
BRANCH   1   8
ATOM      8  C   UNL     1       1.284  -1.600 -22.183  1.00  0.00     0.171 C 
BRANCH   8   9
ATOM      9  C   UNL     1       2.650  -2.250 -21.919  1.00  0.00     0.190 C 
BRANCH   9  10
ATOM     10  O   UNL     1       2.936  -3.166 -22.939  1.00  0.00    -0.394 OA
ATOM     11  H   UNL     1       2.135  -3.187 -23.526  1.00  0.00     0.210 HD
ENDBRANCH   9  10
ENDBRANCH   8   9
BRANCH   8  12
ATOM     12  O   UNL     1       0.477  -1.769 -21.045  1.00  0.00    -0.388 OA
ATOM     13  H   UNL     1       0.832  -2.555 -20.552  1.00  0.00     0.211 HD
ENDBRANCH   8  12
ENDBRANCH   1   8
BRANCH   1  14
ATOM     14  O   UNL     1       2.115   0.604 -21.562  1.00  0.00    -0.388 OA
ATOM     15  H   UNL     1       2.387   1.476 -21.947  1.00  0.00     0.211 HD
ENDBRANCH   1  14
TORSDOF 9
ENDMDL
MODEL 2
REMARK VINA RESULT:    -4.307      1.258      2.159
REMARK INTER + INTRA:          -6.182
REMARK INTER:                  -5.554
REMARK INTRA:                  -0.628
REMARK UNBOUND:                -0.239
REMARK SMILES OC[C@@H](O)[C@@H](O)[C@@H](O)CO
REMARK SMILES IDX 5 1 7 2 9 3 10 4 8 6 3 8 2 9 1 10 4 12 6 14
REMARK H PARENT 10 5 8 7 1 11 4 13 6 15
REMARK Flexibility Score: inf
ROOT
ATOM      1  C   UNL     1       2.309  -0.254 -23.106  1.00  0.00     0.176 C 
ENDROOT
BRANCH   1   2
ATOM      2  C   UNL     1       3.479   0.089 -24.078  1.00  0.00     0.171 C 
BRANCH   2   3
ATOM      3  C   UNL     1       3.352   1.508 -24.667  1.00  0.00     0.190 C 
BRANCH   3   4
ATOM      4  O   UNL     1       2.018   1.796 -24.988  1.00  0.00    -0.394 OA
ATOM      5  H   UNL     1       2.031   2.411 -25.767  1.00  0.00     0.210 HD
ENDBRANCH   3   4
ENDBRANCH   2   3
BRANCH   2   6
ATOM      6  O   UNL     1       3.552  -0.848 -25.124  1.00  0.00    -0.388 OA
ATOM      7  H   UNL     1       4.288  -0.565 -25.729  1.00  0.00     0.211 HD
ENDBRANCH   2   6
ENDBRANCH   1   2
BRANCH   1   8
ATOM      8  C   UNL     1       2.477  -1.614 -22.373  1.00  0.00     0.171 C 
BRANCH   8   9
ATOM      9  C   UNL     1       1.301  -1.962 -21.448  1.00  0.00     0.190 C 
BRANCH   9  10
ATOM     10  O   UNL     1       0.212  -1.133 -21.745  1.00  0.00    -0.394 OA
ATOM     11  H   UNL     1      -0.559  -1.737 -21.909  1.00  0.00     0.210 HD
ENDBRANCH   9  10
ENDBRANCH   8   9
BRANCH   8  12
ATOM     12  O   UNL     1       2.624  -2.642 -23.321  1.00  0.00    -0.388 OA
ATOM     13  H   UNL     1       2.610  -3.500 -22.822  1.00  0.00     0.211 HD
ENDBRANCH   8  12
ENDBRANCH   1   8
BRANCH   1  14
ATOM     14  O   UNL     1       2.079   0.782 -22.182  1.00  0.00    -0.388 OA
ATOM     15  H   UNL     1       1.606   0.396 -21.401  1.00  0.00     0.211 HD
ENDBRANCH   1  14
TORSDOF 9
ENDMDL
MODEL 3
REMARK VINA RESULT:    -4.276      5.544      7.531
REMARK INTER + INTRA:          -6.140
REMARK INTER:                  -5.404
REMARK INTRA:                  -0.736
REMARK UNBOUND:                -0.239
REMARK SMILES OC[C@@H](O)[C@@H](O)[C@@H](O)CO
REMARK SMILES IDX 5 1 7 2 9 3 10 4 8 6 3 8 2 9 1 10 4 12 6 14
REMARK H PARENT 10 5 8 7 1 11 4 13 6 15
REMARK Flexibility Score: inf
ROOT
ATOM      1  C   UNL     1      -1.027   4.725 -24.425  1.00  0.00     0.176 C 
ENDROOT
BRANCH   1   2
ATOM      2  C   UNL     1      -1.682   4.042 -23.186  1.00  0.00     0.171 C 
BRANCH   2   3
ATOM      3  C   UNL     1      -1.777   2.512 -23.343  1.00  0.00     0.190 C 
BRANCH   3   4
ATOM      4  O   UNL     1      -0.671   1.881 -22.755  1.00  0.00    -0.394 OA
ATOM      5  H   UNL     1      -0.982   1.483 -21.901  1.00  0.00     0.210 HD
ENDBRANCH   3   4
ENDBRANCH   2   3
BRANCH   2   6
ATOM      6  O   UNL     1      -2.964   4.570 -22.944  1.00  0.00    -0.388 OA
ATOM      7  H   UNL     1      -2.911   5.112 -22.113  1.00  0.00     0.211 HD
ENDBRANCH   2   6
ENDBRANCH   1   2
BRANCH   1   8
ATOM      8  C   UNL     1      -0.553   6.182 -24.165  1.00  0.00     0.171 C 
BRANCH   8   9
ATOM      9  C   UNL     1      -1.368   7.238 -24.927  1.00  0.00     0.190 C 
BRANCH   9  10
ATOM     10  O   UNL     1      -2.697   7.208 -24.489  1.00  0.00    -0.394 OA
ATOM     11  H   UNL     1      -2.794   6.377 -23.953  1.00  0.00     0.210 HD
ENDBRANCH   9  10
ENDBRANCH   8   9
BRANCH   8  12
ATOM     12  O   UNL     1      -0.629   6.461 -22.790  1.00  0.00    -0.388 OA
ATOM     13  H   UNL     1      -1.468   6.047 -22.456  1.00  0.00     0.211 HD
ENDBRANCH   8  12
ENDBRANCH   1   8
BRANCH   1  14
ATOM     14  O   UNL     1       0.023   3.950 -24.952  1.00  0.00    -0.388 OA
ATOM     15  H   UNL     1      -0.281   3.006 -24.988  1.00  0.00     0.211 HD
ENDBRANCH   1  14
TORSDOF 9
ENDMDL
MODEL 4
REMARK VINA RESULT:    -4.273      2.057      4.056
REMARK INTER + INTRA:          -6.136
REMARK INTER:                  -5.443
REMARK INTRA:                  -0.693
REMARK UNBOUND:                -0.239
REMARK SMILES OC[C@@H](O)[C@@H](O)[C@@H](O)CO
REMARK SMILES IDX 5 1 7 2 9 3 10 4 8 6 3 8 2 9 1 10 4 12 6 14
REMARK H PARENT 10 5 8 7 1 11 4 13 6 15
REMARK Flexibility Score: inf
ROOT
ATOM      1  C   UNL     1       0.584   0.296 -22.619  1.00  0.00     0.176 C 
ENDROOT
BRANCH   1   2
ATOM      2  C   UNL     1       1.944  -0.294 -23.101  1.00  0.00     0.171 C 
BRANCH   2   3
ATOM      3  C   UNL     1       2.469  -1.397 -22.160  1.00  0.00     0.190 C 
BRANCH   3   4
ATOM      4  O   UNL     1       2.047  -2.663 -22.593  1.00  0.00    -0.394 OA
ATOM      5  H   UNL     1       1.498  -2.525 -23.407  1.00  0.00     0.210 HD
ENDBRANCH   3   4
ENDBRANCH   2   3
BRANCH   2   6
ATOM      6  O   UNL     1       2.913   0.718 -23.223  1.00  0.00    -0.388 OA
ATOM      7  H   UNL     1       3.782   0.278 -23.416  1.00  0.00     0.211 HD
ENDBRANCH   2   6
ENDBRANCH   1   2
BRANCH   1   8
ATOM      8  C   UNL     1      -0.276   0.910 -23.758  1.00  0.00     0.171 C 
BRANCH   8   9
ATOM      9  C   UNL     1      -1.316   1.926 -23.263  1.00  0.00     0.190 C 
BRANCH   9  10
ATOM     10  O   UNL     1      -2.308   1.260 -22.532  1.00  0.00    -0.394 OA
ATOM     11  H   UNL     1      -3.048   1.913 -22.410  1.00  0.00     0.210 HD
ENDBRANCH   9  10
ENDBRANCH   8   9
BRANCH   8  12
ATOM     12  O   UNL     1       0.564   1.543 -24.690  1.00  0.00    -0.388 OA
ATOM     13  H   UNL     1       0.783   2.439 -24.320  1.00  0.00     0.211 HD
ENDBRANCH   8  12
ENDBRANCH   1   8
BRANCH   1  14
ATOM     14  O   UNL     1      -0.163  -0.647 -21.888  1.00  0.00    -0.388 OA
ATOM     15  H   UNL     1      -0.185  -1.491 -22.409  1.00  0.00     0.211 HD
ENDBRANCH   1  14
TORSDOF 9
ENDMDL
MODEL 5
REMARK VINA RESULT:    -4.223      1.762      4.137
REMARK INTER + INTRA:          -6.067
REMARK INTER:                  -5.433
REMARK INTRA:                  -0.633
REMARK UNBOUND:                -0.239
REMARK SMILES OC[C@@H](O)[C@@H](O)[C@@H](O)CO
REMARK SMILES IDX 5 1 7 2 9 3 10 4 8 6 3 8 2 9 1 10 4 12 6 14
REMARK H PARENT 10 5 8 7 1 11 4 13 6 15
REMARK Flexibility Score: inf
ROOT
ATOM      1  C   UNL     1       1.061   0.292 -23.667  1.00  0.00     0.176 C 
ENDROOT
BRANCH   1   2
ATOM      2  C   UNL     1       1.992  -0.193 -22.514  1.00  0.00     0.171 C 
BRANCH   2   3
ATOM      3  C   UNL     1       1.714  -1.655 -22.114  1.00  0.00     0.190 C 
BRANCH   3   4
ATOM      4  O   UNL     1       0.598  -1.737 -21.269  1.00  0.00    -0.394 OA
ATOM      5  H   UNL     1       0.024  -2.469 -21.614  1.00  0.00     0.210 HD
ENDBRANCH   3   4
ENDBRANCH   2   3
BRANCH   2   6
ATOM      6  O   UNL     1       1.860   0.636 -21.384  1.00  0.00    -0.388 OA
ATOM      7  H   UNL     1       1.798   1.573 -21.707  1.00  0.00     0.211 HD
ENDBRANCH   2   6
ENDBRANCH   1   2
BRANCH   1   8
ATOM      8  C   UNL     1      -0.203   1.053 -23.180  1.00  0.00     0.171 C 
BRANCH   8   9
ATOM      9  C   UNL     1      -0.955   1.778 -24.306  1.00  0.00     0.190 C 
BRANCH   9  10
ATOM     10  O   UNL     1      -0.398   3.048 -24.498  1.00  0.00    -0.394 OA
ATOM     11  H   UNL     1       0.479   2.902 -24.940  1.00  0.00     0.210 HD
ENDBRANCH   9  10
ENDBRANCH   8   9
BRANCH   8  12
ATOM     12  O   UNL     1      -1.083   0.150 -22.559  1.00  0.00    -0.388 OA
ATOM     13  H   UNL     1      -1.331   0.544 -21.682  1.00  0.00     0.211 HD
ENDBRANCH   8  12
ENDBRANCH   1   8
BRANCH   1  14
ATOM     14  O   UNL     1       1.764   1.056 -24.617  1.00  0.00    -0.388 OA
ATOM     15  H   UNL     1       2.439   0.469 -25.044  1.00  0.00     0.211 HD
ENDBRANCH   1  14
TORSDOF 9
ENDMDL
MODEL 6
REMARK VINA RESULT:    -4.178      5.311      7.224
REMARK INTER + INTRA:          -6.005
REMARK INTER:                  -5.401
REMARK INTRA:                  -0.604
REMARK UNBOUND:                -0.239
REMARK SMILES OC[C@@H](O)[C@@H](O)[C@@H](O)CO
REMARK SMILES IDX 5 1 7 2 9 3 10 4 8 6 3 8 2 9 1 10 4 12 6 14
REMARK H PARENT 10 5 8 7 1 11 4 13 6 15
REMARK Flexibility Score: inf
ROOT
ATOM      1  C   UNL     1      -2.190   4.333 -23.291  1.00  0.00     0.176 C 
ENDROOT
BRANCH   1   2
ATOM      2  C   UNL     1      -2.321   2.796 -23.071  1.00  0.00     0.171 C 
BRANCH   2   3
ATOM      3  C   UNL     1      -3.504   2.435 -22.150  1.00  0.00     0.190 C 
BRANCH   3   4
ATOM      4  O   UNL     1      -3.487   3.220 -20.988  1.00  0.00    -0.394 OA
ATOM      5  H   UNL     1      -3.950   4.071 -21.204  1.00  0.00     0.210 HD
ENDBRANCH   3   4
ENDBRANCH   2   3
BRANCH   2   6
ATOM      6  O   UNL     1      -1.133   2.264 -22.538  1.00  0.00    -0.388 OA
ATOM      7  H   UNL     1      -0.879   2.824 -21.757  1.00  0.00     0.211 HD
ENDBRANCH   2   6
ENDBRANCH   1   2
BRANCH   1   8
ATOM      8  C   UNL     1      -1.231   4.725 -24.449  1.00  0.00     0.171 C 
BRANCH   8   9
ATOM      9  C   UNL     1      -0.446   6.019 -24.185  1.00  0.00     0.190 C 
BRANCH   9  10
ATOM     10  O   UNL     1      -0.654   6.430 -22.863  1.00  0.00    -0.394 OA
ATOM     11  H   UNL     1      -1.496   5.993 -22.566  1.00  0.00     0.210 HD
ENDBRANCH   9  10
ENDBRANCH   8   9
BRANCH   8  12
ATOM     12  O   UNL     1      -0.317   3.681 -24.673  1.00  0.00    -0.388 OA
ATOM     13  H   UNL     1      -0.400   3.055 -23.907  1.00  0.00     0.211 HD
ENDBRANCH   8  12
ENDBRANCH   1   8
BRANCH   1  14
ATOM     14  O   UNL     1      -3.447   4.944 -23.461  1.00  0.00    -0.388 OA
ATOM     15  H   UNL     1      -3.588   5.090 -24.431  1.00  0.00     0.211 HD
ENDBRANCH   1  14
TORSDOF 9
ENDMDL
MODEL 7
REMARK VINA RESULT:    -4.082      4.880      5.832
REMARK INTER + INTRA:          -5.873
REMARK INTER:                  -5.348
REMARK INTRA:                  -0.524
REMARK UNBOUND:                -0.239
REMARK SMILES OC[C@@H](O)[C@@H](O)[C@@H](O)CO
REMARK SMILES IDX 5 1 7 2 9 3 10 4 8 6 3 8 2 9 1 10 4 12 6 14
REMARK H PARENT 10 5 8 7 1 11 4 13 6 15
REMARK Flexibility Score: inf
ROOT
ATOM      1  C   UNL     1      -0.910   3.850 -23.961  1.00  0.00     0.176 C 
ENDROOT
BRANCH   1   2
ATOM      2  C   UNL     1      -1.505   5.205 -24.453  1.00  0.00     0.171 C 
BRANCH   2   3
ATOM      3  C   UNL     1      -0.615   6.405 -24.077  1.00  0.00     0.190 C 
BRANCH   3   4
ATOM      4  O   UNL     1      -0.632   6.624 -22.692  1.00  0.00    -0.394 OA
ATOM      5  H   UNL     1      -0.561   5.736 -22.255  1.00  0.00     0.210 HD
ENDBRANCH   3   4
ENDBRANCH   2   3
BRANCH   2   6
ATOM      6  O   UNL     1      -2.799   5.400 -23.935  1.00  0.00    -0.388 OA
ATOM      7  H   UNL     1      -2.710   5.941 -23.106  1.00  0.00     0.211 HD
ENDBRANCH   2   6
ENDBRANCH   1   2
BRANCH   1   8
ATOM      8  C   UNL     1      -1.970   2.866 -23.392  1.00  0.00     0.171 C 
BRANCH   8   9
ATOM      9  C   UNL     1      -1.478   1.413 -23.313  1.00  0.00     0.190 C 
BRANCH   9  10
ATOM     10  O   UNL     1      -0.250   1.372 -22.641  1.00  0.00    -0.394 OA
ATOM     11  H   UNL     1      -0.268   2.116 -21.984  1.00  0.00     0.210 HD
ENDBRANCH   9  10
ENDBRANCH   8   9
BRANCH   8  12
ATOM     12  O   UNL     1      -2.353   3.283 -22.105  1.00  0.00    -0.388 OA
ATOM     13  H   UNL     1      -2.501   2.462 -21.568  1.00  0.00     0.211 HD
ENDBRANCH   8  12
ENDBRANCH   1   8
BRANCH   1  14
ATOM     14  O   UNL     1      -0.141   3.226 -24.960  1.00  0.00    -0.388 OA
ATOM     15  H   UNL     1       0.769   3.074 -24.596  1.00  0.00     0.211 HD
ENDBRANCH   1  14
TORSDOF 9
ENDMDL
MODEL 8
REMARK VINA RESULT:    -4.064      5.659      6.837
REMARK INTER + INTRA:          -5.848
REMARK INTER:                  -5.261
REMARK INTRA:                  -0.587
REMARK UNBOUND:                -0.239
REMARK SMILES OC[C@@H](O)[C@@H](O)[C@@H](O)CO
REMARK SMILES IDX 5 1 7 2 9 3 10 4 8 6 3 8 2 9 1 10 4 12 6 14
REMARK H PARENT 10 5 8 7 1 11 4 13 6 15
REMARK Flexibility Score: inf
ROOT
ATOM      1  C   UNL     1      -3.027   2.978 -22.348  1.00  0.00     0.176 C 
ENDROOT
BRANCH   1   2
ATOM      2  C   UNL     1      -2.406   3.714 -23.573  1.00  0.00     0.171 C 
BRANCH   2   3
ATOM      3  C   UNL     1      -1.509   2.788 -24.419  1.00  0.00     0.190 C 
BRANCH   3   4
ATOM      4  O   UNL     1      -0.486   2.235 -23.636  1.00  0.00    -0.394 OA
ATOM      5  H   UNL     1      -0.520   1.251 -23.762  1.00  0.00     0.210 HD
ENDBRANCH   3   4
ENDBRANCH   2   3
BRANCH   2   6
ATOM      6  O   UNL     1      -1.663   4.835 -23.160  1.00  0.00    -0.388 OA
ATOM      7  H   UNL     1      -2.310   5.521 -22.845  1.00  0.00     0.211 HD
ENDBRANCH   2   6
ENDBRANCH   1   2
BRANCH   1   8
ATOM      8  C   UNL     1      -4.535   3.280 -22.129  1.00  0.00     0.171 C 
BRANCH   8   9
ATOM      9  C   UNL     1      -4.947   3.311 -20.650  1.00  0.00     0.190 C 
BRANCH   9  10
ATOM     10  O   UNL     1      -3.848   2.969 -19.852  1.00  0.00    -0.394 OA
ATOM     11  H   UNL     1      -3.539   2.080 -20.172  1.00  0.00     0.210 HD
ENDBRANCH   9  10
ENDBRANCH   8   9
BRANCH   8  12
ATOM     12  O   UNL     1      -4.854   4.519 -22.711  1.00  0.00    -0.388 OA
ATOM     13  H   UNL     1      -4.244   5.193 -22.310  1.00  0.00     0.211 HD
ENDBRANCH   8  12
ENDBRANCH   1   8
BRANCH   1  14
ATOM     14  O   UNL     1      -2.804   1.589 -22.407  1.00  0.00    -0.388 OA
ATOM     15  H   UNL     1      -2.024   1.380 -21.832  1.00  0.00     0.211 HD
ENDBRANCH   1  14
TORSDOF 9
ENDMDL
