MODEL 1
REMARK VINA RESULT:    -5.136      0.000      0.000
REMARK INTER + INTRA:          -6.415
REMARK INTER:                  -6.938
REMARK INTRA:                   0.523
REMARK UNBOUND:                 0.523
REMARK SMILES O=c1c(-c2ccc(O)cc2)coc2c([C@@H]3O[C@@H](CO)[C@H](O)[C@@H](O)[C@@H]3O)c(O)ccc12
REMARK SMILES IDX 3 1 11 2 12 3 13 4 30 5 2 6 1 7 29 8 28 9 26 10 14 11 4 12
REMARK SMILES IDX 5 13 6 14 7 15 10 16 9 17 8 18 15 20 24 21 16 22 22 23 17 24
REMARK SMILES IDX 20 25 25 26 23 28 18 30 19 31 21 33 27 35
REMARK H PARENT 8 19 25 27 23 29 19 32 21 34 27 36
REMARK Flexibility Score: inf
ROOT
ATOM      1  C   UNL     1       4.007  10.990 -11.590  1.00  0.00     0.065 A 
ATOM      2  C   UNL     1       3.366   9.773 -11.326  1.00  0.00     0.208 A 
ATOM      3  O   UNL     1       2.041   9.694 -11.292  1.00  0.00    -0.463 OA
ATOM      4  C   UNL     1       1.240  10.736 -11.501  1.00  0.00     0.147 A 
ATOM      5  C   UNL     1       1.806  12.000 -11.792  1.00  0.00     0.066 A 
ATOM      6  C   UNL     1       3.207  12.120 -11.835  1.00  0.00     0.200 A 
ATOM      7  O   UNL     1       3.743  13.228 -12.115  1.00  0.00    -0.288 OA
ATOM      8  C   UNL     1       0.967  13.094 -12.039  1.00  0.00     0.020 A 
ATOM      9  C   UNL     1      -0.416  12.934 -12.032  1.00  0.00     0.047 A 
ATOM     10  C   UNL     1      -0.993  11.689 -11.766  1.00  0.00     0.125 A 
ATOM     11  C   UNL     1      -0.169  10.576 -11.441  1.00  0.00     0.069 A 
ENDROOT
BRANCH   1  12
ATOM     12  C   UNL     1       5.490  11.056 -11.613  1.00  0.00    -0.011 A 
ATOM     13  C   UNL     1       6.241   9.977 -12.111  1.00  0.00     0.013 A 
ATOM     14  C   UNL     1       7.638  10.032 -12.125  1.00  0.00     0.047 A 
ATOM     15  C   UNL     1       8.303  11.165 -11.637  1.00  0.00     0.115 A 
ATOM     16  C   UNL     1       6.166  12.187 -11.118  1.00  0.00     0.013 A 
ATOM     17  C   UNL     1       7.563  12.239 -11.134  1.00  0.00     0.047 A 
BRANCH  15  18
ATOM     18  O   UNL     1       9.693  11.232 -11.647  1.00  0.00    -0.508 OA
ATOM     19  H   UNL     1      10.228  11.268 -10.787  1.00  0.00     0.293 HD
ENDBRANCH  15  18
ENDBRANCH   1  12
BRANCH  11  20
ATOM     20  C   UNL     1      -0.787   9.223 -11.090  1.00  0.00     0.188 C 
ATOM     21  C   UNL     1       0.174   8.420 -10.188  1.00  0.00     0.179 C 
ATOM     22  O   UNL     1      -2.050   9.403 -10.465  1.00  0.00    -0.362 OA
ATOM     23  C   UNL     1      -0.441   7.046  -9.865  1.00  0.00     0.177 C 
ATOM     24  C   UNL     1      -2.722   8.175 -10.210  1.00  0.00     0.176 C 
ATOM     25  C   UNL     1      -1.879   7.201  -9.338  1.00  0.00     0.177 C 
BRANCH  21  26
ATOM     26  O   UNL     1       0.420   9.129  -8.999  1.00  0.00    -0.387 OA
ATOM     27  H   UNL     1       1.336   8.886  -8.703  1.00  0.00     0.211 HD
ENDBRANCH  21  26
BRANCH  23  28
ATOM     28  O   UNL     1      -0.438   6.229 -11.007  1.00  0.00    -0.387 OA
ATOM     29  H   UNL     1       0.475   5.846 -11.087  1.00  0.00     0.211 HD
ENDBRANCH  23  28
BRANCH  24  30
ATOM     30  C   UNL     1      -3.295   7.546 -11.499  1.00  0.00     0.191 C 
BRANCH  30  31
ATOM     31  O   UNL     1      -4.675   7.785 -11.592  1.00  0.00    -0.394 OA
ATOM     32  H   UNL     1      -4.997   7.986 -10.674  1.00  0.00     0.210 HD
ENDBRANCH  30  31
ENDBRANCH  24  30
BRANCH  25  33
ATOM     33  O   UNL     1      -1.827   7.683  -8.018  1.00  0.00    -0.388 OA
ATOM     34  H   UNL     1      -1.475   6.944  -7.454  1.00  0.00     0.211 HD
ENDBRANCH  25  33
ENDBRANCH  11  20
BRANCH  10  35
ATOM     35  O   UNL     1      -2.386  11.605 -11.850  1.00  0.00    -0.507 OA
ATOM     36  H   UNL     1      -2.997  12.395 -12.005  1.00  0.00     0.293 HD
ENDBRANCH  10  35
TORSDOF 9
ENDMDL
MODEL 2
REMARK VINA RESULT:    -4.675      2.299      8.485
REMARK INTER + INTRA:          -5.791
REMARK INTER:                  -5.917
REMARK INTRA:                   0.126
REMARK UNBOUND:                 0.523
REMARK SMILES O=c1c(-c2ccc(O)cc2)coc2c([C@@H]3O[C@@H](CO)[C@H](O)[C@@H](O)[C@@H]3O)c(O)ccc12
REMARK SMILES IDX 3 1 11 2 12 3 13 4 30 5 2 6 1 7 29 8 28 9 26 10 14 11 4 12
REMARK SMILES IDX 5 13 6 14 7 15 10 16 9 17 8 18 15 20 24 21 16 22 22 23 17 24
REMARK SMILES IDX 20 25 25 26 23 28 18 30 19 31 21 33 27 35
REMARK H PARENT 8 19 25 27 23 29 19 32 21 34 27 36
REMARK Flexibility Score: inf
ROOT
ATOM      1  C   UNL     1      -1.270  10.088 -11.255  1.00  0.00     0.065 A 
ATOM      2  C   UNL     1      -0.433  11.209 -11.167  1.00  0.00     0.208 A 
ATOM      3  O   UNL     1       0.887  11.078 -11.210  1.00  0.00    -0.463 OA
ATOM      4  C   UNL     1       1.503   9.905 -11.337  1.00  0.00     0.147 A 
ATOM      5  C   UNL     1       0.732   8.724 -11.450  1.00  0.00     0.066 A 
ATOM      6  C   UNL     1      -0.671   8.826 -11.408  1.00  0.00     0.200 A 
ATOM      7  O   UNL     1      -1.388   7.794 -11.530  1.00  0.00    -0.288 OA
ATOM      8  C   UNL     1       1.375   7.490 -11.612  1.00  0.00     0.020 A 
ATOM      9  C   UNL     1       2.763   7.428 -11.693  1.00  0.00     0.047 A 
ATOM     10  C   UNL     1       3.540   8.585 -11.603  1.00  0.00     0.125 A 
ATOM     11  C   UNL     1       2.921   9.844 -11.368  1.00  0.00     0.069 A 
ENDROOT
BRANCH   1  12
ATOM     12  C   UNL     1      -2.744  10.258 -11.195  1.00  0.00    -0.011 A 
ATOM     13  C   UNL     1      -3.506   9.519 -10.273  1.00  0.00     0.013 A 
ATOM     14  C   UNL     1      -4.895   9.669 -10.219  1.00  0.00     0.047 A 
ATOM     15  C   UNL     1      -5.541  10.556 -11.091  1.00  0.00     0.115 A 
ATOM     16  C   UNL     1      -3.401  11.141 -12.070  1.00  0.00     0.013 A 
ATOM     17  C   UNL     1      -4.790  11.289 -12.014  1.00  0.00     0.047 A 
BRANCH  15  18
ATOM     18  O   UNL     1      -6.923  10.715 -11.046  1.00  0.00    -0.508 OA
ATOM     19  H   UNL     1      -7.540   9.935 -10.848  1.00  0.00     0.293 HD
ENDBRANCH  15  18
ENDBRANCH   1  12
BRANCH  11  20
ATOM     20  C   UNL     1       3.761  11.110 -11.208  1.00  0.00     0.188 C 
ATOM     21  C   UNL     1       3.081  12.075 -10.213  1.00  0.00     0.179 C 
ATOM     22  O   UNL     1       5.077  10.782 -10.787  1.00  0.00    -0.362 OA
ATOM     23  C   UNL     1       3.915  13.362 -10.082  1.00  0.00     0.177 C 
ATOM     24  C   UNL     1       5.937  11.913 -10.723  1.00  0.00     0.176 C 
ATOM     25  C   UNL     1       5.390  13.029  -9.788  1.00  0.00     0.177 C 
BRANCH  21  26
ATOM     26  O   UNL     1       2.950  11.455  -8.959  1.00  0.00    -0.387 OA
ATOM     27  H   UNL     1       3.790  10.953  -8.796  1.00  0.00     0.211 HD
ENDBRANCH  21  26
BRANCH  23  28
ATOM     28  O   UNL     1       3.825  14.125 -11.258  1.00  0.00    -0.387 OA
ATOM     29  H   UNL     1       2.989  13.850 -11.717  1.00  0.00     0.211 HD
ENDBRANCH  23  28
BRANCH  24  30
ATOM     30  C   UNL     1       6.360  12.404 -12.125  1.00  0.00     0.191 C 
BRANCH  30  31
ATOM     31  O   UNL     1       7.156  13.556 -12.023  1.00  0.00    -0.394 OA
ATOM     32  H   UNL     1       7.242  13.930 -12.938  1.00  0.00     0.210 HD
ENDBRANCH  30  31
ENDBRANCH  24  30
BRANCH  25  33
ATOM     33  O   UNL     1       5.500  12.613  -8.450  1.00  0.00    -0.388 OA
ATOM     34  H   UNL     1       4.821  13.121  -7.932  1.00  0.00     0.211 HD
ENDBRANCH  25  33
ENDBRANCH  11  20
BRANCH  10  35
ATOM     35  O   UNL     1       4.921   8.437 -11.767  1.00  0.00    -0.507 OA
ATOM     36  H   UNL     1       5.392   8.438 -12.661  1.00  0.00     0.293 HD
ENDBRANCH  10  35
TORSDOF 9
ENDMDL
MODEL 3
REMARK VINA RESULT:    -4.347      4.196      9.549
REMARK INTER + INTRA:          -5.349
REMARK INTER:                  -4.153
REMARK INTRA:                  -1.196
REMARK UNBOUND:                 0.523
REMARK SMILES O=c1c(-c2ccc(O)cc2)coc2c([C@@H]3O[C@@H](CO)[C@H](O)[C@@H](O)[C@@H]3O)c(O)ccc12
REMARK SMILES IDX 3 1 11 2 12 3 13 4 30 5 2 6 1 7 29 8 28 9 26 10 14 11 4 12
REMARK SMILES IDX 5 13 6 14 7 15 10 16 9 17 8 18 15 20 24 21 16 22 22 23 17 24
REMARK SMILES IDX 20 25 25 26 23 28 18 30 19 31 21 33 27 35
REMARK H PARENT 8 19 25 27 23 29 19 32 21 34 27 36
REMARK Flexibility Score: inf
ROOT
ATOM      1  C   UNL     1       3.851  12.900 -10.063  1.00  0.00     0.065 A 
ATOM      2  C   UNL     1       4.178  12.642  -8.725  1.00  0.00     0.208 A 
ATOM      3  O   UNL     1       5.421  12.794  -8.287  1.00  0.00    -0.463 OA
ATOM      4  C   UNL     1       6.427  13.193  -9.062  1.00  0.00     0.147 A 
ATOM      5  C   UNL     1       6.180  13.491 -10.423  1.00  0.00     0.066 A 
ATOM      6  C   UNL     1       4.873  13.341 -10.921  1.00  0.00     0.200 A 
ATOM      7  O   UNL     1       4.614  13.621 -12.125  1.00  0.00    -0.288 OA
ATOM      8  C   UNL     1       7.230  13.937 -11.236  1.00  0.00     0.020 A 
ATOM      9  C   UNL     1       8.503  14.117 -10.702  1.00  0.00     0.047 A 
ATOM     10  C   UNL     1       8.762  13.847  -9.356  1.00  0.00     0.125 A 
ATOM     11  C   UNL     1       7.734  13.326  -8.522  1.00  0.00     0.069 A 
ENDROOT
BRANCH   1  12
ATOM     12  C   UNL     1       2.454  12.713 -10.533  1.00  0.00    -0.011 A 
ATOM     13  C   UNL     1       1.582  13.812 -10.620  1.00  0.00     0.013 A 
ATOM     14  C   UNL     1       0.265  13.638 -11.054  1.00  0.00     0.047 A 
ATOM     15  C   UNL     1      -0.200  12.362 -11.401  1.00  0.00     0.115 A 
ATOM     16  C   UNL     1       1.978  11.435 -10.877  1.00  0.00     0.013 A 
ATOM     17  C   UNL     1       0.660  11.264 -11.310  1.00  0.00     0.047 A 
BRANCH  15  18
ATOM     18  O   UNL     1      -1.510  12.177 -11.836  1.00  0.00    -0.508 OA
ATOM     19  H   UNL     1      -1.888  12.702 -12.616  1.00  0.00     0.293 HD
ENDBRANCH  15  18
ENDBRANCH   1  12
BRANCH  11  20
ATOM     20  C   UNL     1       8.017  12.968  -7.064  1.00  0.00     0.188 C 
ATOM     21  C   UNL     1       8.609  11.546  -6.972  1.00  0.00     0.179 C 
ATOM     22  O   UNL     1       8.886  13.926  -6.478  1.00  0.00    -0.362 OA
ATOM     23  C   UNL     1       8.860  11.181  -5.498  1.00  0.00     0.177 C 
ATOM     24  C   UNL     1       9.100  13.705  -5.090  1.00  0.00     0.176 C 
ATOM     25  C   UNL     1       9.664  12.287  -4.789  1.00  0.00     0.177 C 
BRANCH  21  26
ATOM     26  O   UNL     1       9.812  11.481  -7.696  1.00  0.00    -0.387 OA
ATOM     27  H   UNL     1       9.646  11.921  -8.570  1.00  0.00     0.211 HD
ENDBRANCH  21  26
BRANCH  23  28
ATOM     28  O   UNL     1       7.641  10.976  -4.831  1.00  0.00    -0.387 OA
ATOM     29  H   UNL     1       7.750  11.335  -3.912  1.00  0.00     0.211 HD
ENDBRANCH  23  28
BRANCH  24  30
ATOM     30  C   UNL     1       7.871  14.097  -4.240  1.00  0.00     0.191 C 
BRANCH  30  31
ATOM     31  O   UNL     1       7.875  13.402  -3.020  1.00  0.00    -0.394 OA
ATOM     32  H   UNL     1       8.789  13.484  -2.643  1.00  0.00     0.210 HD
ENDBRANCH  30  31
ENDBRANCH  24  30
BRANCH  25  33
ATOM     33  O   UNL     1      11.002  12.216  -5.216  1.00  0.00    -0.388 OA
ATOM     34  H   UNL     1      11.026  11.594  -5.990  1.00  0.00     0.211 HD
ENDBRANCH  25  33
ENDBRANCH  11  20
BRANCH  10  35
ATOM     35  O   UNL     1      10.051  14.125  -8.889  1.00  0.00    -0.507 OA
ATOM     36  H   UNL     1      10.609  14.911  -9.191  1.00  0.00     0.293 HD
ENDBRANCH  10  35
TORSDOF 9
ENDMDL
MODEL 4
REMARK VINA RESULT:    -4.340      7.865     11.774
REMARK INTER + INTRA:          -5.340
REMARK INTER:                  -5.476
REMARK INTRA:                   0.136
REMARK UNBOUND:                 0.523
REMARK SMILES O=c1c(-c2ccc(O)cc2)coc2c([C@@H]3O[C@@H](CO)[C@H](O)[C@@H](O)[C@@H]3O)c(O)ccc12
REMARK SMILES IDX 3 1 11 2 12 3 13 4 30 5 2 6 1 7 29 8 28 9 26 10 14 11 4 12
REMARK SMILES IDX 5 13 6 14 7 15 10 16 9 17 8 18 15 20 24 21 16 22 22 23 17 24
REMARK SMILES IDX 20 25 25 26 23 28 18 30 19 31 21 33 27 35
REMARK H PARENT 8 19 25 27 23 29 19 32 21 34 27 36
REMARK Flexibility Score: inf
ROOT
ATOM      1  C   UNL     1      11.266  11.852  -4.880  1.00  0.00     0.065 A 
ATOM      2  C   UNL     1      10.617  12.572  -5.892  1.00  0.00     0.208 A 
ATOM      3  O   UNL     1      10.502  12.071  -7.116  1.00  0.00    -0.463 OA
ATOM      4  C   UNL     1      10.980  10.880  -7.468  1.00  0.00     0.147 A 
ATOM      5  C   UNL     1      11.635  10.081  -6.502  1.00  0.00     0.066 A 
ATOM      6  C   UNL     1      11.775  10.580  -5.194  1.00  0.00     0.200 A 
ATOM      7  O   UNL     1      12.333   9.882  -4.302  1.00  0.00    -0.288 OA
ATOM      8  C   UNL     1      12.116   8.815  -6.861  1.00  0.00     0.020 A 
ATOM      9  C   UNL     1      11.922   8.331  -8.151  1.00  0.00     0.047 A 
ATOM     10  C   UNL     1      11.261   9.098  -9.114  1.00  0.00     0.125 A 
ATOM     11  C   UNL     1      10.824  10.414  -8.801  1.00  0.00     0.069 A 
ENDROOT
BRANCH   1  12
ATOM     12  C   UNL     1      11.393  12.437  -3.521  1.00  0.00    -0.011 A 
ATOM     13  C   UNL     1      10.383  13.272  -3.011  1.00  0.00     0.013 A 
ATOM     14  C   UNL     1      10.502  13.831  -1.735  1.00  0.00     0.047 A 
ATOM     15  C   UNL     1      11.636  13.567  -0.955  1.00  0.00     0.115 A 
ATOM     16  C   UNL     1      12.530  12.183  -2.733  1.00  0.00     0.013 A 
ATOM     17  C   UNL     1      12.647  12.744  -1.458  1.00  0.00     0.047 A 
BRANCH  15  18
ATOM     18  O   UNL     1      11.766  14.118   0.318  1.00  0.00    -0.508 OA
ATOM     19  H   UNL     1      12.624  14.568   0.615  1.00  0.00     0.293 HD
ENDBRANCH  15  18
ENDBRANCH   1  12
BRANCH  11  20
ATOM     20  C   UNL     1      10.153  11.288  -9.859  1.00  0.00     0.188 C 
ATOM     21  C   UNL     1       8.618  11.151  -9.765  1.00  0.00     0.179 C 
ATOM     22  O   UNL     1      10.558  12.641  -9.715  1.00  0.00    -0.362 OA
ATOM     23  C   UNL     1       7.951  12.008 -10.855  1.00  0.00     0.177 C 
ATOM     24  C   UNL     1      10.049  13.485 -10.740  1.00  0.00     0.176 C 
ATOM     25  C   UNL     1       8.496  13.448 -10.830  1.00  0.00     0.177 C 
BRANCH  21  26
ATOM     26  O   UNL     1       8.179  11.560  -8.494  1.00  0.00    -0.387 OA
ATOM     27  H   UNL     1       7.662  10.804  -8.111  1.00  0.00     0.211 HD
ENDBRANCH  21  26
BRANCH  23  28
ATOM     28  O   UNL     1       8.165  11.440 -12.122  1.00  0.00    -0.387 OA
ATOM     29  H   UNL     1       7.357  11.633 -12.666  1.00  0.00     0.211 HD
ENDBRANCH  23  28
BRANCH  24  30
ATOM     30  C   UNL     1      10.772  13.268 -12.088  1.00  0.00     0.191 C 
BRANCH  30  31
ATOM     31  O   UNL     1      12.087  13.756 -12.025  1.00  0.00    -0.394 OA
ATOM     32  H   UNL     1      12.686  12.967 -11.979  1.00  0.00     0.210 HD
ENDBRANCH  30  31
ENDBRANCH  24  30
BRANCH  25  33
ATOM     33  O   UNL     1       7.948  14.118  -9.722  1.00  0.00    -0.388 OA
ATOM     34  H   UNL     1       7.229  14.709 -10.068  1.00  0.00     0.211 HD
ENDBRANCH  25  33
ENDBRANCH  11  20
BRANCH  10  35
ATOM     35  O   UNL     1      11.049   8.503 -10.362  1.00  0.00    -0.507 OA
ATOM     36  H   UNL     1      11.700   8.548 -11.133  1.00  0.00     0.293 HD
ENDBRANCH  10  35
TORSDOF 9
ENDMDL
MODEL 5
REMARK VINA RESULT:    -3.882     16.483     17.721
REMARK INTER + INTRA:          -4.720
REMARK INTER:                  -6.952
REMARK INTRA:                   2.232
REMARK UNBOUND:                 0.523
REMARK SMILES O=c1c(-c2ccc(O)cc2)coc2c([C@@H]3O[C@@H](CO)[C@H](O)[C@@H](O)[C@@H]3O)c(O)ccc12
REMARK SMILES IDX 3 1 11 2 12 3 13 4 30 5 2 6 1 7 29 8 28 9 26 10 14 11 4 12
REMARK SMILES IDX 5 13 6 14 7 15 10 16 9 17 8 18 15 20 24 21 16 22 22 23 17 24
REMARK SMILES IDX 20 25 25 26 23 28 18 30 19 31 21 33 27 35
REMARK H PARENT 8 19 25 27 23 29 19 32 21 34 27 36
REMARK Flexibility Score: inf
ROOT
ATOM      1  C   UNL     1      -0.665  12.139   5.661  1.00  0.00     0.065 A 
ATOM      2  C   UNL     1      -1.126  10.919   6.171  1.00  0.00     0.208 A 
ATOM      3  O   UNL     1      -2.420  10.621   6.157  1.00  0.00    -0.463 OA
ATOM      4  C   UNL     1      -3.353  11.434   5.670  1.00  0.00     0.147 A 
ATOM      5  C   UNL     1      -2.971  12.680   5.119  1.00  0.00     0.066 A 
ATOM      6  C   UNL     1      -1.608  13.029   5.118  1.00  0.00     0.200 A 
ATOM      7  O   UNL     1      -1.231  14.124   4.613  1.00  0.00    -0.288 OA
ATOM      8  C   UNL     1      -3.947  13.529   4.580  1.00  0.00     0.020 A 
ATOM      9  C   UNL     1      -5.282  13.136   4.557  1.00  0.00     0.047 A 
ATOM     10  C   UNL     1      -5.677  11.901   5.078  1.00  0.00     0.125 A 
ATOM     11  C   UNL     1      -4.720  11.049   5.695  1.00  0.00     0.069 A 
ENDROOT
BRANCH   1  12
ATOM     12  C   UNL     1       0.786  12.456   5.696  1.00  0.00    -0.011 A 
ATOM     13  C   UNL     1       1.564  12.094   6.811  1.00  0.00     0.013 A 
ATOM     14  C   UNL     1       2.927  12.399   6.852  1.00  0.00     0.047 A 
ATOM     15  C   UNL     1       3.530  13.074   5.782  1.00  0.00     0.115 A 
ATOM     16  C   UNL     1       1.398  13.139   4.630  1.00  0.00     0.013 A 
ATOM     17  C   UNL     1       2.762  13.443   4.674  1.00  0.00     0.047 A 
BRANCH  15  18
ATOM     18  O   UNL     1       4.888  13.382   5.811  1.00  0.00    -0.508 OA
ATOM     19  H   UNL     1       5.282  14.098   5.211  1.00  0.00     0.293 HD
ENDBRANCH  15  18
ENDBRANCH   1  12
BRANCH  11  20
ATOM     20  C   UNL     1      -5.145   9.722   6.323  1.00  0.00     0.188 C 
ATOM     21  C   UNL     1      -6.632   9.443   6.019  1.00  0.00     0.179 C 
ATOM     22  O   UNL     1      -4.318   8.666   5.857  1.00  0.00    -0.362 OA
ATOM     23  C   UNL     1      -7.061   8.122   6.683  1.00  0.00     0.177 C 
ATOM     24  C   UNL     1      -4.597   7.422   6.489  1.00  0.00     0.176 C 
ATOM     25  C   UNL     1      -6.081   6.988   6.326  1.00  0.00     0.177 C 
BRANCH  21  26
ATOM     26  O   UNL     1      -6.831   9.372   4.630  1.00  0.00    -0.387 OA
ATOM     27  H   UNL     1      -6.291   8.606   4.300  1.00  0.00     0.211 HD
ENDBRANCH  21  26
BRANCH  23  28
ATOM     28  O   UNL     1      -7.125   8.275   8.078  1.00  0.00    -0.387 OA
ATOM     29  H   UNL     1      -6.662   7.492   8.475  1.00  0.00     0.211 HD
ENDBRANCH  23  28
BRANCH  24  30
ATOM     30  C   UNL     1      -4.073   7.375   7.941  1.00  0.00     0.191 C 
BRANCH  30  31
ATOM     31  O   UNL     1      -2.702   7.674   7.980  1.00  0.00    -0.394 OA
ATOM     32  H   UNL     1      -2.249   7.035   7.370  1.00  0.00     0.210 HD
ENDBRANCH  30  31
ENDBRANCH  24  30
BRANCH  25  33
ATOM     33  O   UNL     1      -6.311   6.597   4.995  1.00  0.00    -0.388 OA
ATOM     34  H   UNL     1      -5.833   5.737   4.860  1.00  0.00     0.211 HD
ENDBRANCH  25  33
ENDBRANCH  11  20
BRANCH  10  35
ATOM     35  O   UNL     1      -7.026  11.559   4.947  1.00  0.00    -0.507 OA
ATOM     36  H   UNL     1      -7.376  10.611   4.936  1.00  0.00     0.293 HD
ENDBRANCH  10  35
TORSDOF 9
ENDMDL
MODEL 6
REMARK VINA RESULT:    -3.874      1.636      2.265
REMARK INTER + INTRA:          -4.709
REMARK INTER:                  -5.067
REMARK INTRA:                   0.358
REMARK UNBOUND:                 0.523
REMARK SMILES O=c1c(-c2ccc(O)cc2)coc2c([C@@H]3O[C@@H](CO)[C@H](O)[C@@H](O)[C@@H]3O)c(O)ccc12
REMARK SMILES IDX 3 1 11 2 12 3 13 4 30 5 2 6 1 7 29 8 28 9 26 10 14 11 4 12
REMARK SMILES IDX 5 13 6 14 7 15 10 16 9 17 8 18 15 20 24 21 16 22 22 23 17 24
REMARK SMILES IDX 20 25 25 26 23 28 18 30 19 31 21 33 27 35
REMARK H PARENT 8 19 25 27 23 29 19 32 21 34 27 36
REMARK Flexibility Score: inf
ROOT
ATOM      1  C   UNL     1       5.610  11.971 -11.493  1.00  0.00     0.065 A 
ATOM      2  C   UNL     1       5.194  10.676 -11.158  1.00  0.00     0.208 A 
ATOM      3  O   UNL     1       3.905  10.390 -11.016  1.00  0.00    -0.463 OA
ATOM      4  C   UNL     1       2.935  11.287 -11.177  1.00  0.00     0.147 A 
ATOM      5  C   UNL     1       3.268  12.615 -11.532  1.00  0.00     0.066 A 
ATOM      6  C   UNL     1       4.624  12.953 -11.691  1.00  0.00     0.200 A 
ATOM      7  O   UNL     1       4.954  14.124 -12.030  1.00  0.00    -0.288 OA
ATOM      8  C   UNL     1       2.248  13.556 -11.729  1.00  0.00     0.020 A 
ATOM      9  C   UNL     1       0.914  13.180 -11.608  1.00  0.00     0.047 A 
ATOM     10  C   UNL     1       0.565  11.868 -11.276  1.00  0.00     0.125 A 
ATOM     11  C   UNL     1       1.577  10.908 -11.002  1.00  0.00     0.069 A 
ENDROOT
BRANCH   1  12
ATOM     12  C   UNL     1       7.058  12.269 -11.636  1.00  0.00    -0.011 A 
ATOM     13  C   UNL     1       7.485  13.564 -11.979  1.00  0.00     0.013 A 
ATOM     14  C   UNL     1       8.847  13.847 -12.123  1.00  0.00     0.047 A 
ATOM     15  C   UNL     1       9.799  12.836 -11.932  1.00  0.00     0.115 A 
ATOM     16  C   UNL     1       8.020  11.260 -11.453  1.00  0.00     0.013 A 
ATOM     17  C   UNL     1       9.381  11.545 -11.598  1.00  0.00     0.047 A 
BRANCH  15  18
ATOM     18  O   UNL     1      11.158  13.106 -12.072  1.00  0.00    -0.508 OA
ATOM     19  H   UNL     1      11.746  13.295 -11.268  1.00  0.00     0.293 HD
ENDBRANCH  15  18
ENDBRANCH   1  12
BRANCH  11  20
ATOM     20  C   UNL     1       1.212   9.486 -10.580  1.00  0.00     0.188 C 
ATOM     21  C   UNL     1       1.766   9.192  -9.170  1.00  0.00     0.179 C 
ATOM     22  O   UNL     1      -0.195   9.300 -10.629  1.00  0.00    -0.362 OA
ATOM     23  C   UNL     1       1.422   7.747  -8.765  1.00  0.00     0.177 C 
ATOM     24  C   UNL     1      -0.588   7.962 -10.349  1.00  0.00     0.176 C 
ATOM     25  C   UNL     1      -0.078   7.465  -8.967  1.00  0.00     0.177 C 
BRANCH  21  26
ATOM     26  O   UNL     1       1.217  10.095  -8.243  1.00  0.00    -0.387 OA
ATOM     27  H   UNL     1       0.870  10.866  -8.763  1.00  0.00     0.211 HD
ENDBRANCH  21  26
BRANCH  23  28
ATOM     28  O   UNL     1       2.183   6.836  -9.517  1.00  0.00    -0.387 OA
ATOM     29  H   UNL     1       3.130   6.955  -9.243  1.00  0.00     0.211 HD
ENDBRANCH  23  28
BRANCH  24  30
ATOM     30  C   UNL     1      -0.283   7.007 -11.524  1.00  0.00     0.191 C 
BRANCH  30  31
ATOM     31  O   UNL     1      -1.029   5.823 -11.403  1.00  0.00    -0.394 OA
ATOM     32  H   UNL     1      -1.740   5.997 -10.733  1.00  0.00     0.210 HD
ENDBRANCH  30  31
ENDBRANCH  24  30
BRANCH  25  33
ATOM     33  O   UNL     1      -0.799   8.107  -7.945  1.00  0.00    -0.388 OA
ATOM     34  H   UNL     1      -0.187   8.774  -7.535  1.00  0.00     0.211 HD
ENDBRANCH  25  33
ENDBRANCH  11  20
BRANCH  10  35
ATOM     35  O   UNL     1      -0.800  11.563 -11.247  1.00  0.00    -0.507 OA
ATOM     36  H   UNL     1      -1.359  11.372 -12.067  1.00  0.00     0.293 HD
ENDBRANCH  10  35
TORSDOF 9
ENDMDL
MODEL 7
REMARK VINA RESULT:    -3.825      4.805     10.813
REMARK INTER + INTRA:          -4.644
REMARK INTER:                  -4.010
REMARK INTRA:                  -0.634
REMARK UNBOUND:                 0.523
REMARK SMILES O=c1c(-c2ccc(O)cc2)coc2c([C@@H]3O[C@@H](CO)[C@H](O)[C@@H](O)[C@@H]3O)c(O)ccc12
REMARK SMILES IDX 3 1 11 2 12 3 13 4 30 5 2 6 1 7 29 8 28 9 26 10 14 11 4 12
REMARK SMILES IDX 5 13 6 14 7 15 10 16 9 17 8 18 15 20 24 21 16 22 22 23 17 24
REMARK SMILES IDX 20 25 25 26 23 28 18 30 19 31 21 33 27 35
REMARK H PARENT 8 19 25 27 23 29 19 32 21 34 27 36
REMARK Flexibility Score: inf
ROOT
ATOM      1  C   UNL     1       6.478  12.337 -10.098  1.00  0.00     0.065 A 
ATOM      2  C   UNL     1       7.027  12.687  -8.858  1.00  0.00     0.208 A 
ATOM      3  O   UNL     1       8.236  12.267  -8.506  1.00  0.00    -0.463 OA
ATOM      4  C   UNL     1       9.001  11.504  -9.282  1.00  0.00     0.147 A 
ATOM      5  C   UNL     1       8.529  11.119 -10.559  1.00  0.00     0.066 A 
ATOM      6  C   UNL     1       7.252  11.546 -10.965  1.00  0.00     0.200 A 
ATOM      7  O   UNL     1       6.810  11.239 -12.108  1.00  0.00    -0.288 OA
ATOM      8  C   UNL     1       9.342  10.338 -11.392  1.00  0.00     0.020 A 
ATOM      9  C   UNL     1      10.618   9.968 -10.979  1.00  0.00     0.047 A 
ATOM     10  C   UNL     1      11.109  10.355  -9.729  1.00  0.00     0.125 A 
ATOM     11  C   UNL     1      10.283  11.088  -8.834  1.00  0.00     0.069 A 
ENDROOT
BRANCH   1  12
ATOM     12  C   UNL     1       5.119  12.810 -10.466  1.00  0.00    -0.011 A 
ATOM     13  C   UNL     1       4.011  12.477  -9.666  1.00  0.00     0.013 A 
ATOM     14  C   UNL     1       2.729  12.912 -10.015  1.00  0.00     0.047 A 
ATOM     15  C   UNL     1       2.537  13.681 -11.171  1.00  0.00     0.115 A 
ATOM     16  C   UNL     1       4.916  13.576 -11.628  1.00  0.00     0.013 A 
ATOM     17  C   UNL     1       3.633  14.009 -11.974  1.00  0.00     0.047 A 
BRANCH  15  18
ATOM     18  O   UNL     1       1.265  14.121 -11.527  1.00  0.00    -0.508 OA
ATOM     19  H   UNL     1       0.751  14.778 -10.951  1.00  0.00     0.293 HD
ENDBRANCH  15  18
ENDBRANCH   1  12
BRANCH  11  20
ATOM     20  C   UNL     1      10.783  11.467  -7.441  1.00  0.00     0.188 C 
ATOM     21  C   UNL     1      10.096  10.589  -6.373  1.00  0.00     0.179 C 
ATOM     22  O   UNL     1      12.196  11.348  -7.373  1.00  0.00    -0.362 OA
ATOM     23  C   UNL     1      10.580  10.998  -4.971  1.00  0.00     0.177 C 
ATOM     24  C   UNL     1      12.731  11.790  -6.131  1.00  0.00     0.176 C 
ATOM     25  C   UNL     1      12.119  11.040  -4.914  1.00  0.00     0.177 C 
BRANCH  21  26
ATOM     26  O   UNL     1      10.389   9.234  -6.608  1.00  0.00    -0.387 OA
ATOM     27  H   UNL     1      10.063   8.728  -5.819  1.00  0.00     0.211 HD
ENDBRANCH  21  26
BRANCH  23  28
ATOM     28  O   UNL     1      10.057  12.254  -4.621  1.00  0.00    -0.387 OA
ATOM     29  H   UNL     1       9.499  12.120  -3.812  1.00  0.00     0.211 HD
ENDBRANCH  23  28
BRANCH  24  30
ATOM     30  C   UNL     1      12.716  13.330  -6.004  1.00  0.00     0.191 C 
BRANCH  30  31
ATOM     31  O   UNL     1      12.701  13.712  -4.653  1.00  0.00    -0.394 OA
ATOM     32  H   UNL     1      13.288  14.508  -4.571  1.00  0.00     0.210 HD
ENDBRANCH  30  31
ENDBRANCH  24  30
BRANCH  25  33
ATOM     33  O   UNL     1      12.604   9.720  -4.887  1.00  0.00    -0.388 OA
ATOM     34  H   UNL     1      13.330   9.693  -4.210  1.00  0.00     0.211 HD
ENDBRANCH  25  33
ENDBRANCH  11  20
BRANCH  10  35
ATOM     35  O   UNL     1      12.428  10.000  -9.428  1.00  0.00    -0.507 OA
ATOM     36  H   UNL     1      13.087  10.603  -8.955  1.00  0.00     0.293 HD
ENDBRANCH  10  35
TORSDOF 9
ENDMDL
