MODEL 1
REMARK VINA RESULT:    -8.391      0.000      0.000
REMARK INTER + INTRA:         -10.446
REMARK INTER:                 -10.108
REMARK INTRA:                  -0.338
REMARK UNBOUND:                -0.338
REMARK SMILES Oc1cc(O)c2cc(O)c(-c3ccc(O)c(O)c3)[o+]c2c1
REMARK SMILES IDX 10 1 19 2 20 3 21 4 2 5 3 6 4 7 6 8 7 9 8 10 11 11 12 12
REMARK SMILES IDX 13 13 14 14 18 15 16 16 15 17 17 19 9 21 1 23 5 25
REMARK H PARENT 15 18 17 20 9 22 1 24 5 26
REMARK Flexibility Score: inf
ROOT
ATOM      1  C   UNL     1     -30.829  16.785  57.344  1.00  0.00     0.402 A 
ATOM      2  O   UNL     1     -31.478  16.009  58.209  1.00  0.00    -0.202 OA
ATOM      3  C   UNL     1     -32.654  15.448  57.946  1.00  0.00     0.368 A 
ATOM      4  C   UNL     1     -33.257  14.648  58.919  1.00  0.00     0.162 A 
ATOM      5  C   UNL     1     -34.492  14.042  58.668  1.00  0.00     0.128 A 
ATOM      6  C   UNL     1     -35.126  14.239  57.439  1.00  0.00     0.093 A 
ATOM      7  C   UNL     1     -34.542  15.038  56.448  1.00  0.00     0.136 A 
ATOM      8  C   UNL     1     -33.289  15.656  56.699  1.00  0.00     0.125 A 
ATOM      9  C   UNL     1     -32.637  16.483  55.770  1.00  0.00     0.078 A 
ATOM     10  C   UNL     1     -31.406  17.062  56.091  1.00  0.00     0.223 A 
ENDROOT
BRANCH   1  11
ATOM     11  C   UNL     1     -29.519  17.344  57.751  1.00  0.00     0.087 A 
ATOM     12  C   UNL     1     -28.339  16.707  57.338  1.00  0.00     0.022 A 
ATOM     13  C   UNL     1     -27.092  17.228  57.693  1.00  0.00     0.051 A 
ATOM     14  C   UNL     1     -27.007  18.401  58.455  1.00  0.00     0.157 A 
ATOM     15  C   UNL     1     -29.431  18.532  58.499  1.00  0.00     0.068 A 
ATOM     16  C   UNL     1     -28.182  19.058  58.855  1.00  0.00     0.158 A 
BRANCH  14  17
ATOM     17  O   UNL     1     -25.762  18.917  58.810  1.00  0.00    -0.504 OA
ATOM     18  H   UNL     1     -24.963  18.314  58.970  1.00  0.00     0.293 HD
ENDBRANCH  14  17
BRANCH  16  19
ATOM     19  O   UNL     1     -28.132  20.235  59.602  1.00  0.00    -0.504 OA
ATOM     20  H   UNL     1     -28.924  20.861  59.672  1.00  0.00     0.293 HD
ENDBRANCH  16  19
ENDBRANCH   1  11
BRANCH  10  21
ATOM     21  O   UNL     1     -30.780  17.923  55.189  1.00  0.00    -0.500 OA
ATOM     22  H   UNL     1     -31.227  18.204  54.323  1.00  0.00     0.294 HD
ENDBRANCH  10  21
BRANCH   5  23
ATOM     23  O   UNL     1     -35.099  13.242  59.633  1.00  0.00    -0.507 OA
ATOM     24  H   UNL     1     -34.951  12.240  59.661  1.00  0.00     0.293 HD
ENDBRANCH   5  23
BRANCH   7  25
ATOM     25  O   UNL     1     -35.239  15.182  55.245  1.00  0.00    -0.507 OA
ATOM     26  H   UNL     1     -35.329  16.051  54.738  1.00  0.00     0.293 HD
ENDBRANCH   7  25
TORSDOF 6
ENDMDL
MODEL 2
REMARK VINA RESULT:    -8.307      2.478      3.252
REMARK INTER + INTRA:         -10.345
REMARK INTER:                 -10.076
REMARK INTRA:                  -0.269
REMARK UNBOUND:                -0.338
REMARK SMILES Oc1cc(O)c2cc(O)c(-c3ccc(O)c(O)c3)[o+]c2c1
REMARK SMILES IDX 10 1 19 2 20 3 21 4 2 5 3 6 4 7 6 8 7 9 8 10 11 11 12 12
REMARK SMILES IDX 13 13 14 14 18 15 16 16 15 17 17 19 9 21 1 23 5 25
REMARK H PARENT 15 18 17 20 9 22 1 24 5 26
REMARK Flexibility Score: inf
ROOT
ATOM      1  C   UNL     1     -31.383  17.277  57.017  1.00  0.00     0.402 A 
ATOM      2  O   UNL     1     -32.656  17.103  56.671  1.00  0.00    -0.202 OA
ATOM      3  C   UNL     1     -33.185  15.912  56.408  1.00  0.00     0.368 A 
ATOM      4  C   UNL     1     -34.534  15.832  56.054  1.00  0.00     0.162 A 
ATOM      5  C   UNL     1     -35.117  14.591  55.775  1.00  0.00     0.128 A 
ATOM      6  C   UNL     1     -34.347  13.428  55.851  1.00  0.00     0.093 A 
ATOM      7  C   UNL     1     -32.992  13.483  56.202  1.00  0.00     0.136 A 
ATOM      8  C   UNL     1     -32.396  14.740  56.484  1.00  0.00     0.125 A 
ATOM      9  C   UNL     1     -31.043  14.891  56.832  1.00  0.00     0.078 A 
ATOM     10  C   UNL     1     -30.525  16.164  57.090  1.00  0.00     0.223 A 
ENDROOT
BRANCH   1  11
ATOM     11  C   UNL     1     -30.915  18.654  57.296  1.00  0.00     0.087 A 
ATOM     12  C   UNL     1     -30.611  19.026  58.615  1.00  0.00     0.022 A 
ATOM     13  C   UNL     1     -30.148  20.313  58.899  1.00  0.00     0.051 A 
ATOM     14  C   UNL     1     -29.970  21.244  57.867  1.00  0.00     0.157 A 
ATOM     15  C   UNL     1     -30.715  19.583  56.260  1.00  0.00     0.068 A 
ATOM     16  C   UNL     1     -30.250  20.874  56.541  1.00  0.00     0.158 A 
BRANCH  14  17
ATOM     17  O   UNL     1     -29.511  22.528  58.152  1.00  0.00    -0.504 OA
ATOM     18  H   UNL     1     -29.167  22.776  59.073  1.00  0.00     0.293 HD
ENDBRANCH  14  17
BRANCH  16  19
ATOM     19  O   UNL     1     -30.069  21.772  55.488  1.00  0.00    -0.504 OA
ATOM     20  H   UNL     1     -29.461  21.567  54.705  1.00  0.00     0.293 HD
ENDBRANCH  16  19
ENDBRANCH   1  11
BRANCH  10  21
ATOM     21  O   UNL     1     -29.171  16.321  57.387  1.00  0.00    -0.500 OA
ATOM     22  H   UNL     1     -28.818  16.222  58.333  1.00  0.00     0.294 HD
ENDBRANCH  10  21
BRANCH   5  23
ATOM     23  O   UNL     1     -36.461  14.503  55.422  1.00  0.00    -0.507 OA
ATOM     24  H   UNL     1     -37.165  15.083  55.864  1.00  0.00     0.293 HD
ENDBRANCH   5  23
BRANCH   7  25
ATOM     25  O   UNL     1     -32.293  12.274  56.258  1.00  0.00    -0.507 OA
ATOM     26  H   UNL     1     -32.492  11.473  55.677  1.00  0.00     0.293 HD
ENDBRANCH   7  25
TORSDOF 6
ENDMDL
MODEL 3
REMARK VINA RESULT:    -8.221      2.478      3.322
REMARK INTER + INTRA:         -10.242
REMARK INTER:                  -9.917
REMARK INTRA:                  -0.325
REMARK UNBOUND:                -0.338
REMARK SMILES Oc1cc(O)c2cc(O)c(-c3ccc(O)c(O)c3)[o+]c2c1
REMARK SMILES IDX 10 1 19 2 20 3 21 4 2 5 3 6 4 7 6 8 7 9 8 10 11 11 12 12
REMARK SMILES IDX 13 13 14 14 18 15 16 16 15 17 17 19 9 21 1 23 5 25
REMARK H PARENT 15 18 17 20 9 22 1 24 5 26
REMARK Flexibility Score: inf
ROOT
ATOM      1  C   UNL     1     -30.910  16.735  56.561  1.00  0.00     0.402 A 
ATOM      2  O   UNL     1     -31.171  15.571  55.970  1.00  0.00    -0.202 OA
ATOM      3  C   UNL     1     -32.016  14.673  56.466  1.00  0.00     0.368 A 
ATOM      4  C   UNL     1     -32.225  13.480  55.770  1.00  0.00     0.162 A 
ATOM      5  C   UNL     1     -33.112  12.520  56.268  1.00  0.00     0.128 A 
ATOM      6  C   UNL     1     -33.790  12.755  57.466  1.00  0.00     0.093 A 
ATOM      7  C   UNL     1     -33.597  13.942  58.183  1.00  0.00     0.136 A 
ATOM      8  C   UNL     1     -32.696  14.919  57.683  1.00  0.00     0.125 A 
ATOM      9  C   UNL     1     -32.431  16.132  58.340  1.00  0.00     0.078 A 
ATOM     10  C   UNL     1     -31.526  17.044  57.788  1.00  0.00     0.223 A 
ENDROOT
BRANCH   1  11
ATOM     11  C   UNL     1     -29.956  17.656  55.903  1.00  0.00     0.087 A 
ATOM     12  C   UNL     1     -30.446  18.746  55.167  1.00  0.00     0.022 A 
ATOM     13  C   UNL     1     -29.564  19.641  54.554  1.00  0.00     0.051 A 
ATOM     14  C   UNL     1     -28.179  19.466  54.680  1.00  0.00     0.157 A 
ATOM     15  C   UNL     1     -28.566  17.495  56.045  1.00  0.00     0.068 A 
ATOM     16  C   UNL     1     -27.679  18.391  55.433  1.00  0.00     0.158 A 
BRANCH  14  17
ATOM     17  O   UNL     1     -27.302  20.357  54.066  1.00  0.00    -0.504 OA
ATOM     18  H   UNL     1     -26.802  20.112  53.219  1.00  0.00     0.293 HD
ENDBRANCH  14  17
BRANCH  16  19
ATOM     19  O   UNL     1     -26.306  18.198  55.590  1.00  0.00    -0.504 OA
ATOM     20  H   UNL     1     -25.631  18.909  55.338  1.00  0.00     0.293 HD
ENDBRANCH  16  19
ENDBRANCH   1  11
BRANCH  10  21
ATOM     21  O   UNL     1     -31.224  18.226  58.464  1.00  0.00    -0.500 OA
ATOM     22  H   UNL     1     -30.289  18.422  58.804  1.00  0.00     0.294 HD
ENDBRANCH  10  21
BRANCH   5  23
ATOM     23  O   UNL     1     -33.325  11.328  55.580  1.00  0.00    -0.507 OA
ATOM     24  H   UNL     1     -33.054  10.434  55.970  1.00  0.00     0.293 HD
ENDBRANCH   5  23
BRANCH   7  25
ATOM     25  O   UNL     1     -34.316  14.101  59.370  1.00  0.00    -0.507 OA
ATOM     26  H   UNL     1     -34.122  13.602  60.226  1.00  0.00     0.293 HD
ENDBRANCH   7  25
TORSDOF 6
ENDMDL
MODEL 4
REMARK VINA RESULT:    -8.140      2.519      7.214
REMARK INTER + INTRA:         -10.144
REMARK INTER:                  -9.830
REMARK INTRA:                  -0.314
REMARK UNBOUND:                -0.338
REMARK SMILES Oc1cc(O)c2cc(O)c(-c3ccc(O)c(O)c3)[o+]c2c1
REMARK SMILES IDX 10 1 19 2 20 3 21 4 2 5 3 6 4 7 6 8 7 9 8 10 11 11 12 12
REMARK SMILES IDX 13 13 14 14 18 15 16 16 15 17 17 19 9 21 1 23 5 25
REMARK H PARENT 15 18 17 20 9 22 1 24 5 26
REMARK Flexibility Score: inf
ROOT
ATOM      1  C   UNL     1     -31.375  16.499  56.565  1.00  0.00     0.402 A 
ATOM      2  O   UNL     1     -30.574  17.033  55.646  1.00  0.00    -0.202 OA
ATOM      3  C   UNL     1     -29.862  18.136  55.850  1.00  0.00     0.368 A 
ATOM      4  C   UNL     1     -29.047  18.619  54.823  1.00  0.00     0.162 A 
ATOM      5  C   UNL     1     -28.284  19.776  55.013  1.00  0.00     0.128 A 
ATOM      6  C   UNL     1     -28.338  20.452  56.233  1.00  0.00     0.093 A 
ATOM      7  C   UNL     1     -29.148  19.989  57.278  1.00  0.00     0.136 A 
ATOM      8  C   UNL     1     -29.926  18.816  57.090  1.00  0.00     0.125 A 
ATOM      9  C   UNL     1     -30.775  18.287  58.076  1.00  0.00     0.078 A 
ATOM     10  C   UNL     1     -31.514  17.130  57.815  1.00  0.00     0.223 A 
ENDROOT
BRANCH   1  11
ATOM     11  C   UNL     1     -32.109  15.260  56.220  1.00  0.00     0.087 A 
ATOM     12  C   UNL     1     -33.450  15.342  55.816  1.00  0.00     0.022 A 
ATOM     13  C   UNL     1     -34.156  14.188  55.467  1.00  0.00     0.051 A 
ATOM     14  C   UNL     1     -33.527  12.936  55.502  1.00  0.00     0.157 A 
ATOM     15  C   UNL     1     -31.474  14.005  56.235  1.00  0.00     0.068 A 
ATOM     16  C   UNL     1     -32.178  12.847  55.883  1.00  0.00     0.158 A 
BRANCH  14  17
ATOM     17  O   UNL     1     -34.233  11.787  55.156  1.00  0.00    -0.504 OA
ATOM     18  H   UNL     1     -34.588  11.149  55.860  1.00  0.00     0.293 HD
ENDBRANCH  14  17
BRANCH  16  19
ATOM     19  O   UNL     1     -31.518  11.618  55.915  1.00  0.00    -0.504 OA
ATOM     20  H   UNL     1     -30.567  11.510  55.586  1.00  0.00     0.293 HD
ENDBRANCH  16  19
ENDBRANCH   1  11
BRANCH  10  21
ATOM     21  O   UNL     1     -32.395  16.631  58.775  1.00  0.00    -0.500 OA
ATOM     22  H   UNL     1     -32.075  16.048  59.541  1.00  0.00     0.294 HD
ENDBRANCH  10  21
BRANCH   5  23
ATOM     23  O   UNL     1     -27.470  20.262  53.993  1.00  0.00    -0.507 OA
ATOM     24  H   UNL     1     -26.471  20.092  53.985  1.00  0.00     0.293 HD
ENDBRANCH   5  23
BRANCH   7  25
ATOM     25  O   UNL     1     -29.144  20.721  58.469  1.00  0.00    -0.507 OA
ATOM     26  H   UNL     1     -28.357  20.781  59.098  1.00  0.00     0.293 HD
ENDBRANCH   7  25
TORSDOF 6
ENDMDL
MODEL 5
REMARK VINA RESULT:    -8.088      1.692      1.818
REMARK INTER + INTRA:         -10.082
REMARK INTER:                 -10.106
REMARK INTRA:                   0.025
REMARK UNBOUND:                -0.338
REMARK SMILES Oc1cc(O)c2cc(O)c(-c3ccc(O)c(O)c3)[o+]c2c1
REMARK SMILES IDX 10 1 19 2 20 3 21 4 2 5 3 6 4 7 6 8 7 9 8 10 11 11 12 12
REMARK SMILES IDX 13 13 14 14 18 15 16 16 15 17 17 19 9 21 1 23 5 25
REMARK H PARENT 15 18 17 20 9 22 1 24 5 26
REMARK Flexibility Score: inf
ROOT
ATOM      1  C   UNL     1     -30.564  16.514  57.186  1.00  0.00     0.402 A 
ATOM      2  O   UNL     1     -30.692  15.208  56.966  1.00  0.00    -0.202 OA
ATOM      3  C   UNL     1     -31.817  14.647  56.535  1.00  0.00     0.368 A 
ATOM      4  C   UNL     1     -31.853  13.266  56.332  1.00  0.00     0.162 A 
ATOM      5  C   UNL     1     -33.024  12.651  55.876  1.00  0.00     0.128 A 
ATOM      6  C   UNL     1     -34.161  13.420  55.623  1.00  0.00     0.093 A 
ATOM      7  C   UNL     1     -34.151  14.807  55.821  1.00  0.00     0.136 A 
ATOM      8  C   UNL     1     -32.966  15.436  56.285  1.00  0.00     0.125 A 
ATOM      9  C   UNL     1     -32.868  16.817  56.523  1.00  0.00     0.078 A 
ATOM     10  C   UNL     1     -31.668  17.364  56.986  1.00  0.00     0.223 A 
ENDROOT
BRANCH   1  11
ATOM     11  C   UNL     1     -29.253  17.020  57.656  1.00  0.00     0.087 A 
ATOM     12  C   UNL     1     -28.086  16.650  56.971  1.00  0.00     0.022 A 
ATOM     13  C   UNL     1     -26.840  17.131  57.384  1.00  0.00     0.051 A 
ATOM     14  C   UNL     1     -26.746  18.000  58.479  1.00  0.00     0.157 A 
ATOM     15  C   UNL     1     -29.158  17.909  58.741  1.00  0.00     0.068 A 
ATOM     16  C   UNL     1     -27.912  18.395  59.157  1.00  0.00     0.158 A 
BRANCH  14  17
ATOM     17  O   UNL     1     -25.503  18.477  58.891  1.00  0.00    -0.504 OA
ATOM     18  H   UNL     1     -25.314  19.470  58.966  1.00  0.00     0.293 HD
ENDBRANCH  14  17
BRANCH  16  19
ATOM     19  O   UNL     1     -27.854  19.270  60.242  1.00  0.00    -0.504 OA
ATOM     20  H   UNL     1     -28.624  19.883  60.479  1.00  0.00     0.293 HD
ENDBRANCH  16  19
ENDBRANCH   1  11
BRANCH  10  21
ATOM     21  O   UNL     1     -31.583  18.727  57.270  1.00  0.00    -0.500 OA
ATOM     22  H   UNL     1     -31.648  19.079  58.219  1.00  0.00     0.294 HD
ENDBRANCH  10  21
BRANCH   5  23
ATOM     23  O   UNL     1     -33.067  11.274  55.671  1.00  0.00    -0.507 OA
ATOM     24  H   UNL     1     -32.961  10.871  54.747  1.00  0.00     0.293 HD
ENDBRANCH   5  23
BRANCH   7  25
ATOM     25  O   UNL     1     -35.329  15.505  55.542  1.00  0.00    -0.507 OA
ATOM     26  H   UNL     1     -35.890  15.977  56.236  1.00  0.00     0.293 HD
ENDBRANCH   7  25
TORSDOF 6
ENDMDL
MODEL 6
REMARK VINA RESULT:    -7.987      1.715      7.020
REMARK INTER + INTRA:          -9.959
REMARK INTER:                  -9.622
REMARK INTRA:                  -0.337
REMARK UNBOUND:                -0.338
REMARK SMILES Oc1cc(O)c2cc(O)c(-c3ccc(O)c(O)c3)[o+]c2c1
REMARK SMILES IDX 10 1 19 2 20 3 21 4 2 5 3 6 4 7 6 8 7 9 8 10 11 11 12 12
REMARK SMILES IDX 13 13 14 14 18 15 16 16 15 17 17 19 9 21 1 23 5 25
REMARK H PARENT 15 18 17 20 9 22 1 24 5 26
REMARK Flexibility Score: inf
ROOT
ATOM      1  C   UNL     1     -31.435  16.872  57.254  1.00  0.00     0.402 A 
ATOM      2  O   UNL     1     -31.547  18.167  57.538  1.00  0.00    -0.202 OA
ATOM      3  C   UNL     1     -30.515  19.003  57.554  1.00  0.00     0.368 A 
ATOM      4  C   UNL     1     -30.734  20.348  57.863  1.00  0.00     0.162 A 
ATOM      5  C   UNL     1     -29.665  21.250  57.883  1.00  0.00     0.128 A 
ATOM      6  C   UNL     1     -28.374  20.804  57.595  1.00  0.00     0.093 A 
ATOM      7  C   UNL     1     -28.128  19.461  57.284  1.00  0.00     0.136 A 
ATOM      8  C   UNL     1     -29.209  18.541  57.263  1.00  0.00     0.125 A 
ATOM      9  C   UNL     1     -29.054  17.175  56.975  1.00  0.00     0.078 A 
ATOM     10  C   UNL     1     -30.166  16.328  56.979  1.00  0.00     0.223 A 
ENDROOT
BRANCH   1  11
ATOM     11  C   UNL     1     -32.664  16.045  57.258  1.00  0.00     0.087 A 
ATOM     12  C   UNL     1     -33.440  15.957  56.093  1.00  0.00     0.022 A 
ATOM     13  C   UNL     1     -34.592  15.167  56.067  1.00  0.00     0.051 A 
ATOM     14  C   UNL     1     -34.977  14.441  57.202  1.00  0.00     0.157 A 
ATOM     15  C   UNL     1     -33.041  15.299  58.390  1.00  0.00     0.068 A 
ATOM     16  C   UNL     1     -34.194  14.505  58.367  1.00  0.00     0.158 A 
BRANCH  14  17
ATOM     17  O   UNL     1     -36.128  13.656  57.176  1.00  0.00    -0.504 OA
ATOM     18  H   UNL     1     -37.049  14.059  57.304  1.00  0.00     0.293 HD
ENDBRANCH  14  17
BRANCH  16  19
ATOM     19  O   UNL     1     -34.542  13.783  59.510  1.00  0.00    -0.504 OA
ATOM     20  H   UNL     1     -34.134  13.982  60.415  1.00  0.00     0.293 HD
ENDBRANCH  16  19
ENDBRANCH   1  11
BRANCH  10  21
ATOM     21  O   UNL     1     -30.008  14.963  56.741  1.00  0.00    -0.500 OA
ATOM     22  H   UNL     1     -30.769  14.306  56.876  1.00  0.00     0.294 HD
ENDBRANCH  10  21
BRANCH   5  23
ATOM     23  O   UNL     1     -29.877  22.592  58.190  1.00  0.00    -0.507 OA
ATOM     24  H   UNL     1     -30.309  23.226  57.528  1.00  0.00     0.293 HD
ENDBRANCH   5  23
BRANCH   7  25
ATOM     25  O   UNL     1     -26.808  19.097  57.004  1.00  0.00    -0.507 OA
ATOM     26  H   UNL     1     -26.300  19.380  56.178  1.00  0.00     0.293 HD
ENDBRANCH   7  25
TORSDOF 6
ENDMDL
MODEL 7
REMARK VINA RESULT:    -7.900      1.635      6.676
REMARK INTER + INTRA:          -9.855
REMARK INTER:                  -9.525
REMARK INTRA:                  -0.330
REMARK UNBOUND:                -0.338
REMARK SMILES Oc1cc(O)c2cc(O)c(-c3ccc(O)c(O)c3)[o+]c2c1
REMARK SMILES IDX 10 1 19 2 20 3 21 4 2 5 3 6 4 7 6 8 7 9 8 10 11 11 12 12
REMARK SMILES IDX 13 13 14 14 18 15 16 16 15 17 17 19 9 21 1 23 5 25
REMARK H PARENT 15 18 17 20 9 22 1 24 5 26
REMARK Flexibility Score: inf
ROOT
ATOM      1  C   UNL     1     -31.082  16.355  57.070  1.00  0.00     0.402 A 
ATOM      2  O   UNL     1     -29.960  16.511  57.769  1.00  0.00    -0.202 OA
ATOM      3  C   UNL     1     -29.106  17.510  57.567  1.00  0.00     0.368 A 
ATOM      4  C   UNL     1     -27.955  17.589  58.353  1.00  0.00     0.162 A 
ATOM      5  C   UNL     1     -27.042  18.632  58.163  1.00  0.00     0.128 A 
ATOM      6  C   UNL     1     -27.283  19.597  57.183  1.00  0.00     0.093 A 
ATOM      7  C   UNL     1     -28.429  19.539  56.381  1.00  0.00     0.136 A 
ATOM      8  C   UNL     1     -29.357  18.481  56.568  1.00  0.00     0.125 A 
ATOM      9  C   UNL     1     -30.526  18.336  55.802  1.00  0.00     0.078 A 
ATOM     10  C   UNL     1     -31.391  17.264  56.042  1.00  0.00     0.223 A 
ENDROOT
BRANCH   1  11
ATOM     11  C   UNL     1     -31.957  15.206  57.398  1.00  0.00     0.087 A 
ATOM     12  C   UNL     1     -31.844  14.020  56.657  1.00  0.00     0.022 A 
ATOM     13  C   UNL     1     -32.645  12.916  56.961  1.00  0.00     0.051 A 
ATOM     14  C   UNL     1     -33.561  12.978  58.020  1.00  0.00     0.157 A 
ATOM     15  C   UNL     1     -32.862  15.259  58.473  1.00  0.00     0.068 A 
ATOM     16  C   UNL     1     -33.665  14.154  58.782  1.00  0.00     0.158 A 
BRANCH  14  17
ATOM     17  O   UNL     1     -34.361  11.877  58.321  1.00  0.00    -0.504 OA
ATOM     18  H   UNL     1     -35.287  11.987  58.718  1.00  0.00     0.293 HD
ENDBRANCH  14  17
BRANCH  16  19
ATOM     19  O   UNL     1     -34.557  14.243  59.851  1.00  0.00    -0.504 OA
ATOM     20  H   UNL     1     -34.355  14.797  60.674  1.00  0.00     0.293 HD
ENDBRANCH  16  19
ENDBRANCH   1  11
BRANCH  10  21
ATOM     21  O   UNL     1     -32.526  17.091  55.249  1.00  0.00    -0.500 OA
ATOM     22  H   UNL     1     -32.491  16.583  54.372  1.00  0.00     0.294 HD
ENDBRANCH  10  21
BRANCH   5  23
ATOM     23  O   UNL     1     -25.892  18.718  58.945  1.00  0.00    -0.507 OA
ATOM     24  H   UNL     1     -25.851  19.310  59.765  1.00  0.00     0.293 HD
ENDBRANCH   5  23
BRANCH   7  25
ATOM     25  O   UNL     1     -28.597  20.544  55.425  1.00  0.00    -0.507 OA
ATOM     26  H   UNL     1     -27.979  20.696  54.642  1.00  0.00     0.293 HD
ENDBRANCH   7  25
TORSDOF 6
ENDMDL
MODEL 8
REMARK VINA RESULT:    -7.661      1.626      2.524
REMARK INTER + INTRA:          -9.567
REMARK INTER:                  -9.225
REMARK INTRA:                  -0.342
REMARK UNBOUND:                -0.338
REMARK SMILES Oc1cc(O)c2cc(O)c(-c3ccc(O)c(O)c3)[o+]c2c1
REMARK SMILES IDX 10 1 19 2 20 3 21 4 2 5 3 6 4 7 6 8 7 9 8 10 11 11 12 12
REMARK SMILES IDX 13 13 14 14 18 15 16 16 15 17 17 19 9 21 1 23 5 25
REMARK H PARENT 15 18 17 20 9 22 1 24 5 26
REMARK Flexibility Score: inf
ROOT
ATOM      1  C   UNL     1     -32.734  16.039  57.174  1.00  0.00     0.402 A 
ATOM      2  O   UNL     1     -33.190  15.319  58.196  1.00  0.00    -0.202 OA
ATOM      3  C   UNL     1     -34.313  14.610  58.146  1.00  0.00     0.368 A 
ATOM      4  C   UNL     1     -34.709  13.884  59.272  1.00  0.00     0.162 A 
ATOM      5  C   UNL     1     -35.884  13.126  59.245  1.00  0.00     0.128 A 
ATOM      6  C   UNL     1     -36.664  13.094  58.087  1.00  0.00     0.093 A 
ATOM      7  C   UNL     1     -36.289  13.814  56.946  1.00  0.00     0.136 A 
ATOM      8  C   UNL     1     -35.099  14.586  56.969  1.00  0.00     0.125 A 
ATOM      9  C   UNL     1     -34.652  15.348  55.877  1.00  0.00     0.078 A 
ATOM     10  C   UNL     1     -33.471  16.089  55.976  1.00  0.00     0.223 A 
ENDROOT
BRANCH   1  11
ATOM     11  C   UNL     1     -31.463  16.780  57.351  1.00  0.00     0.087 A 
ATOM     12  C   UNL     1     -31.497  18.113  57.787  1.00  0.00     0.022 A 
ATOM     13  C   UNL     1     -30.311  18.825  57.980  1.00  0.00     0.051 A 
ATOM     14  C   UNL     1     -29.072  18.210  57.754  1.00  0.00     0.157 A 
ATOM     15  C   UNL     1     -30.219  16.158  57.145  1.00  0.00     0.068 A 
ATOM     16  C   UNL     1     -29.027  16.869  57.339  1.00  0.00     0.158 A 
BRANCH  14  17
ATOM     17  O   UNL     1     -27.890  18.922  57.944  1.00  0.00    -0.504 OA
ATOM     18  H   UNL     1     -27.104  18.826  57.311  1.00  0.00     0.293 HD
ENDBRANCH  14  17
BRANCH  16  19
ATOM     19  O   UNL     1     -27.811  16.222  57.119  1.00  0.00    -0.504 OA
ATOM     20  H   UNL     1     -27.364  16.213  56.210  1.00  0.00     0.293 HD
ENDBRANCH  16  19
ENDBRANCH   1  11
BRANCH  10  21
ATOM     21  O   UNL     1     -33.052  16.886  54.910  1.00  0.00    -0.500 OA
ATOM     22  H   UNL     1     -33.142  16.578  53.948  1.00  0.00     0.294 HD
ENDBRANCH  10  21
BRANCH   5  23
ATOM     23  O   UNL     1     -36.285  12.400  60.364  1.00  0.00    -0.507 OA
ATOM     24  H   UNL     1     -35.675  11.719  60.801  1.00  0.00     0.293 HD
ENDBRANCH   5  23
BRANCH   7  25
ATOM     25  O   UNL     1     -37.123  13.727  55.827  1.00  0.00    -0.507 OA
ATOM     26  H   UNL     1     -36.974  14.229  54.965  1.00  0.00     0.293 HD
ENDBRANCH   7  25
TORSDOF 6
ENDMDL
MODEL 9
REMARK VINA RESULT:    -7.598      0.595      1.483
REMARK INTER + INTRA:          -9.491
REMARK INTER:                  -9.138
REMARK INTRA:                  -0.353
REMARK UNBOUND:                -0.338
REMARK SMILES Oc1cc(O)c2cc(O)c(-c3ccc(O)c(O)c3)[o+]c2c1
REMARK SMILES IDX 10 1 19 2 20 3 21 4 2 5 3 6 4 7 6 8 7 9 8 10 11 11 12 12
REMARK SMILES IDX 13 13 14 14 18 15 16 16 15 17 17 19 9 21 1 23 5 25
REMARK H PARENT 15 18 17 20 9 22 1 24 5 26
REMARK Flexibility Score: inf
ROOT
ATOM      1  C   UNL     1     -30.822  16.849  57.338  1.00  0.00     0.402 A 
ATOM      2  O   UNL     1     -31.452  16.078  58.221  1.00  0.00    -0.202 OA
ATOM      3  C   UNL     1     -32.628  15.506  57.984  1.00  0.00     0.368 A 
ATOM      4  C   UNL     1     -33.209  14.711  58.974  1.00  0.00     0.162 A 
ATOM      5  C   UNL     1     -34.444  14.095  58.749  1.00  0.00     0.128 A 
ATOM      6  C   UNL     1     -35.100  14.276  57.530  1.00  0.00     0.093 A 
ATOM      7  C   UNL     1     -34.539  15.069  56.521  1.00  0.00     0.136 A 
ATOM      8  C   UNL     1     -33.286  15.698  56.746  1.00  0.00     0.125 A 
ATOM      9  C   UNL     1     -32.655  16.521  55.797  1.00  0.00     0.078 A 
ATOM     10  C   UNL     1     -31.423  17.111  56.092  1.00  0.00     0.223 A 
ENDROOT
BRANCH   1  11
ATOM     11  C   UNL     1     -29.510  17.421  57.717  1.00  0.00     0.087 A 
ATOM     12  C   UNL     1     -29.464  18.628  58.432  1.00  0.00     0.022 A 
ATOM     13  C   UNL     1     -28.238  19.176  58.818  1.00  0.00     0.051 A 
ATOM     14  C   UNL     1     -27.040  18.517  58.507  1.00  0.00     0.157 A 
ATOM     15  C   UNL     1     -28.308  16.752  57.425  1.00  0.00     0.068 A 
ATOM     16  C   UNL     1     -27.077  17.297  57.812  1.00  0.00     0.158 A 
BRANCH  14  17
ATOM     17  O   UNL     1     -25.819  19.067  58.891  1.00  0.00    -0.504 OA
ATOM     18  H   UNL     1     -25.767  19.936  59.410  1.00  0.00     0.293 HD
ENDBRANCH  14  17
BRANCH  16  19
ATOM     19  O   UNL     1     -25.904  16.610  57.500  1.00  0.00    -0.504 OA
ATOM     20  H   UNL     1     -25.644  15.751  57.969  1.00  0.00     0.293 HD
ENDBRANCH  16  19
ENDBRANCH   1  11
BRANCH  10  21
ATOM     21  O   UNL     1     -30.819  17.968  55.172  1.00  0.00    -0.500 OA
ATOM     22  H   UNL     1     -31.307  18.290  54.343  1.00  0.00     0.294 HD
ENDBRANCH  10  21
BRANCH   5  23
ATOM     23  O   UNL     1     -35.029  13.300  59.732  1.00  0.00    -0.507 OA
ATOM     24  H   UNL     1     -34.479  12.880  60.472  1.00  0.00     0.293 HD
ENDBRANCH   5  23
BRANCH   7  25
ATOM     25  O   UNL     1     -35.257  15.197  55.329  1.00  0.00    -0.507 OA
ATOM     26  H   UNL     1     -34.931  15.702  54.518  1.00  0.00     0.293 HD
ENDBRANCH   7  25
TORSDOF 6
ENDMDL
