MODEL 1
REMARK VINA RESULT:    -2.211      0.000      0.000
REMARK INTER + INTRA:          -3.685
REMARK INTER:                  -3.374
REMARK INTRA:                  -0.311
REMARK UNBOUND:                -0.311
REMARK SMILES CC1=CCC[C@@H](C)C(=O)C[C@H](C(C)C)C(=O)C1
REMARK SMILES IDX 8 1 9 2 6 3 7 4 5 5 4 6 3 7 2 8 1 9 10 11 11 12 15 13 16 14
REMARK SMILES IDX 17 15 12 17 13 18 14 19
REMARK H PARENT
REMARK Flexibility Score: 70.00
ROOT
ATOM      1  C   UNL     1      70.399  -6.375  51.285  1.00  0.00     0.136 C 
ATOM      2  O   UNL     1      69.851  -5.824  50.344  1.00  0.00    -0.299 OA
ENDROOT
BRANCH   1   3
ATOM      3  C   UNL     1      71.700  -7.121  51.032  1.00  0.00     0.053 C 
ATOM      4  C   UNL     1      72.812  -6.162  50.588  1.00  0.00     0.016 C 
BRANCH   3   5
ATOM      5  C   UNL     1      71.511  -8.265  50.014  1.00  0.00     0.015 C 
BRANCH   5   6
ATOM      6  C   UNL     1      71.515  -9.636  50.712  1.00  0.00     0.028 C 
BRANCH   6   7
ATOM      7  C   UNL     1      72.451  -9.725  51.890  1.00  0.00    -0.028 C 
ATOM      8  C   UNL     1      72.113  -9.637  53.203  1.00  0.00    -0.070 CG0
ATOM      9  C   UNL     1      73.245  -9.582  54.199  1.00  0.00     0.039 C 
ATOM     10  G   UNL     1      70.687  -9.712  53.745  1.00  0.00     0.000 G0
ENDBRANCH   6   7
ENDBRANCH   5   6
ENDBRANCH   3   5
ENDBRANCH   1   3
BRANCH   1  11
ATOM     11  C   UNL     1      69.753  -6.325  52.657  1.00  0.00     0.087 C 
BRANCH  11  12
ATOM     12  C   UNL     1      69.160  -7.665  53.179  1.00  0.00     0.066 C 
BRANCH  12  13
ATOM     13  C   UNL     1      70.070  -8.394  54.161  1.00  0.00     0.140 C 
ATOM     14  O   UNL     1      70.218  -7.979  55.301  1.00  0.00    -0.299 OA
BRANCH  13  15
ATOM     15  C   UNL     1      70.687  -9.711  53.754  1.00  0.00     0.106 CG0
ATOM     16  G   UNL     1      72.109  -9.641  53.201  1.00  0.00     0.000 G0
ENDBRANCH  13  15
ENDBRANCH  12  13
BRANCH  12  17
ATOM     17  C   UNL     1      67.656  -7.586  53.595  1.00  0.00    -0.006 C 
ATOM     18  C   UNL     1      66.861  -8.885  53.391  1.00  0.00     0.008 C 
ATOM     19  C   UNL     1      66.938  -6.406  52.917  1.00  0.00     0.008 C 
ENDBRANCH  12  17
ENDBRANCH  11  12
ENDBRANCH   1  11
TORSDOF 1
ENDMDL
MODEL 2
REMARK VINA RESULT:    -2.119     17.420     19.125
REMARK INTER + INTRA:          -3.546
REMARK INTER:                  -3.133
REMARK INTRA:                  -0.412
REMARK UNBOUND:                -0.311
REMARK SMILES CC1=CCC[C@@H](C)C(=O)C[C@H](C(C)C)C(=O)C1
REMARK SMILES IDX 8 1 9 2 6 3 7 4 5 5 4 6 3 7 2 8 1 9 10 11 11 12 15 13 16 14
REMARK SMILES IDX 17 15 12 17 13 18 14 19
REMARK H PARENT
REMARK Flexibility Score: 70.00
ROOT
ATOM      1  C   UNL     1      79.988  -0.036  64.173  1.00  0.00     0.136 C 
ATOM      2  O   UNL     1      80.797  -0.216  63.276  1.00  0.00    -0.299 OA
ENDROOT
BRANCH   1   3
ATOM      3  C   UNL     1      79.128   1.218  64.134  1.00  0.00     0.053 C 
ATOM      4  C   UNL     1      78.284   1.271  62.854  1.00  0.00     0.016 C 
BRANCH   3   5
ATOM      5  C   UNL     1      79.977   2.496  64.295  1.00  0.00     0.015 C 
BRANCH   5   6
ATOM      6  C   UNL     1      79.965   2.990  65.753  1.00  0.00     0.028 C 
BRANCH   6   7
ATOM      7  C   UNL     1      78.608   2.939  66.409  1.00  0.00    -0.028 C 
ATOM      8  C   UNL     1      78.207   2.072  67.374  1.00  0.00    -0.070 CG0
ATOM      9  C   UNL     1      76.746   2.101  67.756  1.00  0.00     0.039 C 
ATOM     10  G   UNL     1      79.137   1.166  68.177  1.00  0.00     0.000 G0
ENDBRANCH   6   7
ENDBRANCH   5   6
ENDBRANCH   3   5
ENDBRANCH   1   3
BRANCH   1  11
ATOM     11  C   UNL     1      79.894  -1.043  65.304  1.00  0.00     0.087 C 
BRANCH  11  12
ATOM     12  C   UNL     1      80.413  -0.560  66.689  1.00  0.00     0.066 C 
BRANCH  12  13
ATOM     13  C   UNL     1      79.301  -0.246  67.683  1.00  0.00     0.140 C 
ATOM     14  O   UNL     1      78.608  -1.138  68.148  1.00  0.00    -0.299 OA
BRANCH  13  15
ATOM     15  C   UNL     1      79.146   1.168  68.190  1.00  0.00     0.106 CG0
ATOM     16  G   UNL     1      78.201   2.065  67.393  1.00  0.00     0.000 G0
ENDBRANCH  13  15
ENDBRANCH  12  13
BRANCH  12  17
ATOM     17  C   UNL     1      81.601  -1.401  67.261  1.00  0.00    -0.006 C 
ATOM     18  C   UNL     1      82.247  -0.823  68.529  1.00  0.00     0.008 C 
ATOM     19  C   UNL     1      82.671  -1.676  66.191  1.00  0.00     0.008 C 
ENDBRANCH  12  17
ENDBRANCH  11  12
ENDBRANCH   1  11
TORSDOF 1
ENDMDL
MODEL 3
REMARK VINA RESULT:    -1.979     18.208     20.054
REMARK INTER + INTRA:          -3.332
REMARK INTER:                  -2.953
REMARK INTRA:                  -0.379
REMARK UNBOUND:                -0.311
REMARK SMILES CC1=CCC[C@@H](C)C(=O)C[C@H](C(C)C)C(=O)C1
REMARK SMILES IDX 8 1 9 2 6 3 7 4 5 5 4 6 3 7 2 8 1 9 10 11 11 12 15 13 16 14
REMARK SMILES IDX 17 15 12 17 13 18 14 19
REMARK H PARENT
REMARK Flexibility Score: 70.00
ROOT
ATOM      1  C   UNL     1      64.554   4.053  64.839  1.00  0.00     0.136 C 
ATOM      2  O   UNL     1      64.841   2.881  65.028  1.00  0.00    -0.299 OA
ENDROOT
BRANCH   1   3
ATOM      3  C   UNL     1      64.781   4.642  63.455  1.00  0.00     0.053 C 
ATOM      4  C   UNL     1      63.932   3.920  62.400  1.00  0.00     0.016 C 
BRANCH   3   5
ATOM      5  C   UNL     1      66.274   4.634  63.070  1.00  0.00     0.015 C 
BRANCH   5   6
ATOM      6  C   UNL     1      67.121   5.383  64.114  1.00  0.00     0.028 C 
BRANCH   6   7
ATOM      7  C   UNL     1      66.909   6.876  64.121  1.00  0.00    -0.028 C 
ATOM      8  C   UNL     1      66.579   7.643  65.193  1.00  0.00    -0.070 CG0
ATOM      9  C   UNL     1      66.251   9.091  64.923  1.00  0.00     0.039 C 
ATOM     10  G   UNL     1      66.634   7.181  66.648  1.00  0.00     0.000 G0
ENDBRANCH   6   7
ENDBRANCH   5   6
ENDBRANCH   3   5
ENDBRANCH   1   3
BRANCH   1  11
ATOM     11  C   UNL     1      64.019   4.883  65.990  1.00  0.00     0.087 C 
BRANCH  11  12
ATOM     12  C   UNL     1      65.029   5.195  67.131  1.00  0.00     0.066 C 
BRANCH  12  13
ATOM     13  C   UNL     1      65.359   6.678  67.266  1.00  0.00     0.140 C 
ATOM     14  O   UNL     1      64.653   7.416  67.936  1.00  0.00    -0.299 OA
BRANCH  13  15
ATOM     15  C   UNL     1      66.644   7.202  66.671  1.00  0.00     0.106 CG0
ATOM     16  G   UNL     1      66.580   7.619  65.203  1.00  0.00     0.000 G0
ENDBRANCH  13  15
ENDBRANCH  12  13
BRANCH  12  17
ATOM     17  C   UNL     1      64.734   4.453  68.475  1.00  0.00    -0.006 C 
ATOM     18  C   UNL     1      65.217   2.995  68.525  1.00  0.00     0.008 C 
ATOM     19  C   UNL     1      63.247   4.538  68.858  1.00  0.00     0.008 C 
ENDBRANCH  12  17
ENDBRANCH  11  12
ENDBRANCH   1  11
TORSDOF 1
ENDMDL
MODEL 4
REMARK VINA RESULT:    -1.880     16.923     18.546
REMARK INTER + INTRA:          -3.180
REMARK INTER:                  -2.756
REMARK INTRA:                  -0.423
REMARK UNBOUND:                -0.311
REMARK SMILES CC1=CCC[C@@H](C)C(=O)C[C@H](C(C)C)C(=O)C1
REMARK SMILES IDX 8 1 9 2 6 3 7 4 5 5 4 6 3 7 2 8 1 9 10 11 11 12 15 13 16 14
REMARK SMILES IDX 17 15 12 17 13 18 14 19
REMARK H PARENT
REMARK Flexibility Score: 70.00
ROOT
ATOM      1  C   UNL     1      78.720   2.432  66.186  1.00  0.00     0.136 C 
ATOM      2  O   UNL     1      78.639   3.479  65.563  1.00  0.00    -0.299 OA
ENDROOT
BRANCH   1   3
ATOM      3  C   UNL     1      79.408   2.448  67.543  1.00  0.00     0.053 C 
ATOM      4  C   UNL     1      80.886   2.833  67.410  1.00  0.00     0.016 C 
BRANCH   3   5
ATOM      5  C   UNL     1      79.246   1.102  68.279  1.00  0.00     0.015 C 
BRANCH   5   6
ATOM      6  C   UNL     1      80.593   0.367  68.398  1.00  0.00     0.028 C 
BRANCH   6   7
ATOM      7  C   UNL     1      80.469  -1.130  68.521  1.00  0.00    -0.028 C 
ATOM      8  C   UNL     1      80.290  -2.015  67.506  1.00  0.00    -0.070 CG0
ATOM      9  C   UNL     1      80.021  -3.450  67.889  1.00  0.00     0.039 C 
ATOM     10  G   UNL     1      80.462  -1.691  66.023  1.00  0.00     0.000 G0
ENDBRANCH   6   7
ENDBRANCH   5   6
ENDBRANCH   3   5
ENDBRANCH   1   3
BRANCH   1  11
ATOM     11  C   UNL     1      78.168   1.158  65.577  1.00  0.00     0.087 C 
BRANCH  11  12
ATOM     12  C   UNL     1      79.194   0.265  64.822  1.00  0.00     0.066 C 
BRANCH  12  13
ATOM     13  C   UNL     1      79.217  -1.181  65.305  1.00  0.00     0.140 C 
ATOM     14  O   UNL     1      78.306  -1.947  65.028  1.00  0.00    -0.299 OA
BRANCH  13  15
ATOM     15  C   UNL     1      80.442  -1.698  66.020  1.00  0.00     0.106 CG0
ATOM     16  G   UNL     1      80.272  -2.002  67.507  1.00  0.00     0.000 G0
ENDBRANCH  13  15
ENDBRANCH  12  13
BRANCH  12  17
ATOM     17  C   UNL     1      79.191   0.450  63.270  1.00  0.00    -0.006 C 
ATOM     18  C   UNL     1      80.124   1.554  62.750  1.00  0.00     0.008 C 
ATOM     19  C   UNL     1      77.767   0.650  62.724  1.00  0.00     0.008 C 
ENDBRANCH  12  17
ENDBRANCH  11  12
ENDBRANCH   1  11
TORSDOF 1
ENDMDL
MODEL 5
REMARK VINA RESULT:    -1.859     16.806     18.185
REMARK INTER + INTRA:          -3.148
REMARK INTER:                  -2.832
REMARK INTRA:                  -0.316
REMARK UNBOUND:                -0.311
REMARK SMILES CC1=CCC[C@@H](C)C(=O)C[C@H](C(C)C)C(=O)C1
REMARK SMILES IDX 8 1 9 2 6 3 7 4 5 5 4 6 3 7 2 8 1 9 10 11 11 12 15 13 16 14
REMARK SMILES IDX 17 15 12 17 13 18 14 19
REMARK H PARENT
REMARK Flexibility Score: 70.00
ROOT
ATOM      1  C   UNL     1      77.048   5.177  63.526  1.00  0.00     0.136 C 
ATOM      2  O   UNL     1      76.101   4.732  64.155  1.00  0.00    -0.299 OA
ENDROOT
BRANCH   1   3
ATOM      3  C   UNL     1      76.768   6.093  62.344  1.00  0.00     0.053 C 
ATOM      4  C   UNL     1      76.330   7.486  62.815  1.00  0.00     0.016 C 
BRANCH   3   5
ATOM      5  C   UNL     1      75.733   5.479  61.380  1.00  0.00     0.015 C 
BRANCH   5   6
ATOM      6  C   UNL     1      76.420   4.652  60.279  1.00  0.00     0.028 C 
BRANCH   6   7
ATOM      7  C   UNL     1      77.528   5.382  59.562  1.00  0.00    -0.028 C 
ATOM      8  C   UNL     1      78.863   5.192  59.727  1.00  0.00    -0.070 CG0
ATOM      9  C   UNL     1      79.784   6.161  59.025  1.00  0.00     0.039 C 
ATOM     10  G   UNL     1      79.494   4.010  60.461  1.00  0.00     0.000 G0
ENDBRANCH   6   7
ENDBRANCH   5   6
ENDBRANCH   3   5
ENDBRANCH   1   3
BRANCH   1  11
ATOM     11  C   UNL     1      78.458   4.776  63.918  1.00  0.00     0.087 C 
BRANCH  11  12
ATOM     12  C   UNL     1      79.127   3.688  63.030  1.00  0.00     0.066 C 
BRANCH  12  13
ATOM     13  C   UNL     1      79.953   4.260  61.883  1.00  0.00     0.140 C 
ATOM     14  O   UNL     1      81.018   4.819  62.098  1.00  0.00    -0.299 OA
BRANCH  13  15
ATOM     15  C   UNL     1      79.507   4.013  60.461  1.00  0.00     0.106 CG0
ATOM     16  G   UNL     1      78.854   5.196  59.750  1.00  0.00     0.000 G0
ENDBRANCH  13  15
ENDBRANCH  12  13
BRANCH  12  17
ATOM     17  C   UNL     1      79.809   2.532  63.831  1.00  0.00    -0.006 C 
ATOM     18  C   UNL     1      79.142   1.156  63.670  1.00  0.00     0.008 C 
ATOM     19  C   UNL     1      79.961   2.883  65.320  1.00  0.00     0.008 C 
ENDBRANCH  12  17
ENDBRANCH  11  12
ENDBRANCH   1  11
TORSDOF 1
ENDMDL
MODEL 6
REMARK VINA RESULT:    -1.845     17.429     19.289
REMARK INTER + INTRA:          -3.127
REMARK INTER:                  -2.812
REMARK INTRA:                  -0.316
REMARK UNBOUND:                -0.311
REMARK SMILES CC1=CCC[C@@H](C)C(=O)C[C@H](C(C)C)C(=O)C1
REMARK SMILES IDX 8 1 9 2 6 3 7 4 5 5 4 6 3 7 2 8 1 9 10 11 11 12 15 13 16 14
REMARK SMILES IDX 17 15 12 17 13 18 14 19
REMARK H PARENT
REMARK Flexibility Score: 70.00
ROOT
ATOM      1  C   UNL     1      81.077  -2.375  65.956  1.00  0.00     0.136 C 
ATOM      2  O   UNL     1      80.251  -3.274  65.941  1.00  0.00    -0.299 OA
ENDROOT
BRANCH   1   3
ATOM      3  C   UNL     1      82.242  -2.477  66.929  1.00  0.00     0.053 C 
ATOM      4  C   UNL     1      82.008  -3.590  67.959  1.00  0.00     0.016 C 
BRANCH   3   5
ATOM      5  C   UNL     1      82.526  -1.128  67.621  1.00  0.00     0.015 C 
BRANCH   5   6
ATOM      6  C   UNL     1      81.434  -0.791  68.652  1.00  0.00     0.028 C 
BRANCH   6   7
ATOM      7  C   UNL     1      81.325   0.678  68.975  1.00  0.00    -0.028 C 
ATOM      8  C   UNL     1      80.552   1.593  68.334  1.00  0.00    -0.070 CG0
ATOM      9  C   UNL     1      80.738   3.039  68.725  1.00  0.00     0.039 C 
ATOM     10  G   UNL     1      79.436   1.258  67.347  1.00  0.00     0.000 G0
ENDBRANCH   6   7
ENDBRANCH   5   6
ENDBRANCH   3   5
ENDBRANCH   1   3
BRANCH   1  11
ATOM     11  C   UNL     1      80.896  -1.181  65.038  1.00  0.00     0.087 C 
BRANCH  11  12
ATOM     12  C   UNL     1      79.607  -0.340  65.262  1.00  0.00     0.066 C 
BRANCH  12  13
ATOM     13  C   UNL     1      79.868   1.020  65.899  1.00  0.00     0.140 C 
ATOM     14  O   UNL     1      80.316   1.944  65.237  1.00  0.00    -0.299 OA
BRANCH  13  15
ATOM     15  C   UNL     1      79.444   1.256  67.329  1.00  0.00     0.106 CG0
ATOM     16  G   UNL     1      80.563   1.594  68.312  1.00  0.00     0.000 G0
ENDBRANCH  13  15
ENDBRANCH  12  13
BRANCH  12  17
ATOM     17  C   UNL     1      78.624  -0.330  64.046  1.00  0.00    -0.006 C 
ATOM     18  C   UNL     1      77.161  -0.642  64.396  1.00  0.00     0.008 C 
ATOM     19  C   UNL     1      79.111  -1.248  62.912  1.00  0.00     0.008 C 
ENDBRANCH  12  17
ENDBRANCH  11  12
ENDBRANCH   1  11
TORSDOF 1
ENDMDL
MODEL 7
REMARK VINA RESULT:    -1.813     16.337     18.024
REMARK INTER + INTRA:          -3.079
REMARK INTER:                  -2.648
REMARK INTRA:                  -0.431
REMARK UNBOUND:                -0.311
REMARK SMILES CC1=CCC[C@@H](C)C(=O)C[C@H](C(C)C)C(=O)C1
REMARK SMILES IDX 8 1 9 2 6 3 7 4 5 5 4 6 3 7 2 8 1 9 10 11 11 12 15 13 16 14
REMARK SMILES IDX 17 15 12 17 13 18 14 19
REMARK H PARENT
REMARK Flexibility Score: 70.00
ROOT
ATOM      1  C   UNL     1      80.866   3.219  60.504  1.00  0.00     0.136 C 
ATOM      2  O   UNL     1      80.889   2.029  60.773  1.00  0.00    -0.299 OA
ENDROOT
BRANCH   1   3
ATOM      3  C   UNL     1      79.698   4.054  61.006  1.00  0.00     0.053 C 
ATOM      4  C   UNL     1      79.673   4.106  62.539  1.00  0.00     0.016 C 
BRANCH   3   5
ATOM      5  C   UNL     1      78.354   3.550  60.443  1.00  0.00     0.015 C 
BRANCH   5   6
ATOM      6  C   UNL     1      77.997   4.266  59.129  1.00  0.00     0.028 C 
BRANCH   6   7
ATOM      7  C   UNL     1      78.290   5.746  59.135  1.00  0.00    -0.028 C 
ATOM      8  C   UNL     1      79.264   6.382  58.434  1.00  0.00    -0.070 CG0
ATOM      9  C   UNL     1      79.477   7.846  58.734  1.00  0.00     0.039 C 
ATOM     10  G   UNL     1      80.067   5.762  57.292  1.00  0.00     0.000 G0
ENDBRANCH   6   7
ENDBRANCH   5   6
ENDBRANCH   3   5
ENDBRANCH   1   3
BRANCH   1  11
ATOM     11  C   UNL     1      81.975   3.812  59.655  1.00  0.00     0.087 C 
BRANCH  11  12
ATOM     12  C   UNL     1      81.693   3.894  58.128  1.00  0.00     0.066 C 
BRANCH  12  13
ATOM     13  C   UNL     1      81.473   5.316  57.622  1.00  0.00     0.140 C 
ATOM     14  O   UNL     1      82.422   6.049  57.389  1.00  0.00    -0.299 OA
BRANCH  13  15
ATOM     15  C   UNL     1      80.073   5.769  57.286  1.00  0.00     0.106 CG0
ATOM     16  G   UNL     1      79.273   6.381  58.434  1.00  0.00     0.000 G0
ENDBRANCH  13  15
ENDBRANCH  12  13
BRANCH  12  17
ATOM     17  C   UNL     1      82.638   3.012  57.249  1.00  0.00    -0.006 C 
ATOM     18  C   UNL     1      82.193   2.848  55.788  1.00  0.00     0.008 C 
ATOM     19  C   UNL     1      82.893   1.637  57.890  1.00  0.00     0.008 C 
ENDBRANCH  12  17
ENDBRANCH  11  12
ENDBRANCH   1  11
TORSDOF 1
ENDMDL
MODEL 8
REMARK VINA RESULT:    -1.723     16.583     17.684
REMARK INTER + INTRA:          -2.940
REMARK INTER:                  -2.482
REMARK INTRA:                  -0.458
REMARK UNBOUND:                -0.311
REMARK SMILES CC1=CCC[C@@H](C)C(=O)C[C@H](C(C)C)C(=O)C1
REMARK SMILES IDX 8 1 9 2 6 3 7 4 5 5 4 6 3 7 2 8 1 9 10 11 11 12 15 13 16 14
REMARK SMILES IDX 17 15 12 17 13 18 14 19
REMARK H PARENT
REMARK Flexibility Score: 70.00
ROOT
ATOM      1  C   UNL     1      77.076   3.354  63.468  1.00  0.00     0.136 C 
ATOM      2  O   UNL     1      77.004   3.427  62.252  1.00  0.00    -0.299 OA
ENDROOT
BRANCH   1   3
ATOM      3  C   UNL     1      77.912   4.387  64.209  1.00  0.00     0.053 C 
ATOM      4  C   UNL     1      77.375   5.805  63.976  1.00  0.00     0.016 C 
BRANCH   3   5
ATOM      5  C   UNL     1      79.405   4.287  63.832  1.00  0.00     0.015 C 
BRANCH   5   6
ATOM      6  C   UNL     1      80.033   2.996  64.386  1.00  0.00     0.028 C 
BRANCH   6   7
ATOM      7  C   UNL     1      80.004   2.894  65.890  1.00  0.00    -0.028 C 
ATOM      8  C   UNL     1      79.440   1.900  66.625  1.00  0.00    -0.070 CG0
ATOM      9  C   UNL     1      79.385   2.101  68.120  1.00  0.00     0.039 C 
ATOM     10  G   UNL     1      78.972   0.558  66.067  1.00  0.00     0.000 G0
ENDBRANCH   6   7
ENDBRANCH   5   6
ENDBRANCH   3   5
ENDBRANCH   1   3
BRANCH   1  11
ATOM     11  C   UNL     1      76.363   2.226  64.190  1.00  0.00     0.087 C 
BRANCH  11  12
ATOM     12  C   UNL     1      77.122   0.869  64.247  1.00  0.00     0.066 C 
BRANCH  12  13
ATOM     13  C   UNL     1      77.522   0.452  65.658  1.00  0.00     0.140 C 
ATOM     14  O   UNL     1      76.707  -0.053  66.415  1.00  0.00    -0.299 OA
BRANCH  13  15
ATOM     15  C   UNL     1      78.972   0.546  66.069  1.00  0.00     0.106 CG0
ATOM     16  G   UNL     1      79.427   1.899  66.613  1.00  0.00     0.000 G0
ENDBRANCH  13  15
ENDBRANCH  12  13
BRANCH  12  17
ATOM     17  C   UNL     1      76.489  -0.261  63.372  1.00  0.00    -0.006 C 
ATOM     18  C   UNL     1      77.290  -0.626  62.112  1.00  0.00     0.008 C 
ATOM     19  C   UNL     1      75.028   0.054  63.006  1.00  0.00     0.008 C 
ENDBRANCH  12  17
ENDBRANCH  11  12
ENDBRANCH   1  11
TORSDOF 1
ENDMDL
MODEL 9
REMARK VINA RESULT:    -1.671     16.563     17.820
REMARK INTER + INTRA:          -2.861
REMARK INTER:                  -2.780
REMARK INTRA:                  -0.081
REMARK UNBOUND:                -0.311
REMARK SMILES CC1=CCC[C@@H](C)C(=O)C[C@H](C(C)C)C(=O)C1
REMARK SMILES IDX 8 1 9 2 6 3 7 4 5 5 4 6 3 7 2 8 1 9 10 11 11 12 15 13 16 14
REMARK SMILES IDX 17 15 12 17 13 18 14 19
REMARK H PARENT
REMARK Flexibility Score: 70.00
ROOT
ATOM      1  C   UNL     1      79.432   3.726  63.609  1.00  0.00     0.136 C 
ATOM      2  O   UNL     1      80.102   3.213  62.726  1.00  0.00    -0.299 OA
ENDROOT
BRANCH   1   3
ATOM      3  C   UNL     1      78.271   4.623  63.210  1.00  0.00     0.053 C 
ATOM      4  C   UNL     1      77.391   4.962  64.420  1.00  0.00     0.016 C 
BRANCH   3   5
ATOM      5  C   UNL     1      77.436   4.003  62.071  1.00  0.00     0.015 C 
BRANCH   5   6
ATOM      6  C   UNL     1      76.490   2.913  62.604  1.00  0.00     0.028 C 
BRANCH   6   7
ATOM      7  C   UNL     1      76.873   1.512  62.198  1.00  0.00    -0.028 C 
ATOM      8  C   UNL     1      77.441   0.566  62.990  1.00  0.00    -0.070 CG0
ATOM      9  C   UNL     1      77.893  -0.708  62.316  1.00  0.00     0.039 C 
ATOM     10  G   UNL     1      77.543   0.644  64.512  1.00  0.00     0.000 G0
ENDBRANCH   6   7
ENDBRANCH   5   6
ENDBRANCH   3   5
ENDBRANCH   1   3
BRANCH   1  11
ATOM     11  C   UNL     1      79.800   3.480  65.060  1.00  0.00     0.087 C 
BRANCH  11  12
ATOM     12  C   UNL     1      78.942   2.420  65.808  1.00  0.00     0.066 C 
BRANCH  12  13
ATOM     13  C   UNL     1      78.854   1.082  65.082  1.00  0.00     0.140 C 
ATOM     14  O   UNL     1      79.813   0.325  65.049  1.00  0.00    -0.299 OA
BRANCH  13  15
ATOM     15  C   UNL     1      77.527   0.639  64.514  1.00  0.00     0.106 CG0
ATOM     16  G   UNL     1      77.443   0.563  62.991  1.00  0.00     0.000 G0
ENDBRANCH  13  15
ENDBRANCH  12  13
BRANCH  12  17
ATOM     17  C   UNL     1      79.225   2.328  67.343  1.00  0.00    -0.006 C 
ATOM     18  C   UNL     1      80.654   2.711  67.759  1.00  0.00     0.008 C 
ATOM     19  C   UNL     1      78.853   0.947  67.909  1.00  0.00     0.008 C 
ENDBRANCH  12  17
ENDBRANCH  11  12
ENDBRANCH   1  11
TORSDOF 1
ENDMDL
