MODEL 1
REMARK VINA RESULT:    -2.474      0.000      0.000
REMARK INTER + INTRA:          -2.474
REMARK INTER:                  -2.474
REMARK INTRA:                   0.000
REMARK UNBOUND:                 0.000
REMARK SMILES CC(=O)[O-]
REMARK SMILES IDX 1 1 2 2 3 3 4 4
REMARK H PARENT
REMARK Flexibility Score: inf
ROOT
ATOM      1  C   UNL     1      -1.719  36.770  15.907  1.00  0.00     0.063 C 
ATOM      2  C   UNL     1      -2.838  37.710  16.198  1.00  0.00     0.038 C 
ATOM      3  O   UNL     1      -3.176  37.940  17.389  1.00  0.00    -0.550 OA
ATOM      4  O   UNL     1      -3.478  38.374  15.159  1.00  0.00    -0.550 OA
ENDROOT
TORSDOF 0
ENDMDL
MODEL 2
REMARK VINA RESULT:    -2.465     17.509     18.030
REMARK INTER + INTRA:          -2.465
REMARK INTER:                  -2.465
REMARK INTRA:                   0.000
REMARK UNBOUND:                 0.000
REMARK SMILES CC(=O)[O-]
REMARK SMILES IDX 1 1 2 2 3 3 4 4
REMARK H PARENT
REMARK Flexibility Score: inf
ROOT
ATOM      1  C   UNL     1      -5.183  24.939  29.626  1.00  0.00     0.063 C 
ATOM      2  C   UNL     1      -4.459  26.208  29.918  1.00  0.00     0.038 C 
ATOM      3  O   UNL     1      -3.501  26.215  30.736  1.00  0.00    -0.550 OA
ATOM      4  O   UNL     1      -4.803  27.376  29.250  1.00  0.00    -0.550 OA
ENDROOT
TORSDOF 0
ENDMDL
MODEL 3
REMARK VINA RESULT:    -2.464     17.531     17.888
REMARK INTER + INTRA:          -2.464
REMARK INTER:                  -2.464
REMARK INTRA:                   0.000
REMARK UNBOUND:                 0.000
REMARK SMILES CC(=O)[O-]
REMARK SMILES IDX 1 1 2 2 3 3 4 4
REMARK H PARENT
REMARK Flexibility Score: inf
ROOT
ATOM      1  C   UNL     1      -5.411  27.730  29.664  1.00  0.00     0.063 C 
ATOM      2  C   UNL     1      -4.942  26.316  29.646  1.00  0.00     0.038 C 
ATOM      3  O   UNL     1      -5.556  25.455  28.962  1.00  0.00    -0.550 OA
ATOM      4  O   UNL     1      -3.794  25.954  30.340  1.00  0.00    -0.550 OA
ENDROOT
TORSDOF 0
ENDMDL
MODEL 4
REMARK VINA RESULT:    -2.395      1.837      2.447
REMARK INTER + INTRA:          -2.395
REMARK INTER:                  -2.395
REMARK INTRA:                   0.000
REMARK UNBOUND:                 0.000
REMARK SMILES CC(=O)[O-]
REMARK SMILES IDX 1 1 2 2 3 3 4 4
REMARK H PARENT
REMARK Flexibility Score: inf
ROOT
ATOM      1  C   UNL     1      -1.782  37.307  16.757  1.00  0.00     0.063 C 
ATOM      2  C   UNL     1      -2.267  37.963  18.005  1.00  0.00     0.038 C 
ATOM      3  O   UNL     1      -3.494  37.952  18.289  1.00  0.00    -0.550 OA
ATOM      4  O   UNL     1      -1.361  38.543  18.883  1.00  0.00    -0.550 OA
ENDROOT
TORSDOF 0
ENDMDL
MODEL 5
REMARK VINA RESULT:    -2.388      2.100      2.606
REMARK INTER + INTRA:          -2.388
REMARK INTER:                  -2.388
REMARK INTRA:                   0.000
REMARK UNBOUND:                 0.000
REMARK SMILES CC(=O)[O-]
REMARK SMILES IDX 1 1 2 2 3 3 4 4
REMARK H PARENT
REMARK Flexibility Score: inf
ROOT
ATOM      1  C   UNL     1      -1.025  38.273  18.858  1.00  0.00     0.063 C 
ATOM      2  C   UNL     1      -2.053  37.863  17.861  1.00  0.00     0.038 C 
ATOM      3  O   UNL     1      -1.702  37.436  16.729  1.00  0.00    -0.550 OA
ATOM      4  O   UNL     1      -3.401  37.901  18.195  1.00  0.00    -0.550 OA
ENDROOT
TORSDOF 0
ENDMDL
MODEL 6
REMARK VINA RESULT:    -2.386      1.664      1.795
REMARK INTER + INTRA:          -2.386
REMARK INTER:                  -2.386
REMARK INTRA:                   0.000
REMARK UNBOUND:                 0.000
REMARK SMILES CC(=O)[O-]
REMARK SMILES IDX 1 1 2 2 3 3 4 4
REMARK H PARENT
REMARK Flexibility Score: inf
ROOT
ATOM      1  C   UNL     1      -2.046  37.895  17.941  1.00  0.00     0.063 C 
ATOM      2  C   UNL     1      -2.232  37.457  16.529  1.00  0.00     0.038 C 
ATOM      3  O   UNL     1      -1.610  36.453  16.091  1.00  0.00    -0.550 OA
ATOM      4  O   UNL     1      -3.130  38.124  15.706  1.00  0.00    -0.550 OA
ENDROOT
TORSDOF 0
ENDMDL
MODEL 7
REMARK VINA RESULT:    -2.367      1.515      1.970
REMARK INTER + INTRA:          -2.367
REMARK INTER:                  -2.367
REMARK INTRA:                   0.000
REMARK UNBOUND:                 0.000
REMARK SMILES CC(=O)[O-]
REMARK SMILES IDX 1 1 2 2 3 3 4 4
REMARK H PARENT
REMARK Flexibility Score: inf
ROOT
ATOM      1  C   UNL     1      -3.236  37.469  14.738  1.00  0.00     0.063 C 
ATOM      2  C   UNL     1      -2.585  37.199  16.051  1.00  0.00     0.038 C 
ATOM      3  O   UNL     1      -1.609  36.406  16.122  1.00  0.00    -0.550 OA
ATOM      4  O   UNL     1      -3.019  37.860  17.193  1.00  0.00    -0.550 OA
ENDROOT
TORSDOF 0
ENDMDL
MODEL 8
REMARK VINA RESULT:    -2.291      2.257      2.675
REMARK INTER + INTRA:          -2.291
REMARK INTER:                  -2.291
REMARK INTRA:                   0.000
REMARK UNBOUND:                 0.000
REMARK SMILES CC(=O)[O-]
REMARK SMILES IDX 1 1 2 2 3 3 4 4
REMARK H PARENT
REMARK Flexibility Score: inf
ROOT
ATOM      1  C   UNL     1      -3.416  37.802  18.529  1.00  0.00     0.063 C 
ATOM      2  C   UNL     1      -2.003  37.928  18.073  1.00  0.00     0.038 C 
ATOM      3  O   UNL     1      -1.134  38.425  18.837  1.00  0.00    -0.550 OA
ATOM      4  O   UNL     1      -1.629  37.449  16.824  1.00  0.00    -0.550 OA
ENDROOT
TORSDOF 0
ENDMDL
MODEL 9
REMARK VINA RESULT:    -2.291      2.279      3.061
REMARK INTER + INTRA:          -2.291
REMARK INTER:                  -2.291
REMARK INTRA:                   0.000
REMARK UNBOUND:                 0.000
REMARK SMILES CC(=O)[O-]
REMARK SMILES IDX 1 1 2 2 3 3 4 4
REMARK H PARENT
REMARK Flexibility Score: inf
ROOT
ATOM      1  C   UNL     1      -3.401  37.793  18.457  1.00  0.00     0.063 C 
ATOM      2  C   UNL     1      -1.968  37.894  18.061  1.00  0.00     0.038 C 
ATOM      3  O   UNL     1      -1.589  37.455  16.943  1.00  0.00    -0.550 OA
ATOM      4  O   UNL     1      -1.056  38.519  18.901  1.00  0.00    -0.550 OA
ENDROOT
TORSDOF 0
ENDMDL
