MODEL 1
REMARK VINA RESULT:    -6.167      0.000      0.000
REMARK INTER + INTRA:          -7.191
REMARK INTER:                  -6.707
REMARK INTRA:                  -0.484
REMARK UNBOUND:                -0.484
REMARK SMILES C=C(C)[C@@H]1CC[C@@]2(C)CC[C@@]3(C)[C@H](CC[C@H]4[C@]5(C)CC[C@@H](O)C(C)(C)[C@@H]5CC[C@]43C)[C@@H]12
REMARK SMILES IDX 4 1 5 2 6 3 7 4 31 5 13 6 14 7 15 8 16 9 17 10 19 11 20 12
REMARK SMILES IDX 21 13 23 14 26 15 27 16 28 17 29 18 11 19 10 20 9 21 12 22
REMARK SMILES IDX 30 23 24 24 25 25 18 26 8 27 2 28 3 29 1 30 22 31
REMARK H PARENT 22 32
REMARK Flexibility Score: inf
ROOT
ATOM      1  C   UNL     1      40.529   0.999 113.945  1.00  0.00     0.018 C 
ATOM      2  C   UNL     1      40.368   0.497 115.385  1.00  0.00     0.009 C 
ATOM      3  C   UNL     1      39.265  -0.551 115.358  1.00  0.00     0.008 C 
ATOM      4  C   UNL     1      38.334  -0.169 114.191  1.00  0.00    -0.029 C 
ATOM      5  C   UNL     1      39.279   0.508 113.162  1.00  0.00     0.006 C 
ATOM      6  C   UNL     1      38.658   1.596 112.194  1.00  0.00    -0.000 C 
ATOM      7  C   UNL     1      38.353   0.979 110.840  1.00  0.00     0.005 C 
ATOM      8  C   UNL     1      38.128   2.057 109.784  1.00  0.00     0.005 C 
ATOM      9  C   UNL     1      37.445   3.403 110.253  1.00  0.00     0.002 C 
ATOM     10  C   UNL     1      36.756   4.107 108.978  1.00  0.00    -0.026 C 
ATOM     11  C   UNL     1      36.515   5.640 109.202  1.00  0.00     0.010 C 
ATOM     12  C   UNL     1      35.678   6.321 108.108  1.00  0.00     0.033 C 
ATOM     13  C   UNL     1      34.341   5.607 107.877  1.00  0.00     0.120 C 
ATOM     14  C   UNL     1      34.514   4.103 107.496  1.00  0.00    -0.006 C 
ATOM     15  C   UNL     1      35.411   3.351 108.583  1.00  0.00     0.003 C 
ATOM     16  C   UNL     1      34.564   2.930 109.829  1.00  0.00     0.005 C 
ATOM     17  C   UNL     1      35.331   2.296 111.010  1.00  0.00     0.008 C 
ATOM     18  C   UNL     1      36.537   3.144 111.529  1.00  0.00    -0.024 C 
ATOM     19  C   UNL     1      37.423   2.432 112.727  1.00  0.00    -0.024 C 
ATOM     20  C   UNL     1      36.505   1.518 113.592  1.00  0.00     0.008 C 
ATOM     21  C   UNL     1      37.236   0.787 114.717  1.00  0.00     0.007 C 
ATOM     22  C   UNL     1      38.047   3.524 113.668  1.00  0.00     0.012 C 
ATOM     23  C   UNL     1      35.903   4.445 112.131  1.00  0.00     0.012 C 
ATOM     24  C   UNL     1      35.112   3.956 106.065  1.00  0.00     0.014 C 
ATOM     25  C   UNL     1      33.096   3.462 107.402  1.00  0.00     0.014 C 
ATOM     26  C   UNL     1      37.799   4.040 107.803  1.00  0.00     0.012 C 
ATOM     27  C   UNL     1      37.689  -1.454 113.611  1.00  0.00     0.011 C 
ENDROOT
BRANCH   1  28
ATOM     28  C   UNL     1      41.829   0.532 113.284  1.00  0.00    -0.077 C 
ATOM     29  C   UNL     1      41.894  -0.743 112.477  1.00  0.00     0.039 C 
ATOM     30  C   UNL     1      42.892   1.354 113.252  1.00  0.00     0.008 C 
ENDBRANCH   1  28
BRANCH  13  31
ATOM     31  O   UNL     1      33.643   6.298 106.871  1.00  0.00    -0.393 OA
ATOM     32  H   UNL     1      33.873   5.871 106.005  1.00  0.00     0.210 HD
ENDBRANCH  13  31
TORSDOF 2
ENDMDL
MODEL 2
REMARK VINA RESULT:    -6.007      8.088     11.385
REMARK INTER + INTRA:          -7.017
REMARK INTER:                  -6.570
REMARK INTRA:                  -0.447
REMARK UNBOUND:                -0.484
REMARK SMILES C=C(C)[C@@H]1CC[C@@]2(C)CC[C@@]3(C)[C@H](CC[C@H]4[C@]5(C)CC[C@@H](O)C(C)(C)[C@@H]5CC[C@]43C)[C@@H]12
REMARK SMILES IDX 4 1 5 2 6 3 7 4 31 5 13 6 14 7 15 8 16 9 17 10 19 11 20 12
REMARK SMILES IDX 21 13 23 14 26 15 27 16 28 17 29 18 11 19 10 20 9 21 12 22
REMARK SMILES IDX 30 23 24 24 25 25 18 26 8 27 2 28 3 29 1 30 22 31
REMARK H PARENT 22 32
REMARK Flexibility Score: inf
ROOT
ATOM      1  C   UNL     1      41.127  14.648 112.584  1.00  0.00     0.018 C 
ATOM      2  C   UNL     1      42.651  14.734 112.431  1.00  0.00     0.009 C 
ATOM      3  C   UNL     1      42.919  15.176 111.000  1.00  0.00     0.008 C 
ATOM      4  C   UNL     1      41.734  14.662 110.160  1.00  0.00    -0.029 C 
ATOM      5  C   UNL     1      40.536  14.685 111.147  1.00  0.00     0.006 C 
ATOM      6  C   UNL     1      39.363  13.650 110.907  1.00  0.00    -0.000 C 
ATOM      7  C   UNL     1      38.207  14.324 110.186  1.00  0.00     0.005 C 
ATOM      8  C   UNL     1      36.936  13.488 110.285  1.00  0.00     0.005 C 
ATOM      9  C   UNL     1      37.097  11.916 110.299  1.00  0.00     0.002 C 
ATOM     10  C   UNL     1      35.720  11.248 109.796  1.00  0.00    -0.026 C 
ATOM     11  C   UNL     1      35.582   9.754 110.250  1.00  0.00     0.010 C 
ATOM     12  C   UNL     1      34.393   9.006 109.629  1.00  0.00     0.033 C 
ATOM     13  C   UNL     1      34.393   9.092 108.098  1.00  0.00     0.120 C 
ATOM     14  C   UNL     1      34.375  10.562 107.573  1.00  0.00    -0.006 C 
ATOM     15  C   UNL     1      35.572  11.400 108.218  1.00  0.00     0.003 C 
ATOM     16  C   UNL     1      36.915  11.153 107.456  1.00  0.00     0.005 C 
ATOM     17  C   UNL     1      38.181  11.812 108.045  1.00  0.00     0.008 C 
ATOM     18  C   UNL     1      38.434  11.494 109.555  1.00  0.00    -0.024 C 
ATOM     19  C   UNL     1      39.730  12.270 110.221  1.00  0.00    -0.024 C 
ATOM     20  C   UNL     1      40.825  12.500 109.137  1.00  0.00     0.008 C 
ATOM     21  C   UNL     1      42.061  13.239 109.646  1.00  0.00     0.007 C 
ATOM     22  C   UNL     1      40.358  11.401 111.369  1.00  0.00     0.012 C 
ATOM     23  C   UNL     1      38.734   9.957 109.612  1.00  0.00     0.012 C 
ATOM     24  C   UNL     1      32.997  11.235 107.849  1.00  0.00     0.014 C 
ATOM     25  C   UNL     1      34.493  10.522 106.019  1.00  0.00     0.014 C 
ATOM     26  C   UNL     1      34.554  11.995 110.540  1.00  0.00     0.012 C 
ATOM     27  C   UNL     1      41.504  15.621 108.963  1.00  0.00     0.011 C 
ENDROOT
BRANCH   1  28
ATOM     28  C   UNL     1      40.545  15.757 113.464  1.00  0.00    -0.077 C 
ATOM     29  C   UNL     1      41.125  16.078 114.821  1.00  0.00     0.039 C 
ATOM     30  C   UNL     1      39.625  16.595 112.956  1.00  0.00     0.008 C 
ENDBRANCH   1  28
BRANCH  13  31
ATOM     31  O   UNL     1      33.280   8.378 107.619  1.00  0.00    -0.393 OA
ATOM     32  H   UNL     1      32.619   9.044 107.294  1.00  0.00     0.210 HD
ENDBRANCH  13  31
TORSDOF 2
ENDMDL
MODEL 3
REMARK VINA RESULT:    -5.903      5.299      9.032
REMARK INTER + INTRA:          -6.905
REMARK INTER:                  -6.497
REMARK INTRA:                  -0.408
REMARK UNBOUND:                -0.484
REMARK SMILES C=C(C)[C@@H]1CC[C@@]2(C)CC[C@@]3(C)[C@H](CC[C@H]4[C@]5(C)CC[C@@H](O)C(C)(C)[C@@H]5CC[C@]43C)[C@@H]12
REMARK SMILES IDX 4 1 5 2 6 3 7 4 31 5 13 6 14 7 15 8 16 9 17 10 19 11 20 12
REMARK SMILES IDX 21 13 23 14 26 15 27 16 28 17 29 18 11 19 10 20 9 21 12 22
REMARK SMILES IDX 30 23 24 24 25 25 18 26 8 27 2 28 3 29 1 30 22 31
REMARK H PARENT 22 32
REMARK Flexibility Score: inf
ROOT
ATOM      1  C   UNL     1      39.787  12.227 110.652  1.00  0.00     0.018 C 
ATOM      2  C   UNL     1      39.779  13.743 110.424  1.00  0.00     0.009 C 
ATOM      3  C   UNL     1      38.322  14.180 110.457  1.00  0.00     0.008 C 
ATOM      4  C   UNL     1      37.497  12.968 109.981  1.00  0.00    -0.029 C 
ATOM      5  C   UNL     1      38.323  11.742 110.453  1.00  0.00     0.006 C 
ATOM      6  C   UNL     1      38.197  10.402 109.619  1.00  0.00    -0.000 C 
ATOM      7  C   UNL     1      37.228   9.450 110.300  1.00  0.00     0.005 C 
ATOM      8  C   UNL     1      37.377   8.033 109.754  1.00  0.00     0.005 C 
ATOM      9  C   UNL     1      37.756   7.877 108.228  1.00  0.00     0.002 C 
ATOM     10  C   UNL     1      37.272   6.427 107.719  1.00  0.00    -0.026 C 
ATOM     11  C   UNL     1      38.028   5.967 106.426  1.00  0.00     0.010 C 
ATOM     12  C   UNL     1      37.468   4.691 105.778  1.00  0.00     0.033 C 
ATOM     13  C   UNL     1      35.964   4.800 105.497  1.00  0.00     0.120 C 
ATOM     14  C   UNL     1      35.127   5.107 106.778  1.00  0.00    -0.006 C 
ATOM     15  C   UNL     1      35.692   6.407 107.515  1.00  0.00     0.003 C 
ATOM     16  C   UNL     1      35.149   7.717 106.856  1.00  0.00     0.005 C 
ATOM     17  C   UNL     1      35.706   9.052 107.398  1.00  0.00     0.008 C 
ATOM     18  C   UNL     1      37.267   9.144 107.408  1.00  0.00    -0.024 C 
ATOM     19  C   UNL     1      37.877  10.527 108.073  1.00  0.00    -0.024 C 
ATOM     20  C   UNL     1      36.889  11.709 107.838  1.00  0.00     0.008 C 
ATOM     21  C   UNL     1      37.348  13.035 108.441  1.00  0.00     0.007 C 
ATOM     22  C   UNL     1      39.248  10.899 107.403  1.00  0.00     0.012 C 
ATOM     23  C   UNL     1      37.695   9.127 105.900  1.00  0.00     0.012 C 
ATOM     24  C   UNL     1      35.101   3.878 107.734  1.00  0.00     0.014 C 
ATOM     25  C   UNL     1      33.642   5.308 106.349  1.00  0.00     0.014 C 
ATOM     26  C   UNL     1      37.705   5.391 108.819  1.00  0.00     0.012 C 
ATOM     27  C   UNL     1      36.100  13.006 110.653  1.00  0.00     0.011 C 
ENDROOT
BRANCH   1  28
ATOM     28  C   UNL     1      40.333  11.826 112.025  1.00  0.00    -0.077 C 
ATOM     29  C   UNL     1      40.725  10.400 112.336  1.00  0.00     0.039 C 
ATOM     30  C   UNL     1      40.656  12.778 112.917  1.00  0.00     0.008 C 
ENDBRANCH   1  28
BRANCH  13  31
ATOM     31  O   UNL     1      35.541   3.598 104.902  1.00  0.00    -0.393 OA
ATOM     32  H   UNL     1      35.022   3.836 104.090  1.00  0.00     0.210 HD
ENDBRANCH  13  31
TORSDOF 2
ENDMDL
MODEL 4
REMARK VINA RESULT:    -5.879      8.511     11.221
REMARK INTER + INTRA:          -6.879
REMARK INTER:                  -6.415
REMARK INTRA:                  -0.464
REMARK UNBOUND:                -0.484
REMARK SMILES C=C(C)[C@@H]1CC[C@@]2(C)CC[C@@]3(C)[C@H](CC[C@H]4[C@]5(C)CC[C@@H](O)C(C)(C)[C@@H]5CC[C@]43C)[C@@H]12
REMARK SMILES IDX 4 1 5 2 6 3 7 4 31 5 13 6 14 7 15 8 16 9 17 10 19 11 20 12
REMARK SMILES IDX 21 13 23 14 26 15 27 16 28 17 29 18 11 19 10 20 9 21 12 22
REMARK SMILES IDX 30 23 24 24 25 25 18 26 8 27 2 28 3 29 1 30 22 31
REMARK H PARENT 22 32
REMARK Flexibility Score: inf
ROOT
ATOM      1  C   UNL     1      42.224  12.726 111.195  1.00  0.00     0.018 C 
ATOM      2  C   UNL     1      43.310  13.807 111.147  1.00  0.00     0.009 C 
ATOM      3  C   UNL     1      42.622  15.129 111.456  1.00  0.00     0.008 C 
ATOM      4  C   UNL     1      41.165  14.979 110.977  1.00  0.00    -0.029 C 
ATOM      5  C   UNL     1      40.858  13.470 111.171  1.00  0.00     0.006 C 
ATOM      6  C   UNL     1      39.782  12.808 110.218  1.00  0.00    -0.000 C 
ATOM      7  C   UNL     1      38.441  12.714 110.927  1.00  0.00     0.005 C 
ATOM      8  C   UNL     1      37.505  11.750 110.205  1.00  0.00     0.005 C 
ATOM      9  C   UNL     1      37.616  11.669 108.631  1.00  0.00     0.002 C 
ATOM     10  C   UNL     1      36.221  11.122 108.039  1.00  0.00    -0.026 C 
ATOM     11  C   UNL     1      36.378  10.522 106.600  1.00  0.00     0.010 C 
ATOM     12  C   UNL     1      35.052  10.175 105.905  1.00  0.00     0.033 C 
ATOM     13  C   UNL     1      34.088  11.367 105.875  1.00  0.00     0.120 C 
ATOM     14  C   UNL     1      33.764  11.922 107.297  1.00  0.00    -0.006 C 
ATOM     15  C   UNL     1      35.112  12.265 108.083  1.00  0.00     0.003 C 
ATOM     16  C   UNL     1      35.670  13.667 107.671  1.00  0.00     0.005 C 
ATOM     17  C   UNL     1      37.033  14.077 108.270  1.00  0.00     0.008 C 
ATOM     18  C   UNL     1      38.177  13.034 108.048  1.00  0.00    -0.024 C 
ATOM     19  C   UNL     1      39.614  13.416 108.766  1.00  0.00    -0.024 C 
ATOM     20  C   UNL     1      39.783  14.964 108.824  1.00  0.00     0.008 C 
ATOM     21  C   UNL     1      41.074  15.425 109.498  1.00  0.00     0.007 C 
ATOM     22  C   UNL     1      40.813  12.828 107.938  1.00  0.00     0.012 C 
ATOM     23  C   UNL     1      38.423  13.009 106.500  1.00  0.00     0.012 C 
ATOM     24  C   UNL     1      32.879  10.920 108.098  1.00  0.00     0.014 C 
ATOM     25  C   UNL     1      32.875  13.191 107.130  1.00  0.00     0.014 C 
ATOM     26  C   UNL     1      35.797   9.900 108.932  1.00  0.00     0.012 C 
ATOM     27  C   UNL     1      40.245  15.864 111.859  1.00  0.00     0.011 C 
ENDROOT
BRANCH   1  28
ATOM     28  C   UNL     1      42.343  11.804 112.411  1.00  0.00    -0.077 C 
ATOM     29  C   UNL     1      41.909  12.247 113.788  1.00  0.00     0.039 C 
ATOM     30  C   UNL     1      42.658  10.509 112.235  1.00  0.00     0.008 C 
ENDBRANCH   1  28
BRANCH  13  31
ATOM     31  O   UNL     1      32.912  10.962 105.218  1.00  0.00    -0.393 OA
ATOM     32  H   UNL     1      32.557  10.174 105.706  1.00  0.00     0.210 HD
ENDBRANCH  13  31
TORSDOF 2
ENDMDL
MODEL 5
REMARK VINA RESULT:    -5.854      1.867      4.115
REMARK INTER + INTRA:          -6.852
REMARK INTER:                  -6.440
REMARK INTRA:                  -0.412
REMARK UNBOUND:                -0.484
REMARK SMILES C=C(C)[C@@H]1CC[C@@]2(C)CC[C@@]3(C)[C@H](CC[C@H]4[C@]5(C)CC[C@@H](O)C(C)(C)[C@@H]5CC[C@]43C)[C@@H]12
REMARK SMILES IDX 4 1 5 2 6 3 7 4 31 5 13 6 14 7 15 8 16 9 17 10 19 11 20 12
REMARK SMILES IDX 21 13 23 14 26 15 27 16 28 17 29 18 11 19 10 20 9 21 12 22
REMARK SMILES IDX 30 23 24 24 25 25 18 26 8 27 2 28 3 29 1 30 22 31
REMARK H PARENT 22 32
REMARK Flexibility Score: inf
ROOT
ATOM      1  C   UNL     1      35.215   0.938 115.553  1.00  0.00     0.018 C 
ATOM      2  C   UNL     1      35.322  -0.452 116.190  1.00  0.00     0.009 C 
ATOM      3  C   UNL     1      36.753  -0.921 115.972  1.00  0.00     0.008 C 
ATOM      4  C   UNL     1      37.238  -0.239 114.678  1.00  0.00    -0.029 C 
ATOM      5  C   UNL     1      36.472   1.111 114.655  1.00  0.00     0.006 C 
ATOM      6  C   UNL     1      36.171   1.764 113.245  1.00  0.00    -0.000 C 
ATOM      7  C   UNL     1      37.191   2.848 112.940  1.00  0.00     0.005 C 
ATOM      8  C   UNL     1      36.715   3.746 111.802  1.00  0.00     0.005 C 
ATOM      9  C   UNL     1      35.853   3.077 110.660  1.00  0.00     0.002 C 
ATOM     10  C   UNL     1      35.980   3.968 109.324  1.00  0.00    -0.026 C 
ATOM     11  C   UNL     1      34.802   3.711 108.322  1.00  0.00     0.010 C 
ATOM     12  C   UNL     1      34.977   4.376 106.948  1.00  0.00     0.033 C 
ATOM     13  C   UNL     1      36.313   4.006 106.294  1.00  0.00     0.120 C 
ATOM     14  C   UNL     1      37.545   4.377 107.177  1.00  0.00    -0.006 C 
ATOM     15  C   UNL     1      37.398   3.742 108.636  1.00  0.00     0.003 C 
ATOM     16  C   UNL     1      37.848   2.244 108.652  1.00  0.00     0.005 C 
ATOM     17  C   UNL     1      37.649   1.472 109.975  1.00  0.00     0.008 C 
ATOM     18  C   UNL     1      36.195   1.531 110.546  1.00  0.00    -0.024 C 
ATOM     19  C   UNL     1      35.992   0.791 112.008  1.00  0.00    -0.024 C 
ATOM     20  C   UNL     1      36.981  -0.406 112.138  1.00  0.00     0.008 C 
ATOM     21  C   UNL     1      36.894  -1.146 113.472  1.00  0.00     0.007 C 
ATOM     22  C   UNL     1      34.531   0.230 112.140  1.00  0.00     0.012 C 
ATOM     23  C   UNL     1      35.308   0.760 109.509  1.00  0.00     0.012 C 
ATOM     24  C   UNL     1      37.735   5.922 107.247  1.00  0.00     0.014 C 
ATOM     25  C   UNL     1      38.828   3.851 106.464  1.00  0.00     0.014 C 
ATOM     26  C   UNL     1      35.805   5.468 109.761  1.00  0.00     0.012 C 
ATOM     27  C   UNL     1      38.772  -0.021 114.760  1.00  0.00     0.011 C 
ENDROOT
BRANCH   1  28
ATOM     28  C   UNL     1      35.094   2.066 116.580  1.00  0.00    -0.077 C 
ATOM     29  C   UNL     1      34.730   3.474 116.172  1.00  0.00     0.039 C 
ATOM     30  C   UNL     1      35.120   1.777 117.893  1.00  0.00     0.008 C 
ENDBRANCH   1  28
BRANCH  13  31
ATOM     31  O   UNL     1      36.383   4.649 105.045  1.00  0.00    -0.393 OA
ATOM     32  H   UNL     1      35.592   4.361 104.519  1.00  0.00     0.210 HD
ENDBRANCH  13  31
TORSDOF 2
ENDMDL
MODEL 6
REMARK VINA RESULT:    -5.850      8.308     10.930
REMARK INTER + INTRA:          -6.847
REMARK INTER:                  -6.499
REMARK INTRA:                  -0.348
REMARK UNBOUND:                -0.484
REMARK SMILES C=C(C)[C@@H]1CC[C@@]2(C)CC[C@@]3(C)[C@H](CC[C@H]4[C@]5(C)CC[C@@H](O)C(C)(C)[C@@H]5CC[C@]43C)[C@@H]12
REMARK SMILES IDX 4 1 5 2 6 3 7 4 31 5 13 6 14 7 15 8 16 9 17 10 19 11 20 12
REMARK SMILES IDX 21 13 23 14 26 15 27 16 28 17 29 18 11 19 10 20 9 21 12 22
REMARK SMILES IDX 30 23 24 24 25 25 18 26 8 27 2 28 3 29 1 30 22 31
REMARK H PARENT 22 32
REMARK Flexibility Score: inf
ROOT
ATOM      1  C   UNL     1      42.030  13.069 112.727  1.00  0.00     0.018 C 
ATOM      2  C   UNL     1      42.586  14.386 113.281  1.00  0.00     0.009 C 
ATOM      3  C   UNL     1      41.384  15.240 113.659  1.00  0.00     0.008 C 
ATOM      4  C   UNL     1      40.238  14.810 112.723  1.00  0.00    -0.029 C 
ATOM      5  C   UNL     1      40.520  13.308 112.449  1.00  0.00     0.006 C 
ATOM      6  C   UNL     1      40.014  12.701 111.077  1.00  0.00    -0.000 C 
ATOM      7  C   UNL     1      38.704  11.959 111.282  1.00  0.00     0.005 C 
ATOM      8  C   UNL     1      38.396  11.051 110.096  1.00  0.00     0.005 C 
ATOM      9  C   UNL     1      38.853  11.542 108.665  1.00  0.00     0.002 C 
ATOM     10  C   UNL     1      37.942  10.817 107.552  1.00  0.00    -0.026 C 
ATOM     11  C   UNL     1      38.617  10.817 106.137  1.00  0.00     0.010 C 
ATOM     12  C   UNL     1      37.711  10.325 104.998  1.00  0.00     0.033 C 
ATOM     13  C   UNL     1      36.384  11.090 104.946  1.00  0.00     0.120 C 
ATOM     14  C   UNL     1      35.580  11.004 106.282  1.00  0.00    -0.006 C 
ATOM     15  C   UNL     1      36.489  11.469 107.511  1.00  0.00     0.003 C 
ATOM     16  C   UNL     1      36.520  13.027 107.639  1.00  0.00     0.005 C 
ATOM     17  C   UNL     1      37.455  13.619 108.716  1.00  0.00     0.008 C 
ATOM     18  C   UNL     1      38.936  13.126 108.628  1.00  0.00    -0.024 C 
ATOM     19  C   UNL     1      39.924  13.676 109.832  1.00  0.00    -0.024 C 
ATOM     20  C   UNL     1      39.451  15.084 110.304  1.00  0.00     0.008 C 
ATOM     21  C   UNL     1      40.286  15.674 111.439  1.00  0.00     0.007 C 
ATOM     22  C   UNL     1      41.400  13.809 109.311  1.00  0.00     0.012 C 
ATOM     23  C   UNL     1      39.486  13.701 107.278  1.00  0.00     0.012 C 
ATOM     24  C   UNL     1      35.018   9.568 106.502  1.00  0.00     0.014 C 
ATOM     25  C   UNL     1      34.318  11.908 106.147  1.00  0.00     0.014 C 
ATOM     26  C   UNL     1      37.861   9.298 107.950  1.00  0.00     0.012 C 
ATOM     27  C   UNL     1      38.883  15.011 113.451  1.00  0.00     0.011 C 
ENDROOT
BRANCH   1  28
ATOM     28  C   UNL     1      42.251  11.879 113.665  1.00  0.00    -0.077 C 
ATOM     29  C   UNL     1      42.608  10.509 113.136  1.00  0.00     0.039 C 
ATOM     30  C   UNL     1      42.320  12.081 114.992  1.00  0.00     0.008 C 
ENDBRANCH   1  28
BRANCH  13  31
ATOM     31  O   UNL     1      35.626  10.582 103.876  1.00  0.00    -0.393 OA
ATOM     32  H   UNL     1      35.436   9.628 104.075  1.00  0.00     0.210 HD
ENDBRANCH  13  31
TORSDOF 2
ENDMDL
MODEL 7
REMARK VINA RESULT:    -5.712      8.010     11.662
REMARK INTER + INTRA:          -6.697
REMARK INTER:                  -6.212
REMARK INTRA:                  -0.484
REMARK UNBOUND:                -0.484
REMARK SMILES C=C(C)[C@@H]1CC[C@@]2(C)CC[C@@]3(C)[C@H](CC[C@H]4[C@]5(C)CC[C@@H](O)C(C)(C)[C@@H]5CC[C@]43C)[C@@H]12
REMARK SMILES IDX 4 1 5 2 6 3 7 4 31 5 13 6 14 7 15 8 16 9 17 10 19 11 20 12
REMARK SMILES IDX 21 13 23 14 26 15 27 16 28 17 29 18 11 19 10 20 9 21 12 22
REMARK SMILES IDX 30 23 24 24 25 25 18 26 8 27 2 28 3 29 1 30 22 31
REMARK H PARENT 22 32
REMARK Flexibility Score: inf
ROOT
ATOM      1  C   UNL     1      39.630  16.716 110.009  1.00  0.00     0.018 C 
ATOM      2  C   UNL     1      39.582  17.492 111.331  1.00  0.00     0.009 C 
ATOM      3  C   UNL     1      40.342  16.659 112.352  1.00  0.00     0.008 C 
ATOM      4  C   UNL     1      40.197  15.191 111.905  1.00  0.00    -0.029 C 
ATOM      5  C   UNL     1      40.100  15.276 110.358  1.00  0.00     0.006 C 
ATOM      6  C   UNL     1      39.298  14.137 109.606  1.00  0.00    -0.000 C 
ATOM      7  C   UNL     1      40.260  13.103 109.044  1.00  0.00     0.005 C 
ATOM      8  C   UNL     1      39.573  12.225 108.003  1.00  0.00     0.005 C 
ATOM      9  C   UNL     1      38.042  11.899 108.220  1.00  0.00     0.002 C 
ATOM     10  C   UNL     1      37.683  10.540 107.433  1.00  0.00    -0.026 C 
ATOM     11  C   UNL     1      36.148  10.405 107.147  1.00  0.00     0.010 C 
ATOM     12  C   UNL     1      35.721   9.040 106.585  1.00  0.00     0.033 C 
ATOM     13  C   UNL     1      36.196   7.880 107.467  1.00  0.00     0.120 C 
ATOM     14  C   UNL     1      37.744   7.863 107.669  1.00  0.00    -0.006 C 
ATOM     15  C   UNL     1      38.250   9.276 108.218  1.00  0.00     0.003 C 
ATOM     16  C   UNL     1      38.057   9.387 109.766  1.00  0.00     0.005 C 
ATOM     17  C   UNL     1      38.398  10.746 110.414  1.00  0.00     0.008 C 
ATOM     18  C   UNL     1      37.678  11.972 109.763  1.00  0.00    -0.024 C 
ATOM     19  C   UNL     1      38.108  13.441 110.384  1.00  0.00    -0.024 C 
ATOM     20  C   UNL     1      38.484  13.290 111.889  1.00  0.00     0.008 C 
ATOM     21  C   UNL     1      38.925  14.592 112.555  1.00  0.00     0.007 C 
ATOM     22  C   UNL     1      36.909  14.450 110.283  1.00  0.00     0.012 C 
ATOM     23  C   UNL     1      36.154  11.768 110.066  1.00  0.00     0.012 C 
ATOM     24  C   UNL     1      38.473   7.473 106.349  1.00  0.00     0.014 C 
ATOM     25  C   UNL     1      38.090   6.718 108.668  1.00  0.00     0.014 C 
ATOM     26  C   UNL     1      38.340  10.653 106.009  1.00  0.00     0.012 C 
ATOM     27  C   UNL     1      41.450  14.395 112.354  1.00  0.00     0.011 C 
ENDROOT
BRANCH   1  28
ATOM     28  C   UNL     1      40.535  17.367 108.959  1.00  0.00    -0.077 C 
ATOM     29  C   UNL     1      41.999  17.013 108.846  1.00  0.00     0.039 C 
ATOM     30  C   UNL     1      39.992  18.124 107.990  1.00  0.00     0.008 C 
ENDBRANCH   1  28
BRANCH  13  31
ATOM     31  O   UNL     1      35.757   6.677 106.883  1.00  0.00    -0.393 OA
ATOM     32  H   UNL     1      35.982   6.719 105.917  1.00  0.00     0.210 HD
ENDBRANCH  13  31
TORSDOF 2
ENDMDL
MODEL 8
REMARK VINA RESULT:    -5.702      6.559     10.837
REMARK INTER + INTRA:          -6.686
REMARK INTER:                  -6.257
REMARK INTRA:                  -0.429
REMARK UNBOUND:                -0.484
REMARK SMILES C=C(C)[C@@H]1CC[C@@]2(C)CC[C@@]3(C)[C@H](CC[C@H]4[C@]5(C)CC[C@@H](O)C(C)(C)[C@@H]5CC[C@]43C)[C@@H]12
REMARK SMILES IDX 4 1 5 2 6 3 7 4 31 5 13 6 14 7 15 8 16 9 17 10 19 11 20 12
REMARK SMILES IDX 21 13 23 14 26 15 27 16 28 17 29 18 11 19 10 20 9 21 12 22
REMARK SMILES IDX 30 23 24 24 25 25 18 26 8 27 2 28 3 29 1 30 22 31
REMARK H PARENT 22 32
REMARK Flexibility Score: inf
ROOT
ATOM      1  C   UNL     1      41.018  14.158 108.668  1.00  0.00     0.018 C 
ATOM      2  C   UNL     1      41.113  15.474 107.887  1.00  0.00     0.009 C 
ATOM      3  C   UNL     1      39.687  15.970 107.697  1.00  0.00     0.008 C 
ATOM      4  C   UNL     1      38.792  14.716 107.680  1.00  0.00    -0.029 C 
ATOM      5  C   UNL     1      39.529  13.715 108.610  1.00  0.00     0.006 C 
ATOM      6  C   UNL     1      39.328  12.169 108.336  1.00  0.00    -0.000 C 
ATOM      7  C   UNL     1      38.289  11.599 109.286  1.00  0.00     0.005 C 
ATOM      8  C   UNL     1      38.352  10.075 109.319  1.00  0.00     0.005 C 
ATOM      9  C   UNL     1      38.743   9.334 107.979  1.00  0.00     0.002 C 
ATOM     10  C   UNL     1      38.172   7.828 108.033  1.00  0.00    -0.026 C 
ATOM     11  C   UNL     1      38.916   6.873 107.038  1.00  0.00     0.010 C 
ATOM     12  C   UNL     1      38.283   5.480 106.896  1.00  0.00     0.033 C 
ATOM     13  C   UNL     1      36.794   5.558 106.536  1.00  0.00     0.120 C 
ATOM     14  C   UNL     1      35.960   6.371 107.575  1.00  0.00    -0.006 C 
ATOM     15  C   UNL     1      36.598   7.820 107.792  1.00  0.00     0.003 C 
ATOM     16  C   UNL     1      36.152   8.812 106.668  1.00  0.00     0.005 C 
ATOM     17  C   UNL     1      36.787  10.219 106.690  1.00  0.00     0.008 C 
ATOM     18  C   UNL     1      38.351  10.223 106.724  1.00  0.00    -0.024 C 
ATOM     19  C   UNL     1      39.040  11.719 106.845  1.00  0.00    -0.024 C 
ATOM     20  C   UNL     1      38.135  12.777 106.145  1.00  0.00     0.008 C 
ATOM     21  C   UNL     1      38.671  14.205 106.223  1.00  0.00     0.007 C 
ATOM     22  C   UNL     1      40.442  11.735 106.137  1.00  0.00     0.012 C 
ATOM     23  C   UNL     1      38.799   9.615 105.351  1.00  0.00     0.012 C 
ATOM     24  C   UNL     1      35.840   5.597 108.922  1.00  0.00     0.014 C 
ATOM     25  C   UNL     1      34.498   6.477 107.046  1.00  0.00     0.014 C 
ATOM     26  C   UNL     1      38.521   7.262 109.458  1.00  0.00     0.012 C 
ATOM     27  C   UNL     1      37.391  15.082 108.235  1.00  0.00     0.011 C 
ENDROOT
BRANCH   1  28
ATOM     28  C   UNL     1      41.516  14.275 110.111  1.00  0.00    -0.077 C 
ATOM     29  C   UNL     1      41.214  15.489 110.958  1.00  0.00     0.039 C 
ATOM     30  C   UNL     1      42.069  13.207 110.713  1.00  0.00     0.008 C 
ENDBRANCH   1  28
BRANCH  13  31
ATOM     31  O   UNL     1      36.302   4.245 106.421  1.00  0.00    -0.393 OA
ATOM     32  H   UNL     1      36.870   3.665 106.993  1.00  0.00     0.210 HD
ENDBRANCH  13  31
TORSDOF 2
ENDMDL
MODEL 9
REMARK VINA RESULT:    -5.639      2.082      4.387
REMARK INTER + INTRA:          -6.618
REMARK INTER:                  -6.205
REMARK INTRA:                  -0.412
REMARK UNBOUND:                -0.484
REMARK SMILES C=C(C)[C@@H]1CC[C@@]2(C)CC[C@@]3(C)[C@H](CC[C@H]4[C@]5(C)CC[C@@H](O)C(C)(C)[C@@H]5CC[C@]43C)[C@@H]12
REMARK SMILES IDX 4 1 5 2 6 3 7 4 31 5 13 6 14 7 15 8 16 9 17 10 19 11 20 12
REMARK SMILES IDX 21 13 23 14 26 15 27 16 28 17 29 18 11 19 10 20 9 21 12 22
REMARK SMILES IDX 30 23 24 24 25 25 18 26 8 27 2 28 3 29 1 30 22 31
REMARK H PARENT 22 32
REMARK Flexibility Score: inf
ROOT
ATOM      1  C   UNL     1      36.762  -0.723 115.044  1.00  0.00     0.018 C 
ATOM      2  C   UNL     1      37.904  -1.741 114.938  1.00  0.00     0.009 C 
ATOM      3  C   UNL     1      39.199  -0.959 115.096  1.00  0.00     0.008 C 
ATOM      4  C   UNL     1      38.911   0.463 114.577  1.00  0.00    -0.029 C 
ATOM      5  C   UNL     1      37.408   0.683 114.898  1.00  0.00     0.006 C 
ATOM      6  C   UNL     1      36.593   1.673 113.969  1.00  0.00    -0.000 C 
ATOM      7  C   UNL     1      36.475   3.036 114.630  1.00  0.00     0.005 C 
ATOM      8  C   UNL     1      35.390   3.876 113.965  1.00  0.00     0.005 C 
ATOM      9  C   UNL     1      35.175   3.689 112.411  1.00  0.00     0.002 C 
ATOM     10  C   UNL     1      34.486   5.020 111.818  1.00  0.00    -0.026 C 
ATOM     11  C   UNL     1      33.770   4.761 110.448  1.00  0.00     0.010 C 
ATOM     12  C   UNL     1      33.275   6.030 109.737  1.00  0.00     0.033 C 
ATOM     13  C   UNL     1      34.393   7.064 109.559  1.00  0.00     0.120 C 
ATOM     14  C   UNL     1      35.051   7.486 110.910  1.00  0.00    -0.006 C 
ATOM     15  C   UNL     1      35.552   6.199 111.712  1.00  0.00     0.003 C 
ATOM     16  C   UNL     1      36.945   5.711 111.195  1.00  0.00     0.005 C 
ATOM     17  C   UNL     1      37.496   4.405 111.805  1.00  0.00     0.008 C 
ATOM     18  C   UNL     1      36.516   3.189 111.726  1.00  0.00    -0.024 C 
ATOM     19  C   UNL     1      37.055   1.812 112.461  1.00  0.00    -0.024 C 
ATOM     20  C   UNL     1      38.610   1.744 112.382  1.00  0.00     0.008 C 
ATOM     21  C   UNL     1      39.215   0.516 113.060  1.00  0.00     0.007 C 
ATOM     22  C   UNL     1      36.476   0.543 111.738  1.00  0.00     0.012 C 
ATOM     23  C   UNL     1      36.368   2.873 110.198  1.00  0.00     0.012 C 
ATOM     24  C   UNL     1      34.069   8.342 111.764  1.00  0.00     0.014 C 
ATOM     25  C   UNL     1      36.238   8.444 110.591  1.00  0.00     0.014 C 
ATOM     26  C   UNL     1      33.323   5.407 112.803  1.00  0.00     0.012 C 
ATOM     27  C   UNL     1      39.808   1.475 115.336  1.00  0.00     0.011 C 
ENDROOT
BRANCH   1  28
ATOM     28  C   UNL     1      35.962  -0.845 116.343  1.00  0.00    -0.077 C 
ATOM     29  C   UNL     1      34.724  -0.015 116.593  1.00  0.00     0.039 C 
ATOM     30  C   UNL     1      36.241  -1.838 117.206  1.00  0.00     0.008 C 
ENDBRANCH   1  28
BRANCH  13  31
ATOM     31  O   UNL     1      33.854   8.182 108.897  1.00  0.00    -0.393 OA
ATOM     32  H   UNL     1      33.015   7.888 108.454  1.00  0.00     0.210 HD
ENDBRANCH  13  31
TORSDOF 2
ENDMDL
