MODEL 1
REMARK VINA RESULT:    -4.562      0.000      0.000
REMARK INTER + INTRA:          -4.840
REMARK INTER:                  -4.829
REMARK INTRA:                  -0.011
REMARK UNBOUND:                -0.011
REMARK SMILES O=Cc1ccccc1
REMARK SMILES IDX 6 1 5 2 4 3 3 4 8 5 7 6 2 7 1 8
REMARK H PARENT
REMARK Flexibility Score: inf
ROOT
ATOM      1  C   UNL     1     -15.289  61.465  38.306  1.00  0.00     0.000 A 
ATOM      2  C   UNL     1     -14.678  62.698  38.549  1.00  0.00     0.001 A 
ATOM      3  C   UNL     1     -13.356  62.749  39.002  1.00  0.00     0.011 A 
ATOM      4  C   UNL     1     -12.634  61.563  39.215  1.00  0.00     0.014 A 
ATOM      5  C   UNL     1     -13.256  60.325  38.967  1.00  0.00     0.011 A 
ATOM      6  C   UNL     1     -14.579  60.279  38.515  1.00  0.00     0.001 A 
ENDROOT
BRANCH   4   7
ATOM      7  C   UNL     1     -11.241  61.634  39.691  1.00  0.00     0.260 C 
ATOM      8  O   UNL     1     -10.808  60.829  40.559  1.00  0.00    -0.298 OA
ENDBRANCH   4   7
TORSDOF 1
ENDMDL
MODEL 2
REMARK VINA RESULT:    -4.534      1.416      2.278
REMARK INTER + INTRA:          -4.810
REMARK INTER:                  -4.799
REMARK INTRA:                  -0.011
REMARK UNBOUND:                -0.011
REMARK SMILES O=Cc1ccccc1
REMARK SMILES IDX 6 1 5 2 4 3 3 4 8 5 7 6 2 7 1 8
REMARK H PARENT
REMARK Flexibility Score: inf
ROOT
ATOM      1  C   UNL     1     -16.028  62.471  37.875  1.00  0.00     0.000 A 
ATOM      2  C   UNL     1     -16.148  61.109  38.163  1.00  0.00     0.001 A 
ATOM      3  C   UNL     1     -15.152  60.456  38.897  1.00  0.00     0.011 A 
ATOM      4  C   UNL     1     -14.027  61.164  39.350  1.00  0.00     0.014 A 
ATOM      5  C   UNL     1     -13.914  62.536  39.057  1.00  0.00     0.011 A 
ATOM      6  C   UNL     1     -14.912  63.184  38.322  1.00  0.00     0.001 A 
ENDROOT
BRANCH   4   7
ATOM      7  C   UNL     1     -12.987  60.462  40.123  1.00  0.00     0.260 C 
ATOM      8  O   UNL     1     -12.522  59.357  39.734  1.00  0.00    -0.298 OA
ENDBRANCH   4   7
TORSDOF 1
ENDMDL
MODEL 3
REMARK VINA RESULT:    -4.507     18.355     19.201
REMARK INTER + INTRA:          -4.781
REMARK INTER:                  -4.769
REMARK INTRA:                  -0.012
REMARK UNBOUND:                -0.011
REMARK SMILES O=Cc1ccccc1
REMARK SMILES IDX 6 1 5 2 4 3 3 4 8 5 7 6 2 7 1 8
REMARK H PARENT
REMARK Flexibility Score: inf
ROOT
ATOM      1  C   UNL     1      -9.569  50.239  54.677  1.00  0.00     0.000 A 
ATOM      2  C   UNL     1     -10.253  51.142  53.859  1.00  0.00     0.001 A 
ATOM      3  C   UNL     1     -11.581  50.893  53.496  1.00  0.00     0.011 A 
ATOM      4  C   UNL     1     -12.234  49.736  53.950  1.00  0.00     0.014 A 
ATOM      5  C   UNL     1     -11.539  48.832  54.774  1.00  0.00     0.011 A 
ATOM      6  C   UNL     1     -10.211  49.085  55.134  1.00  0.00     0.001 A 
ENDROOT
BRANCH   4   7
ATOM      7  C   UNL     1     -13.634  49.489  53.559  1.00  0.00     0.260 C 
ATOM      8  O   UNL     1     -14.042  49.756  52.397  1.00  0.00    -0.298 OA
ENDBRANCH   4   7
TORSDOF 1
ENDMDL
MODEL 4
REMARK VINA RESULT:    -4.503      1.489      1.723
REMARK INTER + INTRA:          -4.777
REMARK INTER:                  -4.768
REMARK INTRA:                  -0.010
REMARK UNBOUND:                -0.011
REMARK SMILES O=Cc1ccccc1
REMARK SMILES IDX 6 1 5 2 4 3 3 4 8 5 7 6 2 7 1 8
REMARK H PARENT
REMARK Flexibility Score: inf
ROOT
ATOM      1  C   UNL     1     -16.100  62.428  37.915  1.00  0.00     0.000 A 
ATOM      2  C   UNL     1     -14.935  63.102  38.290  1.00  0.00     0.001 A 
ATOM      3  C   UNL     1     -13.962  62.451  39.054  1.00  0.00     0.011 A 
ATOM      4  C   UNL     1     -14.148  61.116  39.450  1.00  0.00     0.014 A 
ATOM      5  C   UNL     1     -15.323  60.443  39.068  1.00  0.00     0.011 A 
ATOM      6  C   UNL     1     -16.294  61.099  38.304  1.00  0.00     0.001 A 
ENDROOT
BRANCH   4   7
ATOM      7  C   UNL     1     -13.112  60.444  40.255  1.00  0.00     0.260 C 
ATOM      8  O   UNL     1     -12.528  59.410  39.832  1.00  0.00    -0.298 OA
ENDBRANCH   4   7
TORSDOF 1
ENDMDL
MODEL 5
REMARK VINA RESULT:    -4.406      2.498      3.970
REMARK INTER + INTRA:          -4.674
REMARK INTER:                  -4.662
REMARK INTRA:                  -0.013
REMARK UNBOUND:                -0.011
REMARK SMILES O=Cc1ccccc1
REMARK SMILES IDX 6 1 5 2 4 3 3 4 8 5 7 6 2 7 1 8
REMARK H PARENT
REMARK Flexibility Score: inf
ROOT
ATOM      1  C   UNL     1     -12.436  61.442  39.236  1.00  0.00     0.000 A 
ATOM      2  C   UNL     1     -13.139  60.260  38.987  1.00  0.00     0.001 A 
ATOM      3  C   UNL     1     -14.466  60.312  38.548  1.00  0.00     0.011 A 
ATOM      4  C   UNL     1     -15.101  61.550  38.356  1.00  0.00     0.014 A 
ATOM      5  C   UNL     1     -14.386  62.736  38.608  1.00  0.00     0.011 A 
ATOM      6  C   UNL     1     -13.060  62.679  39.048  1.00  0.00     0.001 A 
ENDROOT
BRANCH   4   7
ATOM      7  C   UNL     1     -16.499  61.587  37.892  1.00  0.00     0.260 C 
ATOM      8  O   UNL     1     -17.292  60.638  38.138  1.00  0.00    -0.298 OA
ENDBRANCH   4   7
TORSDOF 1
ENDMDL
MODEL 6
REMARK VINA RESULT:    -4.397     17.815     18.505
REMARK INTER + INTRA:          -4.665
REMARK INTER:                  -4.653
REMARK INTRA:                  -0.012
REMARK UNBOUND:                -0.011
REMARK SMILES O=Cc1ccccc1
REMARK SMILES IDX 6 1 5 2 4 3 3 4 8 5 7 6 2 7 1 8
REMARK H PARENT
REMARK Flexibility Score: inf
ROOT
ATOM      1  C   UNL     1     -13.841  48.654  52.978  1.00  0.00     0.000 A 
ATOM      2  C   UNL     1     -13.671  49.805  52.205  1.00  0.00     0.001 A 
ATOM      3  C   UNL     1     -12.664  50.722  52.523  1.00  0.00     0.011 A 
ATOM      4  C   UNL     1     -11.817  50.493  53.620  1.00  0.00     0.014 A 
ATOM      5  C   UNL     1     -11.994  49.330  54.393  1.00  0.00     0.011 A 
ATOM      6  C   UNL     1     -13.003  48.417  54.071  1.00  0.00     0.001 A 
ENDROOT
BRANCH   4   7
ATOM      7  C   UNL     1     -10.761  51.469  53.940  1.00  0.00     0.260 C 
ATOM      8  O   UNL     1      -9.767  51.144  54.644  1.00  0.00    -0.298 OA
ENDBRANCH   4   7
TORSDOF 1
ENDMDL
MODEL 7
REMARK VINA RESULT:    -4.354     17.760     18.493
REMARK INTER + INTRA:          -4.619
REMARK INTER:                  -4.607
REMARK INTRA:                  -0.012
REMARK UNBOUND:                -0.011
REMARK SMILES O=Cc1ccccc1
REMARK SMILES IDX 6 1 5 2 4 3 3 4 8 5 7 6 2 7 1 8
REMARK H PARENT
REMARK Flexibility Score: inf
ROOT
ATOM      1  C   UNL     1     -13.874  48.727  52.880  1.00  0.00     0.000 A 
ATOM      2  C   UNL     1     -13.082  48.468  54.002  1.00  0.00     0.001 A 
ATOM      3  C   UNL     1     -12.066  49.359  54.365  1.00  0.00     0.011 A 
ATOM      4  C   UNL     1     -11.835  50.518  53.606  1.00  0.00     0.014 A 
ATOM      5  C   UNL     1     -12.637  50.772  52.478  1.00  0.00     0.011 A 
ATOM      6  C   UNL     1     -13.651  49.878  52.119  1.00  0.00     0.001 A 
ENDROOT
BRANCH   4   7
ATOM      7  C   UNL     1     -10.761  51.446  54.003  1.00  0.00     0.260 C 
ATOM      8  O   UNL     1      -9.680  51.021  54.491  1.00  0.00    -0.298 OA
ENDBRANCH   4   7
TORSDOF 1
ENDMDL
MODEL 8
REMARK VINA RESULT:    -4.295     14.904     15.792
REMARK INTER + INTRA:          -4.558
REMARK INTER:                  -4.545
REMARK INTRA:                  -0.012
REMARK UNBOUND:                -0.011
REMARK SMILES O=Cc1ccccc1
REMARK SMILES IDX 6 1 5 2 4 3 3 4 8 5 7 6 2 7 1 8
REMARK H PARENT
REMARK Flexibility Score: inf
ROOT
ATOM      1  C   UNL     1      -7.326  61.776  54.585  1.00  0.00     0.000 A 
ATOM      2  C   UNL     1      -8.094  62.937  54.460  1.00  0.00     0.001 A 
ATOM      3  C   UNL     1      -7.757  63.902  53.506  1.00  0.00     0.011 A 
ATOM      4  C   UNL     1      -6.646  63.712  52.668  1.00  0.00     0.014 A 
ATOM      5  C   UNL     1      -5.879  62.540  52.798  1.00  0.00     0.011 A 
ATOM      6  C   UNL     1      -6.219  61.578  53.755  1.00  0.00     0.001 A 
ENDROOT
BRANCH   4   7
ATOM      7  C   UNL     1      -6.305  64.739  51.667  1.00  0.00     0.260 C 
ATOM      8  O   UNL     1      -6.489  65.963  51.901  1.00  0.00    -0.298 OA
ENDBRANCH   4   7
TORSDOF 1
ENDMDL
MODEL 9
REMARK VINA RESULT:    -4.175     15.705     16.566
REMARK INTER + INTRA:          -4.430
REMARK INTER:                  -4.421
REMARK INTRA:                  -0.009
REMARK UNBOUND:                -0.011
REMARK SMILES O=Cc1ccccc1
REMARK SMILES IDX 6 1 5 2 4 3 3 4 8 5 7 6 2 7 1 8
REMARK H PARENT
REMARK Flexibility Score: inf
ROOT
ATOM      1  C   UNL     1      -7.365  63.754  52.914  1.00  0.00     0.000 A 
ATOM      2  C   UNL     1      -8.115  63.392  54.036  1.00  0.00     0.001 A 
ATOM      3  C   UNL     1      -7.745  62.280  54.799  1.00  0.00     0.011 A 
ATOM      4  C   UNL     1      -6.619  61.519  54.443  1.00  0.00     0.014 A 
ATOM      5  C   UNL     1      -5.869  61.890  53.312  1.00  0.00     0.011 A 
ATOM      6  C   UNL     1      -6.243  63.003  52.552  1.00  0.00     0.001 A 
ENDROOT
BRANCH   4   7
ATOM      7  C   UNL     1      -6.243  60.350  55.258  1.00  0.00     0.260 C 
ATOM      8  O   UNL     1      -5.530  60.478  56.290  1.00  0.00    -0.298 OA
ENDBRANCH   4   7
TORSDOF 1
ENDMDL
