MODEL 1
REMARK VINA RESULT:    -6.768      0.000      0.000
REMARK INTER + INTRA:          -7.384
REMARK INTER:                  -7.163
REMARK INTRA:                  -0.221
REMARK UNBOUND:                -0.221
REMARK SMILES CC1=CC[C@@H]2[C@H]3[C@@H](C(C)C)CC[C@]2(C)[C@@H]13
REMARK SMILES IDX 1 1 2 2 3 3 4 4 5 5 6 6 15 7 13 8 12 9 11 10 7 11 14 12 8 13
REMARK SMILES IDX 9 14 10 15
REMARK H PARENT
REMARK Flexibility Score: inf
ROOT
ATOM      1  C   UNL     1      13.252  29.411  20.985  1.00  0.00     0.039 C 
ATOM      2  C   UNL     1      13.157  30.874  21.301  1.00  0.00    -0.073 C 
ATOM      3  C   UNL     1      14.271  31.644  21.407  1.00  0.00    -0.027 C 
ATOM      4  C   UNL     1      14.111  33.138  21.707  1.00  0.00     0.031 C 
ATOM      5  C   UNL     1      12.602  33.501  21.880  1.00  0.00     0.003 C 
ATOM      6  C   UNL     1      11.966  32.429  22.807  1.00  0.00     0.004 C 
ATOM      7  C   UNL     1      11.809  31.562  21.535  1.00  0.00     0.024 C 
ATOM      8  C   UNL     1      11.736  32.891  20.747  1.00  0.00    -0.022 C 
ATOM      9  C   UNL     1      10.278  33.443  20.814  1.00  0.00     0.008 C 
ATOM     10  C   UNL     1       9.817  33.735  22.268  1.00  0.00     0.005 C 
ATOM     11  C   UNL     1      10.553  32.851  23.319  1.00  0.00    -0.005 C 
ATOM     12  C   UNL     1      12.270  32.917  19.297  1.00  0.00     0.012 C 
ENDROOT
BRANCH  11  13
ATOM     13  C   UNL     1      10.565  33.505  24.735  1.00  0.00    -0.014 C 
ATOM     14  C   UNL     1       9.508  34.616  24.848  1.00  0.00     0.007 C 
ATOM     15  C   UNL     1      10.391  32.500  25.887  1.00  0.00     0.007 C 
ENDBRANCH  11  13
TORSDOF 1
ENDMDL
MODEL 2
REMARK VINA RESULT:    -6.507      0.783      1.204
REMARK INTER + INTRA:          -7.108
REMARK INTER:                  -6.689
REMARK INTRA:                  -0.419
REMARK UNBOUND:                -0.221
REMARK SMILES CC1=CC[C@@H]2[C@H]3[C@@H](C(C)C)CC[C@]2(C)[C@@H]13
REMARK SMILES IDX 1 1 2 2 3 3 4 4 5 5 6 6 15 7 13 8 12 9 11 10 7 11 14 12 8 13
REMARK SMILES IDX 9 14 10 15
REMARK H PARENT
REMARK Flexibility Score: inf
ROOT
ATOM      1  C   UNL     1      12.429  29.525  20.746  1.00  0.00     0.039 C 
ATOM      2  C   UNL     1      12.353  30.933  21.254  1.00  0.00    -0.073 C 
ATOM      3  C   UNL     1      13.475  31.620  21.594  1.00  0.00    -0.027 C 
ATOM      4  C   UNL     1      13.338  33.065  22.084  1.00  0.00     0.031 C 
ATOM      5  C   UNL     1      11.833  33.482  22.137  1.00  0.00     0.003 C 
ATOM      6  C   UNL     1      11.052  32.329  22.824  1.00  0.00     0.004 C 
ATOM      7  C   UNL     1      11.014  31.655  21.433  1.00  0.00     0.024 C 
ATOM      8  C   UNL     1      11.085  33.081  20.839  1.00  0.00    -0.022 C 
ATOM      9  C   UNL     1       9.652  33.697  20.820  1.00  0.00     0.008 C 
ATOM     10  C   UNL     1       9.034  33.811  22.240  1.00  0.00     0.005 C 
ATOM     11  C   UNL     1       9.606  32.753  23.230  1.00  0.00    -0.005 C 
ATOM     12  C   UNL     1      11.788  33.277  19.476  1.00  0.00     0.012 C 
ENDROOT
BRANCH  11  13
ATOM     13  C   UNL     1       9.475  33.205  24.718  1.00  0.00    -0.014 C 
ATOM     14  C   UNL     1      10.595  32.610  25.586  1.00  0.00     0.007 C 
ATOM     15  C   UNL     1       9.426  34.732  24.902  1.00  0.00     0.007 C 
ENDBRANCH  11  13
TORSDOF 1
ENDMDL
MODEL 3
REMARK VINA RESULT:    -6.500      1.202      2.027
REMARK INTER + INTRA:          -7.101
REMARK INTER:                  -6.824
REMARK INTRA:                  -0.277
REMARK UNBOUND:                -0.221
REMARK SMILES CC1=CC[C@@H]2[C@H]3[C@@H](C(C)C)CC[C@]2(C)[C@@H]13
REMARK SMILES IDX 1 1 2 2 3 3 4 4 5 5 6 6 15 7 13 8 12 9 11 10 7 11 14 12 8 13
REMARK SMILES IDX 9 14 10 15
REMARK H PARENT
REMARK Flexibility Score: inf
ROOT
ATOM      1  C   UNL     1      15.778  31.990  22.384  1.00  0.00     0.039 C 
ATOM      2  C   UNL     1      14.528  32.499  21.731  1.00  0.00    -0.073 C 
ATOM      3  C   UNL     1      14.580  33.428  20.740  1.00  0.00    -0.027 C 
ATOM      4  C   UNL     1      13.272  33.892  20.092  1.00  0.00     0.031 C 
ATOM      5  C   UNL     1      12.051  33.189  20.767  1.00  0.00     0.003 C 
ATOM      6  C   UNL     1      12.252  33.273  22.304  1.00  0.00     0.004 C 
ATOM      7  C   UNL     1      13.140  32.014  22.158  1.00  0.00     0.024 C 
ATOM      8  C   UNL     1      12.284  31.664  20.919  1.00  0.00    -0.022 C 
ATOM      9  C   UNL     1      10.976  30.953  21.387  1.00  0.00     0.008 C 
ATOM     10  C   UNL     1      10.112  31.848  22.316  1.00  0.00     0.005 C 
ATOM     11  C   UNL     1      10.958  32.901  23.093  1.00  0.00    -0.005 C 
ATOM     12  C   UNL     1      12.950  30.887  19.760  1.00  0.00     0.012 C 
ENDROOT
BRANCH  11  13
ATOM     13  C   UNL     1      10.109  34.135  23.530  1.00  0.00    -0.014 C 
ATOM     14  C   UNL     1       8.995  34.437  22.515  1.00  0.00     0.007 C 
ATOM     15  C   UNL     1       9.510  34.009  24.942  1.00  0.00     0.007 C 
ENDBRANCH  11  13
TORSDOF 1
ENDMDL
MODEL 4
REMARK VINA RESULT:    -6.334      1.923      5.093
REMARK INTER + INTRA:          -6.924
REMARK INTER:                  -6.712
REMARK INTRA:                  -0.212
REMARK UNBOUND:                -0.221
REMARK SMILES CC1=CC[C@@H]2[C@H]3[C@@H](C(C)C)CC[C@]2(C)[C@@H]13
REMARK SMILES IDX 1 1 2 2 3 3 4 4 5 5 6 6 15 7 13 8 12 9 11 10 7 11 14 12 8 13
REMARK SMILES IDX 9 14 10 15
REMARK H PARENT
REMARK Flexibility Score: inf
ROOT
ATOM      1  C   UNL     1       7.343  31.029  24.788  1.00  0.00     0.039 C 
ATOM      2  C   UNL     1       8.154  32.241  24.436  1.00  0.00    -0.073 C 
ATOM      3  C   UNL     1       7.957  33.427  25.069  1.00  0.00    -0.027 C 
ATOM      4  C   UNL     1       8.833  34.624  24.684  1.00  0.00     0.031 C 
ATOM      5  C   UNL     1       9.819  34.232  23.538  1.00  0.00     0.003 C 
ATOM      6  C   UNL     1       9.006  33.462  22.463  1.00  0.00     0.004 C 
ATOM      7  C   UNL     1       9.222  32.205  23.339  1.00  0.00     0.024 C 
ATOM      8  C   UNL     1      10.523  32.882  23.830  1.00  0.00    -0.022 C 
ATOM      9  C   UNL     1      11.658  32.619  22.791  1.00  0.00     0.008 C 
ATOM     10  C   UNL     1      11.328  33.201  21.390  1.00  0.00     0.005 C 
ATOM     11  C   UNL     1       9.795  33.299  21.126  1.00  0.00    -0.005 C 
ATOM     12  C   UNL     1      11.012  32.585  25.267  1.00  0.00     0.012 C 
ENDROOT
BRANCH  11  13
ATOM     13  C   UNL     1       9.448  34.377  20.054  1.00  0.00    -0.014 C 
ATOM     14  C   UNL     1      10.463  34.365  18.899  1.00  0.00     0.007 C 
ATOM     15  C   UNL     1       8.019  34.263  19.495  1.00  0.00     0.007 C 
ENDBRANCH  11  13
TORSDOF 1
ENDMDL
MODEL 5
REMARK VINA RESULT:    -6.300      1.305      4.679
REMARK INTER + INTRA:          -6.889
REMARK INTER:                  -6.639
REMARK INTRA:                  -0.250
REMARK UNBOUND:                -0.221
REMARK SMILES CC1=CC[C@@H]2[C@H]3[C@@H](C(C)C)CC[C@]2(C)[C@@H]13
REMARK SMILES IDX 1 1 2 2 3 3 4 4 5 5 6 6 15 7 13 8 12 9 11 10 7 11 14 12 8 13
REMARK SMILES IDX 9 14 10 15
REMARK H PARENT
REMARK Flexibility Score: inf
ROOT
ATOM      1  C   UNL     1       8.650  34.556  20.105  1.00  0.00     0.039 C 
ATOM      2  C   UNL     1       9.557  33.933  21.124  1.00  0.00    -0.073 C 
ATOM      3  C   UNL     1       9.446  34.237  22.444  1.00  0.00    -0.027 C 
ATOM      4  C   UNL     1      10.384  33.551  23.442  1.00  0.00     0.031 C 
ATOM      5  C   UNL     1      11.375  32.602  22.695  1.00  0.00     0.003 C 
ATOM      6  C   UNL     1      11.940  33.380  21.476  1.00  0.00     0.004 C 
ATOM      7  C   UNL     1      10.658  32.946  20.727  1.00  0.00     0.024 C 
ATOM      8  C   UNL     1      10.640  31.712  21.660  1.00  0.00    -0.022 C 
ATOM      9  C   UNL     1      11.603  30.626  21.088  1.00  0.00     0.008 C 
ATOM     10  C   UNL     1      13.072  31.122  20.996  1.00  0.00     0.005 C 
ATOM     11  C   UNL     1      13.175  32.669  20.839  1.00  0.00    -0.005 C 
ATOM     12  C   UNL     1       9.274  31.094  22.036  1.00  0.00     0.012 C 
ENDROOT
BRANCH  11  13
ATOM     13  C   UNL     1      14.547  33.223  21.333  1.00  0.00    -0.014 C 
ATOM     14  C   UNL     1      15.366  32.136  22.047  1.00  0.00     0.007 C 
ATOM     15  C   UNL     1      15.393  33.871  20.224  1.00  0.00     0.007 C 
ENDBRANCH  11  13
TORSDOF 1
ENDMDL
MODEL 6
REMARK VINA RESULT:    -6.273      3.040      4.402
REMARK INTER + INTRA:          -6.860
REMARK INTER:                  -6.594
REMARK INTRA:                  -0.266
REMARK UNBOUND:                -0.221
REMARK SMILES CC1=CC[C@@H]2[C@H]3[C@@H](C(C)C)CC[C@]2(C)[C@@H]13
REMARK SMILES IDX 1 1 2 2 3 3 4 4 5 5 6 6 15 7 13 8 12 9 11 10 7 11 14 12 8 13
REMARK SMILES IDX 9 14 10 15
REMARK H PARENT
REMARK Flexibility Score: inf
ROOT
ATOM      1  C   UNL     1      12.070  32.512  22.447  1.00  0.00     0.039 C 
ATOM      2  C   UNL     1      10.644  32.821  22.795  1.00  0.00    -0.073 C 
ATOM      3  C   UNL     1      10.336  33.756  23.732  1.00  0.00    -0.027 C 
ATOM      4  C   UNL     1       8.862  34.048  24.028  1.00  0.00     0.031 C 
ATOM      5  C   UNL     1       7.940  33.126  23.166  1.00  0.00     0.003 C 
ATOM      6  C   UNL     1       8.501  31.682  23.261  1.00  0.00     0.004 C 
ATOM      7  C   UNL     1       9.475  32.090  22.130  1.00  0.00     0.024 C 
ATOM      8  C   UNL     1       8.391  33.097  21.683  1.00  0.00    -0.022 C 
ATOM      9  C   UNL     1       7.336  32.355  20.804  1.00  0.00     0.008 C 
ATOM     10  C   UNL     1       6.622  31.209  21.571  1.00  0.00     0.005 C 
ATOM     11  C   UNL     1       7.497  30.618  22.718  1.00  0.00    -0.005 C 
ATOM     12  C   UNL     1       8.842  34.414  21.009  1.00  0.00     0.012 C 
ENDROOT
BRANCH  11  13
ATOM     13  C   UNL     1       6.636  29.938  23.826  1.00  0.00    -0.014 C 
ATOM     14  C   UNL     1       6.711  28.406  23.734  1.00  0.00     0.007 C 
ATOM     15  C   UNL     1       6.986  30.393  25.254  1.00  0.00     0.007 C 
ENDBRANCH  11  13
TORSDOF 1
ENDMDL
MODEL 7
REMARK VINA RESULT:    -6.226      1.279      4.597
REMARK INTER + INTRA:          -6.810
REMARK INTER:                  -6.543
REMARK INTRA:                  -0.267
REMARK UNBOUND:                -0.221
REMARK SMILES CC1=CC[C@@H]2[C@H]3[C@@H](C(C)C)CC[C@]2(C)[C@@H]13
REMARK SMILES IDX 1 1 2 2 3 3 4 4 5 5 6 6 15 7 13 8 12 9 11 10 7 11 14 12 8 13
REMARK SMILES IDX 9 14 10 15
REMARK H PARENT
REMARK Flexibility Score: inf
ROOT
ATOM      1  C   UNL     1       9.256  34.617  24.902  1.00  0.00     0.039 C 
ATOM      2  C   UNL     1       9.440  33.589  23.826  1.00  0.00    -0.073 C 
ATOM      3  C   UNL     1       8.609  32.519  23.725  1.00  0.00    -0.027 C 
ATOM      4  C   UNL     1       8.831  31.515  22.589  1.00  0.00     0.031 C 
ATOM      5  C   UNL     1      10.075  31.923  21.736  1.00  0.00     0.003 C 
ATOM      6  C   UNL     1      11.221  32.280  22.721  1.00  0.00     0.004 C 
ATOM      7  C   UNL     1      10.579  33.685  22.807  1.00  0.00     0.024 C 
ATOM      8  C   UNL     1      10.048  33.432  21.377  1.00  0.00    -0.022 C 
ATOM      9  C   UNL     1      11.172  33.770  20.348  1.00  0.00     0.008 C 
ATOM     10  C   UNL     1      12.438  32.892  20.540  1.00  0.00     0.005 C 
ATOM     11  C   UNL     1      12.604  32.389  22.006  1.00  0.00    -0.005 C 
ATOM     12  C   UNL     1       8.708  34.082  20.963  1.00  0.00     0.012 C 
ENDROOT
BRANCH  11  13
ATOM     13  C   UNL     1      13.463  31.090  22.090  1.00  0.00    -0.014 C 
ATOM     14  C   UNL     1      13.160  30.140  20.919  1.00  0.00     0.007 C 
ATOM     15  C   UNL     1      14.977  31.348  22.175  1.00  0.00     0.007 C 
ENDBRANCH  11  13
TORSDOF 1
ENDMDL
MODEL 8
REMARK VINA RESULT:    -6.178      2.113      4.955
REMARK INTER + INTRA:          -6.760
REMARK INTER:                  -6.481
REMARK INTRA:                  -0.279
REMARK UNBOUND:                -0.221
REMARK SMILES CC1=CC[C@@H]2[C@H]3[C@@H](C(C)C)CC[C@]2(C)[C@@H]13
REMARK SMILES IDX 1 1 2 2 3 3 4 4 5 5 6 6 15 7 13 8 12 9 11 10 7 11 14 12 8 13
REMARK SMILES IDX 9 14 10 15
REMARK H PARENT
REMARK Flexibility Score: inf
ROOT
ATOM      1  C   UNL     1       7.198  29.909  22.259  1.00  0.00     0.039 C 
ATOM      2  C   UNL     1       7.685  31.327  22.275  1.00  0.00    -0.073 C 
ATOM      3  C   UNL     1       7.011  32.311  21.624  1.00  0.00    -0.027 C 
ATOM      4  C   UNL     1       7.543  33.745  21.698  1.00  0.00     0.031 C 
ATOM      5  C   UNL     1       8.864  33.795  22.529  1.00  0.00     0.003 C 
ATOM      6  C   UNL     1       9.770  32.632  22.039  1.00  0.00     0.004 C 
ATOM      7  C   UNL     1       8.969  31.729  23.007  1.00  0.00     0.024 C 
ATOM      8  C   UNL     1       8.733  33.000  23.855  1.00  0.00    -0.022 C 
ATOM      9  C   UNL     1       9.976  33.244  24.766  1.00  0.00     0.008 C 
ATOM     10  C   UNL     1      11.279  33.462  23.949  1.00  0.00     0.005 C 
ATOM     11  C   UNL     1      11.237  32.766  22.555  1.00  0.00    -0.005 C 
ATOM     12  C   UNL     1       7.423  33.110  24.669  1.00  0.00     0.012 C 
ENDROOT
BRANCH  11  13
ATOM     13  C   UNL     1      12.208  33.434  21.533  1.00  0.00    -0.014 C 
ATOM     14  C   UNL     1      13.658  32.976  21.756  1.00  0.00     0.007 C 
ATOM     15  C   UNL     1      11.811  33.215  20.063  1.00  0.00     0.007 C 
ENDBRANCH  11  13
TORSDOF 1
ENDMDL
MODEL 9
REMARK VINA RESULT:    -6.102      1.873      3.907
REMARK INTER + INTRA:          -6.679
REMARK INTER:                  -6.295
REMARK INTRA:                  -0.384
REMARK UNBOUND:                -0.221
REMARK SMILES CC1=CC[C@@H]2[C@H]3[C@@H](C(C)C)CC[C@]2(C)[C@@H]13
REMARK SMILES IDX 1 1 2 2 3 3 4 4 5 5 6 6 15 7 13 8 12 9 11 10 7 11 14 12 8 13
REMARK SMILES IDX 9 14 10 15
REMARK H PARENT
REMARK Flexibility Score: inf
ROOT
ATOM      1  C   UNL     1       8.089  34.632  19.149  1.00  0.00     0.039 C 
ATOM      2  C   UNL     1       8.444  33.587  20.164  1.00  0.00    -0.073 C 
ATOM      3  C   UNL     1       7.865  32.358  20.141  1.00  0.00    -0.027 C 
ATOM      4  C   UNL     1       8.287  31.322  21.189  1.00  0.00     0.031 C 
ATOM      5  C   UNL     1       9.341  31.934  22.166  1.00  0.00     0.003 C 
ATOM      6  C   UNL     1       8.828  33.335  22.593  1.00  0.00     0.004 C 
ATOM      7  C   UNL     1       9.457  33.859  21.280  1.00  0.00     0.024 C 
ATOM      8  C   UNL     1      10.459  32.687  21.399  1.00  0.00    -0.022 C 
ATOM      9  C   UNL     1      11.610  33.096  22.370  1.00  0.00     0.008 C 
ATOM     10  C   UNL     1      11.097  33.420  23.799  1.00  0.00     0.005 C 
ATOM     11  C   UNL     1       9.618  33.912  23.809  1.00  0.00    -0.005 C 
ATOM     12  C   UNL     1      11.026  32.068  20.100  1.00  0.00     0.012 C 
ENDROOT
BRANCH  11  13
ATOM     13  C   UNL     1       8.924  33.670  25.185  1.00  0.00    -0.014 C 
ATOM     14  C   UNL     1       7.490  33.147  25.005  1.00  0.00     0.007 C 
ATOM     15  C   UNL     1       9.708  32.733  26.121  1.00  0.00     0.007 C 
ENDBRANCH  11  13
TORSDOF 1
ENDMDL
