MODEL 1
REMARK VINA RESULT:    -5.071      0.000      0.000
REMARK INTER + INTRA:          -8.007
REMARK INTER:                  -7.739
REMARK INTRA:                  -0.268
REMARK UNBOUND:                -0.268
REMARK SMILES CC1=CCC[C@@H](C)C(=O)C[C@H](C(C)C)C(=O)C1
REMARK SMILES IDX 8 1 9 2 6 3 7 4 5 5 4 6 3 7 2 8 1 9 10 11 11 12 15 13 16 14
REMARK SMILES IDX 17 15 12 17 13 18 14 19
REMARK H PARENT
REMARK Flexibility Score: 70.00
ROOT
ATOM      1  C   UNL     1     -13.314 -16.672  32.180  1.00  0.00     0.136 C 
ATOM      2  O   UNL     1     -14.187 -17.372  32.673  1.00  0.00    -0.299 OA
ENDROOT
BRANCH   1   3
ATOM      3  C   UNL     1     -13.518 -15.166  32.141  1.00  0.00     0.053 C 
ATOM      4  C   UNL     1     -13.788 -14.631  33.553  1.00  0.00     0.016 C 
BRANCH   3   5
ATOM      5  C   UNL     1     -14.642 -14.745  31.171  1.00  0.00     0.015 C 
BRANCH   5   6
ATOM      6  C   UNL     1     -14.097 -13.935  29.982  1.00  0.00     0.028 C 
BRANCH   6   7
ATOM      7  C   UNL     1     -14.118 -14.696  28.679  1.00  0.00    -0.028 C 
ATOM      8  C   UNL     1     -13.081 -15.376  28.123  1.00  0.00    -0.070 CG0
ATOM      9  C   UNL     1     -13.298 -15.955  26.746  1.00  0.00     0.039 C 
ATOM     10  G   UNL     1     -11.752 -15.659  28.822  1.00  0.00     0.000 G0
ENDBRANCH   6   7
ENDBRANCH   5   6
ENDBRANCH   3   5
ENDBRANCH   1   3
BRANCH   1  11
ATOM     11  C   UNL     1     -12.102 -17.331  31.557  1.00  0.00     0.087 C 
BRANCH  11  12
ATOM     12  C   UNL     1     -12.327 -17.874  30.115  1.00  0.00     0.066 C 
BRANCH  12  13
ATOM     13  C   UNL     1     -11.474 -17.110  29.104  1.00  0.00     0.140 C 
ATOM     14  O   UNL     1     -10.604 -17.688  28.465  1.00  0.00    -0.299 OA
BRANCH  13  15
ATOM     15  C   UNL     1     -11.752 -15.655  28.822  1.00  0.00     0.106 CG0
ATOM     16  G   UNL     1     -13.078 -15.375  28.117  1.00  0.00     0.000 G0
ENDBRANCH  13  15
ENDBRANCH  12  13
BRANCH  12  17
ATOM     17  C   UNL     1     -12.181 -19.429  29.970  1.00  0.00    -0.006 C 
ATOM     18  C   UNL     1     -13.165 -19.975  28.916  1.00  0.00     0.008 C 
ATOM     19  C   UNL     1     -12.418 -20.184  31.291  1.00  0.00     0.008 C 
ENDBRANCH  12  17
ENDBRANCH  11  12
ENDBRANCH   1  11
TORSDOF 1
ENDMDL
MODEL 2
REMARK VINA RESULT:    -5.024      1.807      3.769
REMARK INTER + INTRA:          -7.935
REMARK INTER:                  -8.393
REMARK INTRA:                   0.458
REMARK UNBOUND:                -0.268
REMARK SMILES CC1=CCC[C@@H](C)C(=O)C[C@H](C(C)C)C(=O)C1
REMARK SMILES IDX 8 1 9 2 6 3 7 4 5 5 4 6 3 7 2 8 1 9 10 11 11 12 15 13 16 14
REMARK SMILES IDX 17 15 12 17 13 18 14 19
REMARK H PARENT
REMARK Flexibility Score: 70.00
ROOT
ATOM      1  C   UNL     1     -13.691 -14.634  29.854  1.00  0.00     0.136 C 
ATOM      2  O   UNL     1     -14.613 -14.391  30.620  1.00  0.00    -0.299 OA
ENDROOT
BRANCH   1   3
ATOM      3  C   UNL     1     -13.710 -14.016  28.465  1.00  0.00     0.053 C 
ATOM      4  C   UNL     1     -14.708 -12.853  28.416  1.00  0.00     0.016 C 
BRANCH   3   5
ATOM      5  C   UNL     1     -14.020 -15.051  27.361  1.00  0.00     0.015 C 
BRANCH   5   6
ATOM      6  C   UNL     1     -12.946 -16.150  27.292  1.00  0.00     0.028 C 
BRANCH   6   7
ATOM      7  C   UNL     1     -13.504 -17.543  27.452  1.00  0.00    -0.028 C 
ATOM      8  C   UNL     1     -13.069 -18.494  28.321  1.00  0.00    -0.070 CG0
ATOM      9  C   UNL     1     -13.697 -19.862  28.213  1.00  0.00     0.039 C 
ATOM     10  G   UNL     1     -12.058 -18.252  29.440  1.00  0.00     0.000 G0
ENDBRANCH   6   7
ENDBRANCH   5   6
ENDBRANCH   3   5
ENDBRANCH   1   3
BRANCH   1  11
ATOM     11  C   UNL     1     -12.607 -15.599  30.285  1.00  0.00     0.087 C 
BRANCH  11  12
ATOM     12  C   UNL     1     -13.069 -16.683  31.302  1.00  0.00     0.066 C 
BRANCH  12  13
ATOM     13  C   UNL     1     -12.666 -18.080  30.833  1.00  0.00     0.140 C 
ATOM     14  O   UNL     1     -12.891 -19.058  31.534  1.00  0.00    -0.299 OA
BRANCH  13  15
ATOM     15  C   UNL     1     -12.062 -18.277  29.465  1.00  0.00     0.106 CG0
ATOM     16  G   UNL     1     -13.070 -18.499  28.339  1.00  0.00     0.000 G0
ENDBRANCH  13  15
ENDBRANCH  12  13
BRANCH  12  17
ATOM     17  C   UNL     1     -12.654 -16.406  32.789  1.00  0.00    -0.006 C 
ATOM     18  C   UNL     1     -13.553 -15.323  33.416  1.00  0.00     0.008 C 
ATOM     19  C   UNL     1     -11.187 -15.960  32.933  1.00  0.00     0.008 C 
ENDBRANCH  12  17
ENDBRANCH  11  12
ENDBRANCH   1  11
TORSDOF 1
ENDMDL
MODEL 3
REMARK VINA RESULT:    -4.990      1.864      4.654
REMARK INTER + INTRA:          -7.884
REMARK INTER:                  -7.756
REMARK INTRA:                  -0.128
REMARK UNBOUND:                -0.268
REMARK SMILES CC1=CCC[C@@H](C)C(=O)C[C@H](C(C)C)C(=O)C1
REMARK SMILES IDX 8 1 9 2 6 3 7 4 5 5 4 6 3 7 2 8 1 9 10 11 11 12 15 13 16 14
REMARK SMILES IDX 17 15 12 17 13 18 14 19
REMARK H PARENT
REMARK Flexibility Score: 70.00
ROOT
ATOM      1  C   UNL     1     -11.781 -15.918  28.344  1.00  0.00     0.136 C 
ATOM      2  O   UNL     1     -10.615 -16.056  28.004  1.00  0.00    -0.299 OA
ENDROOT
BRANCH   1   3
ATOM      3  C   UNL     1     -12.879 -16.271  27.353  1.00  0.00     0.053 C 
ATOM      4  C   UNL     1     -13.893 -15.125  27.255  1.00  0.00     0.016 C 
BRANCH   3   5
ATOM      5  C   UNL     1     -13.585 -17.600  27.699  1.00  0.00     0.015 C 
BRANCH   5   6
ATOM      6  C   UNL     1     -12.577 -18.743  27.912  1.00  0.00     0.028 C 
BRANCH   6   7
ATOM      7  C   UNL     1     -12.791 -19.497  29.201  1.00  0.00    -0.028 C 
ATOM      8  C   UNL     1     -12.015 -19.433  30.315  1.00  0.00    -0.070 CG0
ATOM      9  C   UNL     1     -12.351 -20.378  31.442  1.00  0.00     0.039 C 
ATOM     10  G   UNL     1     -10.888 -18.424  30.532  1.00  0.00     0.000 G0
ENDBRANCH   6   7
ENDBRANCH   5   6
ENDBRANCH   3   5
ENDBRANCH   1   3
BRANCH   1  11
ATOM     11  C   UNL     1     -12.091 -15.328  29.703  1.00  0.00     0.087 C 
BRANCH  11  12
ATOM     12  C   UNL     1     -12.510 -16.369  30.782  1.00  0.00     0.066 C 
BRANCH  12  13
ATOM     13  C   UNL     1     -11.302 -17.163  31.275  1.00  0.00     0.140 C 
ATOM     14  O   UNL     1     -10.702 -16.816  32.285  1.00  0.00    -0.299 OA
BRANCH  13  15
ATOM     15  C   UNL     1     -10.888 -18.430  30.570  1.00  0.00     0.106 CG0
ATOM     16  G   UNL     1     -12.020 -19.420  30.303  1.00  0.00     0.000 G0
ENDBRANCH  13  15
ENDBRANCH  12  13
BRANCH  12  17
ATOM     17  C   UNL     1     -13.364 -15.782  31.961  1.00  0.00    -0.006 C 
ATOM     18  C   UNL     1     -14.048 -16.912  32.756  1.00  0.00     0.008 C 
ATOM     19  C   UNL     1     -14.449 -14.797  31.489  1.00  0.00     0.008 C 
ENDBRANCH  12  17
ENDBRANCH  11  12
ENDBRANCH   1  11
TORSDOF 1
ENDMDL
MODEL 4
REMARK VINA RESULT:    -4.784      2.054      5.328
REMARK INTER + INTRA:          -7.568
REMARK INTER:                  -7.237
REMARK INTRA:                  -0.331
REMARK UNBOUND:                -0.268
REMARK SMILES CC1=CCC[C@@H](C)C(=O)C[C@H](C(C)C)C(=O)C1
REMARK SMILES IDX 8 1 9 2 6 3 7 4 5 5 4 6 3 7 2 8 1 9 10 11 11 12 15 13 16 14
REMARK SMILES IDX 17 15 12 17 13 18 14 19
REMARK H PARENT
REMARK Flexibility Score: 70.00
ROOT
ATOM      1  C   UNL     1     -13.127 -15.849  27.608  1.00  0.00     0.136 C 
ATOM      2  O   UNL     1     -13.918 -15.526  26.734  1.00  0.00    -0.299 OA
ENDROOT
BRANCH   1   3
ATOM      3  C   UNL     1     -12.448 -17.207  27.516  1.00  0.00     0.053 C 
ATOM      4  C   UNL     1     -13.385 -18.304  28.037  1.00  0.00     0.016 C 
BRANCH   3   5
ATOM      5  C   UNL     1     -11.094 -17.244  28.257  1.00  0.00     0.015 C 
BRANCH   5   6
ATOM      6  C   UNL     1     -11.139 -18.172  29.483  1.00  0.00     0.028 C 
BRANCH   6   7
ATOM      7  C   UNL     1     -10.806 -17.470  30.777  1.00  0.00    -0.028 C 
ATOM      8  C   UNL     1     -11.659 -16.744  31.546  1.00  0.00    -0.070 CG0
ATOM      9  C   UNL     1     -11.069 -16.024  32.735  1.00  0.00     0.039 C 
ATOM     10  G   UNL     1     -13.171 -16.672  31.339  1.00  0.00     0.000 G0
ENDBRANCH   6   7
ENDBRANCH   5   6
ENDBRANCH   3   5
ENDBRANCH   1   3
BRANCH   1  11
ATOM     11  C   UNL     1     -12.909 -14.926  28.787  1.00  0.00     0.087 C 
BRANCH  11  12
ATOM     12  C   UNL     1     -14.125 -14.806  29.752  1.00  0.00     0.066 C 
BRANCH  12  13
ATOM     13  C   UNL     1     -13.768 -15.315  31.147  1.00  0.00     0.140 C 
ATOM     14  O   UNL     1     -14.018 -14.639  32.137  1.00  0.00    -0.299 OA
BRANCH  13  15
ATOM     15  C   UNL     1     -13.181 -16.693  31.325  1.00  0.00     0.106 CG0
ATOM     16  G   UNL     1     -11.669 -16.729  31.538  1.00  0.00     0.000 G0
ENDBRANCH  13  15
ENDBRANCH  12  13
BRANCH  12  17
ATOM     17  C   UNL     1     -14.799 -13.390  29.784  1.00  0.00    -0.006 C 
ATOM     18  C   UNL     1     -16.336 -13.515  29.781  1.00  0.00     0.008 C 
ATOM     19  C   UNL     1     -14.384 -12.496  28.601  1.00  0.00     0.008 C 
ENDBRANCH  12  17
ENDBRANCH  11  12
ENDBRANCH   1  11
TORSDOF 1
ENDMDL
MODEL 5
REMARK VINA RESULT:    -4.561      1.851      4.596
REMARK INTER + INTRA:          -7.228
REMARK INTER:                  -7.944
REMARK INTRA:                   0.716
REMARK UNBOUND:                -0.268
REMARK SMILES CC1=CCC[C@@H](C)C(=O)C[C@H](C(C)C)C(=O)C1
REMARK SMILES IDX 8 1 9 2 6 3 7 4 5 5 4 6 3 7 2 8 1 9 10 11 11 12 15 13 16 14
REMARK SMILES IDX 17 15 12 17 13 18 14 19
REMARK H PARENT
REMARK Flexibility Score: 70.00
ROOT
ATOM      1  C   UNL     1     -11.510 -18.904  29.153  1.00  0.00     0.136 C 
ATOM      2  O   UNL     1     -10.448 -18.999  29.750  1.00  0.00    -0.299 OA
ENDROOT
BRANCH   1   3
ATOM      3  C   UNL     1     -12.549 -20.001  29.327  1.00  0.00     0.053 C 
ATOM      4  C   UNL     1     -13.630 -19.884  28.246  1.00  0.00     0.016 C 
BRANCH   3   5
ATOM      5  C   UNL     1     -13.181 -20.000  30.736  1.00  0.00     0.015 C 
BRANCH   5   6
ATOM      6  C   UNL     1     -12.498 -18.982  31.667  1.00  0.00     0.028 C 
BRANCH   6   7
ATOM      7  C   UNL     1     -13.288 -17.709  31.843  1.00  0.00    -0.028 C 
ATOM      8  C   UNL     1     -12.802 -16.441  31.787  1.00  0.00    -0.070 CG0
ATOM      9  C   UNL     1     -13.759 -15.323  32.123  1.00  0.00     0.039 C 
ATOM     10  G   UNL     1     -11.391 -16.070  31.333  1.00  0.00     0.000 G0
ENDBRANCH   6   7
ENDBRANCH   5   6
ENDBRANCH   3   5
ENDBRANCH   1   3
BRANCH   1  11
ATOM     11  C   UNL     1     -11.723 -17.745  28.203  1.00  0.00     0.087 C 
BRANCH  11  12
ATOM     12  C   UNL     1     -12.251 -16.443  28.875  1.00  0.00     0.066 C 
BRANCH  12  13
ATOM     13  C   UNL     1     -11.216 -15.869  29.842  1.00  0.00     0.140 C 
ATOM     14  O   UNL     1     -10.281 -15.199  29.423  1.00  0.00    -0.299 OA
BRANCH  13  15
ATOM     15  C   UNL     1     -11.386 -16.051  31.330  1.00  0.00     0.106 CG0
ATOM     16  G   UNL     1     -12.790 -16.453  31.776  1.00  0.00     0.000 G0
ENDBRANCH  13  15
ENDBRANCH  12  13
BRANCH  12  17
ATOM     17  C   UNL     1     -12.799 -15.366  27.875  1.00  0.00    -0.006 C 
ATOM     18  C   UNL     1     -13.647 -14.313  28.616  1.00  0.00     0.008 C 
ATOM     19  C   UNL     1     -13.656 -15.970  26.747  1.00  0.00     0.008 C 
ENDBRANCH  12  17
ENDBRANCH  11  12
ENDBRANCH   1  11
TORSDOF 1
ENDMDL
MODEL 6
REMARK VINA RESULT:    -4.551      1.646      2.662
REMARK INTER + INTRA:          -7.213
REMARK INTER:                  -7.327
REMARK INTRA:                   0.114
REMARK UNBOUND:                -0.268
REMARK SMILES CC1=CCC[C@@H](C)C(=O)C[C@H](C(C)C)C(=O)C1
REMARK SMILES IDX 8 1 9 2 6 3 7 4 5 5 4 6 3 7 2 8 1 9 10 11 11 12 15 13 16 14
REMARK SMILES IDX 17 15 12 17 13 18 14 19
REMARK H PARENT
REMARK Flexibility Score: 70.00
ROOT
ATOM      1  C   UNL     1     -14.014 -14.540  30.622  1.00  0.00     0.136 C 
ATOM      2  O   UNL     1     -14.847 -14.741  31.494  1.00  0.00    -0.299 OA
ENDROOT
BRANCH   1   3
ATOM      3  C   UNL     1     -14.339 -13.553  29.512  1.00  0.00     0.053 C 
ATOM      4  C   UNL     1     -15.851 -13.519  29.260  1.00  0.00     0.016 C 
BRANCH   3   5
ATOM      5  C   UNL     1     -13.572 -13.856  28.207  1.00  0.00     0.015 C 
BRANCH   5   6
ATOM      6  C   UNL     1     -14.138 -15.091  27.485  1.00  0.00     0.028 C 
BRANCH   6   7
ATOM      7  C   UNL     1     -13.158 -15.731  26.533  1.00  0.00    -0.028 C 
ATOM      8  C   UNL     1     -12.427 -16.854  26.758  1.00  0.00    -0.070 CG0
ATOM      9  C   UNL     1     -11.412 -17.235  25.708  1.00  0.00     0.039 C 
ATOM     10  G   UNL     1     -12.616 -17.790  27.950  1.00  0.00     0.000 G0
ENDBRANCH   6   7
ENDBRANCH   5   6
ENDBRANCH   3   5
ENDBRANCH   1   3
BRANCH   1  11
ATOM     11  C   UNL     1     -12.726 -15.336  30.633  1.00  0.00     0.087 C 
BRANCH  11  12
ATOM     12  C   UNL     1     -12.904 -16.864  30.393  1.00  0.00     0.066 C 
BRANCH  12  13
ATOM     13  C   UNL     1     -12.015 -17.345  29.248  1.00  0.00     0.140 C 
ATOM     14  O   UNL     1     -10.803 -17.433  29.399  1.00  0.00    -0.299 OA
BRANCH  13  15
ATOM     15  C   UNL     1     -12.631 -17.797  27.947  1.00  0.00     0.106 CG0
ATOM     16  G   UNL     1     -12.426 -16.846  26.770  1.00  0.00     0.000 G0
ENDBRANCH  13  15
ENDBRANCH  12  13
BRANCH  12  17
ATOM     17  C   UNL     1     -12.759 -17.751  31.679  1.00  0.00    -0.006 C 
ATOM     18  C   UNL     1     -12.851 -19.248  31.325  1.00  0.00     0.008 C 
ATOM     19  C   UNL     1     -13.820 -17.440  32.750  1.00  0.00     0.008 C 
ENDBRANCH  12  17
ENDBRANCH  11  12
ENDBRANCH   1  11
TORSDOF 1
ENDMDL
MODEL 7
REMARK VINA RESULT:    -4.455      1.984      3.869
REMARK INTER + INTRA:          -7.066
REMARK INTER:                  -7.188
REMARK INTRA:                   0.121
REMARK UNBOUND:                -0.268
REMARK SMILES CC1=CCC[C@@H](C)C(=O)C[C@H](C(C)C)C(=O)C1
REMARK SMILES IDX 8 1 9 2 6 3 7 4 5 5 4 6 3 7 2 8 1 9 10 11 11 12 15 13 16 14
REMARK SMILES IDX 17 15 12 17 13 18 14 19
REMARK H PARENT
REMARK Flexibility Score: 70.00
ROOT
ATOM      1  C   UNL     1     -13.632 -15.899  31.088  1.00  0.00     0.136 C 
ATOM      2  O   UNL     1     -14.242 -14.842  31.161  1.00  0.00    -0.299 OA
ENDROOT
BRANCH   1   3
ATOM      3  C   UNL     1     -13.167 -16.567  32.373  1.00  0.00     0.053 C 
ATOM      4  C   UNL     1     -14.374 -16.951  33.236  1.00  0.00     0.016 C 
BRANCH   3   5
ATOM      5  C   UNL     1     -12.178 -15.690  33.172  1.00  0.00     0.015 C 
BRANCH   5   6
ATOM      6  C   UNL     1     -10.733 -15.862  32.674  1.00  0.00     0.028 C 
BRANCH   6   7
ATOM      7  C   UNL     1     -10.463 -17.221  32.076  1.00  0.00    -0.028 C 
ATOM      8  C   UNL     1     -10.191 -17.491  30.772  1.00  0.00    -0.070 CG0
ATOM      9  C   UNL     1     -10.083 -18.945  30.379  1.00  0.00     0.039 C 
ATOM     10  G   UNL     1      -9.912 -16.435  29.705  1.00  0.00     0.000 G0
ENDBRANCH   6   7
ENDBRANCH   5   6
ENDBRANCH   3   5
ENDBRANCH   1   3
BRANCH   1  11
ATOM     11  C   UNL     1     -13.292 -16.463  29.726  1.00  0.00     0.087 C 
BRANCH  11  12
ATOM     12  C   UNL     1     -12.295 -15.602  28.896  1.00  0.00     0.066 C 
BRANCH  12  13
ATOM     13  C   UNL     1     -11.000 -16.368  28.630  1.00  0.00     0.140 C 
ATOM     14  O   UNL     1     -10.787 -16.863  27.531  1.00  0.00    -0.299 OA
BRANCH  13  15
ATOM     15  C   UNL     1      -9.934 -16.447  29.694  1.00  0.00     0.106 CG0
ATOM     16  G   UNL     1     -10.180 -17.494  30.779  1.00  0.00     0.000 G0
ENDBRANCH  13  15
ENDBRANCH  12  13
BRANCH  12  17
ATOM     17  C   UNL     1     -12.899 -14.976  27.590  1.00  0.00    -0.006 C 
ATOM     18  C   UNL     1     -13.916 -13.869  27.934  1.00  0.00     0.008 C 
ATOM     19  C   UNL     1     -13.598 -16.012  26.690  1.00  0.00     0.008 C 
ENDBRANCH  12  17
ENDBRANCH  11  12
ENDBRANCH   1  11
TORSDOF 1
ENDMDL
MODEL 8
REMARK VINA RESULT:    -4.369      1.768      3.791
REMARK INTER + INTRA:          -6.935
REMARK INTER:                  -7.854
REMARK INTRA:                   0.919
REMARK UNBOUND:                -0.268
REMARK SMILES CC1=CCC[C@@H](C)C(=O)C[C@H](C(C)C)C(=O)C1
REMARK SMILES IDX 8 1 9 2 6 3 7 4 5 5 4 6 3 7 2 8 1 9 10 11 11 12 15 13 16 14
REMARK SMILES IDX 17 15 12 17 13 18 14 19
REMARK H PARENT
REMARK Flexibility Score: 70.00
ROOT
ATOM      1  C   UNL     1     -12.871 -15.770  30.791  1.00  0.00     0.136 C 
ATOM      2  O   UNL     1     -13.582 -14.793  30.974  1.00  0.00    -0.299 OA
ENDROOT
BRANCH   1   3
ATOM      3  C   UNL     1     -13.162 -17.045  31.568  1.00  0.00     0.053 C 
ATOM      4  C   UNL     1     -14.100 -16.746  32.743  1.00  0.00     0.016 C 
BRANCH   3   5
ATOM      5  C   UNL     1     -11.877 -17.748  32.056  1.00  0.00     0.015 C 
BRANCH   5   6
ATOM      6  C   UNL     1     -11.869 -19.242  31.689  1.00  0.00     0.028 C 
BRANCH   6   7
ATOM      7  C   UNL     1     -12.689 -19.562  30.463  1.00  0.00    -0.028 C 
ATOM      8  C   UNL     1     -12.482 -19.091  29.205  1.00  0.00    -0.070 CG0
ATOM      9  C   UNL     1     -13.511 -19.447  28.160  1.00  0.00     0.039 C 
ATOM     10  G   UNL     1     -11.250 -18.304  28.764  1.00  0.00     0.000 G0
ENDBRANCH   6   7
ENDBRANCH   5   6
ENDBRANCH   3   5
ENDBRANCH   1   3
BRANCH   1  11
ATOM     11  C   UNL     1     -11.682 -15.655  29.862  1.00  0.00     0.087 C 
BRANCH  11  12
ATOM     12  C   UNL     1     -12.018 -15.825  28.352  1.00  0.00     0.066 C 
BRANCH  12  13
ATOM     13  C   UNL     1     -11.482 -17.153  27.818  1.00  0.00     0.140 C 
ATOM     14  O   UNL     1     -11.192 -17.273  26.635  1.00  0.00    -0.299 OA
BRANCH  13  15
ATOM     15  C   UNL     1     -11.224 -18.301  28.761  1.00  0.00     0.106 CG0
ATOM     16  G   UNL     1     -12.469 -19.073  29.196  1.00  0.00     0.000 G0
ENDBRANCH  13  15
ENDBRANCH  12  13
BRANCH  12  17
ATOM     17  C   UNL     1     -13.526 -15.597  27.986  1.00  0.00    -0.006 C 
ATOM     18  C   UNL     1     -13.866 -16.250  26.631  1.00  0.00     0.008 C 
ATOM     19  C   UNL     1     -13.913 -14.108  27.917  1.00  0.00     0.008 C 
ENDBRANCH  12  17
ENDBRANCH  11  12
ENDBRANCH   1  11
TORSDOF 1
ENDMDL
MODEL 9
REMARK VINA RESULT:    -4.353      1.941      4.108
REMARK INTER + INTRA:          -6.911
REMARK INTER:                  -7.205
REMARK INTRA:                   0.294
REMARK UNBOUND:                -0.268
REMARK SMILES CC1=CCC[C@@H](C)C(=O)C[C@H](C(C)C)C(=O)C1
REMARK SMILES IDX 8 1 9 2 6 3 7 4 5 5 4 6 3 7 2 8 1 9 10 11 11 12 15 13 16 14
REMARK SMILES IDX 17 15 12 17 13 18 14 19
REMARK H PARENT
REMARK Flexibility Score: 70.00
ROOT
ATOM      1  C   UNL     1     -12.891 -15.641  30.753  1.00  0.00     0.136 C 
ATOM      2  O   UNL     1     -14.021 -15.180  30.683  1.00  0.00    -0.299 OA
ENDROOT
BRANCH   1   3
ATOM      3  C   UNL     1     -12.421 -16.229  32.075  1.00  0.00     0.053 C 
ATOM      4  C   UNL     1     -13.249 -15.659  33.232  1.00  0.00     0.016 C 
BRANCH   3   5
ATOM      5  C   UNL     1     -10.912 -16.007  32.318  1.00  0.00     0.015 C 
BRANCH   5   6
ATOM      6  C   UNL     1     -10.067 -17.161  31.753  1.00  0.00     0.028 C 
BRANCH   6   7
ATOM      7  C   UNL     1     -10.757 -18.501  31.827  1.00  0.00    -0.028 C 
ATOM      8  C   UNL     1     -11.387 -19.145  30.809  1.00  0.00    -0.070 CG0
ATOM      9  C   UNL     1     -12.120 -20.419  31.151  1.00  0.00     0.039 C 
ATOM     10  G   UNL     1     -11.338 -18.713  29.345  1.00  0.00     0.000 G0
ENDBRANCH   6   7
ENDBRANCH   5   6
ENDBRANCH   3   5
ENDBRANCH   1   3
BRANCH   1  11
ATOM     11  C   UNL     1     -11.976 -15.541  29.552  1.00  0.00     0.087 C 
BRANCH  11  12
ATOM     12  C   UNL     1     -12.349 -16.483  28.370  1.00  0.00     0.066 C 
BRANCH  12  13
ATOM     13  C   UNL     1     -12.532 -17.921  28.854  1.00  0.00     0.140 C 
ATOM     14  O   UNL     1     -13.630 -18.459  28.794  1.00  0.00    -0.299 OA
BRANCH  13  15
ATOM     15  C   UNL     1     -11.345 -18.719  29.331  1.00  0.00     0.106 CG0
ATOM     16  G   UNL     1     -11.397 -19.142  30.797  1.00  0.00     0.000 G0
ENDBRANCH  13  15
ENDBRANCH  12  13
BRANCH  12  17
ATOM     17  C   UNL     1     -13.550 -15.988  27.491  1.00  0.00    -0.006 C 
ATOM     18  C   UNL     1     -13.296 -16.286  26.000  1.00  0.00     0.008 C 
ATOM     19  C   UNL     1     -13.828 -14.481  27.643  1.00  0.00     0.008 C 
ENDBRANCH  12  17
ENDBRANCH  11  12
ENDBRANCH   1  11
TORSDOF 1
ENDMDL
