MODEL 1
REMARK VINA RESULT:    19.536      0.000      0.000
REMARK INTER + INTRA:          23.453
REMARK INTER:                  21.249
REMARK INTRA:                   2.204
REMARK UNBOUND:                 2.204
REMARK SMILES C[C@@H]1[C@H]2C3=CC[C@@H]4[C@@]5(C)CC[C@H](O)C(C)(C)[C@H]5CC[C@]4(C)[C@]3(C)CC[C@]2(C(=O)[O-])CC[C@@H]1C
REMARK SMILES IDX 26 1 30 2 25 3 3 4 31 5 24 6 4 7 2 8 32 9 22 10 5 11 1 12
REMARK SMILES IDX 33 13 23 14 20 15 6 16 7 17 19 18 21 19 8 20 18 21 17 22
REMARK SMILES IDX 10 23 9 24 14 25 11 26 12 27 15 28 16 29 27 30 28 31 29 32
REMARK SMILES IDX 13 33
REMARK H PARENT 13 34
REMARK Flexibility Score: inf
ROOT
ATOM      1  C   UNL     1      25.704  38.860  28.058  1.00  0.00     0.017 C 
ATOM      2  C   UNL     1      26.176  39.077  29.523  1.00  0.00     0.014 C 
ATOM      3  C   UNL     1      26.858  39.340  27.102  1.00  0.00     0.014 C 
ATOM      4  C   UNL     1      25.416  37.346  27.766  1.00  0.00     0.030 C 
ATOM      5  C   UNL     1      25.197  38.487  30.535  1.00  0.00     0.004 C 
ATOM      6  C   UNL     1      27.069  38.477  25.824  1.00  0.00     0.013 C 
ATOM      7  C   UNL     1      24.965  37.210  26.280  1.00  0.00    -0.063 C 
ATOM      8  C   UNL     1      24.552  36.640  28.893  1.00  0.00    -0.003 C 
ATOM      9  C   UNL     1      25.066  36.968  30.338  1.00  0.00    -0.011 C 
ATOM     10  C   UNL     1      25.751  37.925  25.172  1.00  0.00    -0.006 C 
ATOM     11  C   UNL     1      23.944  36.408  25.925  1.00  0.00    -0.027 C 
ATOM     12  C   UNL     1      24.427  35.097  28.717  1.00  0.00     0.008 C 
ATOM     13  C   UNL     1      26.373  36.251  30.739  1.00  0.00     0.008 C 
ATOM     14  C   UNL     1      24.898  39.132  24.679  1.00  0.00     0.017 C 
ATOM     15  C   UNL     1      26.015  36.930  23.922  1.00  0.00    -0.020 C 
ATOM     16  C   UNL     1      23.729  35.872  24.539  1.00  0.00     0.032 C 
ATOM     17  C   UNL     1      24.633  36.403  23.359  1.00  0.00     0.006 C 
ATOM     18  C   UNL     1      26.807  35.663  24.351  1.00  0.00     0.008 C 
ATOM     19  C   UNL     1      26.827  37.710  22.829  1.00  0.00     0.012 C 
ATOM     20  C   UNL     1      24.683  35.323  22.151  1.00  0.00    -0.025 C 
ATOM     21  C   UNL     1      26.988  34.634  23.221  1.00  0.00     0.005 C 
ATOM     22  C   UNL     1      25.709  34.153  22.456  1.00  0.00     0.003 C 
ATOM     23  C   UNL     1      24.961  35.977  20.744  1.00  0.00     0.010 C 
ATOM     24  C   UNL     1      23.227  34.733  22.017  1.00  0.00     0.012 C 
ATOM     25  C   UNL     1      26.137  33.319  21.162  1.00  0.00    -0.006 C 
ATOM     26  C   UNL     1      26.351  35.725  20.121  1.00  0.00     0.033 C 
ATOM     27  C   UNL     1      26.834  34.250  20.105  1.00  0.00     0.120 C 
ATOM     28  C   UNL     1      24.927  32.598  20.519  1.00  0.00     0.014 C 
ATOM     29  C   UNL     1      27.124  32.186  21.561  1.00  0.00     0.014 C 
ENDROOT
BRANCH   1  30
ATOM     30  C   UNL     1      24.464  39.741  27.866  1.00  0.00     0.048 C 
ATOM     31  O   UNL     1      23.758  40.124  28.838  1.00  0.00    -0.550 OA
ATOM     32  O   UNL     1      24.095  40.125  26.582  1.00  0.00    -0.550 OA
ENDBRANCH   1  30
BRANCH  27  33
ATOM     33  O   UNL     1      26.701  33.741  18.805  1.00  0.00    -0.393 OA
ATOM     34  H   UNL     1      25.864  34.119  18.422  1.00  0.00     0.210 HD
ENDBRANCH  27  33
TORSDOF 2
ENDMDL
