MODEL 1
REMARK VINA RESULT:    -5.116      0.000      0.000
REMARK INTER + INTRA:          -6.031
REMARK INTER:                  -6.013
REMARK INTRA:                  -0.017
REMARK UNBOUND:                -0.017
REMARK SMILES O=c1c(O)c(-c2ccc(O)cc2)oc2cc(O)cc(O)c12
REMARK SMILES IDX 5 1 3 2 2 3 1 4 21 5 19 6 18 7 16 8 15 9 14 10 13 11 6 12
REMARK SMILES IDX 7 13 8 14 9 15 12 16 11 17 10 18 4 20 20 22 17 24
REMARK H PARENT 10 19 4 21 20 23 17 25
REMARK Flexibility Score: inf
ROOT
ATOM      1  C   UNL     1      -0.641   0.893  -8.223  1.00  0.00     0.180 A 
ATOM      2  C   UNL     1      -0.444   2.103  -8.907  1.00  0.00     0.208 A 
ATOM      3  C   UNL     1       0.842   2.419  -9.376  1.00  0.00     0.238 A 
ATOM      4  O   UNL     1       0.996   3.469 -10.053  1.00  0.00    -0.285 OA
ATOM      5  C   UNL     1       1.925   1.548  -9.104  1.00  0.00     0.111 A 
ATOM      6  C   UNL     1       3.279   1.789  -9.490  1.00  0.00     0.134 A 
ATOM      7  C   UNL     1       4.248   0.805  -9.261  1.00  0.00     0.093 A 
ATOM      8  C   UNL     1       3.929  -0.381  -8.602  1.00  0.00     0.123 A 
ATOM      9  C   UNL     1       2.621  -0.604  -8.170  1.00  0.00     0.094 A 
ATOM     10  C   UNL     1       1.623   0.342  -8.419  1.00  0.00     0.146 A 
ATOM     11  O   UNL     1       0.387   0.080  -8.011  1.00  0.00    -0.452 OA
ENDROOT
BRANCH   1  12
ATOM     12  C   UNL     1      -1.970   0.484  -7.711  1.00  0.00     0.021 A 
ATOM     13  C   UNL     1      -2.096   0.057  -6.379  1.00  0.00     0.016 A 
ATOM     14  C   UNL     1      -3.336  -0.356  -5.882  1.00  0.00     0.047 A 
ATOM     15  C   UNL     1      -4.460  -0.362  -6.712  1.00  0.00     0.115 A 
ATOM     16  C   UNL     1      -3.101   0.456  -8.548  1.00  0.00     0.016 A 
ATOM     17  C   UNL     1      -4.339   0.043  -8.048  1.00  0.00     0.047 A 
BRANCH  15  18
ATOM     18  O   UNL     1      -5.690  -0.775  -6.204  1.00  0.00    -0.508 OA
ATOM     19  H   UNL     1      -6.450  -0.120  -6.059  1.00  0.00     0.293 HD
ENDBRANCH  15  18
ENDBRANCH   1  12
BRANCH   2  20
ATOM     20  O   UNL     1      -1.510   2.987  -9.099  1.00  0.00    -0.502 OA
ATOM     21  H   UNL     1      -1.882   3.200 -10.017  1.00  0.00     0.293 HD
ENDBRANCH   2  20
BRANCH   6  22
ATOM     22  O   UNL     1       3.726   2.977 -10.076  1.00  0.00    -0.507 OA
ATOM     23  H   UNL     1       4.187   3.043 -10.971  1.00  0.00     0.293 HD
ENDBRANCH   6  22
BRANCH   8  24
ATOM     24  O   UNL     1       4.923  -1.330  -8.374  1.00  0.00    -0.508 OA
ATOM     25  H   UNL     1       5.009  -1.805  -7.483  1.00  0.00     0.293 HD
ENDBRANCH   8  24
TORSDOF 5
ENDMDL
MODEL 2
REMARK VINA RESULT:    -5.102      2.459      6.963
REMARK INTER + INTRA:          -6.014
REMARK INTER:                  -6.021
REMARK INTRA:                   0.007
REMARK UNBOUND:                -0.017
REMARK SMILES O=c1c(O)c(-c2ccc(O)cc2)oc2cc(O)cc(O)c12
REMARK SMILES IDX 5 1 3 2 2 3 1 4 21 5 19 6 18 7 16 8 15 9 14 10 13 11 6 12
REMARK SMILES IDX 7 13 8 14 9 15 12 16 11 17 10 18 4 20 20 22 17 24
REMARK H PARENT 10 19 4 21 20 23 17 25
REMARK Flexibility Score: inf
ROOT
ATOM      1  C   UNL     1       1.028  -0.911  -8.317  1.00  0.00     0.180 A 
ATOM      2  C   UNL     1       0.802  -2.130  -8.978  1.00  0.00     0.208 A 
ATOM      3  C   UNL     1      -0.502  -2.452  -9.385  1.00  0.00     0.238 A 
ATOM      4  O   UNL     1      -0.685  -3.510 -10.042  1.00  0.00    -0.285 OA
ATOM      5  C   UNL     1      -1.574  -1.579  -9.076  1.00  0.00     0.111 A 
ATOM      6  C   UNL     1      -2.943  -1.826  -9.399  1.00  0.00     0.134 A 
ATOM      7  C   UNL     1      -3.903  -0.841  -9.138  1.00  0.00     0.093 A 
ATOM      8  C   UNL     1      -3.556   0.354  -8.508  1.00  0.00     0.123 A 
ATOM      9  C   UNL     1      -2.231   0.583  -8.137  1.00  0.00     0.094 A 
ATOM     10  C   UNL     1      -1.244  -0.364  -8.419  1.00  0.00     0.146 A 
ATOM     11  O   UNL     1       0.009  -0.097  -8.069  1.00  0.00    -0.452 OA
ENDROOT
BRANCH   1  12
ATOM     12  C   UNL     1       2.377  -0.495  -7.870  1.00  0.00     0.021 A 
ATOM     13  C   UNL     1       2.554  -0.011  -6.563  1.00  0.00     0.016 A 
ATOM     14  C   UNL     1       3.814   0.410  -6.128  1.00  0.00     0.047 A 
ATOM     15  C   UNL     1       4.909   0.367  -6.995  1.00  0.00     0.115 A 
ATOM     16  C   UNL     1       3.479  -0.516  -8.745  1.00  0.00     0.016 A 
ATOM     17  C   UNL     1       4.737  -0.095  -8.307  1.00  0.00     0.047 A 
BRANCH  15  18
ATOM     18  O   UNL     1       6.159   0.788  -6.548  1.00  0.00    -0.508 OA
ATOM     19  H   UNL     1       6.386   0.817  -5.561  1.00  0.00     0.293 HD
ENDBRANCH  15  18
ENDBRANCH   1  12
BRANCH   2  20
ATOM     20  O   UNL     1       1.860  -3.014  -9.207  1.00  0.00    -0.502 OA
ATOM     21  H   UNL     1       1.757  -3.854  -9.764  1.00  0.00     0.293 HD
ENDBRANCH   2  20
BRANCH   6  22
ATOM     22  O   UNL     1      -3.414  -3.021  -9.951  1.00  0.00    -0.507 OA
ATOM     23  H   UNL     1      -3.790  -3.120 -10.881  1.00  0.00     0.293 HD
ENDBRANCH   6  22
BRANCH   8  24
ATOM     24  O   UNL     1      -4.541   1.305  -8.248  1.00  0.00    -0.508 OA
ATOM     25  H   UNL     1      -4.419   2.278  -8.502  1.00  0.00     0.293 HD
ENDBRANCH   8  24
TORSDOF 5
ENDMDL
MODEL 3
REMARK VINA RESULT:    -5.010      2.756      6.732
REMARK INTER + INTRA:          -5.906
REMARK INTER:                  -5.632
REMARK INTRA:                  -0.274
REMARK UNBOUND:                -0.017
REMARK SMILES O=c1c(O)c(-c2ccc(O)cc2)oc2cc(O)cc(O)c12
REMARK SMILES IDX 5 1 3 2 2 3 1 4 21 5 19 6 18 7 16 8 15 9 14 10 13 11 6 12
REMARK SMILES IDX 7 13 8 14 9 15 12 16 11 17 10 18 4 20 20 22 17 24
REMARK H PARENT 10 19 4 21 20 23 17 25
REMARK Flexibility Score: inf
ROOT
ATOM      1  C   UNL     1       1.873  -0.419  -8.060  1.00  0.00     0.180 A 
ATOM      2  C   UNL     1       0.842   0.515  -7.869  1.00  0.00     0.208 A 
ATOM      3  C   UNL     1      -0.492   0.095  -7.999  1.00  0.00     0.238 A 
ATOM      4  O   UNL     1      -1.411   0.918  -7.753  1.00  0.00    -0.285 OA
ATOM      5  C   UNL     1      -0.776  -1.241  -8.374  1.00  0.00     0.111 A 
ATOM      6  C   UNL     1      -2.088  -1.766  -8.579  1.00  0.00     0.134 A 
ATOM      7  C   UNL     1      -2.253  -3.132  -8.844  1.00  0.00     0.093 A 
ATOM      8  C   UNL     1      -1.153  -3.977  -8.975  1.00  0.00     0.123 A 
ATOM      9  C   UNL     1       0.138  -3.465  -8.831  1.00  0.00     0.094 A 
ATOM     10  C   UNL     1       0.332  -2.115  -8.529  1.00  0.00     0.146 A 
ATOM     11  O   UNL     1       1.576  -1.673  -8.378  1.00  0.00    -0.452 OA
ENDROOT
BRANCH   1  12
ATOM     12  C   UNL     1       3.302  -0.055  -7.926  1.00  0.00     0.021 A 
ATOM     13  C   UNL     1       4.079   0.134  -9.081  1.00  0.00     0.016 A 
ATOM     14  C   UNL     1       5.435   0.456  -8.978  1.00  0.00     0.047 A 
ATOM     15  C   UNL     1       6.036   0.578  -7.722  1.00  0.00     0.115 A 
ATOM     16  C   UNL     1       3.917   0.049  -6.665  1.00  0.00     0.016 A 
ATOM     17  C   UNL     1       5.274   0.370  -6.565  1.00  0.00     0.047 A 
BRANCH  15  18
ATOM     18  O   UNL     1       7.389   0.900  -7.634  1.00  0.00    -0.508 OA
ATOM     19  H   UNL     1       7.696   1.820  -7.342  1.00  0.00     0.293 HD
ENDBRANCH  15  18
ENDBRANCH   1  12
BRANCH   2  20
ATOM     20  O   UNL     1       1.144   1.848  -7.575  1.00  0.00    -0.502 OA
ATOM     21  H   UNL     1       0.450   2.585  -7.616  1.00  0.00     0.293 HD
ENDBRANCH   2  20
BRANCH   6  22
ATOM     22  O   UNL     1      -3.253  -0.993  -8.558  1.00  0.00    -0.507 OA
ATOM     23  H   UNL     1      -4.050  -1.132  -9.160  1.00  0.00     0.293 HD
ENDBRANCH   6  22
BRANCH   8  24
ATOM     24  O   UNL     1      -1.352  -5.327  -9.256  1.00  0.00    -0.508 OA
ATOM     25  H   UNL     1      -1.614  -5.988  -8.533  1.00  0.00     0.293 HD
ENDBRANCH   8  24
TORSDOF 5
ENDMDL
MODEL 4
REMARK VINA RESULT:    -5.004      2.558      4.048
REMARK INTER + INTRA:          -5.899
REMARK INTER:                  -5.606
REMARK INTRA:                  -0.293
REMARK UNBOUND:                -0.017
REMARK SMILES O=c1c(O)c(-c2ccc(O)cc2)oc2cc(O)cc(O)c12
REMARK SMILES IDX 5 1 3 2 2 3 1 4 21 5 19 6 18 7 16 8 15 9 14 10 13 11 6 12
REMARK SMILES IDX 7 13 8 14 9 15 12 16 11 17 10 18 4 20 20 22 17 24
REMARK H PARENT 10 19 4 21 20 23 17 25
REMARK Flexibility Score: inf
ROOT
ATOM      1  C   UNL     1      -2.021   0.466  -8.359  1.00  0.00     0.180 A 
ATOM      2  C   UNL     1      -1.349  -0.282  -7.379  1.00  0.00     0.208 A 
ATOM      3  C   UNL     1      -0.177   0.238  -6.808  1.00  0.00     0.238 A 
ATOM      4  O   UNL     1       0.378  -0.403  -5.879  1.00  0.00    -0.285 OA
ATOM      5  C   UNL     1       0.341   1.475  -7.266  1.00  0.00     0.111 A 
ATOM      6  C   UNL     1       1.547   2.076  -6.792  1.00  0.00     0.134 A 
ATOM      7  C   UNL     1       1.904   3.354  -7.241  1.00  0.00     0.093 A 
ATOM      8  C   UNL     1       1.137   4.023  -8.193  1.00  0.00     0.123 A 
ATOM      9  C   UNL     1      -0.014   3.422  -8.705  1.00  0.00     0.094 A 
ATOM     10  C   UNL     1      -0.417   2.165  -8.248  1.00  0.00     0.146 A 
ATOM     11  O   UNL     1      -1.530   1.638  -8.745  1.00  0.00    -0.452 OA
ENDROOT
BRANCH   1  12
ATOM     12  C   UNL     1      -3.271  -0.009  -8.997  1.00  0.00     0.021 A 
ATOM     13  C   UNL     1      -3.199  -0.782 -10.167  1.00  0.00     0.016 A 
ATOM     14  C   UNL     1      -4.367  -1.222 -10.798  1.00  0.00     0.047 A 
ATOM     15  C   UNL     1      -5.618  -0.883 -10.277  1.00  0.00     0.115 A 
ATOM     16  C   UNL     1      -4.534   0.346  -8.489  1.00  0.00     0.016 A 
ATOM     17  C   UNL     1      -5.700  -0.094  -9.122  1.00  0.00     0.047 A 
BRANCH  15  18
ATOM     18  O   UNL     1      -6.774  -1.329 -10.916  1.00  0.00    -0.508 OA
ATOM     19  H   UNL     1      -7.666  -0.867 -10.781  1.00  0.00     0.293 HD
ENDBRANCH  15  18
ENDBRANCH   1  12
BRANCH   2  20
ATOM     20  O   UNL     1      -1.834  -1.536  -6.995  1.00  0.00    -0.502 OA
ATOM     21  H   UNL     1      -1.477  -2.034  -6.189  1.00  0.00     0.293 HD
ENDBRANCH   2  20
BRANCH   6  22
ATOM     22  O   UNL     1       2.434   1.459  -5.906  1.00  0.00    -0.507 OA
ATOM     23  H   UNL     1       3.326   1.836  -5.624  1.00  0.00     0.293 HD
ENDBRANCH   6  22
BRANCH   8  24
ATOM     24  O   UNL     1       1.532   5.286  -8.631  1.00  0.00    -0.508 OA
ATOM     25  H   UNL     1       0.855   6.008  -8.848  1.00  0.00     0.293 HD
ENDBRANCH   8  24
TORSDOF 5
ENDMDL
MODEL 5
REMARK VINA RESULT:    -5.004      2.885      7.059
REMARK INTER + INTRA:          -5.899
REMARK INTER:                  -5.602
REMARK INTRA:                  -0.297
REMARK UNBOUND:                -0.017
REMARK SMILES O=c1c(O)c(-c2ccc(O)cc2)oc2cc(O)cc(O)c12
REMARK SMILES IDX 5 1 3 2 2 3 1 4 21 5 19 6 18 7 16 8 15 9 14 10 13 11 6 12
REMARK SMILES IDX 7 13 8 14 9 15 12 16 11 17 10 18 4 20 20 22 17 24
REMARK H PARENT 10 19 4 21 20 23 17 25
REMARK Flexibility Score: inf
ROOT
ATOM      1  C   UNL     1       2.390  -0.481  -8.458  1.00  0.00     0.180 A 
ATOM      2  C   UNL     1       1.760   0.242  -7.432  1.00  0.00     0.208 A 
ATOM      3  C   UNL     1       0.588  -0.274  -6.856  1.00  0.00     0.238 A 
ATOM      4  O   UNL     1       0.070   0.341  -5.888  1.00  0.00    -0.285 OA
ATOM      5  C   UNL     1       0.029  -1.477  -7.351  1.00  0.00     0.111 A 
ATOM      6  C   UNL     1      -1.180  -2.069  -6.874  1.00  0.00     0.134 A 
ATOM      7  C   UNL     1      -1.579  -3.318  -7.366  1.00  0.00     0.093 A 
ATOM      8  C   UNL     1      -0.850  -3.966  -8.363  1.00  0.00     0.123 A 
ATOM      9  C   UNL     1       0.303  -3.371  -8.877  1.00  0.00     0.094 A 
ATOM     10  C   UNL     1       0.748  -2.144  -8.378  1.00  0.00     0.146 A 
ATOM     11  O   UNL     1       1.862  -1.624  -8.880  1.00  0.00    -0.452 OA
ENDROOT
BRANCH   1  12
ATOM     12  C   UNL     1       3.636  -0.009  -9.105  1.00  0.00     0.021 A 
ATOM     13  C   UNL     1       3.558   0.779 -10.265  1.00  0.00     0.016 A 
ATOM     14  C   UNL     1       4.722   1.216 -10.905  1.00  0.00     0.047 A 
ATOM     15  C   UNL     1       5.976   0.858 -10.404  1.00  0.00     0.115 A 
ATOM     16  C   UNL     1       4.902  -0.383  -8.617  1.00  0.00     0.016 A 
ATOM     17  C   UNL     1       6.064   0.054  -9.260  1.00  0.00     0.047 A 
BRANCH  15  18
ATOM     18  O   UNL     1       7.128   1.301 -11.051  1.00  0.00    -0.508 OA
ATOM     19  H   UNL     1       7.781   1.930 -10.598  1.00  0.00     0.293 HD
ENDBRANCH  15  18
ENDBRANCH   1  12
BRANCH   2  20
ATOM     20  O   UNL     1       2.283   1.467  -7.009  1.00  0.00    -0.502 OA
ATOM     21  H   UNL     1       2.593   1.628  -6.059  1.00  0.00     0.293 HD
ENDBRANCH   2  20
BRANCH   6  22
ATOM     22  O   UNL     1      -2.031  -1.468  -5.943  1.00  0.00    -0.507 OA
ATOM     23  H   UNL     1      -2.018  -1.643  -4.950  1.00  0.00     0.293 HD
ENDBRANCH   6  22
BRANCH   8  24
ATOM     24  O   UNL     1      -1.286  -5.199  -8.842  1.00  0.00    -0.508 OA
ATOM     25  H   UNL     1      -1.743  -5.288  -9.742  1.00  0.00     0.293 HD
ENDBRANCH   8  24
TORSDOF 5
ENDMDL
MODEL 6
REMARK VINA RESULT:    -4.981      6.868      9.292
REMARK INTER + INTRA:          -5.872
REMARK INTER:                  -5.599
REMARK INTRA:                  -0.274
REMARK UNBOUND:                -0.017
REMARK SMILES O=c1c(O)c(-c2ccc(O)cc2)oc2cc(O)cc(O)c12
REMARK SMILES IDX 5 1 3 2 2 3 1 4 21 5 19 6 18 7 16 8 15 9 14 10 13 11 6 12
REMARK SMILES IDX 7 13 8 14 9 15 12 16 11 17 10 18 4 20 20 22 17 24
REMARK H PARENT 10 19 4 21 20 23 17 25
REMARK Flexibility Score: inf
ROOT
ATOM      1  C   UNL     1      -5.906  -1.070 -12.334  1.00  0.00     0.180 A 
ATOM      2  C   UNL     1      -6.269  -2.426 -12.328  1.00  0.00     0.208 A 
ATOM      3  C   UNL     1      -6.479  -3.070 -11.098  1.00  0.00     0.238 A 
ATOM      4  O   UNL     1      -6.877  -4.264 -11.102  1.00  0.00    -0.285 OA
ATOM      5  C   UNL     1      -6.267  -2.365  -9.888  1.00  0.00     0.111 A 
ATOM      6  C   UNL     1      -6.405  -2.930  -8.584  1.00  0.00     0.134 A 
ATOM      7  C   UNL     1      -6.275  -2.108  -7.458  1.00  0.00     0.093 A 
ATOM      8  C   UNL     1      -5.947  -0.759  -7.585  1.00  0.00     0.123 A 
ATOM      9  C   UNL     1      -5.755  -0.208  -8.853  1.00  0.00     0.094 A 
ATOM     10  C   UNL     1      -5.917  -0.994  -9.996  1.00  0.00     0.146 A 
ATOM     11  O   UNL     1      -5.746  -0.425 -11.184  1.00  0.00    -0.452 OA
ENDROOT
BRANCH   1  12
ATOM     12  C   UNL     1      -5.681  -0.319 -13.591  1.00  0.00     0.021 A 
ATOM     13  C   UNL     1      -4.368  -0.050 -14.010  1.00  0.00     0.016 A 
ATOM     14  C   UNL     1      -4.133   0.678 -15.181  1.00  0.00     0.047 A 
ATOM     15  C   UNL     1      -5.205   1.158 -15.938  1.00  0.00     0.115 A 
ATOM     16  C   UNL     1      -6.756   0.185 -14.346  1.00  0.00     0.016 A 
ATOM     17  C   UNL     1      -6.518   0.913 -15.516  1.00  0.00     0.047 A 
BRANCH  15  18
ATOM     18  O   UNL     1      -4.957   1.880 -17.103  1.00  0.00    -0.508 OA
ATOM     19  H   UNL     1      -5.699   2.367 -17.593  1.00  0.00     0.293 HD
ENDBRANCH  15  18
ENDBRANCH   1  12
BRANCH   2  20
ATOM     20  O   UNL     1      -6.399  -3.126 -13.531  1.00  0.00    -0.502 OA
ATOM     21  H   UNL     1      -6.560  -2.662 -14.417  1.00  0.00     0.293 HD
ENDBRANCH   2  20
BRANCH   6  22
ATOM     22  O   UNL     1      -6.645  -4.285  -8.338  1.00  0.00    -0.507 OA
ATOM     23  H   UNL     1      -6.339  -4.788  -7.520  1.00  0.00     0.293 HD
ENDBRANCH   6  22
BRANCH   8  24
ATOM     24  O   UNL     1      -5.807   0.026  -6.442  1.00  0.00    -0.508 OA
ATOM     25  H   UNL     1      -6.428  -0.077  -5.648  1.00  0.00     0.293 HD
ENDBRANCH   8  24
TORSDOF 5
ENDMDL
MODEL 7
REMARK VINA RESULT:    -4.975      7.036      8.629
REMARK INTER + INTRA:          -5.864
REMARK INTER:                  -5.582
REMARK INTRA:                  -0.282
REMARK UNBOUND:                -0.017
REMARK SMILES O=c1c(O)c(-c2ccc(O)cc2)oc2cc(O)cc(O)c12
REMARK SMILES IDX 5 1 3 2 2 3 1 4 21 5 19 6 18 7 16 8 15 9 14 10 13 11 6 12
REMARK SMILES IDX 7 13 8 14 9 15 12 16 11 17 10 18 4 20 20 22 17 24
REMARK H PARENT 10 19 4 21 20 23 17 25
REMARK Flexibility Score: inf
ROOT
ATOM      1  C   UNL     1       6.218   1.020 -12.491  1.00  0.00     0.180 A 
ATOM      2  C   UNL     1       6.568   2.380 -12.503  1.00  0.00     0.208 A 
ATOM      3  C   UNL     1       6.767   3.043 -11.282  1.00  0.00     0.238 A 
ATOM      4  O   UNL     1       7.153   4.240 -11.301  1.00  0.00    -0.285 OA
ATOM      5  C   UNL     1       6.558   2.353 -10.063  1.00  0.00     0.111 A 
ATOM      6  C   UNL     1       6.687   2.937  -8.765  1.00  0.00     0.134 A 
ATOM      7  C   UNL     1       6.561   2.128  -7.629  1.00  0.00     0.093 A 
ATOM      8  C   UNL     1       6.247   0.775  -7.738  1.00  0.00     0.123 A 
ATOM      9  C   UNL     1       6.064   0.205  -8.999  1.00  0.00     0.094 A 
ATOM     10  C   UNL     1       6.222   0.976 -10.153  1.00  0.00     0.146 A 
ATOM     11  O   UNL     1       6.061   0.389 -11.333  1.00  0.00    -0.452 OA
ENDROOT
BRANCH   1  12
ATOM     12  C   UNL     1       6.004   0.249 -13.738  1.00  0.00     0.021 A 
ATOM     13  C   UNL     1       4.695  -0.004 -14.179  1.00  0.00     0.016 A 
ATOM     14  C   UNL     1       4.470  -0.749 -15.341  1.00  0.00     0.047 A 
ATOM     15  C   UNL     1       5.548  -1.262 -16.067  1.00  0.00     0.115 A 
ATOM     16  C   UNL     1       7.085  -0.288 -14.462  1.00  0.00     0.016 A 
ATOM     17  C   UNL     1       6.857  -1.033 -15.623  1.00  0.00     0.047 A 
BRANCH  15  18
ATOM     18  O   UNL     1       5.310  -2.002 -17.223  1.00  0.00    -0.508 OA
ATOM     19  H   UNL     1       5.884  -2.801 -17.468  1.00  0.00     0.293 HD
ENDBRANCH  15  18
ENDBRANCH   1  12
BRANCH   2  20
ATOM     20  O   UNL     1       6.694   3.065 -13.715  1.00  0.00    -0.502 OA
ATOM     21  H   UNL     1       7.319   3.853 -13.833  1.00  0.00     0.293 HD
ENDBRANCH   2  20
BRANCH   6  22
ATOM     22  O   UNL     1       6.913   4.297  -8.538  1.00  0.00    -0.507 OA
ATOM     23  H   UNL     1       7.734   4.804  -8.830  1.00  0.00     0.293 HD
ENDBRANCH   6  22
BRANCH   8  24
ATOM     24  O   UNL     1       6.111   0.004  -6.585  1.00  0.00    -0.508 OA
ATOM     25  H   UNL     1       5.422   0.226  -5.877  1.00  0.00     0.293 HD
ENDBRANCH   8  24
TORSDOF 5
ENDMDL
MODEL 8
REMARK VINA RESULT:    -4.960      2.052      6.600
REMARK INTER + INTRA:          -5.847
REMARK INTER:                  -5.560
REMARK INTRA:                  -0.287
REMARK UNBOUND:                -0.017
REMARK SMILES O=c1c(O)c(-c2ccc(O)cc2)oc2cc(O)cc(O)c12
REMARK SMILES IDX 5 1 3 2 2 3 1 4 21 5 19 6 18 7 16 8 15 9 14 10 13 11 6 12
REMARK SMILES IDX 7 13 8 14 9 15 12 16 11 17 10 18 4 20 20 22 17 24
REMARK H PARENT 10 19 4 21 20 23 17 25
REMARK Flexibility Score: inf
ROOT
ATOM      1  C   UNL     1       1.798   0.323  -7.607  1.00  0.00     0.180 A 
ATOM      2  C   UNL     1       1.069   1.374  -8.188  1.00  0.00     0.208 A 
ATOM      3  C   UNL     1      -0.333   1.303  -8.206  1.00  0.00     0.238 A 
ATOM      4  O   UNL     1      -0.981   2.281  -8.660  1.00  0.00    -0.285 OA
ATOM      5  C   UNL     1      -0.987   0.156  -7.694  1.00  0.00     0.111 A 
ATOM      6  C   UNL     1      -2.402  -0.044  -7.701  1.00  0.00     0.134 A 
ATOM      7  C   UNL     1      -2.943  -1.171  -7.070  1.00  0.00     0.093 A 
ATOM      8  C   UNL     1      -2.122  -2.136  -6.489  1.00  0.00     0.123 A 
ATOM      9  C   UNL     1      -0.735  -1.979  -6.524  1.00  0.00     0.094 A 
ATOM     10  C   UNL     1      -0.167  -0.846  -7.112  1.00  0.00     0.146 A 
ATOM     11  O   UNL     1       1.156  -0.725  -7.105  1.00  0.00    -0.452 OA
ENDROOT
BRANCH   1  12
ATOM     12  C   UNL     1       3.277   0.332  -7.537  1.00  0.00     0.021 A 
ATOM     13  C   UNL     1       3.914   0.887  -6.415  1.00  0.00     0.016 A 
ATOM     14  C   UNL     1       5.309   0.927  -6.339  1.00  0.00     0.047 A 
ATOM     15  C   UNL     1       6.085   0.428  -7.389  1.00  0.00     0.115 A 
ATOM     16  C   UNL     1       4.064  -0.150  -8.600  1.00  0.00     0.016 A 
ATOM     17  C   UNL     1       5.459  -0.108  -8.522  1.00  0.00     0.047 A 
BRANCH  15  18
ATOM     18  O   UNL     1       7.475   0.473  -7.300  1.00  0.00    -0.508 OA
ATOM     19  H   UNL     1       8.060  -0.180  -7.809  1.00  0.00     0.293 HD
ENDBRANCH  15  18
ENDBRANCH   1  12
BRANCH   2  20
ATOM     20  O   UNL     1       1.736   2.463  -8.757  1.00  0.00    -0.502 OA
ATOM     21  H   UNL     1       2.551   2.886  -8.330  1.00  0.00     0.293 HD
ENDBRANCH   2  20
BRANCH   6  22
ATOM     22  O   UNL     1      -3.310   0.812  -8.330  1.00  0.00    -0.507 OA
ATOM     23  H   UNL     1      -4.303   0.833  -8.153  1.00  0.00     0.293 HD
ENDBRANCH   6  22
BRANCH   8  24
ATOM     24  O   UNL     1      -2.694  -3.253  -5.885  1.00  0.00    -0.508 OA
ATOM     25  H   UNL     1      -2.127  -3.963  -5.436  1.00  0.00     0.293 HD
ENDBRANCH   8  24
TORSDOF 5
ENDMDL
