MODEL 1
REMARK VINA RESULT:    -4.075      0.000      0.000
REMARK INTER + INTRA:          -4.333
REMARK INTER:                  -4.313
REMARK INTRA:                  -0.020
REMARK UNBOUND:                -0.020
REMARK SMILES O=C([O-])c1cccnc1
REMARK SMILES IDX 4 1 5 2 9 3 6 4 8 5 7 6 2 7 1 8 3 9
REMARK H PARENT
REMARK Flexibility Score: inf
ROOT
ATOM      1  C   UNL     1      10.246  -8.121  19.948  1.00  0.00     0.016 A 
ATOM      2  C   UNL     1      11.421  -8.866  19.748  1.00  0.00     0.013 A 
ATOM      3  C   UNL     1      10.197  -7.229  21.033  1.00  0.00     0.120 A 
ATOM      4  C   UNL     1      12.503  -8.713  20.616  1.00  0.00     0.021 A 
ATOM      5  N   UNL     1      11.266  -7.099  21.863  1.00  0.00    -0.264 NA
ATOM      6  C   UNL     1      12.407  -7.814  21.680  1.00  0.00     0.111 A 
ENDROOT
BRANCH   1   7
ATOM      7  C   UNL     1       9.087  -8.268  19.040  1.00  0.00     0.073 C 
ATOM      8  O   UNL     1       8.464  -7.254  18.629  1.00  0.00    -0.545 OA
ATOM      9  O   UNL     1       8.672  -9.529  18.628  1.00  0.00    -0.545 OA
ENDBRANCH   1   7
TORSDOF 1
ENDMDL
MODEL 2
REMARK VINA RESULT:    -4.029      3.911      4.856
REMARK INTER + INTRA:          -4.284
REMARK INTER:                  -4.268
REMARK INTRA:                  -0.016
REMARK UNBOUND:                -0.020
REMARK SMILES O=C([O-])c1cccnc1
REMARK SMILES IDX 4 1 5 2 9 3 6 4 8 5 7 6 2 7 1 8 3 9
REMARK H PARENT
REMARK Flexibility Score: inf
ROOT
ATOM      1  C   UNL     1       7.182 -10.620  18.593  1.00  0.00     0.016 A 
ATOM      2  C   UNL     1       6.347  -9.578  19.029  1.00  0.00     0.013 A 
ATOM      3  C   UNL     1       8.550 -10.351  18.419  1.00  0.00     0.120 A 
ATOM      4  C   UNL     1       6.878  -8.311  19.279  1.00  0.00     0.021 A 
ATOM      5  N   UNL     1       9.043  -9.109  18.671  1.00  0.00    -0.264 NA
ATOM      6  C   UNL     1       8.244  -8.093  19.093  1.00  0.00     0.111 A 
ENDROOT
BRANCH   1   7
ATOM      7  C   UNL     1       6.638 -11.969  18.323  1.00  0.00     0.073 C 
ATOM      8  O   UNL     1       6.701 -12.871  19.199  1.00  0.00    -0.545 OA
ATOM      9  O   UNL     1       6.050 -12.258  17.096  1.00  0.00    -0.545 OA
ENDBRANCH   1   7
TORSDOF 1
ENDMDL
MODEL 3
REMARK VINA RESULT:    -4.019      5.219      6.032
REMARK INTER + INTRA:          -4.274
REMARK INTER:                  -4.258
REMARK INTRA:                  -0.016
REMARK UNBOUND:                -0.020
REMARK SMILES O=C([O-])c1cccnc1
REMARK SMILES IDX 4 1 5 2 9 3 6 4 8 5 7 6 2 7 1 8 3 9
REMARK H PARENT
REMARK Flexibility Score: inf
ROOT
ATOM      1  C   UNL     1      14.654  -8.269  23.220  1.00  0.00     0.016 A 
ATOM      2  C   UNL     1      14.556  -9.641  23.505  1.00  0.00     0.013 A 
ATOM      3  C   UNL     1      13.469  -7.518  23.140  1.00  0.00     0.120 A 
ATOM      4  C   UNL     1      13.305 -10.229  23.700  1.00  0.00     0.021 A 
ATOM      5  N   UNL     1      12.263  -8.115  23.334  1.00  0.00    -0.264 NA
ATOM      6  C   UNL     1      12.157  -9.441  23.610  1.00  0.00     0.111 A 
ENDROOT
BRANCH   1   7
ATOM      7  C   UNL     1      15.970  -7.627  23.010  1.00  0.00     0.073 C 
ATOM      8  O   UNL     1      16.694  -7.316  23.992  1.00  0.00    -0.545 OA
ATOM      9  O   UNL     1      16.425  -7.359  21.724  1.00  0.00    -0.545 OA
ENDBRANCH   1   7
TORSDOF 1
ENDMDL
MODEL 4
REMARK VINA RESULT:    -3.979      6.870      7.747
REMARK INTER + INTRA:          -4.231
REMARK INTER:                  -4.214
REMARK INTRA:                  -0.017
REMARK UNBOUND:                -0.020
REMARK SMILES O=C([O-])c1cccnc1
REMARK SMILES IDX 4 1 5 2 9 3 6 4 8 5 7 6 2 7 1 8 3 9
REMARK H PARENT
REMARK Flexibility Score: inf
ROOT
ATOM      1  C   UNL     1      13.244 -14.090  17.768  1.00  0.00     0.016 A 
ATOM      2  C   UNL     1      12.110 -14.894  17.561  1.00  0.00     0.013 A 
ATOM      3  C   UNL     1      14.328 -14.635  18.477  1.00  0.00     0.120 A 
ATOM      4  C   UNL     1      12.077 -16.200  18.054  1.00  0.00     0.021 A 
ATOM      5  N   UNL     1      14.271 -15.910  18.946  1.00  0.00    -0.264 NA
ATOM      6  C   UNL     1      13.179 -16.697  18.752  1.00  0.00     0.111 A 
ENDROOT
BRANCH   1   7
ATOM      7  C   UNL     1      13.299 -12.704  17.255  1.00  0.00     0.073 C 
ATOM      8  O   UNL     1      13.340 -12.483  16.016  1.00  0.00    -0.545 OA
ATOM      9  O   UNL     1      13.305 -11.627  18.134  1.00  0.00    -0.545 OA
ENDBRANCH   1   7
TORSDOF 1
ENDMDL
MODEL 5
REMARK VINA RESULT:    -3.947      0.910      2.023
REMARK INTER + INTRA:          -4.198
REMARK INTER:                  -4.180
REMARK INTRA:                  -0.018
REMARK UNBOUND:                -0.020
REMARK SMILES O=C([O-])c1cccnc1
REMARK SMILES IDX 4 1 5 2 9 3 6 4 8 5 7 6 2 7 1 8 3 9
REMARK H PARENT
REMARK Flexibility Score: inf
ROOT
ATOM      1  C   UNL     1       9.802  -7.953  20.168  1.00  0.00     0.016 A 
ATOM      2  C   UNL     1       9.314  -7.415  21.371  1.00  0.00     0.013 A 
ATOM      3  C   UNL     1      11.184  -8.172  20.047  1.00  0.00     0.120 A 
ATOM      4  C   UNL     1      10.195  -7.110  22.410  1.00  0.00     0.021 A 
ATOM      5  N   UNL     1      12.021  -7.868  21.075  1.00  0.00    -0.264 NA
ATOM      6  C   UNL     1      11.560  -7.346  22.242  1.00  0.00     0.111 A 
ENDROOT
BRANCH   1   7
ATOM      7  C   UNL     1       8.885  -8.283  19.055  1.00  0.00     0.073 C 
ATOM      8  O   UNL     1       8.813  -9.460  18.613  1.00  0.00    -0.545 OA
ATOM      9  O   UNL     1       8.090  -7.296  18.482  1.00  0.00    -0.545 OA
ENDBRANCH   1   7
TORSDOF 1
ENDMDL
MODEL 6
REMARK VINA RESULT:    -3.797      3.381      4.045
REMARK INTER + INTRA:          -4.038
REMARK INTER:                  -4.021
REMARK INTRA:                  -0.017
REMARK UNBOUND:                -0.020
REMARK SMILES O=C([O-])c1cccnc1
REMARK SMILES IDX 4 1 5 2 9 3 6 4 8 5 7 6 2 7 1 8 3 9
REMARK H PARENT
REMARK Flexibility Score: inf
ROOT
ATOM      1  C   UNL     1      11.548  -8.351  22.131  1.00  0.00     0.016 A 
ATOM      2  C   UNL     1      11.922  -8.778  20.845  1.00  0.00     0.013 A 
ATOM      3  C   UNL     1      10.317  -7.689  22.283  1.00  0.00     0.120 A 
ATOM      4  C   UNL     1      11.082  -8.541  19.756  1.00  0.00     0.021 A 
ATOM      5  N   UNL     1       9.517  -7.472  21.205  1.00  0.00    -0.264 NA
ATOM      6  C   UNL     1       9.869  -7.879  19.958  1.00  0.00     0.111 A 
ENDROOT
BRANCH   1   7
ATOM      7  C   UNL     1      12.423  -8.593  23.298  1.00  0.00     0.073 C 
ATOM      8  O   UNL     1      13.508  -7.965  23.425  1.00  0.00    -0.545 OA
ATOM      9  O   UNL     1      12.060  -9.516  24.273  1.00  0.00    -0.545 OA
ENDBRANCH   1   7
TORSDOF 1
ENDMDL
MODEL 7
REMARK VINA RESULT:    -3.778      7.803      8.767
REMARK INTER + INTRA:          -4.019
REMARK INTER:                  -3.999
REMARK INTRA:                  -0.020
REMARK UNBOUND:                -0.020
REMARK SMILES O=C([O-])c1cccnc1
REMARK SMILES IDX 4 1 5 2 9 3 6 4 8 5 7 6 2 7 1 8 3 9
REMARK H PARENT
REMARK Flexibility Score: inf
ROOT
ATOM      1  C   UNL     1      13.644 -15.788  18.346  1.00  0.00     0.016 A 
ATOM      2  C   UNL     1      14.782 -14.965  18.313  1.00  0.00     0.013 A 
ATOM      3  C   UNL     1      12.407 -15.234  17.973  1.00  0.00     0.120 A 
ATOM      4  C   UNL     1      14.670 -13.631  17.917  1.00  0.00     0.021 A 
ATOM      5  N   UNL     1      12.326 -13.932  17.591  1.00  0.00    -0.264 NA
ATOM      6  C   UNL     1      13.420 -13.126  17.555  1.00  0.00     0.111 A 
ENDROOT
BRANCH   1   7
ATOM      7  C   UNL     1      13.741 -17.204  18.762  1.00  0.00     0.073 C 
ATOM      8  O   UNL     1      13.152 -18.105  18.109  1.00  0.00    -0.545 OA
ATOM      9  O   UNL     1      14.485 -17.560  19.882  1.00  0.00    -0.545 OA
ENDBRANCH   1   7
TORSDOF 1
ENDMDL
MODEL 8
REMARK VINA RESULT:    -3.737      8.536      9.520
REMARK INTER + INTRA:          -3.975
REMARK INTER:                  -3.954
REMARK INTRA:                  -0.020
REMARK UNBOUND:                -0.020
REMARK SMILES O=C([O-])c1cccnc1
REMARK SMILES IDX 4 1 5 2 9 3 6 4 8 5 7 6 2 7 1 8 3 9
REMARK H PARENT
REMARK Flexibility Score: inf
ROOT
ATOM      1  C   UNL     1      13.350 -16.773  18.451  1.00  0.00     0.016 A 
ATOM      2  C   UNL     1      12.115 -16.426  17.877  1.00  0.00     0.013 A 
ATOM      3  C   UNL     1      14.261 -15.745  18.747  1.00  0.00     0.120 A 
ATOM      4  C   UNL     1      11.816 -15.088  17.613  1.00  0.00     0.021 A 
ATOM      5  N   UNL     1      13.945 -14.449  18.481  1.00  0.00    -0.264 NA
ATOM      6  C   UNL     1      12.753 -14.102  17.926  1.00  0.00     0.111 A 
ENDROOT
BRANCH   1   7
ATOM      7  C   UNL     1      13.687 -18.184  18.738  1.00  0.00     0.073 C 
ATOM      8  O   UNL     1      14.323 -18.491  19.780  1.00  0.00    -0.545 OA
ATOM      9  O   UNL     1      13.303 -19.192  17.860  1.00  0.00    -0.545 OA
ENDBRANCH   1   7
TORSDOF 1
ENDMDL
MODEL 9
REMARK VINA RESULT:    -3.690      6.093      7.118
REMARK INTER + INTRA:          -3.926
REMARK INTER:                  -3.905
REMARK INTRA:                  -0.020
REMARK UNBOUND:                -0.020
REMARK SMILES O=C([O-])c1cccnc1
REMARK SMILES IDX 4 1 5 2 9 3 6 4 8 5 7 6 2 7 1 8 3 9
REMARK H PARENT
REMARK Flexibility Score: inf
ROOT
ATOM      1  C   UNL     1      13.635 -13.554  19.712  1.00  0.00     0.016 A 
ATOM      2  C   UNL     1      14.474 -14.285  18.854  1.00  0.00     0.013 A 
ATOM      3  C   UNL     1      12.812 -12.561  19.154  1.00  0.00     0.120 A 
ATOM      4  C   UNL     1      14.479 -14.019  17.484  1.00  0.00     0.021 A 
ATOM      5  N   UNL     1      12.835 -12.322  17.816  1.00  0.00    -0.264 NA
ATOM      6  C   UNL     1      13.643 -13.023  16.977  1.00  0.00     0.111 A 
ENDROOT
BRANCH   1   7
ATOM      7  C   UNL     1      13.615 -13.821  21.167  1.00  0.00     0.073 C 
ATOM      8  O   UNL     1      13.632 -15.002  21.601  1.00  0.00    -0.545 OA
ATOM      9  O   UNL     1      13.579 -12.768  22.075  1.00  0.00    -0.545 OA
ENDBRANCH   1   7
TORSDOF 1
ENDMDL
