MODEL 1
REMARK VINA RESULT:    17.174      0.000      0.000
REMARK INTER + INTRA:          18.976
REMARK INTER:                  19.182
REMARK INTRA:                  -0.206
REMARK UNBOUND:                -0.206
REMARK SMILES CC(C)c1ccc(C(=O)[O-])cc1
REMARK SMILES IDX 7 1 6 2 11 3 5 4 12 5 4 6 8 7 9 8 10 9 2 10 1 11 3 12
REMARK H PARENT
REMARK Flexibility Score: inf
ROOT
ATOM      1  C   UNL     1     -11.786   0.648 -17.508  1.00  0.00    -0.003 A 
ATOM      2  C   UNL     1     -11.544  -0.622 -18.057  1.00  0.00     0.010 A 
ATOM      3  C   UNL     1     -10.770   1.274 -16.766  1.00  0.00     0.010 A 
ATOM      4  C   UNL     1     -10.311  -1.252 -17.869  1.00  0.00     0.004 A 
ATOM      5  C   UNL     1      -9.536   0.643 -16.578  1.00  0.00     0.004 A 
ATOM      6  C   UNL     1      -9.292  -0.627 -17.127  1.00  0.00    -0.045 A 
ENDROOT
BRANCH   1   7
ATOM      7  C   UNL     1     -13.092   1.312 -17.709  1.00  0.00     0.071 C 
ATOM      8  O   UNL     1     -14.167   0.693 -17.489  1.00  0.00    -0.545 OA
ATOM      9  O   UNL     1     -13.152   2.631 -18.146  1.00  0.00    -0.545 OA
ENDBRANCH   1   7
BRANCH   6  10
ATOM     10  C   UNL     1      -7.950  -1.300 -16.915  1.00  0.00     0.013 C 
ATOM     11  C   UNL     1      -6.875  -0.689 -17.822  1.00  0.00     0.012 C 
ATOM     12  C   UNL     1      -7.528  -1.240 -15.442  1.00  0.00     0.012 C 
ENDBRANCH   6  10
TORSDOF 2
ENDMDL
MODEL 2
REMARK VINA RESULT:    17.700      3.115      5.022
REMARK INTER + INTRA:          19.564
REMARK INTER:                  19.785
REMARK INTRA:                  -0.221
REMARK UNBOUND:                -0.206
REMARK SMILES CC(C)c1ccc(C(=O)[O-])cc1
REMARK SMILES IDX 7 1 6 2 11 3 5 4 12 5 4 6 8 7 9 8 10 9 2 10 1 11 3 12
REMARK H PARENT
REMARK Flexibility Score: inf
ROOT
ATOM      1  C   UNL     1      -9.166  -0.920 -17.038  1.00  0.00    -0.003 A 
ATOM      2  C   UNL     1     -10.133  -1.603 -17.793  1.00  0.00     0.010 A 
ATOM      3  C   UNL     1      -9.462   0.367 -16.556  1.00  0.00     0.010 A 
ATOM      4  C   UNL     1     -11.372  -1.012 -18.060  1.00  0.00     0.004 A 
ATOM      5  C   UNL     1     -10.701   0.957 -16.823  1.00  0.00     0.004 A 
ATOM      6  C   UNL     1     -11.670   0.275 -17.578  1.00  0.00    -0.045 A 
ENDROOT
BRANCH   1   7
ATOM      7  C   UNL     1      -7.857  -1.548 -16.756  1.00  0.00     0.071 C 
ATOM      8  O   UNL     1      -7.614  -2.723 -17.140  1.00  0.00    -0.545 OA
ATOM      9  O   UNL     1      -6.875  -0.851 -16.062  1.00  0.00    -0.545 OA
ENDBRANCH   1   7
BRANCH   6  10
ATOM     10  C   UNL     1     -13.009   0.928 -17.862  1.00  0.00     0.013 C 
ATOM     11  C   UNL     1     -12.881   2.455 -17.910  1.00  0.00     0.012 C 
ATOM     12  C   UNL     1     -13.625   0.385 -19.157  1.00  0.00     0.012 C 
ENDBRANCH   6  10
TORSDOF 2
ENDMDL
MODEL 3
REMARK VINA RESULT:    20.119      2.796      3.928
REMARK INTER + INTRA:          22.265
REMARK INTER:                  22.475
REMARK INTRA:                  -0.210
REMARK UNBOUND:                -0.206
REMARK SMILES CC(C)c1ccc(C(=O)[O-])cc1
REMARK SMILES IDX 7 1 6 2 11 3 5 4 12 5 4 6 8 7 9 8 10 9 2 10 1 11 3 12
REMARK H PARENT
REMARK Flexibility Score: inf
ROOT
ATOM      1  C   UNL     1     -12.098   3.125 -17.095  1.00  0.00    -0.003 A 
ATOM      2  C   UNL     1     -11.147   2.220 -16.597  1.00  0.00     0.010 A 
ATOM      3  C   UNL     1     -13.141   2.642 -17.903  1.00  0.00     0.010 A 
ATOM      4  C   UNL     1     -11.237   0.859 -16.901  1.00  0.00     0.004 A 
ATOM      5  C   UNL     1     -13.231   1.280 -18.207  1.00  0.00     0.004 A 
ATOM      6  C   UNL     1     -12.280   0.373 -17.710  1.00  0.00    -0.045 A 
ENDROOT
BRANCH   1   7
ATOM      7  C   UNL     1     -12.000   4.565 -16.770  1.00  0.00     0.071 C 
ATOM      8  O   UNL     1     -10.976   5.026 -16.199  1.00  0.00    -0.545 OA
ATOM      9  O   UNL     1     -13.040   5.432 -17.090  1.00  0.00    -0.545 OA
ENDBRANCH   1   7
BRANCH   6  10
ATOM     10  C   UNL     1     -12.389  -1.102 -18.048  1.00  0.00     0.013 C 
ATOM     11  C   UNL     1     -11.003  -1.729 -18.239  1.00  0.00     0.012 C 
ATOM     12  C   UNL     1     -13.193  -1.855 -16.982  1.00  0.00     0.012 C 
ENDBRANCH   6  10
TORSDOF 2
ENDMDL
