MODEL 1
REMARK VINA RESULT:    -4.247      0.000      0.000
REMARK INTER + INTRA:          -5.832
REMARK INTER:                  -5.737
REMARK INTRA:                  -0.096
REMARK UNBOUND:                -0.096
REMARK SMILES [NH3+]CCCC[C@H]([NH3+])C(=O)[O-]
REMARK SMILES IDX 4 1 3 2 2 3 1 4 5 8 6 9 7 10 8 14 9 15 10 16
REMARK H PARENT 1 5 1 6 1 7 7 11 7 12 7 13
REMARK Flexibility Score: inf
ROOT
ATOM      1  C   UNL     1       5.383   1.202 -26.264  1.00  0.00     0.012 C 
ENDROOT
BRANCH   1   2
ATOM      2  C   UNL     1       4.337   1.579 -25.194  1.00  0.00     0.061 C 
BRANCH   2   3
ATOM      3  C   UNL     1       4.821   1.437 -23.740  1.00  0.00     0.258 C 
BRANCH   3   4
ATOM      4  N   UNL     1       3.707   1.365 -22.791  1.00  0.00    -0.358 N 
ATOM      5  H   UNL     1       2.862   1.001 -23.287  1.00  0.00     0.344 HD
ATOM      6  H   UNL     1       3.937   0.710 -22.010  1.00  0.00     0.344 HD
ATOM      7  H   UNL     1       3.491   2.314 -22.409  1.00  0.00     0.344 HD
ENDBRANCH   3   4
ENDBRANCH   2   3
ENDBRANCH   1   2
BRANCH   1   8
ATOM      8  C   UNL     1       5.905   2.378 -27.114  1.00  0.00     0.072 C 
BRANCH   8   9
ATOM      9  C   UNL     1       7.188   2.066 -27.921  1.00  0.00     0.227 C 
BRANCH   9  10
ATOM     10  N   UNL     1       7.517   0.639 -27.823  1.00  0.00    -0.350 N 
ATOM     11  H   UNL     1       8.056   0.323 -28.662  1.00  0.00     0.345 HD
ATOM     12  H   UNL     1       6.639   0.075 -27.746  1.00  0.00     0.345 HD
ATOM     13  H   UNL     1       8.091   0.466 -26.964  1.00  0.00     0.345 HD
ENDBRANCH   9  10
BRANCH   9  14
ATOM     14  C   UNL     1       8.351   2.898 -27.446  1.00  0.00     0.099 C 
ATOM     15  O   UNL     1       8.217   3.691 -26.476  1.00  0.00    -0.544 OA
ATOM     16  O   UNL     1       9.581   2.801 -28.086  1.00  0.00    -0.544 OA
ENDBRANCH   9  14
ENDBRANCH   8   9
ENDBRANCH   1   8
TORSDOF 7
ENDMDL
MODEL 2
REMARK VINA RESULT:    -4.168     13.952     15.216
REMARK INTER + INTRA:          -5.726
REMARK INTER:                  -5.200
REMARK INTRA:                  -0.526
REMARK UNBOUND:                -0.096
REMARK SMILES [NH3+]CCCC[C@H]([NH3+])C(=O)[O-]
REMARK SMILES IDX 4 1 3 2 2 3 1 4 5 8 6 9 7 10 8 14 9 15 10 16
REMARK H PARENT 1 5 1 6 1 7 7 11 7 12 7 13
REMARK Flexibility Score: inf
ROOT
ATOM      1  C   UNL     1       2.706 -10.553 -19.175  1.00  0.00     0.012 C 
ENDROOT
BRANCH   1   2
ATOM      2  C   UNL     1       1.883 -11.807 -18.816  1.00  0.00     0.061 C 
BRANCH   2   3
ATOM      3  C   UNL     1       1.012 -11.669 -17.554  1.00  0.00     0.258 C 
BRANCH   3   4
ATOM      4  N   UNL     1      -0.418 -11.766 -17.856  1.00  0.00    -0.358 N 
ATOM      5  H   UNL     1      -0.546 -12.360 -18.706  1.00  0.00     0.344 HD
ATOM      6  H   UNL     1      -0.927 -12.215 -17.062  1.00  0.00     0.344 HD
ATOM      7  H   UNL     1      -0.816 -10.817 -18.046  1.00  0.00     0.344 HD
ENDBRANCH   3   4
ENDBRANCH   2   3
ENDBRANCH   1   2
BRANCH   1   8
ATOM      8  C   UNL     1       1.891  -9.250 -19.308  1.00  0.00     0.072 C 
BRANCH   8   9
ATOM      9  C   UNL     1       0.925  -9.218 -20.516  1.00  0.00     0.227 C 
BRANCH   9  10
ATOM     10  N   UNL     1       1.404  -8.269 -21.528  1.00  0.00    -0.350 N 
ATOM     11  H   UNL     1       1.782  -7.405 -21.077  1.00  0.00     0.345 HD
ATOM     12  H   UNL     1       0.620  -8.008 -22.170  1.00  0.00     0.345 HD
ATOM     13  H   UNL     1       2.160  -8.714 -22.100  1.00  0.00     0.345 HD
ENDBRANCH   9  10
BRANCH   9  14
ATOM     14  C   UNL     1      -0.475  -8.856 -20.090  1.00  0.00     0.099 C 
ATOM     15  O   UNL     1      -0.818  -8.941 -18.881  1.00  0.00    -0.544 OA
ATOM     16  O   UNL     1      -1.400  -8.433 -21.037  1.00  0.00    -0.544 OA
ENDBRANCH   9  14
ENDBRANCH   8   9
ENDBRANCH   1   8
TORSDOF 7
ENDMDL
MODEL 3
REMARK VINA RESULT:    -4.139     13.660     14.693
REMARK INTER + INTRA:          -5.686
REMARK INTER:                  -5.482
REMARK INTRA:                  -0.204
REMARK UNBOUND:                -0.096
REMARK SMILES [NH3+]CCCC[C@H]([NH3+])C(=O)[O-]
REMARK SMILES IDX 4 1 3 2 2 3 1 4 5 8 6 9 7 10 8 14 9 15 10 16
REMARK H PARENT 1 5 1 6 1 7 7 11 7 12 7 13
REMARK Flexibility Score: inf
ROOT
ATOM      1  C   UNL     1       1.173  -9.927 -18.236  1.00  0.00     0.012 C 
ENDROOT
BRANCH   1   2
ATOM      2  C   UNL     1       0.326  -9.670 -16.973  1.00  0.00     0.061 C 
BRANCH   2   3
ATOM      3  C   UNL     1      -0.750  -8.580 -17.126  1.00  0.00     0.258 C 
BRANCH   3   4
ATOM      4  N   UNL     1      -0.595  -7.506 -16.142  1.00  0.00    -0.358 N 
ATOM      5  H   UNL     1      -1.505  -7.367 -15.647  1.00  0.00     0.344 HD
ATOM      6  H   UNL     1       0.128  -7.765 -15.434  1.00  0.00     0.344 HD
ATOM      7  H   UNL     1      -0.330  -6.613 -16.616  1.00  0.00     0.344 HD
ENDBRANCH   3   4
ENDBRANCH   2   3
ENDBRANCH   1   2
BRANCH   1   8
ATOM      8  C   UNL     1       1.257  -8.742 -19.221  1.00  0.00     0.072 C 
BRANCH   8   9
ATOM      9  C   UNL     1       0.883  -9.095 -20.681  1.00  0.00     0.227 C 
BRANCH   9  10
ATOM     10  N   UNL     1       1.644  -8.260 -21.618  1.00  0.00    -0.350 N 
ATOM     11  H   UNL     1       1.004  -7.638 -22.164  1.00  0.00     0.345 HD
ATOM     12  H   UNL     1       2.182  -8.866 -22.279  1.00  0.00     0.345 HD
ATOM     13  H   UNL     1       2.326  -7.667 -21.090  1.00  0.00     0.345 HD
ENDBRANCH   9  10
BRANCH   9  14
ATOM     14  C   UNL     1      -0.594  -8.930 -20.924  1.00  0.00     0.099 C 
ATOM     15  O   UNL     1      -1.021  -8.011 -21.672  1.00  0.00    -0.544 OA
ATOM     16  O   UNL     1      -1.498  -9.791 -20.313  1.00  0.00    -0.544 OA
ENDBRANCH   9  14
ENDBRANCH   8   9
ENDBRANCH   1   8
TORSDOF 7
ENDMDL
MODEL 4
REMARK VINA RESULT:    -4.094      4.340      6.646
REMARK INTER + INTRA:          -5.626
REMARK INTER:                  -5.528
REMARK INTRA:                  -0.098
REMARK UNBOUND:                -0.096
REMARK SMILES [NH3+]CCCC[C@H]([NH3+])C(=O)[O-]
REMARK SMILES IDX 4 1 3 2 2 3 1 4 5 8 6 9 7 10 8 14 9 15 10 16
REMARK H PARENT 1 5 1 6 1 7 7 11 7 12 7 13
REMARK Flexibility Score: inf
ROOT
ATOM      1  C   UNL     1      10.852  -0.169 -30.506  1.00  0.00     0.012 C 
ENDROOT
BRANCH   1   2
ATOM      2  C   UNL     1      10.875  -1.302 -31.552  1.00  0.00     0.061 C 
BRANCH   2   3
ATOM      3  C   UNL     1       9.575  -1.461 -32.361  1.00  0.00     0.258 C 
BRANCH   3   4
ATOM      4  N   UNL     1       9.072  -2.837 -32.336  1.00  0.00    -0.358 N 
ATOM      5  H   UNL     1       9.153  -3.209 -31.363  1.00  0.00     0.344 HD
ATOM      6  H   UNL     1       8.065  -2.860 -32.613  1.00  0.00     0.344 HD
ATOM      7  H   UNL     1       9.634  -3.443 -32.976  1.00  0.00     0.344 HD
ENDBRANCH   3   4
ENDBRANCH   2   3
ENDBRANCH   1   2
BRANCH   1   8
ATOM      8  C   UNL     1       9.601   0.733 -30.543  1.00  0.00     0.072 C 
BRANCH   8   9
ATOM      9  C   UNL     1       9.368   1.559 -29.256  1.00  0.00     0.227 C 
BRANCH   9  10
ATOM     10  N   UNL     1       9.269   0.671 -28.092  1.00  0.00    -0.350 N 
ATOM     11  H   UNL     1       9.898   0.997 -27.322  1.00  0.00     0.345 HD
ATOM     12  H   UNL     1       9.535  -0.304 -28.364  1.00  0.00     0.345 HD
ATOM     13  H   UNL     1       8.283   0.655 -27.742  1.00  0.00     0.345 HD
ENDBRANCH   9  10
BRANCH   9  14
ATOM     14  C   UNL     1       8.127   2.407 -29.365  1.00  0.00     0.099 C 
ATOM     15  O   UNL     1       7.162   2.235 -28.574  1.00  0.00    -0.544 OA
ATOM     16  O   UNL     1       8.038   3.383 -30.351  1.00  0.00    -0.544 OA
ENDBRANCH   9  14
ENDBRANCH   8   9
ENDBRANCH   1   8
TORSDOF 7
ENDMDL
MODEL 5
REMARK VINA RESULT:    -4.074     10.304     11.068
REMARK INTER + INTRA:          -5.599
REMARK INTER:                  -5.514
REMARK INTRA:                  -0.085
REMARK UNBOUND:                -0.096
REMARK SMILES [NH3+]CCCC[C@H]([NH3+])C(=O)[O-]
REMARK SMILES IDX 4 1 3 2 2 3 1 4 5 8 6 9 7 10 8 14 9 15 10 16
REMARK H PARENT 1 5 1 6 1 7 7 11 7 12 7 13
REMARK Flexibility Score: inf
ROOT
ATOM      1  C   UNL     1      10.609  -4.752 -21.121  1.00  0.00     0.012 C 
ENDROOT
BRANCH   1   2
ATOM      2  C   UNL     1      10.837  -4.366 -22.597  1.00  0.00     0.061 C 
BRANCH   2   3
ATOM      3  C   UNL     1      10.076  -3.111 -23.062  1.00  0.00     0.258 C 
BRANCH   3   4
ATOM      4  N   UNL     1       8.675  -3.123 -22.635  1.00  0.00    -0.358 N 
ATOM      5  H   UNL     1       8.349  -2.137 -22.516  1.00  0.00     0.344 HD
ATOM      6  H   UNL     1       8.078  -3.581 -23.360  1.00  0.00     0.344 HD
ATOM      7  H   UNL     1       8.576  -3.622 -21.721  1.00  0.00     0.344 HD
ENDBRANCH   3   4
ENDBRANCH   2   3
ENDBRANCH   1   2
BRANCH   1   8
ATOM      8  C   UNL     1      11.862  -5.252 -20.372  1.00  0.00     0.072 C 
BRANCH   8   9
ATOM      9  C   UNL     1      11.567  -5.950 -19.023  1.00  0.00     0.227 C 
BRANCH   9  10
ATOM     10  N   UNL     1      10.121  -6.145 -18.856  1.00  0.00    -0.350 N 
ATOM     11  H   UNL     1       9.664  -5.265 -18.521  1.00  0.00     0.345 HD
ATOM     12  H   UNL     1       9.943  -6.910 -18.164  1.00  0.00     0.345 HD
ATOM     13  H   UNL     1       9.694  -6.425 -19.769  1.00  0.00     0.345 HD
ENDBRANCH   9  10
BRANCH   9  14
ATOM     14  C   UNL     1      12.119  -5.162 -17.865  1.00  0.00     0.099 C 
ATOM     15  O   UNL     1      11.347  -4.671 -16.998  1.00  0.00    -0.544 OA
ATOM     16  O   UNL     1      13.490  -4.963 -17.751  1.00  0.00    -0.544 OA
ENDBRANCH   9  14
ENDBRANCH   8   9
ENDBRANCH   1   8
TORSDOF 7
ENDMDL
MODEL 6
REMARK VINA RESULT:    -3.999     11.429     12.482
REMARK INTER + INTRA:          -5.497
REMARK INTER:                  -5.411
REMARK INTRA:                  -0.085
REMARK UNBOUND:                -0.096
REMARK SMILES [NH3+]CCCC[C@H]([NH3+])C(=O)[O-]
REMARK SMILES IDX 4 1 3 2 2 3 1 4 5 8 6 9 7 10 8 14 9 15 10 16
REMARK H PARENT 1 5 1 6 1 7 7 11 7 12 7 13
REMARK Flexibility Score: inf
ROOT
ATOM      1  C   UNL     1      14.129  -5.539 -24.214  1.00  0.00     0.012 C 
ENDROOT
BRANCH   1   2
ATOM      2  C   UNL     1      14.692  -6.433 -25.337  1.00  0.00     0.061 C 
BRANCH   2   3
ATOM      3  C   UNL     1      15.678  -5.731 -26.289  1.00  0.00     0.258 C 
BRANCH   3   4
ATOM      4  N   UNL     1      15.812  -6.437 -27.566  1.00  0.00    -0.358 N 
ATOM      5  H   UNL     1      15.309  -5.897 -28.306  1.00  0.00     0.344 HD
ATOM      6  H   UNL     1      16.818  -6.507 -27.837  1.00  0.00     0.344 HD
ATOM      7  H   UNL     1      15.390  -7.391 -27.501  1.00  0.00     0.344 HD
ENDBRANCH   3   4
ENDBRANCH   2   3
ENDBRANCH   1   2
BRANCH   1   8
ATOM      8  C   UNL     1      13.504  -6.296 -23.023  1.00  0.00     0.072 C 
BRANCH   8   9
ATOM      9  C   UNL     1      13.907  -5.750 -21.633  1.00  0.00     0.227 C 
BRANCH   9  10
ATOM     10  N   UNL     1      14.792  -6.700 -20.949  1.00  0.00    -0.350 N 
ATOM     11  H   UNL     1      14.238  -7.377 -20.376  1.00  0.00     0.345 HD
ATOM     12  H   UNL     1      15.456  -6.184 -20.326  1.00  0.00     0.345 HD
ATOM     13  H   UNL     1      15.355  -7.231 -21.654  1.00  0.00     0.345 HD
ENDBRANCH   9  10
BRANCH   9  14
ATOM     14  C   UNL     1      12.697  -5.467 -20.782  1.00  0.00     0.099 C 
ATOM     15  O   UNL     1      11.808  -4.668 -21.180  1.00  0.00    -0.544 OA
ATOM     16  O   UNL     1      12.559  -6.083 -19.544  1.00  0.00    -0.544 OA
ENDBRANCH   9  14
ENDBRANCH   8   9
ENDBRANCH   1   8
TORSDOF 7
ENDMDL
MODEL 7
REMARK VINA RESULT:    -3.952     14.401     15.668
REMARK INTER + INTRA:          -5.434
REMARK INTER:                  -4.938
REMARK INTRA:                  -0.496
REMARK UNBOUND:                -0.096
REMARK SMILES [NH3+]CCCC[C@H]([NH3+])C(=O)[O-]
REMARK SMILES IDX 4 1 3 2 2 3 1 4 5 8 6 9 7 10 8 14 9 15 10 16
REMARK H PARENT 1 5 1 6 1 7 7 11 7 12 7 13
REMARK Flexibility Score: inf
ROOT
ATOM      1  C   UNL     1       1.447  -8.781 -19.558  1.00  0.00     0.012 C 
ENDROOT
BRANCH   1   2
ATOM      2  C   UNL     1       0.980  -8.837 -21.026  1.00  0.00     0.061 C 
BRANCH   2   3
ATOM      3  C   UNL     1      -0.499  -8.470 -21.249  1.00  0.00     0.258 C 
BRANCH   3   4
ATOM      4  N   UNL     1      -1.386  -9.625 -21.087  1.00  0.00    -0.358 N 
ATOM      5  H   UNL     1      -2.071  -9.639 -21.875  1.00  0.00     0.344 HD
ATOM      6  H   UNL     1      -0.835 -10.512 -21.113  1.00  0.00     0.344 HD
ATOM      7  H   UNL     1      -1.912  -9.556 -20.185  1.00  0.00     0.344 HD
ENDBRANCH   3   4
ENDBRANCH   2   3
ENDBRANCH   1   2
BRANCH   1   8
ATOM      8  C   UNL     1       1.309 -10.104 -18.775  1.00  0.00     0.072 C 
BRANCH   8   9
ATOM      9  C   UNL     1       0.705  -9.950 -17.359  1.00  0.00     0.227 C 
BRANCH   9  10
ATOM     10  N   UNL     1       0.448 -11.269 -16.768  1.00  0.00    -0.350 N 
ATOM     11  H   UNL     1       0.804 -12.031 -17.390  1.00  0.00     0.345 HD
ATOM     12  H   UNL     1      -0.580 -11.399 -16.619  1.00  0.00     0.345 HD
ATOM     13  H   UNL     1       0.922 -11.339 -15.838  1.00  0.00     0.345 HD
ENDBRANCH   9  10
BRANCH   9  14
ATOM     14  C   UNL     1      -0.566  -9.141 -17.389  1.00  0.00     0.099 C 
ATOM     15  O   UNL     1      -1.574  -9.557 -18.020  1.00  0.00    -0.544 OA
ATOM     16  O   UNL     1      -0.629  -7.922 -16.725  1.00  0.00    -0.544 OA
ENDBRANCH   9  14
ENDBRANCH   8   9
ENDBRANCH   1   8
TORSDOF 7
ENDMDL
MODEL 8
REMARK VINA RESULT:    -3.944     10.896     11.383
REMARK INTER + INTRA:          -5.423
REMARK INTER:                  -4.895
REMARK INTRA:                  -0.528
REMARK UNBOUND:                -0.096
REMARK SMILES [NH3+]CCCC[C@H]([NH3+])C(=O)[O-]
REMARK SMILES IDX 4 1 3 2 2 3 1 4 5 8 6 9 7 10 8 14 9 15 10 16
REMARK H PARENT 1 5 1 6 1 7 7 11 7 12 7 13
REMARK Flexibility Score: inf
ROOT
ATOM      1  C   UNL     1      13.644  -5.014 -18.668  1.00  0.00     0.012 C 
ENDROOT
BRANCH   1   2
ATOM      2  C   UNL     1      12.593  -6.120 -18.446  1.00  0.00     0.061 C 
BRANCH   2   3
ATOM      3  C   UNL     1      11.205  -5.615 -18.012  1.00  0.00     0.258 C 
BRANCH   3   4
ATOM      4  N   UNL     1      10.135  -6.131 -18.870  1.00  0.00    -0.358 N 
ATOM      5  H   UNL     1      10.076  -5.540 -19.730  1.00  0.00     0.344 HD
ATOM      6  H   UNL     1      10.344  -7.112 -19.160  1.00  0.00     0.344 HD
ATOM      7  H   UNL     1       9.217  -6.092 -18.371  1.00  0.00     0.344 HD
ENDBRANCH   3   4
ENDBRANCH   2   3
ENDBRANCH   1   2
BRANCH   1   8
ATOM      8  C   UNL     1      13.859  -4.598 -20.139  1.00  0.00     0.072 C 
BRANCH   8   9
ATOM      9  C   UNL     1      13.193  -5.536 -21.174  1.00  0.00     0.227 C 
BRANCH   9  10
ATOM     10  N   UNL     1      14.203  -6.091 -22.083  1.00  0.00    -0.350 N 
ATOM     11  H   UNL     1      14.776  -6.820 -21.601  1.00  0.00     0.345 HD
ATOM     12  H   UNL     1      14.833  -5.327 -22.424  1.00  0.00     0.345 HD
ATOM     13  H   UNL     1      13.733  -6.520 -22.914  1.00  0.00     0.345 HD
ENDBRANCH   9  10
BRANCH   9  14
ATOM     14  C   UNL     1      12.128  -4.817 -21.961  1.00  0.00     0.099 C 
ATOM     15  O   UNL     1      12.329  -4.494 -23.162  1.00  0.00    -0.544 OA
ATOM     16  O   UNL     1      10.917  -4.497 -21.359  1.00  0.00    -0.544 OA
ENDBRANCH   9  14
ENDBRANCH   8   9
ENDBRANCH   1   8
TORSDOF 7
ENDMDL
MODEL 9
REMARK VINA RESULT:    -3.911     11.688     12.543
REMARK INTER + INTRA:          -5.379
REMARK INTER:                  -4.858
REMARK INTRA:                  -0.521
REMARK UNBOUND:                -0.096
REMARK SMILES [NH3+]CCCC[C@H]([NH3+])C(=O)[O-]
REMARK SMILES IDX 4 1 3 2 2 3 1 4 5 8 6 9 7 10 8 14 9 15 10 16
REMARK H PARENT 1 5 1 6 1 7 7 11 7 12 7 13
REMARK Flexibility Score: inf
ROOT
ATOM      1  C   UNL     1      12.682  -5.310 -21.595  1.00  0.00     0.012 C 
ENDROOT
BRANCH   1   2
ATOM      2  C   UNL     1      13.904  -4.369 -21.609  1.00  0.00     0.061 C 
BRANCH   2   3
ATOM      3  C   UNL     1      15.222  -5.015 -21.143  1.00  0.00     0.258 C 
BRANCH   3   4
ATOM      4  N   UNL     1      15.053  -6.426 -20.790  1.00  0.00    -0.358 N 
ATOM      5  H   UNL     1      15.895  -6.958 -21.106  1.00  0.00     0.344 HD
ATOM      6  H   UNL     1      14.966  -6.533 -19.754  1.00  0.00     0.344 HD
ATOM      7  H   UNL     1      14.208  -6.822 -21.263  1.00  0.00     0.344 HD
ENDBRANCH   3   4
ENDBRANCH   2   3
ENDBRANCH   1   2
BRANCH   1   8
ATOM      8  C   UNL     1      11.624  -4.995 -20.516  1.00  0.00     0.072 C 
BRANCH   8   9
ATOM      9  C   UNL     1      11.603  -5.987 -19.330  1.00  0.00     0.227 C 
BRANCH   9  10
ATOM     10  N   UNL     1      10.226  -6.212 -18.876  1.00  0.00    -0.350 N 
ATOM     11  H   UNL     1       9.714  -6.840 -19.538  1.00  0.00     0.345 HD
ATOM     12  H   UNL     1       9.719  -5.298 -18.809  1.00  0.00     0.345 HD
ATOM     13  H   UNL     1      10.233  -6.651 -17.926  1.00  0.00     0.345 HD
ENDBRANCH   9  10
BRANCH   9  14
ATOM     14  C   UNL     1      12.449  -5.492 -18.185  1.00  0.00     0.099 C 
ATOM     15  O   UNL     1      13.679  -5.764 -18.134  1.00  0.00    -0.544 OA
ATOM     16  O   UNL     1      11.872  -4.738 -17.171  1.00  0.00    -0.544 OA
ENDBRANCH   9  14
ENDBRANCH   8   9
ENDBRANCH   1   8
TORSDOF 7
ENDMDL
