MODEL 1
REMARK VINA RESULT:    -5.964      0.000      0.000
REMARK INTER + INTRA:         -10.831
REMARK INTER:                  -9.102
REMARK INTRA:                  -1.729
REMARK UNBOUND:                -1.729
REMARK SMILES CC(=O)CCC=C(C)CCC=C(C)CCC=C(C)C
REMARK SMILES IDX 10 1 11 2 12 3 13 4 14 5 15 6 16 7 18 8 17 9 19 10 9 11 7 12
REMARK SMILES IDX 6 13 8 14 5 15 4 16 2 17 3 18 1 19
REMARK H PARENT
REMARK Flexibility Score: inf
ROOT
ATOM      1  C   UNL     1     -19.401 -51.633  24.859  1.00  0.00     0.032 C 
ENDROOT
BRANCH   1   2
ATOM      2  C   UNL     1     -20.903 -51.522  24.901  1.00  0.00    -0.028 C 
ATOM      3  C   UNL     1     -21.684 -52.070  25.861  1.00  0.00    -0.077 C 
ATOM      4  C   UNL     1     -21.108 -52.926  26.964  1.00  0.00     0.039 C 
BRANCH   3   5
ATOM      5  C   UNL     1     -23.178 -51.838  25.809  1.00  0.00     0.034 C 
BRANCH   5   6
ATOM      6  C   UNL     1     -23.805 -52.580  24.624  1.00  0.00     0.032 C 
BRANCH   6   7
ATOM      7  C   UNL     1     -23.771 -54.071  24.849  1.00  0.00    -0.028 C 
ATOM      8  C   UNL     1     -23.031 -56.392  24.520  1.00  0.00     0.039 C 
ATOM      9  C   UNL     1     -22.992 -54.930  24.155  1.00  0.00    -0.080 C 
ATOM     10  C   UNL     1     -22.104 -54.470  23.023  1.00  0.00     0.039 C 
ENDBRANCH   6   7
ENDBRANCH   5   6
ENDBRANCH   3   5
ENDBRANCH   1   2
BRANCH   1  11
ATOM     11  C   UNL     1     -18.751 -50.266  25.102  1.00  0.00     0.034 C 
BRANCH  11  12
ATOM     12  C   UNL     1     -19.013 -49.789  26.513  1.00  0.00    -0.077 C 
ATOM     13  C   UNL     1     -18.412 -50.428  27.543  1.00  0.00    -0.028 C 
ATOM     14  C   UNL     1     -19.954 -48.629  26.732  1.00  0.00     0.039 C 
BRANCH  13  15
ATOM     15  C   UNL     1     -18.546 -50.033  28.995  1.00  0.00     0.035 C 
BRANCH  15  16
ATOM     16  C   UNL     1     -17.187 -50.003  29.705  1.00  0.00     0.079 C 
BRANCH  16  17
ATOM     17  C   UNL     1     -16.678 -51.393  29.990  1.00  0.00     0.130 C 
ATOM     18  O   UNL     1     -15.679 -51.799  29.414  1.00  0.00    -0.300 OA
ATOM     19  C   UNL     1     -17.371 -52.290  30.972  1.00  0.00     0.087 C 
ENDBRANCH  16  17
ENDBRANCH  15  16
ENDBRANCH  13  15
ENDBRANCH  11  12
ENDBRANCH   1  11
TORSDOF 9
ENDMDL
MODEL 2
REMARK VINA RESULT:    -5.935      2.295      4.302
REMARK INTER + INTRA:         -10.786
REMARK INTER:                  -8.197
REMARK INTRA:                  -2.589
REMARK UNBOUND:                -1.729
REMARK SMILES CC(=O)CCC=C(C)CCC=C(C)CCC=C(C)C
REMARK SMILES IDX 10 1 11 2 12 3 13 4 14 5 15 6 16 7 18 8 17 9 19 10 9 11 7 12
REMARK SMILES IDX 6 13 8 14 5 15 4 16 2 17 3 18 1 19
REMARK H PARENT
REMARK Flexibility Score: inf
ROOT
ATOM      1  C   UNL     1     -21.577 -53.848  23.058  1.00  0.00     0.032 C 
ENDROOT
BRANCH   1   2
ATOM      2  C   UNL     1     -22.414 -54.719  23.959  1.00  0.00    -0.028 C 
ATOM      3  C   UNL     1     -23.691 -54.449  24.313  1.00  0.00    -0.077 C 
ATOM      4  C   UNL     1     -24.385 -53.178  23.883  1.00  0.00     0.039 C 
BRANCH   3   5
ATOM      5  C   UNL     1     -24.433 -55.437  25.186  1.00  0.00     0.034 C 
BRANCH   5   6
ATOM      6  C   UNL     1     -25.110 -54.725  26.363  1.00  0.00     0.032 C 
BRANCH   6   7
ATOM      7  C   UNL     1     -24.087 -54.275  27.375  1.00  0.00    -0.028 C 
ATOM      8  C   UNL     1     -22.983 -52.740  28.946  1.00  0.00     0.039 C 
ATOM      9  C   UNL     1     -24.039 -53.035  27.911  1.00  0.00    -0.080 C 
ATOM     10  C   UNL     1     -24.997 -51.945  27.494  1.00  0.00     0.039 C 
ENDBRANCH   6   7
ENDBRANCH   5   6
ENDBRANCH   3   5
ENDBRANCH   1   2
BRANCH   1  11
ATOM     11  C   UNL     1     -20.338 -53.334  23.801  1.00  0.00     0.034 C 
BRANCH  11  12
ATOM     12  C   UNL     1     -20.736 -52.580  25.051  1.00  0.00    -0.077 C 
ATOM     13  C   UNL     1     -21.395 -51.406  24.927  1.00  0.00    -0.028 C 
ATOM     14  C   UNL     1     -20.365 -53.150  26.399  1.00  0.00     0.039 C 
BRANCH  13  15
ATOM     15  C   UNL     1     -21.891 -50.573  26.085  1.00  0.00     0.035 C 
BRANCH  15  16
ATOM     16  C   UNL     1     -21.074 -49.285  26.252  1.00  0.00     0.079 C 
BRANCH  16  17
ATOM     17  C   UNL     1     -19.987 -49.445  27.284  1.00  0.00     0.130 C 
ATOM     18  O   UNL     1     -18.867 -49.016  27.049  1.00  0.00    -0.300 OA
ATOM     19  C   UNL     1     -20.253 -50.118  28.597  1.00  0.00     0.087 C 
ENDBRANCH  16  17
ENDBRANCH  15  16
ENDBRANCH  13  15
ENDBRANCH  11  12
ENDBRANCH   1  11
TORSDOF 9
ENDMDL
MODEL 3
REMARK VINA RESULT:    -5.927      3.177      7.164
REMARK INTER + INTRA:         -10.774
REMARK INTER:                  -8.814
REMARK INTRA:                  -1.960
REMARK UNBOUND:                -1.729
REMARK SMILES CC(=O)CCC=C(C)CCC=C(C)CCC=C(C)C
REMARK SMILES IDX 10 1 11 2 12 3 13 4 14 5 15 6 16 7 18 8 17 9 19 10 9 11 7 12
REMARK SMILES IDX 6 13 8 14 5 15 4 16 2 17 3 18 1 19
REMARK H PARENT
REMARK Flexibility Score: inf
ROOT
ATOM      1  C   UNL     1     -21.651 -53.160  23.842  1.00  0.00     0.032 C 
ENDROOT
BRANCH   1   2
ATOM      2  C   UNL     1     -20.788 -53.315  25.067  1.00  0.00    -0.028 C 
ATOM      3  C   UNL     1     -21.099 -52.826  26.290  1.00  0.00    -0.077 C 
ATOM      4  C   UNL     1     -22.339 -51.995  26.523  1.00  0.00     0.039 C 
BRANCH   3   5
ATOM      5  C   UNL     1     -20.164 -53.098  27.447  1.00  0.00     0.034 C 
BRANCH   5   6
ATOM      6  C   UNL     1     -18.850 -52.326  27.281  1.00  0.00     0.032 C 
BRANCH   6   7
ATOM      7  C   UNL     1     -19.094 -50.839  27.346  1.00  0.00    -0.028 C 
ATOM      8  C   UNL     1     -19.277 -48.538  26.500  1.00  0.00     0.039 C 
ATOM      9  C   UNL     1     -18.957 -49.997  26.297  1.00  0.00    -0.080 C 
ATOM     10  C   UNL     1     -18.482 -50.473  24.945  1.00  0.00     0.039 C 
ENDBRANCH   6   7
ENDBRANCH   5   6
ENDBRANCH   3   5
ENDBRANCH   1   2
BRANCH   1  11
ATOM     11  C   UNL     1     -22.126 -54.528  23.338  1.00  0.00     0.034 C 
BRANCH  11  12
ATOM     12  C   UNL     1     -23.096 -55.154  24.316  1.00  0.00    -0.077 C 
ATOM     13  C   UNL     1     -24.218 -54.476  24.651  1.00  0.00    -0.028 C 
ATOM     14  C   UNL     1     -22.772 -56.506  24.905  1.00  0.00     0.039 C 
BRANCH  13  15
ATOM     15  C   UNL     1     -25.292 -54.998  25.576  1.00  0.00     0.035 C 
BRANCH  15  16
ATOM     16  C   UNL     1     -25.074 -54.532  27.022  1.00  0.00     0.079 C 
BRANCH  16  17
ATOM     17  C   UNL     1     -26.189 -53.633  27.490  1.00  0.00     0.130 C 
ATOM     18  O   UNL     1     -27.033 -54.071  28.258  1.00  0.00    -0.300 OA
ATOM     19  C   UNL     1     -26.282 -52.206  27.036  1.00  0.00     0.087 C 
ENDBRANCH  16  17
ENDBRANCH  15  16
ENDBRANCH  13  15
ENDBRANCH  11  12
ENDBRANCH   1  11
TORSDOF 9
ENDMDL
MODEL 4
REMARK VINA RESULT:    -5.833      2.852      6.522
REMARK INTER + INTRA:         -10.630
REMARK INTER:                  -8.141
REMARK INTRA:                  -2.490
REMARK UNBOUND:                -1.729
REMARK SMILES CC(=O)CCC=C(C)CCC=C(C)CCC=C(C)C
REMARK SMILES IDX 10 1 11 2 12 3 13 4 14 5 15 6 16 7 18 8 17 9 19 10 9 11 7 12
REMARK SMILES IDX 6 13 8 14 5 15 4 16 2 17 3 18 1 19
REMARK H PARENT
REMARK Flexibility Score: inf
ROOT
ATOM      1  C   UNL     1     -20.922 -52.056  24.208  1.00  0.00     0.032 C 
ENDROOT
BRANCH   1   2
ATOM      2  C   UNL     1     -20.530 -50.771  24.890  1.00  0.00    -0.028 C 
ATOM      3  C   UNL     1     -21.227 -50.193  25.895  1.00  0.00    -0.077 C 
ATOM      4  C   UNL     1     -22.537 -50.764  26.386  1.00  0.00     0.039 C 
BRANCH   3   5
ATOM      5  C   UNL     1     -20.691 -48.926  26.525  1.00  0.00     0.034 C 
BRANCH   5   6
ATOM      6  C   UNL     1     -19.317 -49.170  27.157  1.00  0.00     0.032 C 
BRANCH   6   7
ATOM      7  C   UNL     1     -19.433 -50.083  28.352  1.00  0.00    -0.028 C 
ATOM      8  C   UNL     1     -18.974 -52.056  29.744  1.00  0.00     0.039 C 
ATOM      9  C   UNL     1     -18.796 -51.269  28.471  1.00  0.00    -0.080 C 
ATOM     10  C   UNL     1     -17.931 -51.828  27.366  1.00  0.00     0.039 C 
ENDBRANCH   6   7
ENDBRANCH   5   6
ENDBRANCH   3   5
ENDBRANCH   1   2
BRANCH   1  11
ATOM     11  C   UNL     1     -20.203 -53.249  24.848  1.00  0.00     0.034 C 
BRANCH  11  12
ATOM     12  C   UNL     1     -21.181 -54.125  25.600  1.00  0.00    -0.077 C 
ATOM     13  C   UNL     1     -22.159 -54.758  24.912  1.00  0.00    -0.028 C 
ATOM     14  C   UNL     1     -21.049 -54.250  27.099  1.00  0.00     0.039 C 
BRANCH  13  15
ATOM     15  C   UNL     1     -23.171 -55.696  25.526  1.00  0.00     0.035 C 
BRANCH  15  16
ATOM     16  C   UNL     1     -24.605 -55.180  25.349  1.00  0.00     0.079 C 
BRANCH  16  17
ATOM     17  C   UNL     1     -24.918 -54.065  26.315  1.00  0.00     0.130 C 
ATOM     18  O   UNL     1     -25.325 -52.995  25.887  1.00  0.00    -0.300 OA
ATOM     19  C   UNL     1     -24.743 -54.244  27.794  1.00  0.00     0.087 C 
ENDBRANCH  16  17
ENDBRANCH  15  16
ENDBRANCH  13  15
ENDBRANCH  11  12
ENDBRANCH   1  11
TORSDOF 9
ENDMDL
MODEL 5
REMARK VINA RESULT:    -5.823      1.335      2.460
REMARK INTER + INTRA:         -10.615
REMARK INTER:                  -8.480
REMARK INTRA:                  -2.135
REMARK UNBOUND:                -1.729
REMARK SMILES CC(=O)CCC=C(C)CCC=C(C)CCC=C(C)C
REMARK SMILES IDX 10 1 11 2 12 3 13 4 14 5 15 6 16 7 18 8 17 9 19 10 9 11 7 12
REMARK SMILES IDX 6 13 8 14 5 15 4 16 2 17 3 18 1 19
REMARK H PARENT
REMARK Flexibility Score: inf
ROOT
ATOM      1  C   UNL     1     -19.297 -51.100  24.478  1.00  0.00     0.032 C 
ENDROOT
BRANCH   1   2
ATOM      2  C   UNL     1     -20.761 -51.404  24.665  1.00  0.00    -0.028 C 
ATOM      3  C   UNL     1     -21.390 -52.486  24.152  1.00  0.00    -0.077 C 
ATOM      4  C   UNL     1     -20.676 -53.473  23.259  1.00  0.00     0.039 C 
BRANCH   3   5
ATOM      5  C   UNL     1     -22.856 -52.695  24.460  1.00  0.00     0.034 C 
BRANCH   5   6
ATOM      6  C   UNL     1     -23.056 -53.923  25.356  1.00  0.00     0.032 C 
BRANCH   6   7
ATOM      7  C   UNL     1     -22.755 -53.588  26.796  1.00  0.00    -0.028 C 
ATOM      8  C   UNL     1     -21.437 -53.494  28.868  1.00  0.00     0.039 C 
ATOM      9  C   UNL     1     -21.618 -53.936  27.438  1.00  0.00    -0.080 C 
ATOM     10  C   UNL     1     -20.543 -54.761  26.773  1.00  0.00     0.039 C 
ENDBRANCH   6   7
ENDBRANCH   5   6
ENDBRANCH   3   5
ENDBRANCH   1   2
BRANCH   1  11
ATOM     11  C   UNL     1     -18.823 -50.065  25.504  1.00  0.00     0.034 C 
BRANCH  11  12
ATOM     12  C   UNL     1     -18.898 -50.627  26.907  1.00  0.00    -0.077 C 
ATOM     13  C   UNL     1     -19.519 -49.907  27.870  1.00  0.00    -0.028 C 
ATOM     14  C   UNL     1     -18.258 -51.964  27.197  1.00  0.00     0.039 C 
BRANCH  13  15
ATOM     15  C   UNL     1     -19.707 -50.363  29.297  1.00  0.00     0.035 C 
BRANCH  15  16
ATOM     16  C   UNL     1     -18.685 -49.716  30.241  1.00  0.00     0.079 C 
BRANCH  16  17
ATOM     17  C   UNL     1     -17.408 -50.514  30.310  1.00  0.00     0.130 C 
ATOM     18  O   UNL     1     -16.390 -50.065  29.805  1.00  0.00    -0.300 OA
ATOM     19  C   UNL     1     -17.360 -51.849  30.992  1.00  0.00     0.087 C 
ENDBRANCH  16  17
ENDBRANCH  15  16
ENDBRANCH  13  15
ENDBRANCH  11  12
ENDBRANCH   1  11
TORSDOF 9
ENDMDL
MODEL 6
REMARK VINA RESULT:    -5.811      3.489      7.810
REMARK INTER + INTRA:         -10.596
REMARK INTER:                  -9.146
REMARK INTRA:                  -1.450
REMARK UNBOUND:                -1.729
REMARK SMILES CC(=O)CCC=C(C)CCC=C(C)CCC=C(C)C
REMARK SMILES IDX 10 1 11 2 12 3 13 4 14 5 15 6 16 7 18 8 17 9 19 10 9 11 7 12
REMARK SMILES IDX 6 13 8 14 5 15 4 16 2 17 3 18 1 19
REMARK H PARENT
REMARK Flexibility Score: inf
ROOT
ATOM      1  C   UNL     1     -20.642 -53.866  23.506  1.00  0.00     0.032 C 
ENDROOT
BRANCH   1   2
ATOM      2  C   UNL     1     -20.627 -52.422  23.936  1.00  0.00    -0.028 C 
ATOM      3  C   UNL     1     -20.603 -52.006  25.223  1.00  0.00    -0.077 C 
ATOM      4  C   UNL     1     -20.665 -52.980  26.376  1.00  0.00     0.039 C 
BRANCH   3   5
ATOM      5  C   UNL     1     -20.540 -50.522  25.512  1.00  0.00     0.034 C 
BRANCH   5   6
ATOM      6  C   UNL     1     -19.128 -50.110  25.942  1.00  0.00     0.032 C 
BRANCH   6   7
ATOM      7  C   UNL     1     -19.111 -49.692  27.391  1.00  0.00    -0.028 C 
ATOM      8  C   UNL     1     -18.460 -49.771  29.760  1.00  0.00     0.039 C 
ATOM      9  C   UNL     1     -18.416 -50.329  28.360  1.00  0.00    -0.080 C 
ATOM     10  C   UNL     1     -17.618 -51.580  28.083  1.00  0.00     0.039 C 
ENDBRANCH   6   7
ENDBRANCH   5   6
ENDBRANCH   3   5
ENDBRANCH   1   2
BRANCH   1  11
ATOM     11  C   UNL     1     -21.990 -54.229  22.873  1.00  0.00     0.034 C 
BRANCH  11  12
ATOM     12  C   UNL     1     -22.977 -54.675  23.929  1.00  0.00    -0.077 C 
ATOM     13  C   UNL     1     -24.003 -53.856  24.256  1.00  0.00    -0.028 C 
ATOM     14  C   UNL     1     -22.775 -56.012  24.602  1.00  0.00     0.039 C 
BRANCH  13  15
ATOM     15  C   UNL     1     -25.084 -54.192  25.255  1.00  0.00     0.035 C 
BRANCH  15  16
ATOM     16  C   UNL     1     -26.050 -53.019  25.464  1.00  0.00     0.079 C 
BRANCH  16  17
ATOM     17  C   UNL     1     -27.355 -53.237  24.741  1.00  0.00     0.130 C 
ATOM     18  O   UNL     1     -27.385 -53.168  23.521  1.00  0.00    -0.300 OA
ATOM     19  C   UNL     1     -28.619 -53.542  25.489  1.00  0.00     0.087 C 
ENDBRANCH  16  17
ENDBRANCH  15  16
ENDBRANCH  13  15
ENDBRANCH  11  12
ENDBRANCH   1  11
TORSDOF 9
ENDMDL
MODEL 7
REMARK VINA RESULT:    -5.797      2.903      6.594
REMARK INTER + INTRA:         -10.575
REMARK INTER:                  -8.206
REMARK INTRA:                  -2.370
REMARK UNBOUND:                -1.729
REMARK SMILES CC(=O)CCC=C(C)CCC=C(C)CCC=C(C)C
REMARK SMILES IDX 10 1 11 2 12 3 13 4 14 5 15 6 16 7 18 8 17 9 19 10 9 11 7 12
REMARK SMILES IDX 6 13 8 14 5 15 4 16 2 17 3 18 1 19
REMARK H PARENT
REMARK Flexibility Score: inf
ROOT
ATOM      1  C   UNL     1     -19.716 -49.779  26.230  1.00  0.00     0.032 C 
ENDROOT
BRANCH   1   2
ATOM      2  C   UNL     1     -19.247 -49.615  27.653  1.00  0.00    -0.028 C 
ATOM      3  C   UNL     1     -18.321 -50.401  28.249  1.00  0.00    -0.077 C 
ATOM      4  C   UNL     1     -17.712 -51.590  27.544  1.00  0.00     0.039 C 
BRANCH   3   5
ATOM      5  C   UNL     1     -17.906 -50.094  29.671  1.00  0.00     0.034 C 
BRANCH   5   6
ATOM      6  C   UNL     1     -19.110 -50.156  30.617  1.00  0.00     0.032 C 
BRANCH   6   7
ATOM      7  C   UNL     1     -19.622 -51.570  30.737  1.00  0.00    -0.028 C 
ATOM      8  C   UNL     1     -21.221 -53.423  30.510  1.00  0.00     0.039 C 
ATOM      9  C   UNL     1     -20.862 -51.965  30.373  1.00  0.00    -0.080 C 
ATOM     10  C   UNL     1     -21.892 -50.991  29.852  1.00  0.00     0.039 C 
ENDBRANCH   6   7
ENDBRANCH   5   6
ENDBRANCH   3   5
ENDBRANCH   1   2
BRANCH   1  11
ATOM     11  C   UNL     1     -21.081 -50.474  26.187  1.00  0.00     0.034 C 
BRANCH  11  12
ATOM     12  C   UNL     1     -20.937 -51.915  25.748  1.00  0.00    -0.077 C 
ATOM     13  C   UNL     1     -20.693 -52.182  24.444  1.00  0.00    -0.028 C 
ATOM     14  C   UNL     1     -21.091 -53.013  26.773  1.00  0.00     0.039 C 
BRANCH  13  15
ATOM     15  C   UNL     1     -20.482 -53.565  23.875  1.00  0.00     0.035 C 
BRANCH  15  16
ATOM     16  C   UNL     1     -21.654 -54.000  22.986  1.00  0.00     0.079 C 
BRANCH  16  17
ATOM     17  C   UNL     1     -22.838 -54.447  23.806  1.00  0.00     0.130 C 
ATOM     18  O   UNL     1     -23.824 -53.728  23.880  1.00  0.00    -0.300 OA
ATOM     19  C   UNL     1     -22.832 -55.760  24.531  1.00  0.00     0.087 C 
ENDBRANCH  16  17
ENDBRANCH  15  16
ENDBRANCH  13  15
ENDBRANCH  11  12
ENDBRANCH   1  11
TORSDOF 9
ENDMDL
MODEL 8
REMARK VINA RESULT:    -5.748      2.055      4.526
REMARK INTER + INTRA:         -10.501
REMARK INTER:                  -7.956
REMARK INTRA:                  -2.545
REMARK UNBOUND:                -1.729
REMARK SMILES CC(=O)CCC=C(C)CCC=C(C)CCC=C(C)C
REMARK SMILES IDX 10 1 11 2 12 3 13 4 14 5 15 6 16 7 18 8 17 9 19 10 9 11 7 12
REMARK SMILES IDX 6 13 8 14 5 15 4 16 2 17 3 18 1 19
REMARK H PARENT
REMARK Flexibility Score: inf
ROOT
ATOM      1  C   UNL     1     -22.570 -55.560  25.372  1.00  0.00     0.032 C 
ENDROOT
BRANCH   1   2
ATOM      2  C   UNL     1     -23.730 -54.968  26.130  1.00  0.00    -0.028 C 
ATOM      3  C   UNL     1     -24.582 -54.045  25.627  1.00  0.00    -0.077 C 
ATOM      4  C   UNL     1     -24.396 -53.458  24.248  1.00  0.00     0.039 C 
BRANCH   3   5
ATOM      5  C   UNL     1     -25.736 -53.571  26.483  1.00  0.00     0.034 C 
BRANCH   5   6
ATOM      6  C   UNL     1     -25.554 -52.102  26.880  1.00  0.00     0.032 C 
BRANCH   6   7
ATOM      7  C   UNL     1     -24.483 -51.963  27.933  1.00  0.00    -0.028 C 
ATOM      8  C   UNL     1     -22.340 -51.243  28.898  1.00  0.00     0.039 C 
ATOM      9  C   UNL     1     -23.298 -51.343  27.738  1.00  0.00    -0.080 C 
ATOM     10  C   UNL     1     -22.905 -50.768  26.398  1.00  0.00     0.039 C 
ENDBRANCH   6   7
ENDBRANCH   5   6
ENDBRANCH   3   5
ENDBRANCH   1   2
BRANCH   1  11
ATOM     11  C   UNL     1     -21.248 -55.264  26.088  1.00  0.00     0.034 C 
BRANCH  11  12
ATOM     12  C   UNL     1     -20.656 -53.957  25.605  1.00  0.00    -0.077 C 
ATOM     13  C   UNL     1     -20.086 -53.124  26.505  1.00  0.00    -0.028 C 
ATOM     14  C   UNL     1     -20.740 -53.613  24.138  1.00  0.00     0.039 C 
BRANCH  13  15
ATOM     15  C   UNL     1     -19.419 -51.814  26.160  1.00  0.00     0.035 C 
BRANCH  15  16
ATOM     16  C   UNL     1     -18.591 -51.270  27.331  1.00  0.00     0.079 C 
BRANCH  16  17
ATOM     17  C   UNL     1     -19.098 -49.928  27.795  1.00  0.00     0.130 C 
ATOM     18  O   UNL     1     -19.142 -49.683  28.992  1.00  0.00    -0.300 OA
ATOM     19  C   UNL     1     -19.547 -48.884  26.816  1.00  0.00     0.087 C 
ENDBRANCH  16  17
ENDBRANCH  15  16
ENDBRANCH  13  15
ENDBRANCH  11  12
ENDBRANCH   1  11
TORSDOF 9
ENDMDL
MODEL 9
REMARK VINA RESULT:    -5.733      3.937      7.075
REMARK INTER + INTRA:         -10.478
REMARK INTER:                  -8.223
REMARK INTRA:                  -2.255
REMARK UNBOUND:                -1.729
REMARK SMILES CC(=O)CCC=C(C)CCC=C(C)CCC=C(C)C
REMARK SMILES IDX 10 1 11 2 12 3 13 4 14 5 15 6 16 7 18 8 17 9 19 10 9 11 7 12
REMARK SMILES IDX 6 13 8 14 5 15 4 16 2 17 3 18 1 19
REMARK H PARENT
REMARK Flexibility Score: inf
ROOT
ATOM      1  C   UNL     1     -20.683 -53.215  23.062  1.00  0.00     0.032 C 
ENDROOT
BRANCH   1   2
ATOM      2  C   UNL     1     -20.181 -53.436  24.466  1.00  0.00    -0.028 C 
ATOM      3  C   UNL     1     -20.238 -52.513  25.454  1.00  0.00    -0.077 C 
ATOM      4  C   UNL     1     -20.758 -51.116  25.209  1.00  0.00     0.039 C 
BRANCH   3   5
ATOM      5  C   UNL     1     -19.742 -52.886  26.834  1.00  0.00     0.034 C 
BRANCH   5   6
ATOM      6  C   UNL     1     -20.628 -53.970  27.458  1.00  0.00     0.032 C 
BRANCH   6   7
ATOM      7  C   UNL     1     -22.059 -53.502  27.549  1.00  0.00    -0.028 C 
ATOM      8  C   UNL     1     -23.992 -52.306  28.484  1.00  0.00     0.039 C 
ATOM      9  C   UNL     1     -22.547 -52.732  28.547  1.00  0.00    -0.080 C 
ATOM     10  C   UNL     1     -21.696 -52.305  29.719  1.00  0.00     0.039 C 
ENDBRANCH   6   7
ENDBRANCH   5   6
ENDBRANCH   3   5
ENDBRANCH   1   2
BRANCH   1  11
ATOM     11  C   UNL     1     -21.771 -54.235  22.710  1.00  0.00     0.034 C 
BRANCH  11  12
ATOM     12  C   UNL     1     -22.846 -54.263  23.774  1.00  0.00    -0.077 C 
ATOM     13  C   UNL     1     -23.615 -53.166  23.958  1.00  0.00    -0.028 C 
ATOM     14  C   UNL     1     -23.015 -55.507  24.613  1.00  0.00     0.039 C 
BRANCH  13  15
ATOM     15  C   UNL     1     -24.751 -53.069  24.949  1.00  0.00     0.035 C 
BRANCH  15  16
ATOM     16  C   UNL     1     -26.071 -53.578  24.354  1.00  0.00     0.079 C 
BRANCH  16  17
ATOM     17  C   UNL     1     -26.567 -54.807  25.071  1.00  0.00     0.130 C 
ATOM     18  O   UNL     1     -27.187 -55.657  24.448  1.00  0.00    -0.300 OA
ATOM     19  C   UNL     1     -26.313 -55.011  26.534  1.00  0.00     0.087 C 
ENDBRANCH  16  17
ENDBRANCH  15  16
ENDBRANCH  13  15
ENDBRANCH  11  12
ENDBRANCH   1  11
TORSDOF 9
ENDMDL
