MODEL 1
REMARK VINA RESULT:    -5.590      0.000      0.000
REMARK INTER + INTRA:          -5.590
REMARK INTER:                  -5.590
REMARK INTRA:                   0.000
REMARK UNBOUND:                 0.000
REMARK SMILES CC1=CC(=O)[C@H]2C[C@@H]1C2(C)C
REMARK SMILES IDX 1 1 2 2 3 3 4 4 5 5 6 6 7 7 8 8 9 9 10 10 11 11
REMARK H PARENT
REMARK Flexibility Score: inf
ROOT
ATOM      1  C   UNL     1      -8.215  33.186  22.018  1.00  0.00     0.040 C 
ATOM      2  C   UNL     1      -8.068  31.770  22.480  1.00  0.00    -0.066 C 
ATOM      3  C   UNL     1      -8.562  30.732  21.750  1.00  0.00     0.047 C 
ATOM      4  C   UNL     1      -8.378  29.364  22.335  1.00  0.00     0.159 C 
ATOM      5  O   UNL     1      -8.825  28.329  21.776  1.00  0.00    -0.295 OA
ATOM      6  C   UNL     1      -7.612  29.315  23.657  1.00  0.00     0.067 C 
ATOM      7  C   UNL     1      -6.399  30.242  23.424  1.00  0.00     0.021 C 
ATOM      8  C   UNL     1      -7.335  31.416  23.791  1.00  0.00     0.022 C 
ATOM      9  C   UNL     1      -8.191  30.403  24.606  1.00  0.00    -0.019 C 
ATOM     10  C   UNL     1      -9.732  30.606  24.642  1.00  0.00     0.012 C 
ATOM     11  C   UNL     1      -7.688  30.243  26.062  1.00  0.00     0.012 C 
ENDROOT
TORSDOF 0
ENDMDL
MODEL 2
REMARK VINA RESULT:    -5.409      1.568      1.977
REMARK INTER + INTRA:          -5.409
REMARK INTER:                  -5.409
REMARK INTRA:                   0.000
REMARK UNBOUND:                 0.000
REMARK SMILES CC1=CC(=O)[C@H]2C[C@@H]1C2(C)C
REMARK SMILES IDX 1 1 2 2 3 3 4 4 5 5 6 6 7 7 8 8 9 9 10 10 11 11
REMARK H PARENT
REMARK Flexibility Score: inf
ROOT
ATOM      1  C   UNL     1      -7.168  34.200  23.832  1.00  0.00     0.040 C 
ATOM      2  C   UNL     1      -7.763  32.960  23.244  1.00  0.00    -0.066 C 
ATOM      3  C   UNL     1      -8.540  33.009  22.125  1.00  0.00     0.047 C 
ATOM      4  C   UNL     1      -9.102  31.702  21.652  1.00  0.00     0.159 C 
ATOM      5  O   UNL     1      -9.865  31.621  20.655  1.00  0.00    -0.295 OA
ATOM      6  C   UNL     1      -8.685  30.477  22.467  1.00  0.00     0.067 C 
ATOM      7  C   UNL     1      -7.163  30.655  22.663  1.00  0.00     0.021 C 
ATOM      8  C   UNL     1      -7.513  31.568  23.860  1.00  0.00     0.022 C 
ATOM      9  C   UNL     1      -8.862  30.802  23.977  1.00  0.00    -0.019 C 
ATOM     10  C   UNL     1     -10.124  31.599  24.417  1.00  0.00     0.012 C 
ATOM     11  C   UNL     1      -8.749  29.540  24.869  1.00  0.00     0.012 C 
ENDROOT
TORSDOF 0
ENDMDL
MODEL 3
REMARK VINA RESULT:    -5.353      2.195      3.370
REMARK INTER + INTRA:          -5.353
REMARK INTER:                  -5.353
REMARK INTRA:                   0.000
REMARK UNBOUND:                 0.000
REMARK SMILES CC1=CC(=O)[C@H]2C[C@@H]1C2(C)C
REMARK SMILES IDX 1 1 2 2 3 3 4 4 5 5 6 6 7 7 8 8 9 9 10 10 11 11
REMARK H PARENT
REMARK Flexibility Score: inf
ROOT
ATOM      1  C   UNL     1      -6.385  30.118  23.515  1.00  0.00     0.040 C 
ATOM      2  C   UNL     1      -7.525  31.087  23.522  1.00  0.00    -0.066 C 
ATOM      3  C   UNL     1      -8.246  31.341  22.393  1.00  0.00     0.047 C 
ATOM      4  C   UNL     1      -9.343  32.354  22.522  1.00  0.00     0.159 C 
ATOM      5  O   UNL     1     -10.052  32.704  21.544  1.00  0.00    -0.295 OA
ATOM      6  C   UNL     1      -9.537  32.933  23.924  1.00  0.00     0.067 C 
ATOM      7  C   UNL     1      -9.492  31.699  24.852  1.00  0.00     0.021 C 
ATOM      8  C   UNL     1      -7.952  31.830  24.805  1.00  0.00     0.022 C 
ATOM      9  C   UNL     1      -8.147  33.341  24.489  1.00  0.00    -0.019 C 
ATOM     10  C   UNL     1      -7.133  34.028  23.530  1.00  0.00     0.012 C 
ATOM     11  C   UNL     1      -8.261  34.202  25.772  1.00  0.00     0.012 C 
ENDROOT
TORSDOF 0
ENDMDL
MODEL 4
REMARK VINA RESULT:    -5.345      2.373      3.341
REMARK INTER + INTRA:          -5.345
REMARK INTER:                  -5.345
REMARK INTRA:                   0.000
REMARK UNBOUND:                 0.000
REMARK SMILES CC1=CC(=O)[C@H]2C[C@@H]1C2(C)C
REMARK SMILES IDX 1 1 2 2 3 3 4 4 5 5 6 6 7 7 8 8 9 9 10 10 11 11
REMARK H PARENT
REMARK Flexibility Score: inf
ROOT
ATOM      1  C   UNL     1      -7.892  32.895  20.502  1.00  0.00     0.040 C 
ATOM      2  C   UNL     1      -8.157  32.645  21.953  1.00  0.00    -0.066 C 
ATOM      3  C   UNL     1      -7.670  33.478  22.916  1.00  0.00     0.047 C 
ATOM      4  C   UNL     1      -7.979  33.103  24.334  1.00  0.00     0.159 C 
ATOM      5  O   UNL     1      -7.553  33.769  25.313  1.00  0.00    -0.295 OA
ATOM      6  C   UNL     1      -8.846  31.855  24.507  1.00  0.00     0.067 C 
ATOM      7  C   UNL     1      -9.981  32.038  23.476  1.00  0.00     0.021 C 
ATOM      8  C   UNL     1      -9.007  31.449  22.430  1.00  0.00     0.022 C 
ATOM      9  C   UNL     1      -8.277  30.727  23.599  1.00  0.00    -0.019 C 
ATOM     10  C   UNL     1      -6.733  30.559  23.510  1.00  0.00     0.012 C 
ATOM     11  C   UNL     1      -8.898  29.344  23.918  1.00  0.00     0.012 C 
ENDROOT
TORSDOF 0
ENDMDL
MODEL 5
REMARK VINA RESULT:    -5.339      2.335      3.558
REMARK INTER + INTRA:          -5.339
REMARK INTER:                  -5.339
REMARK INTRA:                   0.000
REMARK UNBOUND:                 0.000
REMARK SMILES CC1=CC(=O)[C@H]2C[C@@H]1C2(C)C
REMARK SMILES IDX 1 1 2 2 3 3 4 4 5 5 6 6 7 7 8 8 9 9 10 10 11 11
REMARK H PARENT
REMARK Flexibility Score: inf
ROOT
ATOM      1  C   UNL     1      -6.880  34.767  23.567  1.00  0.00     0.040 C 
ATOM      2  C   UNL     1      -7.788  33.612  23.849  1.00  0.00    -0.066 C 
ATOM      3  C   UNL     1      -8.158  33.295  25.121  1.00  0.00     0.047 C 
ATOM      4  C   UNL     1      -9.045  32.097  25.274  1.00  0.00     0.159 C 
ATOM      5  O   UNL     1      -9.423  31.680  26.400  1.00  0.00    -0.295 OA
ATOM      6  C   UNL     1      -9.456  31.416  23.968  1.00  0.00     0.067 C 
ATOM      7  C   UNL     1      -9.865  32.585  23.046  1.00  0.00     0.021 C 
ATOM      8  C   UNL     1      -8.362  32.735  22.716  1.00  0.00     0.022 C 
ATOM      9  C   UNL     1      -8.190  31.233  23.084  1.00  0.00    -0.019 C 
ATOM     10  C   UNL     1      -6.867  30.792  23.773  1.00  0.00     0.012 C 
ATOM     11  C   UNL     1      -8.444  30.297  21.877  1.00  0.00     0.012 C 
ENDROOT
TORSDOF 0
ENDMDL
MODEL 6
REMARK VINA RESULT:    -5.327      1.601      3.002
REMARK INTER + INTRA:          -5.327
REMARK INTER:                  -5.327
REMARK INTRA:                   0.000
REMARK UNBOUND:                 0.000
REMARK SMILES CC1=CC(=O)[C@H]2C[C@@H]1C2(C)C
REMARK SMILES IDX 1 1 2 2 3 3 4 4 5 5 6 6 7 7 8 8 9 9 10 10 11 11
REMARK H PARENT
REMARK Flexibility Score: inf
ROOT
ATOM      1  C   UNL     1      -8.623  27.878  21.997  1.00  0.00     0.040 C 
ATOM      2  C   UNL     1      -8.527  29.193  22.705  1.00  0.00    -0.066 C 
ATOM      3  C   UNL     1      -8.415  30.362  22.014  1.00  0.00     0.047 C 
ATOM      4  C   UNL     1      -8.296  31.608  22.838  1.00  0.00     0.159 C 
ATOM      5  O   UNL     1      -8.147  32.745  22.319  1.00  0.00    -0.295 OA
ATOM      6  C   UNL     1      -8.365  31.402  24.352  1.00  0.00     0.067 C 
ATOM      7  C   UNL     1      -9.557  30.440  24.547  1.00  0.00     0.021 C 
ATOM      8  C   UNL     1      -8.568  29.292  24.244  1.00  0.00     0.022 C 
ATOM      9  C   UNL     1      -7.424  30.225  24.735  1.00  0.00    -0.019 C 
ATOM     10  C   UNL     1      -6.041  30.125  24.029  1.00  0.00     0.012 C 
ATOM     11  C   UNL     1      -7.196  30.125  26.264  1.00  0.00     0.012 C 
ENDROOT
TORSDOF 0
ENDMDL
MODEL 7
REMARK VINA RESULT:    -5.277      1.898      3.074
REMARK INTER + INTRA:          -5.277
REMARK INTER:                  -5.277
REMARK INTRA:                   0.000
REMARK UNBOUND:                 0.000
REMARK SMILES CC1=CC(=O)[C@H]2C[C@@H]1C2(C)C
REMARK SMILES IDX 1 1 2 2 3 3 4 4 5 5 6 6 7 7 8 8 9 9 10 10 11 11
REMARK H PARENT
REMARK Flexibility Score: inf
ROOT
ATOM      1  C   UNL     1      -8.766  28.069  21.969  1.00  0.00     0.040 C 
ATOM      2  C   UNL     1      -8.307  28.864  23.151  1.00  0.00    -0.066 C 
ATOM      3  C   UNL     1      -8.533  28.435  24.424  1.00  0.00     0.047 C 
ATOM      4  C   UNL     1      -8.052  29.336  25.521  1.00  0.00     0.159 C 
ATOM      5  O   UNL     1      -8.236  29.070  26.737  1.00  0.00    -0.295 OA
ATOM      6  C   UNL     1      -7.325  30.599  25.060  1.00  0.00     0.067 C 
ATOM      7  C   UNL     1      -6.353  30.098  23.970  1.00  0.00     0.021 C 
ATOM      8  C   UNL     1      -7.543  30.194  22.988  1.00  0.00     0.022 C 
ATOM      9  C   UNL     1      -8.160  31.267  23.931  1.00  0.00    -0.019 C 
ATOM     10  C   UNL     1      -9.707  31.308  24.083  1.00  0.00     0.012 C 
ATOM     11  C   UNL     1      -7.667  32.698  23.600  1.00  0.00     0.012 C 
ENDROOT
TORSDOF 0
ENDMDL
MODEL 8
REMARK VINA RESULT:    -5.064      1.638      2.039
REMARK INTER + INTRA:          -5.064
REMARK INTER:                  -5.064
REMARK INTRA:                   0.000
REMARK UNBOUND:                 0.000
REMARK SMILES CC1=CC(=O)[C@H]2C[C@@H]1C2(C)C
REMARK SMILES IDX 1 1 2 2 3 3 4 4 5 5 6 6 7 7 8 8 9 9 10 10 11 11
REMARK H PARENT
REMARK Flexibility Score: inf
ROOT
ATOM      1  C   UNL     1     -10.120  32.440  21.252  1.00  0.00     0.040 C 
ATOM      2  C   UNL     1      -9.111  32.017  22.272  1.00  0.00    -0.066 C 
ATOM      3  C   UNL     1      -8.240  30.998  22.027  1.00  0.00     0.047 C 
ATOM      4  C   UNL     1      -7.299  30.650  23.141  1.00  0.00     0.159 C 
ATOM      5  O   UNL     1      -6.475  29.703  23.052  1.00  0.00    -0.295 OA
ATOM      6  C   UNL     1      -7.411  31.523  24.391  1.00  0.00     0.067 C 
ATOM      7  C   UNL     1      -7.479  32.964  23.839  1.00  0.00     0.021 C 
ATOM      8  C   UNL     1      -8.993  32.723  23.639  1.00  0.00     0.022 C 
ATOM      9  C   UNL     1      -8.914  31.656  24.769  1.00  0.00    -0.019 C 
ATOM     10  C   UNL     1      -9.818  30.396  24.654  1.00  0.00     0.012 C 
ATOM     11  C   UNL     1      -9.115  32.271  26.177  1.00  0.00     0.012 C 
ENDROOT
TORSDOF 0
ENDMDL
MODEL 9
REMARK VINA RESULT:    -4.980     19.945     21.263
REMARK INTER + INTRA:          -4.980
REMARK INTER:                  -4.980
REMARK INTRA:                   0.000
REMARK UNBOUND:                 0.000
REMARK SMILES CC1=CC(=O)[C@H]2C[C@@H]1C2(C)C
REMARK SMILES IDX 1 1 2 2 3 3 4 4 5 5 6 6 7 7 8 8 9 9 10 10 11 11
REMARK H PARENT
REMARK Flexibility Score: inf
ROOT
ATOM      1  C   UNL     1      -2.375  43.590   8.901  1.00  0.00     0.040 C 
ATOM      2  C   UNL     1      -3.007  44.796   9.522  1.00  0.00    -0.066 C 
ATOM      3  C   UNL     1      -4.145  45.344   9.008  1.00  0.00     0.047 C 
ATOM      4  C   UNL     1      -4.661  46.568   9.702  1.00  0.00     0.159 C 
ATOM      5  O   UNL     1      -5.679  47.189   9.300  1.00  0.00    -0.295 OA
ATOM      6  C   UNL     1      -3.864  47.011  10.930  1.00  0.00     0.067 C 
ATOM      7  C   UNL     1      -3.624  45.703  11.715  1.00  0.00     0.021 C 
ATOM      8  C   UNL     1      -2.416  45.466  10.780  1.00  0.00     0.022 C 
ATOM      9  C   UNL     1      -2.352  47.005  10.567  1.00  0.00    -0.019 C 
ATOM     10  C   UNL     1      -1.927  47.536   9.168  1.00  0.00     0.012 C 
ATOM     11  C   UNL     1      -1.486  47.714  11.638  1.00  0.00     0.012 C 
ENDROOT
TORSDOF 0
ENDMDL
