MODEL 1
REMARK VINA RESULT:    -4.593      0.000      0.000
REMARK INTER + INTRA:          -6.956
REMARK INTER:                  -6.204
REMARK INTRA:                  -0.751
REMARK UNBOUND:                -0.751
REMARK SMILES C[C@@H](O)[C@H](O)[C@H](O)[C@H](O)C=O
REMARK SMILES IDX 4 1 2 2 1 3 3 4 6 6 8 7 10 8 11 9 9 10 7 12 5 14
REMARK H PARENT 3 5 9 11 7 13 5 15
REMARK Flexibility Score: inf
ROOT
ATOM      1  C   UNL     1     -13.351   8.148   9.045  1.00  0.00     0.174 C 
ENDROOT
BRANCH   1   2
ATOM      2  C   UNL     1     -14.646   8.110   9.906  1.00  0.00     0.142 C 
ATOM      3  C   UNL     1     -14.469   7.218  11.145  1.00  0.00     0.041 C 
BRANCH   2   4
ATOM      4  O   UNL     1     -15.066   9.399  10.281  1.00  0.00    -0.391 OA
ATOM      5  H   UNL     1     -15.474   9.836   9.488  1.00  0.00     0.211 HD
ENDBRANCH   2   4
ENDBRANCH   1   2
BRANCH   1   6
ATOM      6  C   UNL     1     -13.446   9.022   7.757  1.00  0.00     0.181 C 
BRANCH   6   7
ATOM      7  C   UNL     1     -12.645  10.353   7.834  1.00  0.00     0.209 C 
BRANCH   7   8
ATOM      8  C   UNL     1     -12.547  10.990   6.476  1.00  0.00     0.258 C 
ATOM      9  O   UNL     1     -11.622  10.720   5.728  1.00  0.00    -0.300 OA
ENDBRANCH   7   8
BRANCH   7  10
ATOM     10  O   UNL     1     -13.288  11.256   8.699  1.00  0.00    -0.383 OA
ATOM     11  H   UNL     1     -12.636  11.972   8.915  1.00  0.00     0.211 HD
ENDBRANCH   7  10
ENDBRANCH   6   7
BRANCH   6  12
ATOM     12  O   UNL     1     -13.104   8.276   6.613  1.00  0.00    -0.387 OA
ATOM     13  H   UNL     1     -12.132   8.080   6.652  1.00  0.00     0.211 HD
ENDBRANCH   6  12
ENDBRANCH   1   6
BRANCH   1  14
ATOM     14  O   UNL     1     -12.239   8.523   9.821  1.00  0.00    -0.388 OA
ATOM     15  H   UNL     1     -11.451   8.586   9.224  1.00  0.00     0.211 HD
ENDBRANCH   1  14
TORSDOF 8
ENDMDL
MODEL 2
REMARK VINA RESULT:    -4.554      1.577      4.650
REMARK INTER + INTRA:          -6.902
REMARK INTER:                  -6.385
REMARK INTRA:                  -0.518
REMARK UNBOUND:                -0.751
REMARK SMILES C[C@@H](O)[C@H](O)[C@H](O)[C@H](O)C=O
REMARK SMILES IDX 4 1 2 2 1 3 3 4 6 6 8 7 10 8 11 9 9 10 7 12 5 14
REMARK H PARENT 3 5 9 11 7 13 5 15
REMARK Flexibility Score: inf
ROOT
ATOM      1  C   UNL     1     -12.601   9.657   6.537  1.00  0.00     0.174 C 
ENDROOT
BRANCH   1   2
ATOM      2  C   UNL     1     -12.320  11.180   6.390  1.00  0.00     0.142 C 
ATOM      3  C   UNL     1     -11.231  11.449   5.340  1.00  0.00     0.041 C 
BRANCH   2   4
ATOM      4  O   UNL     1     -13.488  11.904   6.087  1.00  0.00    -0.391 OA
ATOM      5  H   UNL     1     -13.888  12.217   6.940  1.00  0.00     0.211 HD
ENDBRANCH   2   4
ENDBRANCH   1   2
BRANCH   1   6
ATOM      6  C   UNL     1     -13.071   9.212   7.955  1.00  0.00     0.181 C 
BRANCH   6   7
ATOM      7  C   UNL     1     -13.489   7.716   8.044  1.00  0.00     0.209 C 
BRANCH   7   8
ATOM      8  C   UNL     1     -13.322   7.203   9.448  1.00  0.00     0.258 C 
ATOM      9  O   UNL     1     -13.939   7.709  10.372  1.00  0.00    -0.300 OA
ENDBRANCH   7   8
BRANCH   7  10
ATOM     10  O   UNL     1     -14.838   7.567   7.679  1.00  0.00    -0.383 OA
ATOM     11  H   UNL     1     -15.262   8.462   7.748  1.00  0.00     0.211 HD
ENDBRANCH   7  10
ENDBRANCH   6   7
BRANCH   6  12
ATOM     12  O   UNL     1     -12.113   9.542   8.933  1.00  0.00    -0.387 OA
ATOM     13  H   UNL     1     -12.139  10.524   9.071  1.00  0.00     0.211 HD
ENDBRANCH   6  12
ENDBRANCH   1   6
BRANCH   1  14
ATOM     14  O   UNL     1     -13.502   9.212   5.551  1.00  0.00    -0.388 OA
ATOM     15  H   UNL     1     -13.520   8.221   5.572  1.00  0.00     0.211 HD
ENDBRANCH   1  14
TORSDOF 8
ENDMDL
MODEL 3
REMARK VINA RESULT:    -4.507      1.164      4.150
REMARK INTER + INTRA:          -6.839
REMARK INTER:                  -6.193
REMARK INTRA:                  -0.646
REMARK UNBOUND:                -0.751
REMARK SMILES C[C@@H](O)[C@H](O)[C@H](O)[C@H](O)C=O
REMARK SMILES IDX 4 1 2 2 1 3 3 4 6 6 8 7 10 8 11 9 9 10 7 12 5 14
REMARK H PARENT 3 5 9 11 7 13 5 15
REMARK Flexibility Score: inf
ROOT
ATOM      1  C   UNL     1     -13.168   9.626   8.440  1.00  0.00     0.174 C 
ENDROOT
BRANCH   1   2
ATOM      2  C   UNL     1     -12.802  10.124   7.012  1.00  0.00     0.142 C 
ATOM      3  C   UNL     1     -11.678  11.171   7.055  1.00  0.00     0.041 C 
BRANCH   2   4
ATOM      4  O   UNL     1     -12.456   9.062   6.157  1.00  0.00    -0.391 OA
ATOM      5  H   UNL     1     -11.670   8.594   6.545  1.00  0.00     0.211 HD
ENDBRANCH   2   4
ENDBRANCH   1   2
BRANCH   1   6
ATOM      6  C   UNL     1     -13.970   8.290   8.482  1.00  0.00     0.181 C 
BRANCH   6   7
ATOM      7  C   UNL     1     -14.873   8.132   9.739  1.00  0.00     0.209 C 
BRANCH   7   8
ATOM      8  C   UNL     1     -14.236   7.202  10.734  1.00  0.00     0.258 C 
ATOM      9  O   UNL     1     -13.134   7.447  11.196  1.00  0.00    -0.300 OA
ENDBRANCH   7   8
BRANCH   7  10
ATOM     10  O   UNL     1     -15.062   9.379  10.359  1.00  0.00    -0.383 OA
ATOM     11  H   UNL     1     -16.011   9.636  10.222  1.00  0.00     0.211 HD
ENDBRANCH   7  10
ENDBRANCH   6   7
BRANCH   6  12
ATOM     12  O   UNL     1     -14.699   8.099   7.292  1.00  0.00    -0.387 OA
ATOM     13  H   UNL     1     -15.034   8.983   6.991  1.00  0.00     0.211 HD
ENDBRANCH   6  12
ENDBRANCH   1   6
BRANCH   1  14
ATOM     14  O   UNL     1     -12.025   9.547   9.256  1.00  0.00    -0.388 OA
ATOM     15  H   UNL     1     -12.261   9.036  10.072  1.00  0.00     0.211 HD
ENDBRANCH   1  14
TORSDOF 8
ENDMDL
MODEL 4
REMARK VINA RESULT:    -4.470      1.362      2.636
REMARK INTER + INTRA:          -6.789
REMARK INTER:                  -6.196
REMARK INTRA:                  -0.593
REMARK UNBOUND:                -0.751
REMARK SMILES C[C@@H](O)[C@H](O)[C@H](O)[C@H](O)C=O
REMARK SMILES IDX 4 1 2 2 1 3 3 4 6 6 8 7 10 8 11 9 9 10 7 12 5 14
REMARK H PARENT 3 5 9 11 7 13 5 15
REMARK Flexibility Score: inf
ROOT
ATOM      1  C   UNL     1     -14.769   7.984  10.000  1.00  0.00     0.174 C 
ENDROOT
BRANCH   1   2
ATOM      2  C   UNL     1     -16.033   7.209   9.530  1.00  0.00     0.142 C 
ATOM      3  C   UNL     1     -15.772   5.696   9.468  1.00  0.00     0.041 C 
BRANCH   2   4
ATOM      4  O   UNL     1     -17.151   7.485  10.339  1.00  0.00    -0.391 OA
ATOM      5  H   UNL     1     -17.349   6.677  10.880  1.00  0.00     0.211 HD
ENDBRANCH   2   4
ENDBRANCH   1   2
BRANCH   1   6
ATOM      6  C   UNL     1     -13.537   7.866   9.051  1.00  0.00     0.181 C 
BRANCH   6   7
ATOM      7  C   UNL     1     -13.777   8.443   7.627  1.00  0.00     0.209 C 
BRANCH   7   8
ATOM      8  C   UNL     1     -13.001   9.718   7.437  1.00  0.00     0.258 C 
ATOM      9  O   UNL     1     -13.276  10.715   8.084  1.00  0.00    -0.300 OA
ENDBRANCH   7   8
BRANCH   7  10
ATOM     10  O   UNL     1     -13.354   7.522   6.654  1.00  0.00    -0.383 OA
ATOM     11  H   UNL     1     -12.807   8.021   5.993  1.00  0.00     0.211 HD
ENDBRANCH   7  10
ENDBRANCH   6   7
BRANCH   6  12
ATOM     12  O   UNL     1     -12.385   8.414   9.647  1.00  0.00    -0.387 OA
ATOM     13  H   UNL     1     -12.106   9.201   9.110  1.00  0.00     0.211 HD
ENDBRANCH   6  12
ENDBRANCH   1   6
BRANCH   1  14
ATOM     14  O   UNL     1     -15.071   9.334  10.259  1.00  0.00    -0.388 OA
ATOM     15  H   UNL     1     -14.342   9.892   9.885  1.00  0.00     0.211 HD
ENDBRANCH   1  14
TORSDOF 8
ENDMDL
MODEL 5
REMARK VINA RESULT:    -4.401      6.592      8.913
REMARK INTER + INTRA:          -6.696
REMARK INTER:                  -5.999
REMARK INTRA:                  -0.697
REMARK UNBOUND:                -0.751
REMARK SMILES C[C@@H](O)[C@H](O)[C@H](O)[C@H](O)C=O
REMARK SMILES IDX 4 1 2 2 1 3 3 4 6 6 8 7 10 8 11 9 9 10 7 12 5 14
REMARK H PARENT 3 5 9 11 7 13 5 15
REMARK Flexibility Score: inf
ROOT
ATOM      1  C   UNL     1      -9.169  13.098   3.095  1.00  0.00     0.174 C 
ENDROOT
BRANCH   1   2
ATOM      2  C   UNL     1     -10.293  12.024   3.146  1.00  0.00     0.142 C 
ATOM      3  C   UNL     1     -10.819  11.830   4.576  1.00  0.00     0.041 C 
BRANCH   2   4
ATOM      4  O   UNL     1     -11.349  12.326   2.267  1.00  0.00    -0.391 OA
ATOM      5  H   UNL     1     -12.144  11.801   2.545  1.00  0.00     0.211 HD
ENDBRANCH   2   4
ENDBRANCH   1   2
BRANCH   1   6
ATOM      6  C   UNL     1      -9.011  13.817   1.721  1.00  0.00     0.181 C 
BRANCH   6   7
ATOM      7  C   UNL     1      -7.979  14.981   1.729  1.00  0.00     0.209 C 
BRANCH   7   8
ATOM      8  C   UNL     1      -7.404  15.187   0.355  1.00  0.00     0.258 C 
ATOM      9  O   UNL     1      -6.385  14.609   0.015  1.00  0.00    -0.300 OA
ENDBRANCH   7   8
BRANCH   7  10
ATOM     10  O   UNL     1      -8.600  16.176   2.130  1.00  0.00    -0.383 OA
ATOM     11  H   UNL     1      -9.434  15.929   2.608  1.00  0.00     0.211 HD
ENDBRANCH   7  10
ENDBRANCH   6   7
BRANCH   6  12
ATOM     12  O   UNL     1      -8.742  12.893   0.693  1.00  0.00    -0.387 OA
ATOM     13  H   UNL     1      -7.766  12.716   0.685  1.00  0.00     0.211 HD
ENDBRANCH   6  12
ENDBRANCH   1   6
BRANCH   1  14
ATOM     14  O   UNL     1      -9.319  14.035   4.134  1.00  0.00    -0.388 OA
ATOM     15  H   UNL     1      -8.932  14.897   3.833  1.00  0.00     0.211 HD
ENDBRANCH   1  14
TORSDOF 8
ENDMDL
MODEL 6
REMARK VINA RESULT:    -4.375      2.955      4.400
REMARK INTER + INTRA:          -6.662
REMARK INTER:                  -5.814
REMARK INTRA:                  -0.848
REMARK UNBOUND:                -0.751
REMARK SMILES C[C@@H](O)[C@H](O)[C@H](O)[C@H](O)C=O
REMARK SMILES IDX 4 1 2 2 1 3 3 4 6 6 8 7 10 8 11 9 9 10 7 12 5 14
REMARK H PARENT 3 5 9 11 7 13 5 15
REMARK Flexibility Score: inf
ROOT
ATOM      1  C   UNL     1     -16.094   5.794  10.985  1.00  0.00     0.174 C 
ENDROOT
BRANCH   1   2
ATOM      2  C   UNL     1     -14.944   4.832  10.569  1.00  0.00     0.142 C 
ATOM      3  C   UNL     1     -14.899   3.589  11.472  1.00  0.00     0.041 C 
BRANCH   2   4
ATOM      4  O   UNL     1     -15.035   4.457   9.216  1.00  0.00    -0.391 OA
ATOM      5  H   UNL     1     -15.995   4.413   8.970  1.00  0.00     0.211 HD
ENDBRANCH   2   4
ENDBRANCH   1   2
BRANCH   1   6
ATOM      6  C   UNL     1     -16.268   7.042  10.067  1.00  0.00     0.181 C 
BRANCH   6   7
ATOM      7  C   UNL     1     -14.987   7.914   9.934  1.00  0.00     0.209 C 
BRANCH   7   8
ATOM      8  C   UNL     1     -14.547   7.992   8.498  1.00  0.00     0.258 C 
ATOM      9  O   UNL     1     -14.119   7.003   7.925  1.00  0.00    -0.300 OA
ENDBRANCH   7   8
BRANCH   7  10
ATOM     10  O   UNL     1     -15.241   9.220  10.388  1.00  0.00    -0.383 OA
ATOM     11  H   UNL     1     -15.163   9.209  11.377  1.00  0.00     0.211 HD
ENDBRANCH   7  10
ENDBRANCH   6   7
BRANCH   6  12
ATOM     12  O   UNL     1     -16.780   6.677   8.807  1.00  0.00    -0.387 OA
ATOM     13  H   UNL     1     -16.702   7.461   8.204  1.00  0.00     0.211 HD
ENDBRANCH   6  12
ENDBRANCH   1   6
BRANCH   1  14
ATOM     14  O   UNL     1     -17.311   5.099  11.117  1.00  0.00    -0.388 OA
ATOM     15  H   UNL     1     -17.140   4.138  10.942  1.00  0.00     0.211 HD
ENDBRANCH   1  14
TORSDOF 8
ENDMDL
MODEL 7
REMARK VINA RESULT:    -4.346      1.434      4.423
REMARK INTER + INTRA:          -6.622
REMARK INTER:                  -5.930
REMARK INTRA:                  -0.691
REMARK UNBOUND:                -0.751
REMARK SMILES C[C@@H](O)[C@H](O)[C@H](O)[C@H](O)C=O
REMARK SMILES IDX 4 1 2 2 1 3 3 4 6 6 8 7 10 8 11 9 9 10 7 12 5 14
REMARK H PARENT 3 5 9 11 7 13 5 15
REMARK Flexibility Score: inf
ROOT
ATOM      1  C   UNL     1     -13.317   8.318   8.077  1.00  0.00     0.174 C 
ENDROOT
BRANCH   1   2
ATOM      2  C   UNL     1     -12.634   9.714   8.008  1.00  0.00     0.142 C 
ATOM      3  C   UNL     1     -12.267  10.087   6.563  1.00  0.00     0.041 C 
BRANCH   2   4
ATOM      4  O   UNL     1     -13.428  10.718   8.591  1.00  0.00    -0.391 OA
ATOM      5  H   UNL     1     -13.289  11.558   8.082  1.00  0.00     0.211 HD
ENDBRANCH   2   4
ENDBRANCH   1   2
BRANCH   1   6
ATOM      6  C   UNL     1     -13.531   7.764   9.519  1.00  0.00     0.181 C 
BRANCH   6   7
ATOM      7  C   UNL     1     -14.984   7.923  10.050  1.00  0.00     0.209 C 
BRANCH   7   8
ATOM      8  C   UNL     1     -15.189   7.091  11.286  1.00  0.00     0.258 C 
ATOM      9  O   UNL     1     -14.296   6.970  12.109  1.00  0.00    -0.300 OA
ENDBRANCH   7   8
BRANCH   7  10
ATOM     10  O   UNL     1     -15.235   9.266  10.378  1.00  0.00    -0.383 OA
ATOM     11  H   UNL     1     -15.947   9.590   9.766  1.00  0.00     0.211 HD
ENDBRANCH   7  10
ENDBRANCH   6   7
BRANCH   6  12
ATOM     12  O   UNL     1     -13.084   6.432   9.621  1.00  0.00    -0.387 OA
ATOM     13  H   UNL     1     -13.149   6.016   8.723  1.00  0.00     0.211 HD
ENDBRANCH   6  12
ENDBRANCH   1   6
BRANCH   1  14
ATOM     14  O   UNL     1     -14.526   8.311   7.356  1.00  0.00    -0.388 OA
ATOM     15  H   UNL     1     -14.833   7.372   7.275  1.00  0.00     0.211 HD
ENDBRANCH   1  14
TORSDOF 8
ENDMDL
MODEL 8
REMARK VINA RESULT:    -4.283      1.709      4.736
REMARK INTER + INTRA:          -6.537
REMARK INTER:                  -5.761
REMARK INTRA:                  -0.776
REMARK UNBOUND:                -0.751
REMARK SMILES C[C@@H](O)[C@H](O)[C@H](O)[C@H](O)C=O
REMARK SMILES IDX 4 1 2 2 1 3 3 4 6 6 8 7 10 8 11 9 9 10 7 12 5 14
REMARK H PARENT 3 5 9 11 7 13 5 15
REMARK Flexibility Score: inf
ROOT
ATOM      1  C   UNL     1     -13.538   9.039   8.651  1.00  0.00     0.174 C 
ENDROOT
BRANCH   1   2
ATOM      2  C   UNL     1     -13.641   8.578   7.169  1.00  0.00     0.142 C 
ATOM      3  C   UNL     1     -12.816   9.484   6.241  1.00  0.00     0.041 C 
BRANCH   2   4
ATOM      4  O   UNL     1     -13.265   7.232   7.008  1.00  0.00    -0.391 OA
ATOM      5  H   UNL     1     -13.798   6.848   6.264  1.00  0.00     0.211 HD
ENDBRANCH   2   4
ENDBRANCH   1   2
BRANCH   1   6
ATOM      6  C   UNL     1     -14.566   8.375   9.617  1.00  0.00     0.181 C 
BRANCH   6   7
ATOM      7  C   UNL     1     -13.956   7.279  10.536  1.00  0.00     0.209 C 
BRANCH   7   8
ATOM      8  C   UNL     1     -14.991   6.756  11.494  1.00  0.00     0.258 C 
ATOM      9  O   UNL     1     -16.148   6.608  11.137  1.00  0.00    -0.300 OA
ENDBRANCH   7   8
BRANCH   7  10
ATOM     10  O   UNL     1     -13.489   6.203   9.762  1.00  0.00    -0.383 OA
ATOM     11  H   UNL     1     -12.648   5.881  10.181  1.00  0.00     0.211 HD
ENDBRANCH   7  10
ENDBRANCH   6   7
BRANCH   6  12
ATOM     12  O   UNL     1     -15.263   9.347  10.361  1.00  0.00    -0.387 OA
ATOM     13  H   UNL     1     -16.234   9.222  10.198  1.00  0.00     0.211 HD
ENDBRANCH   6  12
ENDBRANCH   1   6
BRANCH   1  14
ATOM     14  O   UNL     1     -12.226   8.886   9.137  1.00  0.00    -0.388 OA
ATOM     15  H   UNL     1     -11.611   8.836   8.361  1.00  0.00     0.211 HD
ENDBRANCH   1  14
TORSDOF 8
ENDMDL
MODEL 9
REMARK VINA RESULT:    -4.216      2.650      3.249
REMARK INTER + INTRA:          -6.446
REMARK INTER:                  -6.016
REMARK INTRA:                  -0.430
REMARK UNBOUND:                -0.751
REMARK SMILES C[C@@H](O)[C@H](O)[C@H](O)[C@H](O)C=O
REMARK SMILES IDX 4 1 2 2 1 3 3 4 6 6 8 7 10 8 11 9 9 10 7 12 5 14
REMARK H PARENT 3 5 9 11 7 13 5 15
REMARK Flexibility Score: inf
ROOT
ATOM      1  C   UNL     1     -14.998   6.420   8.389  1.00  0.00     0.174 C 
ENDROOT
BRANCH   1   2
ATOM      2  C   UNL     1     -14.736   5.029   7.746  1.00  0.00     0.142 C 
ATOM      3  C   UNL     1     -14.198   4.025   8.778  1.00  0.00     0.041 C 
BRANCH   2   4
ATOM      4  O   UNL     1     -15.883   4.518   7.111  1.00  0.00    -0.391 OA
ATOM      5  H   UNL     1     -15.996   3.572   7.389  1.00  0.00     0.211 HD
ENDBRANCH   2   4
ENDBRANCH   1   2
BRANCH   1   6
ATOM      6  C   UNL     1     -14.283   7.613   7.684  1.00  0.00     0.181 C 
BRANCH   6   7
ATOM      7  C   UNL     1     -13.531   8.566   8.656  1.00  0.00     0.209 C 
BRANCH   7   8
ATOM      8  C   UNL     1     -13.079   9.806   7.936  1.00  0.00     0.258 C 
ATOM      9  O   UNL     1     -12.603   9.735   6.814  1.00  0.00    -0.300 OA
ENDBRANCH   7   8
BRANCH   7  10
ATOM     10  O   UNL     1     -14.378   8.952   9.709  1.00  0.00    -0.383 OA
ATOM     11  H   UNL     1     -15.308   8.935   9.360  1.00  0.00     0.211 HD
ENDBRANCH   7  10
ENDBRANCH   6   7
BRANCH   6  12
ATOM     12  O   UNL     1     -13.444   7.160   6.648  1.00  0.00    -0.387 OA
ATOM     13  H   UNL     1     -13.999   6.650   6.002  1.00  0.00     0.211 HD
ENDBRANCH   6  12
ENDBRANCH   1   6
BRANCH   1  14
ATOM     14  O   UNL     1     -16.377   6.668   8.513  1.00  0.00    -0.388 OA
ATOM     15  H   UNL     1     -16.799   6.527   7.627  1.00  0.00     0.211 HD
ENDBRANCH   1  14
TORSDOF 8
ENDMDL
