MODEL 1
REMARK VINA RESULT:    -3.230      0.000      0.000
REMARK INTER + INTRA:          -3.230
REMARK INTER:                  -3.230
REMARK INTRA:                   0.000
REMARK UNBOUND:                 0.000
REMARK SMILES CC1(C)[C@@H]2CC[C@@]1(C)C(=O)C2
REMARK SMILES IDX 1 1 2 2 4 3 5 4 6 5 7 6 9 7 10 8 11 9 8 10 3 11
REMARK H PARENT
REMARK Flexibility Score: inf
ROOT
ATOM      1  C   UNL     1     146.495 142.117 136.904  1.00  0.00     0.012 C 
ATOM      2  C   UNL     1     146.541 142.117 138.464  1.00  0.00    -0.020 C 
ATOM      3  C   UNL     1     147.976 142.115 139.042  1.00  0.00     0.003 C 
ATOM      4  C   UNL     1     147.731 142.287 140.566  1.00  0.00     0.005 C 
ATOM      5  C   UNL     1     146.506 143.235 140.616  1.00  0.00     0.015 C 
ATOM      6  C   UNL     1     146.202 143.474 139.117  1.00  0.00     0.032 C 
ATOM      7  C   UNL     1     147.350 144.318 138.622  1.00  0.00     0.139 C 
ATOM      8  O   UNL     1     147.316 145.519 138.404  1.00  0.00    -0.299 OA
ATOM      9  C   UNL     1     148.574 143.458 138.539  1.00  0.00     0.080 C 
ATOM     10  C   UNL     1     144.808 144.043 138.829  1.00  0.00     0.020 C 
ATOM     11  C   UNL     1     145.671 140.912 138.930  1.00  0.00     0.012 C 
ENDROOT
TORSDOF 0
ENDMDL
MODEL 2
REMARK VINA RESULT:    -3.200      7.526      9.438
REMARK INTER + INTRA:          -3.200
REMARK INTER:                  -3.200
REMARK INTRA:                   0.000
REMARK UNBOUND:                 0.000
REMARK SMILES CC1(C)[C@@H]2CC[C@@]1(C)C(=O)C2
REMARK SMILES IDX 1 1 2 2 4 3 5 4 6 5 7 6 9 7 10 8 11 9 8 10 3 11
REMARK H PARENT
REMARK Flexibility Score: inf
ROOT
ATOM      1  C   UNL     1     142.178 135.031 136.942  1.00  0.00     0.012 C 
ATOM      2  C   UNL     1     142.199 134.983 138.502  1.00  0.00    -0.020 C 
ATOM      3  C   UNL     1     142.186 133.547 139.078  1.00  0.00     0.003 C 
ATOM      4  C   UNL     1     142.383 133.789 140.601  1.00  0.00     0.005 C 
ATOM      5  C   UNL     1     143.346 135.002 140.639  1.00  0.00     0.015 C 
ATOM      6  C   UNL     1     143.569 135.305 139.138  1.00  0.00     0.032 C 
ATOM      7  C   UNL     1     144.391 134.147 138.629  1.00  0.00     0.139 C 
ATOM      8  O   UNL     1     145.590 134.166 138.395  1.00  0.00    -0.299 OA
ATOM      9  C   UNL     1     143.516 132.934 138.557  1.00  0.00     0.080 C 
ATOM     10  C   UNL     1     144.152 136.691 138.843  1.00  0.00     0.020 C 
ATOM     11  C   UNL     1     141.011 135.868 138.986  1.00  0.00     0.012 C 
ENDROOT
TORSDOF 0
ENDMDL
MODEL 3
REMARK VINA RESULT:    -3.183      1.186      3.003
REMARK INTER + INTRA:          -3.183
REMARK INTER:                  -3.183
REMARK INTRA:                   0.000
REMARK UNBOUND:                 0.000
REMARK SMILES CC1(C)[C@@H]2CC[C@@]1(C)C(=O)C2
REMARK SMILES IDX 1 1 2 2 4 3 5 4 6 5 7 6 9 7 10 8 11 9 8 10 3 11
REMARK H PARENT
REMARK Flexibility Score: inf
ROOT
ATOM      1  C   UNL     1     146.447 141.749 140.690  1.00  0.00     0.012 C 
ATOM      2  C   UNL     1     145.734 141.620 139.308  1.00  0.00    -0.020 C 
ATOM      3  C   UNL     1     144.626 142.676 139.080  1.00  0.00     0.003 C 
ATOM      4  C   UNL     1     144.218 142.429 137.602  1.00  0.00     0.005 C 
ATOM      5  C   UNL     1     145.561 142.052 136.928  1.00  0.00     0.015 C 
ATOM      6  C   UNL     1     146.562 142.122 138.106  1.00  0.00     0.032 C 
ATOM      7  C   UNL     1     146.668 143.591 138.435  1.00  0.00     0.139 C 
ATOM      8  O   UNL     1     147.594 144.328 138.134  1.00  0.00    -0.299 OA
ATOM      9  C   UNL     1     145.399 144.024 139.102  1.00  0.00     0.080 C 
ATOM     10  C   UNL     1     147.899 141.417 137.854  1.00  0.00     0.020 C 
ATOM     11  C   UNL     1     145.232 140.147 139.208  1.00  0.00     0.012 C 
ENDROOT
TORSDOF 0
ENDMDL
MODEL 4
REMARK VINA RESULT:    -3.157     10.939     12.291
REMARK INTER + INTRA:          -3.157
REMARK INTER:                  -3.157
REMARK INTRA:                   0.000
REMARK UNBOUND:                 0.000
REMARK SMILES CC1(C)[C@@H]2CC[C@@]1(C)C(=O)C2
REMARK SMILES IDX 1 1 2 2 4 3 5 4 6 5 7 6 9 7 10 8 11 9 8 10 3 11
REMARK H PARENT
REMARK Flexibility Score: inf
ROOT
ATOM      1  C   UNL     1     135.156 139.879 140.621  1.00  0.00     0.012 C 
ATOM      2  C   UNL     1     135.885 139.940 139.243  1.00  0.00    -0.020 C 
ATOM      3  C   UNL     1     136.954 138.837 139.057  1.00  0.00     0.003 C 
ATOM      4  C   UNL     1     137.383 139.025 137.575  1.00  0.00     0.005 C 
ATOM      5  C   UNL     1     136.061 139.431 136.878  1.00  0.00     0.015 C 
ATOM      6  C   UNL     1     135.048 139.434 138.049  1.00  0.00     0.032 C 
ATOM      7  C   UNL     1     134.885 137.980 138.419  1.00  0.00     0.139 C 
ATOM      8  O   UNL     1     133.934 137.269 138.132  1.00  0.00    -0.299 OA
ATOM      9  C   UNL     1     136.131 137.520 139.110  1.00  0.00     0.080 C 
ATOM     10  C   UNL     1     133.740 140.180 137.764  1.00  0.00     0.020 C 
ATOM     11  C   UNL     1     136.443 141.389 139.105  1.00  0.00     0.012 C 
ENDROOT
TORSDOF 0
ENDMDL
MODEL 5
REMARK VINA RESULT:    -3.153      7.634      9.489
REMARK INTER + INTRA:          -3.153
REMARK INTER:                  -3.153
REMARK INTRA:                   0.000
REMARK UNBOUND:                 0.000
REMARK SMILES CC1(C)[C@@H]2CC[C@@]1(C)C(=O)C2
REMARK SMILES IDX 1 1 2 2 4 3 5 4 6 5 7 6 9 7 10 8 11 9 8 10 3 11
REMARK H PARENT
REMARK Flexibility Score: inf
ROOT
ATOM      1  C   UNL     1     139.365 146.153 137.151  1.00  0.00     0.012 C 
ATOM      2  C   UNL     1     139.296 146.333 138.699  1.00  0.00    -0.020 C 
ATOM      3  C   UNL     1     139.406 147.806 139.158  1.00  0.00     0.003 C 
ATOM      4  C   UNL     1     139.140 147.709 140.686  1.00  0.00     0.005 C 
ATOM      5  C   UNL     1     138.080 146.583 140.784  1.00  0.00     0.015 C 
ATOM      6  C   UNL     1     137.884 146.174 139.303  1.00  0.00     0.032 C 
ATOM      7  C   UNL     1     137.176 147.347 138.671  1.00  0.00     0.139 C 
ATOM      8  O   UNL     1     135.989 147.403 138.391  1.00  0.00    -0.299 OA
ATOM      9  C   UNL     1     138.150 148.477 138.537  1.00  0.00     0.080 C 
ATOM     10  C   UNL     1     137.200 144.818 139.098  1.00  0.00     0.020 C 
ATOM     11  C   UNL     1     140.391 145.401 139.300  1.00  0.00     0.012 C 
ENDROOT
TORSDOF 0
ENDMDL
MODEL 6
REMARK VINA RESULT:    -3.135      7.709      9.163
REMARK INTER + INTRA:          -3.135
REMARK INTER:                  -3.135
REMARK INTRA:                   0.000
REMARK UNBOUND:                 0.000
REMARK SMILES CC1(C)[C@@H]2CC[C@@]1(C)C(=O)C2
REMARK SMILES IDX 1 1 2 2 4 3 5 4 6 5 7 6 9 7 10 8 11 9 8 10 3 11
REMARK H PARENT
REMARK Flexibility Score: inf
ROOT
ATOM      1  C   UNL     1     141.745 135.145 140.683  1.00  0.00     0.012 C 
ATOM      2  C   UNL     1     141.657 135.851 139.294  1.00  0.00    -0.020 C 
ATOM      3  C   UNL     1     142.713 136.963 139.095  1.00  0.00     0.003 C 
ATOM      4  C   UNL     1     142.512 137.363 137.607  1.00  0.00     0.005 C 
ATOM      5  C   UNL     1     142.166 136.014 136.928  1.00  0.00     0.015 C 
ATOM      6  C   UNL     1     142.203 135.019 138.114  1.00  0.00     0.032 C 
ATOM      7  C   UNL     1     143.661 134.924 138.491  1.00  0.00     0.139 C 
ATOM      8  O   UNL     1     144.413 134.001 138.219  1.00  0.00    -0.299 OA
ATOM      9  C   UNL     1     144.064 136.199 139.165  1.00  0.00     0.080 C 
ATOM     10  C   UNL     1     141.515 133.676 137.846  1.00  0.00     0.020 C 
ATOM     11  C   UNL     1     140.186 136.343 139.143  1.00  0.00     0.012 C 
ENDROOT
TORSDOF 0
ENDMDL
MODEL 7
REMARK VINA RESULT:    -3.115      6.613      8.700
REMARK INTER + INTRA:          -3.115
REMARK INTER:                  -3.115
REMARK INTRA:                   0.000
REMARK UNBOUND:                 0.000
REMARK SMILES CC1(C)[C@@H]2CC[C@@]1(C)C(=O)C2
REMARK SMILES IDX 1 1 2 2 4 3 5 4 6 5 7 6 9 7 10 8 11 9 8 10 3 11
REMARK H PARENT
REMARK Flexibility Score: inf
ROOT
ATOM      1  C   UNL     1     139.834 146.082 140.747  1.00  0.00     0.012 C 
ATOM      2  C   UNL     1     139.929 145.508 139.299  1.00  0.00    -0.020 C 
ATOM      3  C   UNL     1     138.924 144.367 139.016  1.00  0.00     0.003 C 
ATOM      4  C   UNL     1     139.115 144.112 137.496  1.00  0.00     0.005 C 
ATOM      5  C   UNL     1     139.383 145.531 136.935  1.00  0.00     0.015 C 
ATOM      6  C   UNL     1     139.321 146.413 138.206  1.00  0.00     0.032 C 
ATOM      7  C   UNL     1     137.868 146.402 138.612  1.00  0.00     0.139 C 
ATOM      8  O   UNL     1     137.067 147.307 138.436  1.00  0.00    -0.299 OA
ATOM      9  C   UNL     1     137.539 145.054 139.175  1.00  0.00     0.080 C 
ATOM     10  C   UNL     1     139.939 147.807 138.049  1.00  0.00     0.020 C 
ATOM     11  C   UNL     1     141.419 145.105 139.082  1.00  0.00     0.012 C 
ENDROOT
TORSDOF 0
ENDMDL
MODEL 8
REMARK VINA RESULT:    -3.046      2.411      4.014
REMARK INTER + INTRA:          -3.046
REMARK INTER:                  -3.046
REMARK INTRA:                   0.000
REMARK UNBOUND:                 0.000
REMARK SMILES CC1(C)[C@@H]2CC[C@@]1(C)C(=O)C2
REMARK SMILES IDX 1 1 2 2 4 3 5 4 6 5 7 6 9 7 10 8 11 9 8 10 3 11
REMARK H PARENT
REMARK Flexibility Score: inf
ROOT
ATOM      1  C   UNL     1     148.912 144.271 140.881  1.00  0.00     0.012 C 
ATOM      2  C   UNL     1     149.084 145.321 139.739  1.00  0.00    -0.020 C 
ATOM      3  C   UNL     1     150.156 144.932 138.695  1.00  0.00     0.003 C 
ATOM      4  C   UNL     1     149.998 146.036 137.614  1.00  0.00     0.005 C 
ATOM      5  C   UNL     1     148.471 146.299 137.606  1.00  0.00     0.015 C 
ATOM      6  C   UNL     1     147.954 145.319 138.687  1.00  0.00     0.032 C 
ATOM      7  C   UNL     1     148.136 143.949 138.084  1.00  0.00     0.139 C 
ATOM      8  O   UNL     1     147.253 143.251 137.608  1.00  0.00    -0.299 OA
ATOM      9  C   UNL     1     149.597 143.623 138.069  1.00  0.00     0.080 C 
ATOM     10  C   UNL     1     146.541 145.619 139.200  1.00  0.00     0.020 C 
ATOM     11  C   UNL     1     149.349 146.689 140.436  1.00  0.00     0.012 C 
ENDROOT
TORSDOF 0
ENDMDL
