MODEL 1
REMARK VINA RESULT:    -7.160      0.000      0.000
REMARK INTER + INTRA:          -8.570
REMARK INTER:                  -8.625
REMARK INTRA:                   0.055
REMARK UNBOUND:                 0.055
REMARK SMILES O=c1c(O)c(-c2ccc(O)c(O)c2)oc2cc(O)cc(O)c12
REMARK SMILES IDX 5 1 3 2 2 3 1 4 22 5 20 6 19 7 17 8 16 9 15 10 14 11 6 12
REMARK SMILES IDX 7 13 8 14 9 15 13 16 11 17 10 18 12 20 4 22 21 24 18 26
REMARK H PARENT 10 19 12 21 4 23 21 25 18 27
REMARK Flexibility Score: inf
ROOT
ATOM      1  C   UNL     1      -7.126  -8.645  23.786  1.00  0.00     0.180 A 
ATOM      2  C   UNL     1      -7.263  -7.418  23.107  1.00  0.00     0.208 A 
ATOM      3  C   UNL     1      -8.306  -6.554  23.471  1.00  0.00     0.238 A 
ATOM      4  O   UNL     1      -8.433  -5.448  22.877  1.00  0.00    -0.285 OA
ATOM      5  C   UNL     1      -9.206  -6.936  24.489  1.00  0.00     0.111 A 
ATOM      6  C   UNL     1     -10.286  -6.125  24.911  1.00  0.00     0.134 A 
ATOM      7  C   UNL     1     -11.143  -6.581  25.925  1.00  0.00     0.093 A 
ATOM      8  C   UNL     1     -10.941  -7.827  26.521  1.00  0.00     0.123 A 
ATOM      9  C   UNL     1      -9.874  -8.632  26.107  1.00  0.00     0.094 A 
ATOM     10  C   UNL     1      -9.009  -8.196  25.100  1.00  0.00     0.146 A 
ATOM     11  O   UNL     1      -8.002  -8.978  24.730  1.00  0.00    -0.452 OA
ENDROOT
BRANCH   1  12
ATOM     12  C   UNL     1      -6.039  -9.600  23.473  1.00  0.00     0.025 A 
ATOM     13  C   UNL     1      -5.801  -9.961  22.138  1.00  0.00     0.016 A 
ATOM     14  C   UNL     1      -4.795 -10.878  21.820  1.00  0.00     0.051 A 
ATOM     15  C   UNL     1      -4.023 -11.457  22.836  1.00  0.00     0.157 A 
ATOM     16  C   UNL     1      -5.275 -10.202  24.491  1.00  0.00     0.062 A 
ATOM     17  C   UNL     1      -4.266 -11.122  24.174  1.00  0.00     0.158 A 
BRANCH  15  18
ATOM     18  O   UNL     1      -3.017 -12.370  22.523  1.00  0.00    -0.504 OA
ATOM     19  H   UNL     1      -3.229 -13.279  22.131  1.00  0.00     0.293 HD
ENDBRANCH  15  18
BRANCH  17  20
ATOM     20  O   UNL     1      -3.506 -11.711  25.182  1.00  0.00    -0.504 OA
ATOM     21  H   UNL     1      -3.499 -12.714  25.325  1.00  0.00     0.293 HD
ENDBRANCH  17  20
ENDBRANCH   1  12
BRANCH   2  22
ATOM     22  O   UNL     1      -6.388  -7.084  22.069  1.00  0.00    -0.502 OA
ATOM     23  H   UNL     1      -6.250  -6.130  21.761  1.00  0.00     0.293 HD
ENDBRANCH   2  22
BRANCH   6  24
ATOM     24  O   UNL     1     -10.516  -4.875  24.334  1.00  0.00    -0.507 OA
ATOM     25  H   UNL     1     -11.383  -4.372  24.479  1.00  0.00     0.293 HD
ENDBRANCH   6  24
BRANCH   8  26
ATOM     26  O   UNL     1     -11.806  -8.257  27.524  1.00  0.00    -0.508 OA
ATOM     27  H   UNL     1     -11.839  -7.800  28.428  1.00  0.00     0.293 HD
ENDBRANCH   8  26
TORSDOF 6
ENDMDL
MODEL 2
REMARK VINA RESULT:    -6.820      1.202      1.555
REMARK INTER + INTRA:          -8.161
REMARK INTER:                  -7.839
REMARK INTRA:                  -0.322
REMARK UNBOUND:                 0.055
REMARK SMILES O=c1c(O)c(-c2ccc(O)c(O)c2)oc2cc(O)cc(O)c12
REMARK SMILES IDX 5 1 3 2 2 3 1 4 22 5 20 6 19 7 17 8 16 9 15 10 14 11 6 12
REMARK SMILES IDX 7 13 8 14 9 15 13 16 11 17 10 18 12 20 4 22 21 24 18 26
REMARK H PARENT 10 19 12 21 4 23 21 25 18 27
REMARK Flexibility Score: inf
ROOT
ATOM      1  C   UNL     1      -5.783  -9.042  23.590  1.00  0.00     0.180 A 
ATOM      2  C   UNL     1      -5.600  -7.765  23.026  1.00  0.00     0.208 A 
ATOM      3  C   UNL     1      -6.587  -6.789  23.224  1.00  0.00     0.238 A 
ATOM      4  O   UNL     1      -6.429  -5.637  22.732  1.00  0.00    -0.285 OA
ATOM      5  C   UNL     1      -7.746  -7.107  23.962  1.00  0.00     0.111 A 
ATOM      6  C   UNL     1      -8.789  -6.182  24.203  1.00  0.00     0.134 A 
ATOM      7  C   UNL     1      -9.916  -6.580  24.940  1.00  0.00     0.093 A 
ATOM      8  C   UNL     1     -10.018  -7.881  25.437  1.00  0.00     0.123 A 
ATOM      9  C   UNL     1      -8.989  -8.799  25.202  1.00  0.00     0.094 A 
ATOM     10  C   UNL     1      -7.859  -8.422  24.472  1.00  0.00     0.146 A 
ATOM     11  O   UNL     1      -6.895  -9.312  24.268  1.00  0.00    -0.452 OA
ENDROOT
BRANCH   1  12
ATOM     12  C   UNL     1      -4.777 -10.119  23.442  1.00  0.00     0.025 A 
ATOM     13  C   UNL     1      -4.830 -10.963  22.322  1.00  0.00     0.016 A 
ATOM     14  C   UNL     1      -3.904 -11.999  22.171  1.00  0.00     0.051 A 
ATOM     15  C   UNL     1      -2.924 -12.216  23.147  1.00  0.00     0.157 A 
ATOM     16  C   UNL     1      -3.803 -10.355  24.430  1.00  0.00     0.062 A 
ATOM     17  C   UNL     1      -2.875 -11.395  24.281  1.00  0.00     0.158 A 
BRANCH  15  18
ATOM     18  O   UNL     1      -1.997 -13.247  23.000  1.00  0.00    -0.504 OA
ATOM     19  H   UNL     1      -2.231 -14.206  23.225  1.00  0.00     0.293 HD
ENDBRANCH  15  18
BRANCH  17  20
ATOM     20  O   UNL     1      -1.907 -11.622  25.257  1.00  0.00    -0.504 OA
ATOM     21  H   UNL     1      -1.557 -12.553  25.451  1.00  0.00     0.293 HD
ENDBRANCH  17  20
ENDBRANCH   1  12
BRANCH   2  22
ATOM     22  O   UNL     1      -4.465  -7.488  22.257  1.00  0.00    -0.502 OA
ATOM     23  H   UNL     1      -3.703  -8.148  22.159  1.00  0.00     0.293 HD
ENDBRANCH   2  22
BRANCH   6  24
ATOM     24  O   UNL     1      -8.718  -4.875  23.718  1.00  0.00    -0.507 OA
ATOM     25  H   UNL     1      -9.385  -4.519  23.044  1.00  0.00     0.293 HD
ENDBRANCH   6  24
BRANCH   8  26
ATOM     26  O   UNL     1     -11.147  -8.251  26.164  1.00  0.00    -0.508 OA
ATOM     27  H   UNL     1     -11.126  -9.024  26.819  1.00  0.00     0.293 HD
ENDBRANCH   8  26
TORSDOF 6
ENDMDL
MODEL 3
REMARK VINA RESULT:    -6.803      2.663      7.732
REMARK INTER + INTRA:          -8.141
REMARK INTER:                  -8.146
REMARK INTRA:                   0.005
REMARK UNBOUND:                 0.055
REMARK SMILES O=c1c(O)c(-c2ccc(O)c(O)c2)oc2cc(O)cc(O)c12
REMARK SMILES IDX 5 1 3 2 2 3 1 4 22 5 20 6 19 7 17 8 16 9 15 10 14 11 6 12
REMARK SMILES IDX 7 13 8 14 9 15 13 16 11 17 10 18 12 20 4 22 21 24 18 26
REMARK H PARENT 10 19 12 21 4 23 21 25 18 27
REMARK Flexibility Score: inf
ROOT
ATOM      1  C   UNL     1      -4.977  -8.863  23.854  1.00  0.00     0.180 A 
ATOM      2  C   UNL     1      -4.922 -10.194  24.311  1.00  0.00     0.208 A 
ATOM      3  C   UNL     1      -3.674 -10.826  24.408  1.00  0.00     0.238 A 
ATOM      4  O   UNL     1      -3.611 -12.015  24.827  1.00  0.00    -0.285 OA
ATOM      5  C   UNL     1      -2.507 -10.131  24.028  1.00  0.00     0.111 A 
ATOM      6  C   UNL     1      -1.212 -10.698  24.092  1.00  0.00     0.134 A 
ATOM      7  C   UNL     1      -0.101  -9.942  23.686  1.00  0.00     0.093 A 
ATOM      8  C   UNL     1      -0.260  -8.636  23.220  1.00  0.00     0.123 A 
ATOM      9  C   UNL     1      -1.538  -8.070  23.157  1.00  0.00     0.094 A 
ATOM     10  C   UNL     1      -2.657  -8.806  23.557  1.00  0.00     0.146 A 
ATOM     11  O   UNL     1      -3.858  -8.243  23.490  1.00  0.00    -0.452 OA
ENDROOT
BRANCH   1  12
ATOM     12  C   UNL     1      -6.253  -8.121  23.743  1.00  0.00     0.025 A 
ATOM     13  C   UNL     1      -7.316  -8.681  23.017  1.00  0.00     0.016 A 
ATOM     14  C   UNL     1      -8.523  -7.989  22.881  1.00  0.00     0.051 A 
ATOM     15  C   UNL     1      -8.678  -6.722  23.456  1.00  0.00     0.157 A 
ATOM     16  C   UNL     1      -6.407  -6.838  24.300  1.00  0.00     0.062 A 
ATOM     17  C   UNL     1      -7.617  -6.143  24.164  1.00  0.00     0.158 A 
BRANCH  15  18
ATOM     18  O   UNL     1      -9.881  -6.030  23.325  1.00  0.00    -0.504 OA
ATOM     19  H   UNL     1      -9.912  -5.018  23.311  1.00  0.00     0.293 HD
ENDBRANCH  15  18
BRANCH  17  20
ATOM     20  O   UNL     1      -7.769  -4.875  24.722  1.00  0.00    -0.504 OA
ATOM     21  H   UNL     1      -8.474  -4.228  24.387  1.00  0.00     0.293 HD
ENDBRANCH  17  20
ENDBRANCH   1  12
BRANCH   2  22
ATOM     22  O   UNL     1      -6.097 -10.878  24.635  1.00  0.00    -0.502 OA
ATOM     23  H   UNL     1      -6.422 -11.678  24.107  1.00  0.00     0.293 HD
ENDBRANCH   2  22
BRANCH   6  24
ATOM     24  O   UNL     1      -1.020 -12.002  24.551  1.00  0.00    -0.507 OA
ATOM     25  H   UNL     1      -0.380 -12.640  24.093  1.00  0.00     0.293 HD
ENDBRANCH   6  24
BRANCH   8  26
ATOM     26  O   UNL     1       0.859  -7.908  22.823  1.00  0.00    -0.508 OA
ATOM     27  H   UNL     1       1.751  -8.357  22.652  1.00  0.00     0.293 HD
ENDBRANCH   8  26
TORSDOF 6
ENDMDL
MODEL 4
REMARK VINA RESULT:    -6.574      2.289      7.533
REMARK INTER + INTRA:          -7.864
REMARK INTER:                  -7.728
REMARK INTRA:                  -0.136
REMARK UNBOUND:                 0.055
REMARK SMILES O=c1c(O)c(-c2ccc(O)c(O)c2)oc2cc(O)cc(O)c12
REMARK SMILES IDX 5 1 3 2 2 3 1 4 22 5 20 6 19 7 17 8 16 9 15 10 14 11 6 12
REMARK SMILES IDX 7 13 8 14 9 15 13 16 11 17 10 18 12 20 4 22 21 24 18 26
REMARK H PARENT 10 19 12 21 4 23 21 25 18 27
REMARK Flexibility Score: inf
ROOT
ATOM      1  C   UNL     1      -4.917  -8.870  23.716  1.00  0.00     0.180 A 
ATOM      2  C   UNL     1      -3.829  -8.385  24.468  1.00  0.00     0.208 A 
ATOM      3  C   UNL     1      -2.630  -9.111  24.470  1.00  0.00     0.238 A 
ATOM      4  O   UNL     1      -1.644  -8.681  25.131  1.00  0.00    -0.285 OA
ATOM      5  C   UNL     1      -2.542 -10.316  23.742  1.00  0.00     0.111 A 
ATOM      6  C   UNL     1      -1.370 -11.109  23.696  1.00  0.00     0.134 A 
ATOM      7  C   UNL     1      -1.366 -12.302  22.955  1.00  0.00     0.093 A 
ATOM      8  C   UNL     1      -2.507 -12.714  22.263  1.00  0.00     0.123 A 
ATOM      9  C   UNL     1      -3.667 -11.933  22.305  1.00  0.00     0.094 A 
ATOM     10  C   UNL     1      -3.690 -10.742  23.035  1.00  0.00     0.146 A 
ATOM     11  O   UNL     1      -4.803 -10.018  23.054  1.00  0.00    -0.452 OA
ENDROOT
BRANCH   1  12
ATOM     12  C   UNL     1      -6.210  -8.150  23.648  1.00  0.00     0.025 A 
ATOM     13  C   UNL     1      -7.388  -8.810  24.029  1.00  0.00     0.016 A 
ATOM     14  C   UNL     1      -8.622  -8.157  23.953  1.00  0.00     0.051 A 
ATOM     15  C   UNL     1      -8.695  -6.842  23.480  1.00  0.00     0.157 A 
ATOM     16  C   UNL     1      -6.292  -6.835  23.153  1.00  0.00     0.062 A 
ATOM     17  C   UNL     1      -7.529  -6.180  23.075  1.00  0.00     0.158 A 
BRANCH  15  18
ATOM     18  O   UNL     1      -9.924  -6.186  23.404  1.00  0.00    -0.504 OA
ATOM     19  H   UNL     1     -10.664  -6.516  22.797  1.00  0.00     0.293 HD
ENDBRANCH  15  18
BRANCH  17  20
ATOM     20  O   UNL     1      -7.607  -4.875  22.591  1.00  0.00    -0.504 OA
ATOM     21  H   UNL     1      -6.778  -4.309  22.455  1.00  0.00     0.293 HD
ENDBRANCH  17  20
ENDBRANCH   1  12
BRANCH   2  22
ATOM     22  O   UNL     1      -3.957  -7.213  25.220  1.00  0.00    -0.502 OA
ATOM     23  H   UNL     1      -3.748  -6.299  24.840  1.00  0.00     0.293 HD
ENDBRANCH   2  22
BRANCH   6  24
ATOM     24  O   UNL     1      -0.215 -10.726  24.378  1.00  0.00    -0.507 OA
ATOM     25  H   UNL     1       0.555 -10.266  23.907  1.00  0.00     0.293 HD
ENDBRANCH   6  24
BRANCH   8  26
ATOM     26  O   UNL     1      -2.477 -13.902  21.536  1.00  0.00    -0.508 OA
ATOM     27  H   UNL     1      -2.091 -14.753  21.928  1.00  0.00     0.293 HD
ENDBRANCH   8  26
TORSDOF 6
ENDMDL
MODEL 5
REMARK VINA RESULT:    -6.338      3.746      4.911
REMARK INTER + INTRA:          -7.580
REMARK INTER:                  -7.376
REMARK INTRA:                  -0.204
REMARK UNBOUND:                 0.055
REMARK SMILES O=c1c(O)c(-c2ccc(O)c(O)c2)oc2cc(O)cc(O)c12
REMARK SMILES IDX 5 1 3 2 2 3 1 4 22 5 20 6 19 7 17 8 16 9 15 10 14 11 6 12
REMARK SMILES IDX 7 13 8 14 9 15 13 16 11 17 10 18 12 20 4 22 21 24 18 26
REMARK H PARENT 10 19 12 21 4 23 21 25 18 27
REMARK Flexibility Score: inf
ROOT
ATOM      1  C   UNL     1      -4.243  -7.449  23.939  1.00  0.00     0.180 A 
ATOM      2  C   UNL     1      -4.693  -8.713  24.366  1.00  0.00     0.208 A 
ATOM      3  C   UNL     1      -6.069  -8.985  24.350  1.00  0.00     0.238 A 
ATOM      4  O   UNL     1      -6.483 -10.118  24.719  1.00  0.00    -0.285 OA
ATOM      5  C   UNL     1      -6.972  -7.986  23.929  1.00  0.00     0.111 A 
ATOM      6  C   UNL     1      -8.374  -8.178  23.888  1.00  0.00     0.134 A 
ATOM      7  C   UNL     1      -9.207  -7.130  23.466  1.00  0.00     0.093 A 
ATOM      8  C   UNL     1      -8.667  -5.900  23.087  1.00  0.00     0.123 A 
ATOM      9  C   UNL     1      -7.283  -5.705  23.125  1.00  0.00     0.094 A 
ATOM     10  C   UNL     1      -6.436  -6.736  23.541  1.00  0.00     0.146 A 
ATOM     11  O   UNL     1      -5.125  -6.526  23.564  1.00  0.00    -0.452 OA
ENDROOT
BRANCH   1  12
ATOM     12  C   UNL     1      -2.806  -7.093  23.909  1.00  0.00     0.025 A 
ATOM     13  C   UNL     1      -1.958  -7.729  22.990  1.00  0.00     0.016 A 
ATOM     14  C   UNL     1      -0.593  -7.425  22.957  1.00  0.00     0.051 A 
ATOM     15  C   UNL     1      -0.057  -6.493  23.854  1.00  0.00     0.157 A 
ATOM     16  C   UNL     1      -2.258  -6.174  24.822  1.00  0.00     0.062 A 
ATOM     17  C   UNL     1      -0.890  -5.869  24.791  1.00  0.00     0.158 A 
BRANCH  15  18
ATOM     18  O   UNL     1       1.302  -6.186  23.823  1.00  0.00    -0.504 OA
ATOM     19  H   UNL     1       1.994  -6.869  23.542  1.00  0.00     0.293 HD
ENDBRANCH  15  18
BRANCH  17  20
ATOM     20  O   UNL     1      -0.351  -4.953  25.692  1.00  0.00    -0.504 OA
ATOM     21  H   UNL     1       0.579  -5.072  26.079  1.00  0.00     0.293 HD
ENDBRANCH  17  20
ENDBRANCH   1  12
BRANCH   2  22
ATOM     22  O   UNL     1      -3.781  -9.669  24.824  1.00  0.00    -0.502 OA
ATOM     23  H   UNL     1      -3.279  -9.565  25.697  1.00  0.00     0.293 HD
ENDBRANCH   2  22
BRANCH   6  24
ATOM     24  O   UNL     1      -8.945  -9.396  24.262  1.00  0.00    -0.507 OA
ATOM     25  H   UNL     1      -9.627  -9.866  23.679  1.00  0.00     0.293 HD
ENDBRANCH   6  24
BRANCH   8  26
ATOM     26  O   UNL     1      -9.516  -4.876  22.673  1.00  0.00    -0.508 OA
ATOM     27  H   UNL     1      -9.196  -3.917  22.605  1.00  0.00     0.293 HD
ENDBRANCH   8  26
TORSDOF 6
ENDMDL
MODEL 6
REMARK VINA RESULT:    -6.186      1.441      2.448
REMARK INTER + INTRA:          -7.397
REMARK INTER:                  -7.244
REMARK INTRA:                  -0.153
REMARK UNBOUND:                 0.055
REMARK SMILES O=c1c(O)c(-c2ccc(O)c(O)c2)oc2cc(O)cc(O)c12
REMARK SMILES IDX 5 1 3 2 2 3 1 4 22 5 20 6 19 7 17 8 16 9 15 10 14 11 6 12
REMARK SMILES IDX 7 13 8 14 9 15 13 16 11 17 10 18 12 20 4 22 21 24 18 26
REMARK H PARENT 10 19 12 21 4 23 21 25 18 27
REMARK Flexibility Score: inf
ROOT
ATOM      1  C   UNL     1      -5.533  -9.365  23.574  1.00  0.00     0.180 A 
ATOM      2  C   UNL     1      -5.188  -8.175  22.903  1.00  0.00     0.208 A 
ATOM      3  C   UNL     1      -6.100  -7.109  22.902  1.00  0.00     0.238 A 
ATOM      4  O   UNL     1      -5.798  -6.034  22.313  1.00  0.00    -0.285 OA
ATOM      5  C   UNL     1      -7.344  -7.254  23.550  1.00  0.00     0.111 A 
ATOM      6  C   UNL     1      -8.319  -6.229  23.591  1.00  0.00     0.134 A 
ATOM      7  C   UNL     1      -9.538  -6.455  24.250  1.00  0.00     0.093 A 
ATOM      8  C   UNL     1      -9.799  -7.682  24.864  1.00  0.00     0.123 A 
ATOM      9  C   UNL     1      -8.838  -8.697  24.827  1.00  0.00     0.094 A 
ATOM     10  C   UNL     1      -7.618  -8.491  24.177  1.00  0.00     0.146 A 
ATOM     11  O   UNL     1      -6.721  -9.471  24.161  1.00  0.00    -0.452 OA
ENDROOT
BRANCH   1  12
ATOM     12  C   UNL     1      -4.617 -10.527  23.636  1.00  0.00     0.025 A 
ATOM     13  C   UNL     1      -4.076 -10.913  24.872  1.00  0.00     0.016 A 
ATOM     14  C   UNL     1      -3.193 -11.994  24.952  1.00  0.00     0.051 A 
ATOM     15  C   UNL     1      -2.826 -12.692  23.794  1.00  0.00     0.157 A 
ATOM     16  C   UNL     1      -4.229 -11.218  22.473  1.00  0.00     0.062 A 
ATOM     17  C   UNL     1      -3.342 -12.301  22.552  1.00  0.00     0.158 A 
BRANCH  15  18
ATOM     18  O   UNL     1      -1.947 -13.771  23.870  1.00  0.00    -0.504 OA
ATOM     19  H   UNL     1      -2.070 -14.597  23.296  1.00  0.00     0.293 HD
ENDBRANCH  15  18
BRANCH  17  20
ATOM     20  O   UNL     1      -2.964 -12.989  21.400  1.00  0.00    -0.504 OA
ATOM     21  H   UNL     1      -2.033 -13.375  21.294  1.00  0.00     0.293 HD
ENDBRANCH  17  20
ENDBRANCH   1  12
BRANCH   2  22
ATOM     22  O   UNL     1      -3.969  -8.074  22.226  1.00  0.00    -0.502 OA
ATOM     23  H   UNL     1      -3.227  -8.753  22.340  1.00  0.00     0.293 HD
ENDBRANCH   2  22
BRANCH   6  24
ATOM     24  O   UNL     1      -8.090  -4.993  22.985  1.00  0.00    -0.507 OA
ATOM     25  H   UNL     1      -8.204  -4.122  23.490  1.00  0.00     0.293 HD
ENDBRANCH   6  24
BRANCH   8  26
ATOM     26  O   UNL     1     -11.017  -7.881  25.510  1.00  0.00    -0.508 OA
ATOM     27  H   UNL     1     -11.080  -7.926  26.520  1.00  0.00     0.293 HD
ENDBRANCH   8  26
TORSDOF 6
ENDMDL
MODEL 7
REMARK VINA RESULT:    -6.141      3.833      8.003
REMARK INTER + INTRA:          -7.343
REMARK INTER:                  -7.562
REMARK INTRA:                   0.219
REMARK UNBOUND:                 0.055
REMARK SMILES O=c1c(O)c(-c2ccc(O)c(O)c2)oc2cc(O)cc(O)c12
REMARK SMILES IDX 5 1 3 2 2 3 1 4 22 5 20 6 19 7 17 8 16 9 15 10 14 11 6 12
REMARK SMILES IDX 7 13 8 14 9 15 13 16 11 17 10 18 12 20 4 22 21 24 18 26
REMARK H PARENT 10 19 12 21 4 23 21 25 18 27
REMARK Flexibility Score: inf
ROOT
ATOM      1  C   UNL     1      -3.734  -8.744  23.694  1.00  0.00     0.180 A 
ATOM      2  C   UNL     1      -3.047  -9.967  23.575  1.00  0.00     0.208 A 
ATOM      3  C   UNL     1      -1.648  -9.952  23.472  1.00  0.00     0.238 A 
ATOM      4  O   UNL     1      -1.020 -11.043  23.376  1.00  0.00    -0.285 OA
ATOM      5  C   UNL     1      -0.962  -8.720  23.468  1.00  0.00     0.111 A 
ATOM      6  C   UNL     1       0.446  -8.618  23.363  1.00  0.00     0.134 A 
ATOM      7  C   UNL     1       1.053  -7.352  23.357  1.00  0.00     0.093 A 
ATOM      8  C   UNL     1       0.282  -6.192  23.453  1.00  0.00     0.123 A 
ATOM      9  C   UNL     1      -1.110  -6.288  23.557  1.00  0.00     0.094 A 
ATOM     10  C   UNL     1      -1.733  -7.538  23.566  1.00  0.00     0.146 A 
ATOM     11  O   UNL     1      -3.055  -7.600  23.671  1.00  0.00    -0.452 OA
ENDROOT
BRANCH   1  12
ATOM     12  C   UNL     1      -5.208  -8.678  23.826  1.00  0.00     0.025 A 
ATOM     13  C   UNL     1      -5.879  -9.670  24.557  1.00  0.00     0.016 A 
ATOM     14  C   UNL     1      -7.272  -9.641  24.678  1.00  0.00     0.051 A 
ATOM     15  C   UNL     1      -8.012  -8.628  24.057  1.00  0.00     0.157 A 
ATOM     16  C   UNL     1      -5.958  -7.675  23.186  1.00  0.00     0.062 A 
ATOM     17  C   UNL     1      -7.355  -7.645  23.306  1.00  0.00     0.158 A 
BRANCH  15  18
ATOM     18  O   UNL     1      -9.400  -8.594  24.177  1.00  0.00    -0.504 OA
ATOM     19  H   UNL     1      -9.998  -8.419  23.378  1.00  0.00     0.293 HD
ENDBRANCH  15  18
BRANCH  17  20
ATOM     20  O   UNL     1      -8.096  -6.646  22.677  1.00  0.00    -0.504 OA
ATOM     21  H   UNL     1      -7.940  -6.402  21.705  1.00  0.00     0.293 HD
ENDBRANCH  17  20
ENDBRANCH   1  12
BRANCH   2  22
ATOM     22  O   UNL     1      -3.754 -11.173  23.532  1.00  0.00    -0.502 OA
ATOM     23  H   UNL     1      -3.307 -12.056  23.318  1.00  0.00     0.293 HD
ENDBRANCH   2  22
BRANCH   6  24
ATOM     24  O   UNL     1       1.244  -9.758  23.265  1.00  0.00    -0.507 OA
ATOM     25  H   UNL     1       1.212 -10.364  22.453  1.00  0.00     0.293 HD
ENDBRANCH   6  24
BRANCH   8  26
ATOM     26  O   UNL     1       0.909  -4.948  23.444  1.00  0.00    -0.508 OA
ATOM     27  H   UNL     1       1.404  -4.610  22.627  1.00  0.00     0.293 HD
ENDBRANCH   8  26
TORSDOF 6
ENDMDL
MODEL 8
REMARK VINA RESULT:    -6.080      1.414      6.676
REMARK INTER + INTRA:          -7.269
REMARK INTER:                  -7.810
REMARK INTRA:                   0.541
REMARK UNBOUND:                 0.055
REMARK SMILES O=c1c(O)c(-c2ccc(O)c(O)c2)oc2cc(O)cc(O)c12
REMARK SMILES IDX 5 1 3 2 2 3 1 4 22 5 20 6 19 7 17 8 16 9 15 10 14 11 6 12
REMARK SMILES IDX 7 13 8 14 9 15 13 16 11 17 10 18 12 20 4 22 21 24 18 26
REMARK H PARENT 10 19 12 21 4 23 21 25 18 27
REMARK Flexibility Score: inf
ROOT
ATOM      1  C   UNL     1      -8.094  -7.203  24.322  1.00  0.00     0.180 A 
ATOM      2  C   UNL     1      -7.327  -6.455  23.407  1.00  0.00     0.208 A 
ATOM      3  C   UNL     1      -6.110  -6.983  22.951  1.00  0.00     0.238 A 
ATOM      4  O   UNL     1      -5.420  -6.327  22.123  1.00  0.00    -0.285 OA
ATOM      5  C   UNL     1      -5.669  -8.234  23.430  1.00  0.00     0.111 A 
ATOM      6  C   UNL     1      -4.453  -8.833  23.024  1.00  0.00     0.134 A 
ATOM      7  C   UNL     1      -4.080 -10.078  23.554  1.00  0.00     0.093 A 
ATOM      8  C   UNL     1      -4.897 -10.732  24.479  1.00  0.00     0.123 A 
ATOM      9  C   UNL     1      -6.100 -10.144  24.883  1.00  0.00     0.094 A 
ATOM     10  C   UNL     1      -6.489  -8.906  24.366  1.00  0.00     0.146 A 
ATOM     11  O   UNL     1      -7.639  -8.373  24.763  1.00  0.00    -0.452 OA
ENDROOT
BRANCH   1  12
ATOM     12  C   UNL     1      -9.397  -6.723  24.834  1.00  0.00     0.025 A 
ATOM     13  C   UNL     1      -9.877  -5.468  24.430  1.00  0.00     0.016 A 
ATOM     14  C   UNL     1     -11.096  -4.984  24.916  1.00  0.00     0.051 A 
ATOM     15  C   UNL     1     -11.842  -5.744  25.826  1.00  0.00     0.157 A 
ATOM     16  C   UNL     1     -10.141  -7.472  25.764  1.00  0.00     0.062 A 
ATOM     17  C   UNL     1     -11.363  -6.988  26.254  1.00  0.00     0.158 A 
BRANCH  15  18
ATOM     18  O   UNL     1     -13.058  -5.267  26.312  1.00  0.00    -0.504 OA
ATOM     19  H   UNL     1     -13.876  -5.196  25.719  1.00  0.00     0.293 HD
ENDBRANCH  15  18
BRANCH  17  20
ATOM     20  O   UNL     1     -12.101  -7.735  27.170  1.00  0.00    -0.504 OA
ATOM     21  H   UNL     1     -12.977  -7.394  27.550  1.00  0.00     0.293 HD
ENDBRANCH  17  20
ENDBRANCH   1  12
BRANCH   2  22
ATOM     22  O   UNL     1      -7.763  -5.195  22.986  1.00  0.00    -0.502 OA
ATOM     23  H   UNL     1      -8.741  -4.934  22.976  1.00  0.00     0.293 HD
ENDBRANCH   2  22
BRANCH   6  24
ATOM     24  O   UNL     1      -3.614  -8.205  22.102  1.00  0.00    -0.507 OA
ATOM     25  H   UNL     1      -3.325  -8.662  21.245  1.00  0.00     0.293 HD
ENDBRANCH   6  24
BRANCH   8  26
ATOM     26  O   UNL     1      -4.503 -11.966  24.990  1.00  0.00    -0.508 OA
ATOM     27  H   UNL     1      -4.015 -12.042  25.875  1.00  0.00     0.293 HD
ENDBRANCH   8  26
TORSDOF 6
ENDMDL
MODEL 9
REMARK VINA RESULT:    -5.904      4.387      5.857
REMARK INTER + INTRA:          -7.058
REMARK INTER:                  -6.918
REMARK INTRA:                  -0.140
REMARK UNBOUND:                 0.055
REMARK SMILES O=c1c(O)c(-c2ccc(O)c(O)c2)oc2cc(O)cc(O)c12
REMARK SMILES IDX 5 1 3 2 2 3 1 4 22 5 20 6 19 7 17 8 16 9 15 10 14 11 6 12
REMARK SMILES IDX 7 13 8 14 9 15 13 16 11 17 10 18 12 20 4 22 21 24 18 26
REMARK H PARENT 10 19 12 21 4 23 21 25 18 27
REMARK Flexibility Score: inf
ROOT
ATOM      1  C   UNL     1      -3.019  -7.372  23.996  1.00  0.00     0.180 A 
ATOM      2  C   UNL     1      -3.221  -8.692  24.443  1.00  0.00     0.208 A 
ATOM      3  C   UNL     1      -4.528  -9.200  24.486  1.00  0.00     0.238 A 
ATOM      4  O   UNL     1      -4.722 -10.385  24.874  1.00  0.00    -0.285 OA
ATOM      5  C   UNL     1      -5.610  -8.378  24.104  1.00  0.00     0.111 A 
ATOM      6  C   UNL     1      -6.956  -8.813  24.123  1.00  0.00     0.134 A 
ATOM      7  C   UNL     1      -7.977  -7.931  23.736  1.00  0.00     0.093 A 
ATOM      8  C   UNL     1      -7.678  -6.628  23.333  1.00  0.00     0.123 A 
ATOM      9  C   UNL     1      -6.348  -6.194  23.312  1.00  0.00     0.094 A 
ATOM     10  C   UNL     1      -5.317  -7.057  23.692  1.00  0.00     0.146 A 
ATOM     11  O   UNL     1      -4.063  -6.621  23.658  1.00  0.00    -0.452 OA
ENDROOT
BRANCH   1  12
ATOM     12  C   UNL     1      -1.668  -6.771  23.904  1.00  0.00     0.025 A 
ATOM     13  C   UNL     1      -1.391  -5.587  24.604  1.00  0.00     0.016 A 
ATOM     14  C   UNL     1      -0.130  -4.990  24.515  1.00  0.00     0.051 A 
ATOM     15  C   UNL     1       0.865  -5.562  23.712  1.00  0.00     0.157 A 
ATOM     16  C   UNL     1      -0.672  -7.329  23.082  1.00  0.00     0.062 A 
ATOM     17  C   UNL     1       0.593  -6.731  22.991  1.00  0.00     0.158 A 
BRANCH  15  18
ATOM     18  O   UNL     1       2.125  -4.971  23.623  1.00  0.00    -0.504 OA
ATOM     19  H   UNL     1       2.356  -4.134  24.142  1.00  0.00     0.293 HD
ENDBRANCH  15  18
BRANCH  17  20
ATOM     20  O   UNL     1       1.581  -7.289  22.182  1.00  0.00    -0.504 OA
ATOM     21  H   UNL     1       1.959  -6.790  21.385  1.00  0.00     0.293 HD
ENDBRANCH  17  20
ENDBRANCH   1  12
BRANCH   2  22
ATOM     22  O   UNL     1      -2.138  -9.470  24.862  1.00  0.00    -0.502 OA
ATOM     23  H   UNL     1      -2.240 -10.229  25.524  1.00  0.00     0.293 HD
ENDBRANCH   2  22
BRANCH   6  24
ATOM     24  O   UNL     1      -7.289 -10.108  24.522  1.00  0.00    -0.507 OA
ATOM     25  H   UNL     1      -8.218 -10.344  24.850  1.00  0.00     0.293 HD
ENDBRANCH   6  24
BRANCH   8  26
ATOM     26  O   UNL     1      -8.710  -5.772  22.955  1.00  0.00    -0.508 OA
ATOM     27  H   UNL     1      -9.523  -6.110  22.455  1.00  0.00     0.293 HD
ENDBRANCH   8  26
TORSDOF 6
ENDMDL
