MODEL 1
REMARK VINA RESULT:   129.714      0.000      0.000
REMARK INTER + INTRA:         211.609
REMARK INTER:                 205.544
REMARK INTRA:                   6.064
REMARK UNBOUND:                 6.064
REMARK SMILES C[C@@H]1O[C@@H](O[C@@H]2CC[C@@]3(C)[C@@H](CC[C@@]4(C)[C@@H]3C=C[C@@]35OC[C@]6(CCC(C)(C)C[C@H]63)[C@@H](O)C[C@@]45C)[C@]2(C)CO)[C@@H](O)[C@H](O[C@@H]2O[C@@H](CO)[C@@H](O)[C@H](O)[C@@H]2O)[C@H]1O
REMARK SMILES IDX 1 1 2 2 54 3 41 4 39 5 4 6 3 7 55 8 42 10 43 11 52 12 44 13
REMARK SMILES IDX 50 14 45 15 48 16 53 17 51 19 46 21 47 22 49 24 5 26 6 27
REMARK SMILES IDX 7 28 35 29 8 30 11 31 36 32 9 33 12 34 10 35 16 36 13 37
REMARK SMILES IDX 14 38 17 39 15 40 33 41 18 42 19 43 32 44 34 45 29 46 20 47
REMARK SMILES IDX 30 48 22 49 28 50 21 51 23 52 25 53 24 54 26 55 27 56 37 57
REMARK SMILES IDX 38 58 31 60 40 62
REMARK H PARENT 55 9 53 18 51 20 47 23 49 25 38 59 31 61 40 63
REMARK Flexibility Score: inf
ROOT
ATOM      1  C   UNL     1      15.407  17.281   1.267  1.00  0.00     0.041 C 
ATOM      2  C   UNL     1      15.703  18.507   2.076  1.00  0.00     0.150 C 
ATOM      3  C   UNL     1      15.166  19.874   1.512  1.00  0.00     0.175 C 
ATOM      4  C   UNL     1      15.673  20.858   2.510  1.00  0.00     0.186 C 
ATOM      5  C   UNL     1      15.049  20.703   3.838  1.00  0.00     0.202 C 
ATOM      6  C   UNL     1      15.409  19.309   4.463  1.00  0.00     0.282 C 
ATOM      7  O   UNL     1      15.454  18.219   3.518  1.00  0.00    -0.344 OA
ENDROOT
BRANCH   3   8
ATOM      8  O   UNL     1      15.643  20.152   0.224  1.00  0.00    -0.388 OA
ATOM      9  H   UNL     1      14.889  20.280  -0.406  1.00  0.00     0.211 HD
ENDBRANCH   3   8
BRANCH   4  10
ATOM     10  O   UNL     1      15.484  22.098   2.198  1.00  0.00    -0.341 OA
BRANCH  10  11
ATOM     11  C   UNL     1      16.670  22.869   1.796  1.00  0.00     0.282 C 
ATOM     12  C   UNL     1      16.579  24.492   2.094  1.00  0.00     0.202 C 
ATOM     13  O   UNL     1      17.822  22.479   2.617  1.00  0.00    -0.341 OA
ATOM     14  C   UNL     1      16.703  25.124   3.533  1.00  0.00     0.179 C 
ATOM     15  C   UNL     1      17.367  22.837   3.913  1.00  0.00     0.178 C 
ATOM     16  C   UNL     1      17.783  24.314   4.291  1.00  0.00     0.177 C 
BRANCH  12  17
ATOM     17  O   UNL     1      15.625  25.096   1.308  1.00  0.00    -0.385 OA
ATOM     18  H   UNL     1      14.774  24.596   1.426  1.00  0.00     0.211 HD
ENDBRANCH  12  17
BRANCH  14  19
ATOM     19  O   UNL     1      15.525  25.015   4.231  1.00  0.00    -0.387 OA
ATOM     20  H   UNL     1      15.456  24.042   4.229  1.00  0.00     0.211 HD
ENDBRANCH  14  19
BRANCH  15  21
ATOM     21  C   UNL     1      17.345  21.704   4.929  1.00  0.00     0.191 C 
BRANCH  21  22
ATOM     22  O   UNL     1      17.564  22.236   6.191  1.00  0.00    -0.394 OA
ATOM     23  H   UNL     1      16.684  22.631   6.408  1.00  0.00     0.210 HD
ENDBRANCH  21  22
ENDBRANCH  15  21
BRANCH  16  24
ATOM     24  O   UNL     1      19.044  24.516   3.765  1.00  0.00    -0.387 OA
ATOM     25  H   UNL     1      19.496  25.055   4.472  1.00  0.00     0.211 HD
ENDBRANCH  16  24
ENDBRANCH  10  11
ENDBRANCH   4  10
BRANCH   6  26
ATOM     26  O   UNL     1      16.423  19.401   5.431  1.00  0.00    -0.346 OA
BRANCH  26  27
ATOM     27  C   UNL     1      17.771  18.780   5.368  1.00  0.00     0.130 C 
ATOM     28  C   UNL     1      18.311  18.552   4.021  1.00  0.00     0.033 C 
ATOM     29  C   UNL     1      17.608  17.484   6.388  1.00  0.00     0.020 C 
ATOM     30  C   UNL     1      18.402  17.132   3.474  1.00  0.00     0.010 C 
ATOM     31  C   UNL     1      17.858  16.237   5.646  1.00  0.00     0.006 C 
ATOM     32  C   UNL     1      18.552  17.636   7.616  1.00  0.00     0.017 C 
ATOM     33  C   UNL     1      18.957  16.216   4.563  1.00  0.00    -0.022 C 
ATOM     34  C   UNL     1      17.583  14.885   6.296  1.00  0.00     0.005 C 
ATOM     35  C   UNL     1      20.408  16.802   4.641  1.00  0.00     0.012 C 
ATOM     36  C   UNL     1      19.119  14.707   4.120  1.00  0.00     0.024 C 
ATOM     37  C   UNL     1      17.147  13.826   5.289  1.00  0.00     0.008 C 
ATOM     38  C   UNL     1      17.912  13.845   3.944  1.00  0.00    -0.017 C 
ATOM     39  C   UNL     1      19.972  13.978   5.154  1.00  0.00    -0.024 C 
ATOM     40  C   UNL     1      16.899  14.348   2.898  1.00  0.00     0.013 C 
ATOM     41  C   UNL     1      18.466  12.442   3.414  1.00  0.00     0.009 C 
ATOM     42  C   UNL     1      20.233  12.677   5.141  1.00  0.00     0.005 C 
ATOM     43  C   UNL     1      19.534  11.711   4.286  1.00  0.00     0.096 C 
ATOM     44  C   UNL     1      17.300  11.495   3.095  1.00  0.00     0.043 C 
ATOM     45  C   UNL     1      19.229  12.663   2.042  1.00  0.00     0.015 C 
ATOM     46  C   UNL     1      18.896  10.628   5.086  1.00  0.00     0.037 C 
ATOM     47  O   UNL     1      20.517  11.087   3.495  1.00  0.00    -0.369 OA
ATOM     48  C   UNL     1      17.744  10.037   2.932  1.00  0.00     0.124 C 
ATOM     49  C   UNL     1      18.729   9.618   4.029  1.00  0.00     0.026 C 
ATOM     50  C   UNL     1      19.811  10.174   6.256  1.00  0.00     0.014 C 
ATOM     51  C   UNL     1      20.136   9.764   3.467  1.00  0.00     0.171 C 
ATOM     52  C   UNL     1      18.464   8.188   4.579  1.00  0.00     0.013 C 
ATOM     53  C   UNL     1      19.288   8.888   6.892  1.00  0.00    -0.035 C 
ATOM     54  C   UNL     1      19.291   7.814   5.781  1.00  0.00     0.007 C 
ATOM     55  C   UNL     1      20.257   8.449   8.043  1.00  0.00     0.011 C 
ATOM     56  C   UNL     1      17.883   9.154   7.469  1.00  0.00     0.011 C 
BRANCH  29  57
ATOM     57  C   UNL     1      16.159  17.399   7.094  1.00  0.00     0.165 C 
BRANCH  57  58
ATOM     58  O   UNL     1      15.312  16.777   6.161  1.00  0.00    -0.396 OA
ATOM     59  H   UNL     1      15.503  15.760   6.107  1.00  0.00     0.210 HD
ENDBRANCH  57  58
ENDBRANCH  29  57
BRANCH  48  60
ATOM     60  O   UNL     1      16.631   9.186   2.966  1.00  0.00    -0.392 OA
ATOM     61  H   UNL     1      16.513   8.792   2.035  1.00  0.00     0.210 HD
ENDBRANCH  48  60
ENDBRANCH  26  27
ENDBRANCH   6  26
BRANCH   5  62
ATOM     62  O   UNL     1      15.335  21.843   4.640  1.00  0.00    -0.385 OA
ATOM     63  H   UNL     1      16.212  22.161   4.217  1.00  0.00     0.211 HD
ENDBRANCH   5  62
TORSDOF 14
ENDMDL
