MODEL 1
REMARK VINA RESULT:    -3.799      0.000      0.000
REMARK INTER + INTRA:          -4.919
REMARK INTER:                  -5.353
REMARK INTRA:                   0.434
REMARK UNBOUND:                 0.434
REMARK SMILES CC1=CCC(=C(C)C)C(=O)CC(C)=CCC1
REMARK SMILES IDX 12 1 14 2 13 3 15 4 16 5 2 6 1 7 3 8 11 10 9 11 10 12 5 13
REMARK SMILES IDX 6 14 7 15 8 16 4 17
REMARK H PARENT
REMARK Flexibility Score: 60.00
ROOT
ATOM      1  C   UNL     1     136.770 182.343 188.854  1.00  0.00    -0.070 C 
ATOM      2  C   UNL     1     137.771 182.836 189.621  1.00  0.00    -0.027 C 
ATOM      3  C   UNL     1     137.010 181.025 188.160  1.00  0.00     0.039 C 
ENDROOT
BRANCH   2   4
ATOM      4  C   UNL     1     137.789 184.176 190.315  1.00  0.00     0.032 C 
BRANCH   4   5
ATOM      5  C   UNL     1     136.993 184.170 191.634  1.00  0.00     0.034 C 
BRANCH   5   6
ATOM      6  C   UNL     1     135.880 185.199 191.636  1.00  0.00    -0.077 C 
ATOM      7  C   UNL     1     136.255 186.660 191.611  1.00  0.00     0.039 C 
ATOM      8  C   UNL     1     134.566 184.883 191.632  1.00  0.00    -0.023 CG0
ATOM      9  G   UNL     1     133.994 183.485 191.621  1.00  0.00     0.000 G0
ENDBRANCH   5   6
ENDBRANCH   4   5
ENDBRANCH   2   4
BRANCH   1  10
ATOM     10  C   UNL     1     135.459 183.070 188.607  1.00  0.00     0.111 C 
BRANCH  10  11
ATOM     11  C   UNL     1     134.308 182.398 189.315  1.00  0.00     0.163 C 
ATOM     12  O   UNL     1     134.137 181.163 189.129  1.00  0.00    -0.294 OA
BRANCH  11  13
ATOM     13  C   UNL     1     133.418 183.141 190.260  1.00  0.00    -0.002 C 
ATOM     14  C   UNL     1     132.175 183.572 189.888  1.00  0.00    -0.069 C 
ATOM     15  C   UNL     1     131.265 184.291 190.861  1.00  0.00     0.039 C 
ATOM     16  C   UNL     1     131.661 183.385 188.477  1.00  0.00     0.039 C 
BRANCH  13  17
ATOM     17  C   UNL     1     133.983 183.465 191.632  1.00  0.00     0.066 CG0
ATOM     18  G   UNL     1     134.559 184.861 191.632  1.00  0.00     0.000 G0
ENDBRANCH  13  17
ENDBRANCH  11  13
ENDBRANCH  10  11
ENDBRANCH   1  10
TORSDOF 0
ENDMDL
MODEL 2
REMARK VINA RESULT:    -3.626      1.923      4.008
REMARK INTER + INTRA:          -4.675
REMARK INTER:                  -5.532
REMARK INTRA:                   0.856
REMARK UNBOUND:                 0.434
REMARK SMILES CC1=CCC(=C(C)C)C(=O)CC(C)=CCC1
REMARK SMILES IDX 12 1 14 2 13 3 15 4 16 5 2 6 1 7 3 8 11 10 9 11 10 12 5 13
REMARK SMILES IDX 6 14 7 15 8 16 4 17
REMARK H PARENT
REMARK Flexibility Score: 60.00
ROOT
ATOM      1  C   UNL     1     137.414 185.866 191.923  1.00  0.00    -0.070 C 
ATOM      2  C   UNL     1     136.539 186.544 192.704  1.00  0.00    -0.027 C 
ATOM      3  C   UNL     1     138.039 186.613 190.770  1.00  0.00     0.039 C 
ENDROOT
BRANCH   2   4
ATOM      4  C   UNL     1     135.723 185.971 193.837  1.00  0.00     0.032 C 
BRANCH   4   5
ATOM      5  C   UNL     1     134.206 186.094 193.596  1.00  0.00     0.034 C 
BRANCH   5   6
ATOM      6  C   UNL     1     133.558 184.749 193.331  1.00  0.00    -0.077 C 
ATOM      7  C   UNL     1     132.749 184.114 194.434  1.00  0.00     0.039 C 
ATOM      8  C   UNL     1     133.641 184.096 192.150  1.00  0.00    -0.023 CG0
ATOM      9  G   UNL     1     134.371 184.583 190.921  1.00  0.00     0.000 G0
ENDBRANCH   5   6
ENDBRANCH   4   5
ENDBRANCH   2   4
BRANCH   1  10
ATOM     10  C   UNL     1     137.742 184.394 192.103  1.00  0.00     0.111 C 
BRANCH  10  11
ATOM     11  C   UNL     1     136.528 183.524 191.885  1.00  0.00     0.163 C 
ATOM     12  O   UNL     1     136.257 182.654 192.757  1.00  0.00    -0.294 OA
BRANCH  11  13
ATOM     13  C   UNL     1     135.625 183.705 190.706  1.00  0.00    -0.002 C 
ATOM     14  C   UNL     1     135.930 183.182 189.480  1.00  0.00    -0.069 C 
ATOM     15  C   UNL     1     134.993 183.338 188.301  1.00  0.00     0.039 C 
ATOM     16  C   UNL     1     137.232 182.453 189.230  1.00  0.00     0.039 C 
BRANCH  13  17
ATOM     17  C   UNL     1     134.388 184.561 190.909  1.00  0.00     0.066 CG0
ATOM     18  G   UNL     1     133.641 184.100 192.137  1.00  0.00     0.000 G0
ENDBRANCH  13  17
ENDBRANCH  11  13
ENDBRANCH  10  11
ENDBRANCH   1  10
TORSDOF 0
ENDMDL
MODEL 3
REMARK VINA RESULT:    -3.559      1.543      3.948
REMARK INTER + INTRA:          -4.581
REMARK INTER:                  -4.963
REMARK INTRA:                   0.382
REMARK UNBOUND:                 0.434
REMARK SMILES CC1=CCC(=C(C)C)C(=O)CC(C)=CCC1
REMARK SMILES IDX 12 1 14 2 13 3 15 4 16 5 2 6 1 7 3 8 11 10 9 11 10 12 5 13
REMARK SMILES IDX 6 14 7 15 8 16 4 17
REMARK H PARENT
REMARK Flexibility Score: 60.00
ROOT
ATOM      1  C   UNL     1     134.468 182.666 187.777  1.00  0.00    -0.070 C 
ATOM      2  C   UNL     1     133.151 182.507 188.048  1.00  0.00    -0.027 C 
ATOM      3  C   UNL     1     135.074 181.774 186.721  1.00  0.00     0.039 C 
ENDROOT
BRANCH   2   4
ATOM      4  C   UNL     1     132.369 183.211 189.130  1.00  0.00     0.032 C 
BRANCH   4   5
ATOM      5  C   UNL     1     132.509 182.527 190.504  1.00  0.00     0.034 C 
BRANCH   5   6
ATOM      6  C   UNL     1     132.929 183.500 191.588  1.00  0.00    -0.077 C 
ATOM      7  C   UNL     1     131.917 184.502 192.082  1.00  0.00     0.039 C 
ATOM      8  C   UNL     1     134.155 183.503 192.158  1.00  0.00    -0.023 CG0
ATOM      9  G   UNL     1     135.287 182.560 191.826  1.00  0.00     0.000 G0
ENDBRANCH   5   6
ENDBRANCH   4   5
ENDBRANCH   2   4
BRANCH   1  10
ATOM     10  C   UNL     1     135.371 183.637 188.518  1.00  0.00     0.111 C 
BRANCH  10  11
ATOM     11  C   UNL     1     136.285 182.920 189.483  1.00  0.00     0.163 C 
ATOM     12  O   UNL     1     137.065 182.044 189.020  1.00  0.00    -0.294 OA
BRANCH  11  13
ATOM     13  C   UNL     1     136.323 183.259 190.939  1.00  0.00    -0.002 C 
ATOM     14  C   UNL     1     137.261 184.110 191.455  1.00  0.00    -0.069 C 
ATOM     15  C   UNL     1     137.269 184.477 192.923  1.00  0.00     0.039 C 
ATOM     16  C   UNL     1     138.356 184.698 190.593  1.00  0.00     0.039 C 
BRANCH  13  17
ATOM     17  C   UNL     1     135.320 182.558 191.838  1.00  0.00     0.066 CG0
ATOM     18  G   UNL     1     134.170 183.488 192.145  1.00  0.00     0.000 G0
ENDBRANCH  13  17
ENDBRANCH  11  13
ENDBRANCH  10  11
ENDBRANCH   1  10
TORSDOF 0
ENDMDL
MODEL 4
REMARK VINA RESULT:    -3.474      1.314      1.972
REMARK INTER + INTRA:          -4.462
REMARK INTER:                  -5.133
REMARK INTRA:                   0.672
REMARK UNBOUND:                 0.434
REMARK SMILES CC1=CCC(=C(C)C)C(=O)CC(C)=CCC1
REMARK SMILES IDX 12 1 14 2 13 3 15 4 16 5 2 6 1 7 3 8 11 10 9 11 10 12 5 13
REMARK SMILES IDX 6 14 7 15 8 16 4 17
REMARK H PARENT
REMARK Flexibility Score: 60.00
ROOT
ATOM      1  C   UNL     1     136.837 184.024 189.956  1.00  0.00    -0.070 C 
ATOM      2  C   UNL     1     137.454 184.966 190.708  1.00  0.00    -0.027 C 
ATOM      3  C   UNL     1     137.659 182.837 189.516  1.00  0.00     0.039 C 
ENDROOT
BRANCH   2   4
ATOM      4  C   UNL     1     136.859 186.276 191.166  1.00  0.00     0.032 C 
BRANCH   4   5
ATOM      5  C   UNL     1     136.777 186.385 192.700  1.00  0.00     0.034 C 
BRANCH   5   6
ATOM      6  C   UNL     1     136.251 185.114 193.338  1.00  0.00    -0.077 C 
ATOM      7  C   UNL     1     137.136 184.386 194.318  1.00  0.00     0.039 C 
ATOM      8  C   UNL     1     135.020 184.609 193.098  1.00  0.00    -0.023 CG0
ATOM      9  G   UNL     1     133.982 185.210 192.181  1.00  0.00     0.000 G0
ENDBRANCH   5   6
ENDBRANCH   4   5
ENDBRANCH   2   4
BRANCH   1  10
ATOM     10  C   UNL     1     135.397 184.131 189.482  1.00  0.00     0.111 C 
BRANCH  10  11
ATOM     11  C   UNL     1     134.451 183.411 190.412  1.00  0.00     0.163 C 
ATOM     12  O   UNL     1     134.563 182.160 190.519  1.00  0.00    -0.294 OA
BRANCH  11  13
ATOM     13  C   UNL     1     133.439 184.143 191.235  1.00  0.00    -0.002 C 
ATOM     14  C   UNL     1     132.098 183.921 191.090  1.00  0.00    -0.069 C 
ATOM     15  C   UNL     1     131.082 184.639 191.953  1.00  0.00     0.039 C 
ATOM     16  C   UNL     1     131.560 182.975 190.039  1.00  0.00     0.039 C 
BRANCH  13  17
ATOM     17  C   UNL     1     133.961 185.203 192.189  1.00  0.00     0.066 CG0
ATOM     18  G   UNL     1     135.017 184.606 193.089  1.00  0.00     0.000 G0
ENDBRANCH  13  17
ENDBRANCH  11  13
ENDBRANCH  10  11
ENDBRANCH   1  10
TORSDOF 0
ENDMDL
MODEL 5
REMARK VINA RESULT:    -3.471      2.116      3.967
REMARK INTER + INTRA:          -4.457
REMARK INTER:                  -5.320
REMARK INTRA:                   0.863
REMARK UNBOUND:                 0.434
REMARK SMILES CC1=CCC(=C(C)C)C(=O)CC(C)=CCC1
REMARK SMILES IDX 12 1 14 2 13 3 15 4 16 5 2 6 1 7 3 8 11 10 9 11 10 12 5 13
REMARK SMILES IDX 6 14 7 15 8 16 4 17
REMARK H PARENT
REMARK Flexibility Score: 60.00
ROOT
ATOM      1  C   UNL     1     137.980 185.139 191.025  1.00  0.00    -0.070 C 
ATOM      2  C   UNL     1     137.842 184.178 190.081  1.00  0.00    -0.027 C 
ATOM      3  C   UNL     1     138.910 186.287 190.717  1.00  0.00     0.039 C 
ENDROOT
BRANCH   2   4
ATOM      4  C   UNL     1     137.054 182.897 190.217  1.00  0.00     0.032 C 
BRANCH   4   5
ATOM      5  C   UNL     1     136.107 182.656 189.026  1.00  0.00     0.034 C 
BRANCH   5   6
ATOM      6  C   UNL     1     134.828 183.462 189.139  1.00  0.00    -0.077 C 
ATOM      7  C   UNL     1     134.209 184.004 187.875  1.00  0.00     0.039 C 
ATOM      8  C   UNL     1     134.194 183.702 190.308  1.00  0.00    -0.023 CG0
ATOM      9  G   UNL     1     134.635 183.217 191.668  1.00  0.00     0.000 G0
ENDBRANCH   5   6
ENDBRANCH   4   5
ENDBRANCH   2   4
BRANCH   1  10
ATOM     10  C   UNL     1     137.307 185.088 192.386  1.00  0.00     0.111 C 
BRANCH  10  11
ATOM     11  C   UNL     1     135.836 185.412 192.291  1.00  0.00     0.163 C 
ATOM     12  O   UNL     1     135.506 186.552 191.867  1.00  0.00    -0.294 OA
BRANCH  11  13
ATOM     13  C   UNL     1     134.781 184.407 192.630  1.00  0.00    -0.002 C 
ATOM     14  C   UNL     1     134.035 184.506 193.772  1.00  0.00    -0.069 C 
ATOM     15  C   UNL     1     132.944 183.506 194.089  1.00  0.00     0.039 C 
ATOM     16  C   UNL     1     134.285 185.597 194.790  1.00  0.00     0.039 C 
BRANCH  13  17
ATOM     17  C   UNL     1     134.623 183.226 191.689  1.00  0.00     0.066 CG0
ATOM     18  G   UNL     1     134.185 183.711 190.328  1.00  0.00     0.000 G0
ENDBRANCH  13  17
ENDBRANCH  11  13
ENDBRANCH  10  11
ENDBRANCH   1  10
TORSDOF 0
ENDMDL
MODEL 6
REMARK VINA RESULT:    -3.413      2.132      4.347
REMARK INTER + INTRA:          -4.375
REMARK INTER:                  -5.119
REMARK INTRA:                   0.744
REMARK UNBOUND:                 0.434
REMARK SMILES CC1=CCC(=C(C)C)C(=O)CC(C)=CCC1
REMARK SMILES IDX 12 1 14 2 13 3 15 4 16 5 2 6 1 7 3 8 11 10 9 11 10 12 5 13
REMARK SMILES IDX 6 14 7 15 8 16 4 17
REMARK H PARENT
REMARK Flexibility Score: 60.00
ROOT
ATOM      1  C   UNL     1     136.674 184.796 190.389  1.00  0.00    -0.070 C 
ATOM      2  C   UNL     1     136.031 183.991 189.510  1.00  0.00    -0.027 C 
ATOM      3  C   UNL     1     138.031 184.350 190.876  1.00  0.00     0.039 C 
ENDROOT
BRANCH   2   4
ATOM      4  C   UNL     1     134.633 184.186 188.977  1.00  0.00     0.032 C 
BRANCH   4   5
ATOM      5  C   UNL     1     133.669 183.068 189.421  1.00  0.00     0.034 C 
BRANCH   5   6
ATOM      6  C   UNL     1     132.719 183.530 190.509  1.00  0.00    -0.077 C 
ATOM      7  C   UNL     1     131.298 183.859 190.127  1.00  0.00     0.039 C 
ATOM      8  C   UNL     1     133.067 183.638 191.811  1.00  0.00    -0.023 CG0
ATOM      9  G   UNL     1     134.424 183.322 192.392  1.00  0.00     0.000 G0
ENDBRANCH   5   6
ENDBRANCH   4   5
ENDBRANCH   2   4
BRANCH   1  10
ATOM     10  C   UNL     1     136.079 186.074 190.955  1.00  0.00     0.111 C 
BRANCH  10  11
ATOM     11  C   UNL     1     135.034 185.784 192.005  1.00  0.00     0.163 C 
ATOM     12  O   UNL     1     134.049 186.565 192.093  1.00  0.00    -0.294 OA
BRANCH  11  13
ATOM     13  C   UNL     1     135.114 184.580 192.889  1.00  0.00    -0.002 C 
ATOM     14  C   UNL     1     135.826 184.591 194.056  1.00  0.00    -0.069 C 
ATOM     15  C   UNL     1     135.870 183.380 194.963  1.00  0.00     0.039 C 
ATOM     16  C   UNL     1     136.632 185.798 194.482  1.00  0.00     0.039 C 
BRANCH  13  17
ATOM     17  C   UNL     1     134.431 183.316 192.397  1.00  0.00     0.066 CG0
ATOM     18  G   UNL     1     133.078 183.656 191.819  1.00  0.00     0.000 G0
ENDBRANCH  13  17
ENDBRANCH  11  13
ENDBRANCH  10  11
ENDBRANCH   1  10
TORSDOF 0
ENDMDL
MODEL 7
REMARK VINA RESULT:    -3.379      2.335      3.547
REMARK INTER + INTRA:          -4.327
REMARK INTER:                  -5.200
REMARK INTRA:                   0.873
REMARK UNBOUND:                 0.434
REMARK SMILES CC1=CCC(=C(C)C)C(=O)CC(C)=CCC1
REMARK SMILES IDX 12 1 14 2 13 3 15 4 16 5 2 6 1 7 3 8 11 10 9 11 10 12 5 13
REMARK SMILES IDX 6 14 7 15 8 16 4 17
REMARK H PARENT
REMARK Flexibility Score: 60.00
ROOT
ATOM      1  C   UNL     1     138.014 185.372 191.353  1.00  0.00    -0.070 C 
ATOM      2  C   UNL     1     137.962 185.271 192.703  1.00  0.00    -0.027 C 
ATOM      3  C   UNL     1     138.152 186.754 190.764  1.00  0.00     0.039 C 
ENDROOT
BRANCH   2   4
ATOM      4  C   UNL     1     137.722 184.010 193.497  1.00  0.00     0.032 C 
BRANCH   4   5
ATOM      5  C   UNL     1     136.385 184.036 194.261  1.00  0.00     0.034 C 
BRANCH   5   6
ATOM      6  C   UNL     1     135.234 184.491 193.386  1.00  0.00    -0.077 C 
ATOM      7  C   UNL     1     134.634 185.851 193.643  1.00  0.00     0.039 C 
ATOM      8  C   UNL     1     134.730 183.758 192.369  1.00  0.00    -0.023 CG0
ATOM      9  G   UNL     1     135.217 182.395 191.936  1.00  0.00     0.000 G0
ENDBRANCH   5   6
ENDBRANCH   4   5
ENDBRANCH   2   4
BRANCH   1  10
ATOM     10  C   UNL     1     137.876 184.187 190.412  1.00  0.00     0.111 C 
BRANCH  10  11
ATOM     11  C   UNL     1     136.428 183.850 190.153  1.00  0.00     0.163 C 
ATOM     12  O   UNL     1     135.717 184.705 189.560  1.00  0.00    -0.294 OA
BRANCH  11  13
ATOM     13  C   UNL     1     135.844 182.525 190.529  1.00  0.00    -0.002 C 
ATOM     14  C   UNL     1     135.805 181.481 189.647  1.00  0.00    -0.069 C 
ATOM     15  C   UNL     1     135.247 180.132 190.047  1.00  0.00     0.039 C 
ATOM     16  C   UNL     1     136.284 181.630 188.220  1.00  0.00     0.039 C 
BRANCH  13  17
ATOM     17  C   UNL     1     135.225 182.409 191.911  1.00  0.00     0.066 CG0
ATOM     18  G   UNL     1     134.725 183.761 192.362  1.00  0.00     0.000 G0
ENDBRANCH  13  17
ENDBRANCH  11  13
ENDBRANCH  10  11
ENDBRANCH   1  10
TORSDOF 0
ENDMDL
MODEL 8
REMARK VINA RESULT:    -3.315      2.619      4.130
REMARK INTER + INTRA:          -4.237
REMARK INTER:                  -4.970
REMARK INTRA:                   0.733
REMARK UNBOUND:                 0.434
REMARK SMILES CC1=CCC(=C(C)C)C(=O)CC(C)=CCC1
REMARK SMILES IDX 12 1 14 2 13 3 15 4 16 5 2 6 1 7 3 8 11 10 9 11 10 12 5 13
REMARK SMILES IDX 6 14 7 15 8 16 4 17
REMARK H PARENT
REMARK Flexibility Score: 60.00
ROOT
ATOM      1  C   UNL     1     137.795 186.383 191.629  1.00  0.00    -0.070 C 
ATOM      2  C   UNL     1     138.301 186.250 192.878  1.00  0.00    -0.027 C 
ATOM      3  C   UNL     1     138.732 186.147 190.470  1.00  0.00     0.039 C 
ENDROOT
BRANCH   2   4
ATOM      4  C   UNL     1     137.579 186.540 194.171  1.00  0.00     0.032 C 
BRANCH   4   5
ATOM      5  C   UNL     1     137.297 185.266 194.991  1.00  0.00     0.034 C 
BRANCH   5   6
ATOM      6  C   UNL     1     135.847 184.832 194.893  1.00  0.00    -0.077 C 
ATOM      7  C   UNL     1     134.884 185.306 195.952  1.00  0.00     0.039 C 
ATOM      8  C   UNL     1     135.362 184.063 193.893  1.00  0.00    -0.023 CG0
ATOM      9  G   UNL     1     136.157 183.522 192.728  1.00  0.00     0.000 G0
ENDBRANCH   5   6
ENDBRANCH   4   5
ENDBRANCH   2   4
BRANCH   1  10
ATOM     10  C   UNL     1     136.369 186.819 191.338  1.00  0.00     0.111 C 
BRANCH  10  11
ATOM     11  C   UNL     1     135.386 185.699 191.576  1.00  0.00     0.163 C 
ATOM     12  O   UNL     1     134.194 186.005 191.851  1.00  0.00    -0.294 OA
BRANCH  11  13
ATOM     13  C   UNL     1     135.776 184.261 191.442  1.00  0.00    -0.002 C 
ATOM     14  C   UNL     1     135.722 183.612 190.240  1.00  0.00    -0.069 C 
ATOM     15  C   UNL     1     136.154 182.167 190.105  1.00  0.00     0.039 C 
ATOM     16  C   UNL     1     135.198 184.291 188.994  1.00  0.00     0.039 C 
BRANCH  13  17
ATOM     17  C   UNL     1     136.162 183.529 192.714  1.00  0.00     0.066 CG0
ATOM     18  G   UNL     1     135.373 184.075 193.880  1.00  0.00     0.000 G0
ENDBRANCH  13  17
ENDBRANCH  11  13
ENDBRANCH  10  11
ENDBRANCH   1  10
TORSDOF 0
ENDMDL
MODEL 9
REMARK VINA RESULT:    -3.223      2.287      3.240
REMARK INTER + INTRA:          -4.108
REMARK INTER:                  -4.772
REMARK INTRA:                   0.664
REMARK UNBOUND:                 0.434
REMARK SMILES CC1=CCC(=C(C)C)C(=O)CC(C)=CCC1
REMARK SMILES IDX 12 1 14 2 13 3 15 4 16 5 2 6 1 7 3 8 11 10 9 11 10 12 5 13
REMARK SMILES IDX 6 14 7 15 8 16 4 17
REMARK H PARENT
REMARK Flexibility Score: 60.00
ROOT
ATOM      1  C   UNL     1     135.953 184.038 190.240  1.00  0.00    -0.070 C 
ATOM      2  C   UNL     1     136.995 184.893 190.381  1.00  0.00    -0.027 C 
ATOM      3  C   UNL     1     135.304 183.951 188.880  1.00  0.00     0.039 C 
ENDROOT
BRANCH   2   4
ATOM      4  C   UNL     1     137.719 185.216 191.665  1.00  0.00     0.032 C 
BRANCH   4   5
ATOM      5  C   UNL     1     137.195 186.501 192.333  1.00  0.00     0.034 C 
BRANCH   5   6
ATOM      6  C   UNL     1     136.707 186.253 193.747  1.00  0.00    -0.077 C 
ATOM      7  C   UNL     1     137.706 186.339 194.875  1.00  0.00     0.039 C 
ATOM      8  C   UNL     1     135.420 185.985 194.060  1.00  0.00    -0.023 CG0
ATOM      9  G   UNL     1     134.274 185.893 193.081  1.00  0.00     0.000 G0
ENDBRANCH   5   6
ENDBRANCH   4   5
ENDBRANCH   2   4
BRANCH   1  10
ATOM     10  C   UNL     1     135.369 183.225 191.382  1.00  0.00     0.111 C 
BRANCH  10  11
ATOM     11  C   UNL     1     133.990 183.708 191.760  1.00  0.00     0.163 C 
ATOM     12  O   UNL     1     133.028 183.408 191.002  1.00  0.00    -0.294 OA
BRANCH  11  13
ATOM     13  C   UNL     1     133.737 184.474 193.020  1.00  0.00    -0.002 C 
ATOM     14  C   UNL     1     133.003 183.948 194.046  1.00  0.00    -0.069 C 
ATOM     15  C   UNL     1     132.783 184.715 195.332  1.00  0.00     0.039 C 
ATOM     16  C   UNL     1     132.345 182.590 193.935  1.00  0.00     0.039 C 
BRANCH  13  17
ATOM     17  C   UNL     1     134.268 185.896 193.082  1.00  0.00     0.066 CG0
ATOM     18  G   UNL     1     135.403 185.976 194.074  1.00  0.00     0.000 G0
ENDBRANCH  13  17
ENDBRANCH  11  13
ENDBRANCH  10  11
ENDBRANCH   1  10
TORSDOF 0
ENDMDL
