MODEL 1
REMARK VINA RESULT:    -3.364      0.000      0.000
REMARK INTER + INTRA:          -7.714
REMARK INTER:                  -5.920
REMARK INTRA:                  -1.794
REMARK UNBOUND:                -1.794
REMARK SMILES CCCCCCCCCCCCCCC(=O)[O-]
REMARK SMILES IDX 9 1 10 2 11 3 12 4 13 5 14 6 15 7 16 8 17 9 8 10 7 11 6 12
REMARK SMILES IDX 5 13 4 14 3 15 2 16 1 17
REMARK H PARENT
REMARK Flexibility Score: inf
ROOT
ATOM      1  C   UNL     1      26.275  41.970   3.879  1.00  0.00     0.000 C 
ENDROOT
BRANCH   1   2
ATOM      2  C   UNL     1      24.760  41.744   3.734  1.00  0.00     0.000 C 
BRANCH   2   3
ATOM      3  C   UNL     1      24.361  40.278   3.966  1.00  0.00     0.000 C 
BRANCH   3   4
ATOM      4  C   UNL     1      24.555  39.409   2.712  1.00  0.00     0.000 C 
BRANCH   4   5
ATOM      5  C   UNL     1      24.211  40.148   1.406  1.00  0.00     0.006 C 
BRANCH   5   6
ATOM      6  C   UNL     1      24.528  39.344   0.133  1.00  0.00     0.053 C 
BRANCH   6   7
ATOM      7  C   UNL     1      25.792  39.797  -0.534  1.00  0.00     0.041 C 
ATOM      8  O   UNL     1      25.765  40.222  -1.718  1.00  0.00    -0.550 OA
ATOM      9  O   UNL     1      27.004  39.717   0.139  1.00  0.00    -0.550 OA
ENDBRANCH   6   7
ENDBRANCH   5   6
ENDBRANCH   4   5
ENDBRANCH   3   4
ENDBRANCH   2   3
ENDBRANCH   1   2
BRANCH   1  10
ATOM     10  C   UNL     1      26.663  43.454   3.780  1.00  0.00     0.000 C 
BRANCH  10  11
ATOM     11  C   UNL     1      26.930  44.087   5.154  1.00  0.00    -0.000 C 
BRANCH  11  12
ATOM     12  C   UNL     1      25.905  45.190   5.459  1.00  0.00    -0.000 C 
BRANCH  12  13
ATOM     13  C   UNL     1      24.643  44.652   6.151  1.00  0.00    -0.000 C 
BRANCH  13  14
ATOM     14  C   UNL     1      24.965  43.732   7.344  1.00  0.00    -0.000 C 
BRANCH  14  15
ATOM     15  C   UNL     1      24.117  42.442   7.329  1.00  0.00    -0.000 C 
BRANCH  15  16
ATOM     16  C   UNL     1      24.947  41.160   7.499  1.00  0.00    -0.003 C 
ATOM     17  C   UNL     1      26.447  41.426   7.602  1.00  0.00     0.004 C 
ENDBRANCH  15  16
ENDBRANCH  14  15
ENDBRANCH  13  14
ENDBRANCH  12  13
ENDBRANCH  11  12
ENDBRANCH  10  11
ENDBRANCH   1  10
TORSDOF 13
ENDMDL
MODEL 2
REMARK VINA RESULT:    -3.316      3.587      7.475
REMARK INTER + INTRA:          -7.630
REMARK INTER:                  -6.588
REMARK INTRA:                  -1.042
REMARK UNBOUND:                -1.794
REMARK SMILES CCCCCCCCCCCCCCC(=O)[O-]
REMARK SMILES IDX 9 1 10 2 11 3 12 4 13 5 14 6 15 7 16 8 17 9 8 10 7 11 6 12
REMARK SMILES IDX 5 13 4 14 3 15 2 16 1 17
REMARK H PARENT
REMARK Flexibility Score: inf
ROOT
ATOM      1  C   UNL     1      24.301  40.291   2.385  1.00  0.00     0.000 C 
ENDROOT
BRANCH   1   2
ATOM      2  C   UNL     1      24.489  41.522   3.289  1.00  0.00     0.000 C 
BRANCH   2   3
ATOM      3  C   UNL     1      25.952  41.716   3.719  1.00  0.00     0.000 C 
BRANCH   3   4
ATOM      4  C   UNL     1      26.334  43.200   3.857  1.00  0.00     0.000 C 
BRANCH   4   5
ATOM      5  C   UNL     1      26.453  43.659   5.321  1.00  0.00     0.006 C 
BRANCH   5   6
ATOM      6  C   UNL     1      25.411  44.715   5.730  1.00  0.00     0.053 C 
BRANCH   6   7
ATOM      7  C   UNL     1      25.959  46.110   5.689  1.00  0.00     0.041 C 
ATOM      8  O   UNL     1      25.285  47.040   5.177  1.00  0.00    -0.550 OA
ATOM      9  O   UNL     1      27.230  46.376   6.184  1.00  0.00    -0.550 OA
ENDBRANCH   6   7
ENDBRANCH   5   6
ENDBRANCH   4   5
ENDBRANCH   3   4
ENDBRANCH   2   3
ENDBRANCH   1   2
BRANCH   1  10
ATOM     10  C   UNL     1      25.402  40.164   1.321  1.00  0.00     0.000 C 
BRANCH  10  11
ATOM     11  C   UNL     1      24.907  39.481   0.038  1.00  0.00    -0.000 C 
BRANCH  11  12
ATOM     12  C   UNL     1      25.762  39.894  -1.170  1.00  0.00    -0.000 C 
BRANCH  12  13
ATOM     13  C   UNL     1      26.736  38.791  -1.613  1.00  0.00    -0.000 C 
BRANCH  13  14
ATOM     14  C   UNL     1      28.207  39.246  -1.577  1.00  0.00    -0.000 C 
BRANCH  14  15
ATOM     15  C   UNL     1      29.045  38.423  -0.576  1.00  0.00    -0.000 C 
BRANCH  15  16
ATOM     16  C   UNL     1      28.808  38.816   0.892  1.00  0.00    -0.003 C 
ATOM     17  C   UNL     1      28.168  37.700   1.714  1.00  0.00     0.004 C 
ENDBRANCH  15  16
ENDBRANCH  14  15
ENDBRANCH  13  14
ENDBRANCH  12  13
ENDBRANCH  11  12
ENDBRANCH  10  11
ENDBRANCH   1  10
TORSDOF 13
ENDMDL
MODEL 3
REMARK VINA RESULT:    -3.246     17.934     19.718
REMARK INTER + INTRA:          -7.507
REMARK INTER:                  -5.932
REMARK INTRA:                  -1.576
REMARK UNBOUND:                -1.794
REMARK SMILES CCCCCCCCCCCCCCC(=O)[O-]
REMARK SMILES IDX 9 1 10 2 11 3 12 4 13 5 14 6 15 7 16 8 17 9 8 10 7 11 6 12
REMARK SMILES IDX 5 13 4 14 3 15 2 16 1 17
REMARK H PARENT
REMARK Flexibility Score: inf
ROOT
ATOM      1  C   UNL     1      42.718  32.486   0.932  1.00  0.00     0.000 C 
ENDROOT
BRANCH   1   2
ATOM      2  C   UNL     1      43.990  32.151   1.730  1.00  0.00     0.000 C 
BRANCH   2   3
ATOM      3  C   UNL     1      43.682  31.728   3.175  1.00  0.00     0.000 C 
BRANCH   3   4
ATOM      4  C   UNL     1      42.374  32.342   3.703  1.00  0.00     0.000 C 
BRANCH   4   5
ATOM      5  C   UNL     1      41.492  31.328   4.455  1.00  0.00     0.006 C 
BRANCH   5   6
ATOM      6  C   UNL     1      41.831  29.858   4.147  1.00  0.00     0.053 C 
BRANCH   6   7
ATOM      7  C   UNL     1      42.351  29.125   5.346  1.00  0.00     0.041 C 
ATOM      8  O   UNL     1      41.834  28.031   5.693  1.00  0.00    -0.550 OA
ATOM      9  O   UNL     1      43.384  29.666   6.102  1.00  0.00    -0.550 OA
ENDBRANCH   6   7
ENDBRANCH   5   6
ENDBRANCH   4   5
ENDBRANCH   3   4
ENDBRANCH   2   3
ENDBRANCH   1   2
BRANCH   1  10
ATOM     10  C   UNL     1      43.021  32.893  -0.519  1.00  0.00     0.000 C 
BRANCH  10  11
ATOM     11  C   UNL     1      41.899  32.500  -1.490  1.00  0.00    -0.000 C 
BRANCH  11  12
ATOM     12  C   UNL     1      40.907  33.658  -1.682  1.00  0.00    -0.000 C 
BRANCH  12  13
ATOM     13  C   UNL     1      39.456  33.253  -1.382  1.00  0.00    -0.000 C 
BRANCH  13  14
ATOM     14  C   UNL     1      38.841  34.060  -0.224  1.00  0.00    -0.000 C 
BRANCH  14  15
ATOM     15  C   UNL     1      39.463  33.689   1.139  1.00  0.00    -0.000 C 
BRANCH  15  16
ATOM     16  C   UNL     1      39.756  34.906   2.032  1.00  0.00    -0.003 C 
ATOM     17  C   UNL     1      41.027  35.650   1.631  1.00  0.00     0.004 C 
ENDBRANCH  15  16
ENDBRANCH  14  15
ENDBRANCH  13  14
ENDBRANCH  12  13
ENDBRANCH  11  12
ENDBRANCH  10  11
ENDBRANCH   1  10
TORSDOF 13
ENDMDL
MODEL 4
REMARK VINA RESULT:    -3.227     19.281     21.030
REMARK INTER + INTRA:          -7.474
REMARK INTER:                  -6.232
REMARK INTRA:                  -1.242
REMARK UNBOUND:                -1.794
REMARK SMILES CCCCCCCCCCCCCCC(=O)[O-]
REMARK SMILES IDX 9 1 10 2 11 3 12 4 13 5 14 6 15 7 16 8 17 9 8 10 7 11 6 12
REMARK SMILES IDX 5 13 4 14 3 15 2 16 1 17
REMARK H PARENT
REMARK Flexibility Score: inf
ROOT
ATOM      1  C   UNL     1      41.516  31.825   3.563  1.00  0.00     0.000 C 
ENDROOT
BRANCH   1   2
ATOM      2  C   UNL     1      40.665  30.747   4.257  1.00  0.00     0.000 C 
BRANCH   2   3
ATOM      3  C   UNL     1      41.420  29.418   4.420  1.00  0.00     0.000 C 
BRANCH   3   4
ATOM      4  C   UNL     1      41.405  28.905   5.870  1.00  0.00     0.000 C 
BRANCH   4   5
ATOM      5  C   UNL     1      42.733  28.250   6.291  1.00  0.00     0.006 C 
BRANCH   5   6
ATOM      6  C   UNL     1      43.892  29.248   6.468  1.00  0.00     0.053 C 
BRANCH   6   7
ATOM      7  C   UNL     1      43.636  30.238   7.564  1.00  0.00     0.041 C 
ATOM      8  O   UNL     1      43.699  31.472   7.330  1.00  0.00    -0.550 OA
ATOM      9  O   UNL     1      43.364  29.797   8.853  1.00  0.00    -0.550 OA
ENDBRANCH   6   7
ENDBRANCH   5   6
ENDBRANCH   4   5
ENDBRANCH   3   4
ENDBRANCH   2   3
ENDBRANCH   1   2
BRANCH   1  10
ATOM     10  C   UNL     1      42.963  31.368   3.315  1.00  0.00     0.000 C 
BRANCH  10  11
ATOM     11  C   UNL     1      43.926  32.545   3.105  1.00  0.00    -0.000 C 
BRANCH  11  12
ATOM     12  C   UNL     1      43.182  33.773   2.559  1.00  0.00    -0.000 C 
BRANCH  12  13
ATOM     13  C   UNL     1      43.723  34.238   1.198  1.00  0.00    -0.000 C 
BRANCH  13  14
ATOM     14  C   UNL     1      43.789  33.099   0.164  1.00  0.00    -0.000 C 
BRANCH  14  15
ATOM     15  C   UNL     1      42.394  32.519  -0.153  1.00  0.00    -0.000 C 
BRANCH  15  16
ATOM     16  C   UNL     1      41.943  32.759  -1.603  1.00  0.00    -0.003 C 
ATOM     17  C   UNL     1      40.716  33.661  -1.708  1.00  0.00     0.004 C 
ENDBRANCH  15  16
ENDBRANCH  14  15
ENDBRANCH  13  14
ENDBRANCH  12  13
ENDBRANCH  11  12
ENDBRANCH  10  11
ENDBRANCH   1  10
TORSDOF 13
ENDMDL
MODEL 5
REMARK VINA RESULT:    -3.202      3.775      7.094
REMARK INTER + INTRA:          -7.429
REMARK INTER:                  -6.020
REMARK INTRA:                  -1.409
REMARK UNBOUND:                -1.794
REMARK SMILES CCCCCCCCCCCCCCC(=O)[O-]
REMARK SMILES IDX 9 1 10 2 11 3 12 4 13 5 14 6 15 7 16 8 17 9 8 10 7 11 6 12
REMARK SMILES IDX 5 13 4 14 3 15 2 16 1 17
REMARK H PARENT
REMARK Flexibility Score: inf
ROOT
ATOM      1  C   UNL     1      26.984  43.380   4.435  1.00  0.00     0.000 C 
ENDROOT
BRANCH   1   2
ATOM      2  C   UNL     1      26.117  44.572   4.879  1.00  0.00     0.000 C 
BRANCH   2   3
ATOM      3  C   UNL     1      25.714  44.486   6.359  1.00  0.00     0.000 C 
BRANCH   3   4
ATOM      4  C   UNL     1      24.271  43.988   6.550  1.00  0.00     0.000 C 
BRANCH   4   5
ATOM      5  C   UNL     1      24.188  42.667   7.336  1.00  0.00     0.006 C 
BRANCH   5   6
ATOM      6  C   UNL     1      25.556  42.116   7.777  1.00  0.00     0.053 C 
BRANCH   6   7
ATOM      7  C   UNL     1      25.663  41.967   9.265  1.00  0.00     0.041 C 
ATOM      8  O   UNL     1      25.694  42.985  10.003  1.00  0.00    -0.550 OA
ATOM      9  O   UNL     1      25.764  40.704   9.834  1.00  0.00    -0.550 OA
ENDBRANCH   6   7
ENDBRANCH   5   6
ENDBRANCH   4   5
ENDBRANCH   3   4
ENDBRANCH   2   3
ENDBRANCH   1   2
BRANCH   1  10
ATOM     10  C   UNL     1      26.223  42.400   3.528  1.00  0.00     0.000 C 
BRANCH  10  11
ATOM     11  C   UNL     1      25.627  41.217   4.305  1.00  0.00    -0.000 C 
BRANCH  11  12
ATOM     12  C   UNL     1      24.214  40.884   3.801  1.00  0.00    -0.000 C 
BRANCH  12  13
ATOM     13  C   UNL     1      24.143  40.766   2.271  1.00  0.00    -0.000 C 
BRANCH  13  14
ATOM     14  C   UNL     1      24.598  39.387   1.758  1.00  0.00    -0.000 C 
BRANCH  14  15
ATOM     15  C   UNL     1      25.750  39.497   0.737  1.00  0.00    -0.000 C 
BRANCH  15  16
ATOM     16  C   UNL     1      25.270  39.647  -0.716  1.00  0.00    -0.003 C 
ATOM     17  C   UNL     1      26.389  40.036  -1.679  1.00  0.00     0.004 C 
ENDBRANCH  15  16
ENDBRANCH  14  15
ENDBRANCH  13  14
ENDBRANCH  12  13
ENDBRANCH  11  12
ENDBRANCH  10  11
ENDBRANCH   1  10
TORSDOF 13
ENDMDL
MODEL 6
REMARK VINA RESULT:    -3.182      1.569      2.538
REMARK INTER + INTRA:          -7.395
REMARK INTER:                  -5.874
REMARK INTRA:                  -1.521
REMARK UNBOUND:                -1.794
REMARK SMILES CCCCCCCCCCCCCCC(=O)[O-]
REMARK SMILES IDX 9 1 10 2 11 3 12 4 13 5 14 6 15 7 16 8 17 9 8 10 7 11 6 12
REMARK SMILES IDX 5 13 4 14 3 15 2 16 1 17
REMARK H PARENT
REMARK Flexibility Score: inf
ROOT
ATOM      1  C   UNL     1      27.318  41.213   4.364  1.00  0.00     0.000 C 
ENDROOT
BRANCH   1   2
ATOM      2  C   UNL     1      26.992  40.348   3.133  1.00  0.00     0.000 C 
BRANCH   2   3
ATOM      3  C   UNL     1      25.517  39.917   3.092  1.00  0.00     0.000 C 
BRANCH   3   4
ATOM      4  C   UNL     1      24.697  40.719   2.068  1.00  0.00     0.000 C 
BRANCH   4   5
ATOM      5  C   UNL     1      24.045  39.833   0.990  1.00  0.00     0.006 C 
BRANCH   5   6
ATOM      6  C   UNL     1      25.031  38.890   0.278  1.00  0.00     0.053 C 
BRANCH   6   7
ATOM      7  C   UNL     1      26.041  39.631  -0.547  1.00  0.00     0.041 C 
ATOM      8  O   UNL     1      25.672  40.307  -1.542  1.00  0.00    -0.550 OA
ATOM      9  O   UNL     1      27.393  39.545  -0.238  1.00  0.00    -0.550 OA
ENDBRANCH   6   7
ENDBRANCH   5   6
ENDBRANCH   4   5
ENDBRANCH   3   4
ENDBRANCH   2   3
ENDBRANCH   1   2
BRANCH   1  10
ATOM     10  C   UNL     1      27.548  42.689   4.004  1.00  0.00     0.000 C 
BRANCH  10  11
ATOM     11  C   UNL     1      26.247  43.506   4.000  1.00  0.00    -0.000 C 
BRANCH  11  12
ATOM     12  C   UNL     1      25.444  43.266   5.288  1.00  0.00    -0.000 C 
BRANCH  12  13
ATOM     13  C   UNL     1      25.311  44.533   6.148  1.00  0.00    -0.000 C 
BRANCH  13  14
ATOM     14  C   UNL     1      25.822  45.796   5.430  1.00  0.00    -0.000 C 
BRANCH  14  15
ATOM     15  C   UNL     1      26.803  46.605   6.305  1.00  0.00    -0.000 C 
BRANCH  15  16
ATOM     16  C   UNL     1      27.798  45.729   7.083  1.00  0.00    -0.003 C 
ATOM     17  C   UNL     1      28.995  45.291   6.243  1.00  0.00     0.004 C 
ENDBRANCH  15  16
ENDBRANCH  14  15
ENDBRANCH  13  14
ENDBRANCH  12  13
ENDBRANCH  11  12
ENDBRANCH  10  11
ENDBRANCH   1  10
TORSDOF 13
ENDMDL
MODEL 7
REMARK VINA RESULT:    -3.141     18.894     20.220
REMARK INTER + INTRA:          -7.322
REMARK INTER:                  -5.101
REMARK INTRA:                  -2.222
REMARK UNBOUND:                -1.794
REMARK SMILES CCCCCCCCCCCCCCC(=O)[O-]
REMARK SMILES IDX 9 1 10 2 11 3 12 4 13 5 14 6 15 7 16 8 17 9 8 10 7 11 6 12
REMARK SMILES IDX 5 13 4 14 3 15 2 16 1 17
REMARK H PARENT
REMARK Flexibility Score: inf
ROOT
ATOM      1  C   UNL     1      41.717  33.004   5.230  1.00  0.00     0.000 C 
ENDROOT
BRANCH   1   2
ATOM      2  C   UNL     1      43.162  33.391   5.592  1.00  0.00     0.000 C 
BRANCH   2   3
ATOM      3  C   UNL     1      44.125  33.247   4.402  1.00  0.00     0.000 C 
BRANCH   3   4
ATOM      4  C   UNL     1      43.887  31.954   3.604  1.00  0.00     0.000 C 
BRANCH   4   5
ATOM      5  C   UNL     1      43.760  32.195   2.089  1.00  0.00     0.006 C 
BRANCH   5   6
ATOM      6  C   UNL     1      42.307  32.250   1.585  1.00  0.00     0.053 C 
BRANCH   6   7
ATOM      7  C   UNL     1      42.212  32.660   0.146  1.00  0.00     0.041 C 
ATOM      8  O   UNL     1      41.091  32.718  -0.423  1.00  0.00    -0.550 OA
ATOM      9  O   UNL     1      43.364  32.943  -0.577  1.00  0.00    -0.550 OA
ENDBRANCH   6   7
ENDBRANCH   5   6
ENDBRANCH   4   5
ENDBRANCH   3   4
ENDBRANCH   2   3
ENDBRANCH   1   2
BRANCH   1  10
ATOM     10  C   UNL     1      41.007  32.245   6.362  1.00  0.00     0.000 C 
BRANCH  10  11
ATOM     11  C   UNL     1      40.137  31.090   5.843  1.00  0.00    -0.000 C 
BRANCH  11  12
ATOM     12  C   UNL     1      40.589  30.647   4.443  1.00  0.00    -0.000 C 
BRANCH  12  13
ATOM     13  C   UNL     1      41.479  29.396   4.475  1.00  0.00    -0.000 C 
BRANCH  13  14
ATOM     14  C   UNL     1      41.376  28.626   5.805  1.00  0.00    -0.000 C 
BRANCH  14  15
ATOM     15  C   UNL     1      42.764  28.306   6.401  1.00  0.00    -0.000 C 
BRANCH  15  16
ATOM     16  C   UNL     1      43.784  29.443   6.226  1.00  0.00    -0.003 C 
ATOM     17  C   UNL     1      44.022  30.237   7.508  1.00  0.00     0.004 C 
ENDBRANCH  15  16
ENDBRANCH  14  15
ENDBRANCH  13  14
ENDBRANCH  12  13
ENDBRANCH  11  12
ENDBRANCH  10  11
ENDBRANCH   1  10
TORSDOF 13
ENDMDL
MODEL 8
REMARK VINA RESULT:    -3.129     18.935     20.342
REMARK INTER + INTRA:          -7.302
REMARK INTER:                  -5.728
REMARK INTRA:                  -1.574
REMARK UNBOUND:                -1.794
REMARK SMILES CCCCCCCCCCCCCCC(=O)[O-]
REMARK SMILES IDX 9 1 10 2 11 3 12 4 13 5 14 6 15 7 16 8 17 9 8 10 7 11 6 12
REMARK SMILES IDX 5 13 4 14 3 15 2 16 1 17
REMARK H PARENT
REMARK Flexibility Score: inf
ROOT
ATOM      1  C   UNL     1      41.814  31.048   3.873  1.00  0.00     0.000 C 
ENDROOT
BRANCH   1   2
ATOM      2  C   UNL     1      43.302  31.414   3.734  1.00  0.00     0.000 C 
BRANCH   2   3
ATOM      3  C   UNL     1      43.674  31.826   2.301  1.00  0.00     0.000 C 
BRANCH   3   4
ATOM      4  C   UNL     1      43.677  33.352   2.108  1.00  0.00     0.000 C 
BRANCH   4   5
ATOM      5  C   UNL     1      43.372  33.778   0.660  1.00  0.00     0.006 C 
BRANCH   5   6
ATOM      6  C   UNL     1      42.702  32.679  -0.185  1.00  0.00     0.053 C 
BRANCH   6   7
ATOM      7  C   UNL     1      41.230  32.905  -0.358  1.00  0.00     0.041 C 
ATOM      8  O   UNL     1      40.725  32.928  -1.510  1.00  0.00    -0.550 OA
ATOM      9  O   UNL     1      40.422  33.126   0.750  1.00  0.00    -0.550 OA
ENDBRANCH   6   7
ENDBRANCH   5   6
ENDBRANCH   4   5
ENDBRANCH   3   4
ENDBRANCH   2   3
ENDBRANCH   1   2
BRANCH   1  10
ATOM     10  C   UNL     1      41.597  29.554   4.163  1.00  0.00     0.000 C 
BRANCH  10  11
ATOM     11  C   UNL     1      41.372  29.268   5.655  1.00  0.00    -0.000 C 
BRANCH  11  12
ATOM     12  C   UNL     1      42.410  28.267   6.185  1.00  0.00    -0.000 C 
BRANCH  12  13
ATOM     13  C   UNL     1      43.775  28.916   6.459  1.00  0.00    -0.000 C 
BRANCH  13  14
ATOM     14  C   UNL     1      43.784  29.763   7.744  1.00  0.00    -0.000 C 
BRANCH  14  15
ATOM     15  C   UNL     1      43.935  31.270   7.446  1.00  0.00    -0.000 C 
BRANCH  15  16
ATOM     16  C   UNL     1      42.737  32.112   7.914  1.00  0.00    -0.003 C 
ATOM     17  C   UNL     1      42.302  33.156   6.888  1.00  0.00     0.004 C 
ENDBRANCH  15  16
ENDBRANCH  14  15
ENDBRANCH  13  14
ENDBRANCH  12  13
ENDBRANCH  11  12
ENDBRANCH  10  11
ENDBRANCH   1  10
TORSDOF 13
ENDMDL
MODEL 9
REMARK VINA RESULT:    -3.113      1.414      2.941
REMARK INTER + INTRA:          -7.274
REMARK INTER:                  -5.483
REMARK INTRA:                  -1.791
REMARK UNBOUND:                -1.794
REMARK SMILES CCCCCCCCCCCCCCC(=O)[O-]
REMARK SMILES IDX 9 1 10 2 11 3 12 4 13 5 14 6 15 7 16 8 17 9 8 10 7 11 6 12
REMARK SMILES IDX 5 13 4 14 3 15 2 16 1 17
REMARK H PARENT
REMARK Flexibility Score: inf
ROOT
ATOM      1  C   UNL     1      25.900  42.240   3.482  1.00  0.00     0.000 C 
ENDROOT
BRANCH   1   2
ATOM      2  C   UNL     1      26.985  41.571   4.344  1.00  0.00     0.000 C 
BRANCH   2   3
ATOM      3  C   UNL     1      27.985  40.760   3.505  1.00  0.00     0.000 C 
BRANCH   3   4
ATOM      4  C   UNL     1      27.332  39.548   2.819  1.00  0.00     0.000 C 
BRANCH   4   5
ATOM      5  C   UNL     1      27.449  39.587   1.284  1.00  0.00     0.006 C 
BRANCH   5   6
ATOM      6  C   UNL     1      26.102  39.445   0.552  1.00  0.00     0.053 C 
BRANCH   6   7
ATOM      7  C   UNL     1      26.260  39.394  -0.937  1.00  0.00     0.041 C 
ATOM      8  O   UNL     1      26.869  38.435  -1.477  1.00  0.00    -0.550 OA
ATOM      9  O   UNL     1      25.767  40.425  -1.727  1.00  0.00    -0.550 OA
ENDBRANCH   6   7
ENDBRANCH   5   6
ENDBRANCH   4   5
ENDBRANCH   3   4
ENDBRANCH   2   3
ENDBRANCH   1   2
BRANCH   1  10
ATOM     10  C   UNL     1      24.478  41.946   3.988  1.00  0.00     0.000 C 
BRANCH  10  11
ATOM     11  C   UNL     1      24.436  40.778   4.984  1.00  0.00    -0.000 C 
BRANCH  11  12
ATOM     12  C   UNL     1      23.876  41.233   6.341  1.00  0.00    -0.000 C 
BRANCH  12  13
ATOM     13  C   UNL     1      24.899  41.100   7.479  1.00  0.00    -0.000 C 
BRANCH  13  14
ATOM     14  C   UNL     1      25.220  42.448   8.151  1.00  0.00    -0.000 C 
BRANCH  14  15
ATOM     15  C   UNL     1      24.883  43.647   7.238  1.00  0.00    -0.000 C 
BRANCH  15  16
ATOM     16  C   UNL     1      26.123  44.406   6.739  1.00  0.00    -0.003 C 
ATOM     17  C   UNL     1      25.827  45.326   5.557  1.00  0.00     0.004 C 
ENDBRANCH  15  16
ENDBRANCH  14  15
ENDBRANCH  13  14
ENDBRANCH  12  13
ENDBRANCH  11  12
ENDBRANCH  10  11
ENDBRANCH   1  10
TORSDOF 13
ENDMDL
