MODEL 1
REMARK VINA RESULT:    -5.462      0.000      0.000
REMARK INTER + INTRA:         -11.460
REMARK INTER:                 -10.570
REMARK INTRA:                  -0.890
REMARK UNBOUND:                -0.890
REMARK SMILES CCCCCCCCCCCCCCCCCC(=O)[O-]
REMARK SMILES IDX 10 1 11 2 12 3 13 4 14 5 15 6 16 7 17 8 18 9 19 10 20 11
REMARK SMILES IDX 9 12 8 13 7 14 6 15 5 16 4 17 3 18 2 19 1 20
REMARK H PARENT
REMARK Flexibility Score: inf
ROOT
ATOM      1  C   UNL     1      -3.280  29.271  56.536  1.00  0.00     0.000 C 
ENDROOT
BRANCH   1   2
ATOM      2  C   UNL     1      -4.711  28.711  56.458  1.00  0.00     0.000 C 
BRANCH   2   3
ATOM      3  C   UNL     1      -4.851  27.563  55.445  1.00  0.00     0.000 C 
BRANCH   3   4
ATOM      4  C   UNL     1      -3.555  26.736  55.320  1.00  0.00     0.000 C 
BRANCH   4   5
ATOM      5  C   UNL     1      -3.195  26.373  53.868  1.00  0.00     0.000 C 
BRANCH   5   6
ATOM      6  C   UNL     1      -1.681  26.375  53.609  1.00  0.00     0.000 C 
BRANCH   6   7
ATOM      7  C   UNL     1      -0.899  26.193  54.914  1.00  0.00     0.006 C 
BRANCH   7   8
ATOM      8  C   UNL     1       0.317  25.284  54.704  1.00  0.00     0.053 C 
BRANCH   8   9
ATOM      9  C   UNL     1       1.566  25.960  55.171  1.00  0.00     0.041 C 
ATOM     10  O   UNL     1       1.566  26.619  56.246  1.00  0.00    -0.550 OA
ATOM     11  O   UNL     1       2.720  25.902  54.400  1.00  0.00    -0.550 OA
ENDBRANCH   8   9
ENDBRANCH   7   8
ENDBRANCH   6   7
ENDBRANCH   5   6
ENDBRANCH   4   5
ENDBRANCH   3   4
ENDBRANCH   2   3
ENDBRANCH   1   2
BRANCH   1  12
ATOM     12  C   UNL     1      -2.988  30.042  57.841  1.00  0.00     0.000 C 
BRANCH  12  13
ATOM     13  C   UNL     1      -4.092  31.061  58.173  1.00  0.00    -0.000 C 
BRANCH  13  14
ATOM     14  C   UNL     1      -4.282  31.256  59.686  1.00  0.00    -0.000 C 
BRANCH  14  15
ATOM     15  C   UNL     1      -3.138  32.055  60.329  1.00  0.00    -0.000 C 
BRANCH  15  16
ATOM     16  C   UNL     1      -3.599  32.718  61.635  1.00  0.00    -0.000 C 
BRANCH  16  17
ATOM     17  C   UNL     1      -2.734  32.314  62.839  1.00  0.00    -0.000 C 
BRANCH  17  18
ATOM     18  C   UNL     1      -2.588  33.448  63.870  1.00  0.00    -0.000 C 
BRANCH  18  19
ATOM     19  C   UNL     1      -3.186  34.774  63.375  1.00  0.00    -0.003 C 
ATOM     20  C   UNL     1      -3.844  35.579  64.495  1.00  0.00     0.004 C 
ENDBRANCH  18  19
ENDBRANCH  17  18
ENDBRANCH  16  17
ENDBRANCH  15  16
ENDBRANCH  14  15
ENDBRANCH  13  14
ENDBRANCH  12  13
ENDBRANCH   1  12
TORSDOF 16
ENDMDL
MODEL 2
REMARK VINA RESULT:    -5.304      3.929     10.147
REMARK INTER + INTRA:         -11.155
REMARK INTER:                 -10.399
REMARK INTRA:                  -0.756
REMARK UNBOUND:                -0.890
REMARK SMILES CCCCCCCCCCCCCCCCCC(=O)[O-]
REMARK SMILES IDX 10 1 11 2 12 3 13 4 14 5 15 6 16 7 17 8 18 9 19 10 20 11
REMARK SMILES IDX 9 12 8 13 7 14 6 15 5 16 4 17 3 18 2 19 1 20
REMARK H PARENT
REMARK Flexibility Score: inf
ROOT
ATOM      1  C   UNL     1      -2.899  29.860  57.666  1.00  0.00     0.000 C 
ENDROOT
BRANCH   1   2
ATOM      2  C   UNL     1      -4.074  30.394  58.504  1.00  0.00     0.000 C 
BRANCH   2   3
ATOM      3  C   UNL     1      -3.741  31.706  59.235  1.00  0.00     0.000 C 
BRANCH   3   4
ATOM      4  C   UNL     1      -3.965  31.595  60.757  1.00  0.00     0.000 C 
BRANCH   4   5
ATOM      5  C   UNL     1      -3.469  32.823  61.542  1.00  0.00     0.000 C 
BRANCH   5   6
ATOM      6  C   UNL     1      -2.107  32.594  62.213  1.00  0.00     0.000 C 
BRANCH   6   7
ATOM      7  C   UNL     1      -2.269  32.351  63.718  1.00  0.00     0.006 C 
BRANCH   7   8
ATOM      8  C   UNL     1      -1.338  33.262  64.525  1.00  0.00     0.053 C 
BRANCH   8   9
ATOM      9  C   UNL     1       0.042  32.689  64.577  1.00  0.00     0.041 C 
ATOM     10  O   UNL     1       0.982  33.240  63.944  1.00  0.00    -0.550 OA
ATOM     11  O   UNL     1       0.284  31.521  65.290  1.00  0.00    -0.550 OA
ENDBRANCH   8   9
ENDBRANCH   7   8
ENDBRANCH   6   7
ENDBRANCH   5   6
ENDBRANCH   4   5
ENDBRANCH   3   4
ENDBRANCH   2   3
ENDBRANCH   1   2
BRANCH   1  12
ATOM     12  C   UNL     1      -3.317  29.351  56.270  1.00  0.00     0.000 C 
BRANCH  12  13
ATOM     13  C   UNL     1      -4.540  28.419  56.333  1.00  0.00    -0.000 C 
BRANCH  13  14
ATOM     14  C   UNL     1      -4.563  27.395  55.187  1.00  0.00    -0.000 C 
BRANCH  14  15
ATOM     15  C   UNL     1      -3.430  26.363  55.293  1.00  0.00    -0.000 C 
BRANCH  15  16
ATOM     16  C   UNL     1      -2.579  26.350  54.014  1.00  0.00    -0.000 C 
BRANCH  16  17
ATOM     17  C   UNL     1      -3.434  26.299  52.737  1.00  0.00    -0.000 C 
BRANCH  17  18
ATOM     18  C   UNL     1      -2.585  26.340  51.455  1.00  0.00    -0.000 C 
BRANCH  18  19
ATOM     19  C   UNL     1      -1.132  25.902  51.696  1.00  0.00    -0.003 C 
ATOM     20  C   UNL     1      -0.312  25.841  50.408  1.00  0.00     0.004 C 
ENDBRANCH  18  19
ENDBRANCH  17  18
ENDBRANCH  16  17
ENDBRANCH  15  16
ENDBRANCH  14  15
ENDBRANCH  13  14
ENDBRANCH  12  13
ENDBRANCH   1  12
TORSDOF 16
ENDMDL
MODEL 3
REMARK VINA RESULT:    -5.296      4.015      9.822
REMARK INTER + INTRA:         -11.140
REMARK INTER:                 -10.054
REMARK INTRA:                  -1.086
REMARK UNBOUND:                -0.890
REMARK SMILES CCCCCCCCCCCCCCCCCC(=O)[O-]
REMARK SMILES IDX 10 1 11 2 12 3 13 4 14 5 15 6 16 7 17 8 18 9 19 10 20 11
REMARK SMILES IDX 9 12 8 13 7 14 6 15 5 16 4 17 3 18 2 19 1 20
REMARK H PARENT
REMARK Flexibility Score: inf
ROOT
ATOM      1  C   UNL     1      -1.870  28.593  56.788  1.00  0.00     0.000 C 
ENDROOT
BRANCH   1   2
ATOM      2  C   UNL     1      -3.357  28.565  56.397  1.00  0.00     0.000 C 
BRANCH   2   3
ATOM      3  C   UNL     1      -4.158  29.733  56.998  1.00  0.00     0.000 C 
BRANCH   3   4
ATOM      4  C   UNL     1      -3.386  30.445  58.128  1.00  0.00     0.000 C 
BRANCH   4   5
ATOM      5  C   UNL     1      -4.169  31.602  58.773  1.00  0.00     0.000 C 
BRANCH   5   6
ATOM      6  C   UNL     1      -4.097  31.592  60.306  1.00  0.00     0.000 C 
BRANCH   6   7
ATOM      7  C   UNL     1      -2.932  32.453  60.808  1.00  0.00     0.006 C 
BRANCH   7   8
ATOM      8  C   UNL     1      -2.918  32.521  62.338  1.00  0.00     0.053 C 
BRANCH   8   9
ATOM      9  C   UNL     1      -2.495  33.878  62.801  1.00  0.00     0.041 C 
ATOM     10  O   UNL     1      -2.965  34.911  62.252  1.00  0.00    -0.550 OA
ATOM     11  O   UNL     1      -1.548  34.006  63.810  1.00  0.00    -0.550 OA
ENDBRANCH   8   9
ENDBRANCH   7   8
ENDBRANCH   6   7
ENDBRANCH   5   6
ENDBRANCH   4   5
ENDBRANCH   3   4
ENDBRANCH   2   3
ENDBRANCH   1   2
BRANCH   1  12
ATOM     12  C   UNL     1      -1.259  27.191  56.997  1.00  0.00     0.000 C 
BRANCH  12  13
ATOM     13  C   UNL     1       0.265  27.183  56.781  1.00  0.00    -0.000 C 
BRANCH  13  14
ATOM     14  C   UNL     1       0.685  26.356  55.554  1.00  0.00    -0.000 C 
BRANCH  14  15
ATOM     15  C   UNL     1      -0.466  25.510  54.989  1.00  0.00    -0.000 C 
BRANCH  15  16
ATOM     16  C   UNL     1      -0.869  25.999  53.590  1.00  0.00    -0.000 C 
BRANCH  16  17
ATOM     17  C   UNL     1      -2.352  26.393  53.507  1.00  0.00    -0.000 C 
BRANCH  17  18
ATOM     18  C   UNL     1      -2.926  26.244  52.087  1.00  0.00    -0.000 C 
BRANCH  18  19
ATOM     19  C   UNL     1      -1.854  26.410  50.999  1.00  0.00    -0.003 C 
ATOM     20  C   UNL     1      -2.294  27.347  49.875  1.00  0.00     0.004 C 
ENDBRANCH  18  19
ENDBRANCH  17  18
ENDBRANCH  16  17
ENDBRANCH  15  16
ENDBRANCH  14  15
ENDBRANCH  13  14
ENDBRANCH  12  13
ENDBRANCH   1  12
TORSDOF 16
ENDMDL
MODEL 4
REMARK VINA RESULT:    -5.058      3.011      9.429
REMARK INTER + INTRA:         -10.679
REMARK INTER:                  -9.974
REMARK INTRA:                  -0.705
REMARK UNBOUND:                -0.890
REMARK SMILES CCCCCCCCCCCCCCCCCC(=O)[O-]
REMARK SMILES IDX 10 1 11 2 12 3 13 4 14 5 15 6 16 7 17 8 18 9 19 10 20 11
REMARK SMILES IDX 9 12 8 13 7 14 6 15 5 16 4 17 3 18 2 19 1 20
REMARK H PARENT
REMARK Flexibility Score: inf
ROOT
ATOM      1  C   UNL     1      -3.736  31.605  59.238  1.00  0.00     0.000 C 
ENDROOT
BRANCH   1   2
ATOM      2  C   UNL     1      -3.858  31.850  60.751  1.00  0.00     0.000 C 
BRANCH   2   3
ATOM      3  C   UNL     1      -2.698  32.686  61.318  1.00  0.00     0.000 C 
BRANCH   3   4
ATOM      4  C   UNL     1      -3.041  33.302  62.691  1.00  0.00     0.000 C 
BRANCH   4   5
ATOM      5  C   UNL     1      -1.950  33.081  63.753  1.00  0.00     0.000 C 
BRANCH   5   6
ATOM      6  C   UNL     1      -1.137  31.801  63.518  1.00  0.00     0.000 C 
BRANCH   6   7
ATOM      7  C   UNL     1      -0.146  31.561  64.663  1.00  0.00     0.006 C 
BRANCH   7   8
ATOM      8  C   UNL     1       0.595  30.232  64.479  1.00  0.00     0.053 C 
BRANCH   8   9
ATOM      9  C   UNL     1       1.307  30.205  63.164  1.00  0.00     0.041 C 
ATOM     10  O   UNL     1       1.066  29.290  62.332  1.00  0.00    -0.550 OA
ATOM     11  O   UNL     1       2.269  31.164  62.873  1.00  0.00    -0.550 OA
ENDBRANCH   8   9
ENDBRANCH   7   8
ENDBRANCH   6   7
ENDBRANCH   5   6
ENDBRANCH   4   5
ENDBRANCH   3   4
ENDBRANCH   2   3
ENDBRANCH   1   2
BRANCH   1  12
ATOM     12  C   UNL     1      -4.530  30.376  58.745  1.00  0.00     0.000 C 
BRANCH  12  13
ATOM     13  C   UNL     1      -3.980  29.823  57.418  1.00  0.00    -0.000 C 
BRANCH  13  14
ATOM     14  C   UNL     1      -4.913  28.782  56.778  1.00  0.00    -0.000 C 
BRANCH  14  15
ATOM     15  C   UNL     1      -4.279  28.083  55.566  1.00  0.00    -0.000 C 
BRANCH  15  16
ATOM     16  C   UNL     1      -2.951  27.415  55.952  1.00  0.00    -0.000 C 
BRANCH  16  17
ATOM     17  C   UNL     1      -2.517  26.339  54.945  1.00  0.00    -0.000 C 
BRANCH  17  18
ATOM     18  C   UNL     1      -3.370  26.348  53.664  1.00  0.00    -0.000 C 
BRANCH  18  19
ATOM     19  C   UNL     1      -2.515  26.349  52.388  1.00  0.00    -0.003 C 
ATOM     20  C   UNL     1      -3.358  26.371  51.113  1.00  0.00     0.004 C 
ENDBRANCH  18  19
ENDBRANCH  17  18
ENDBRANCH  16  17
ENDBRANCH  15  16
ENDBRANCH  14  15
ENDBRANCH  13  14
ENDBRANCH  12  13
ENDBRANCH   1  12
TORSDOF 16
ENDMDL
MODEL 5
REMARK VINA RESULT:    -5.040      1.605      2.291
REMARK INTER + INTRA:         -10.643
REMARK INTER:                  -9.771
REMARK INTRA:                  -0.872
REMARK UNBOUND:                -0.890
REMARK SMILES CCCCCCCCCCCCCCCCCC(=O)[O-]
REMARK SMILES IDX 10 1 11 2 12 3 13 4 14 5 15 6 16 7 17 8 18 9 19 10 20 11
REMARK SMILES IDX 9 12 8 13 7 14 6 15 5 16 4 17 3 18 2 19 1 20
REMARK H PARENT
REMARK Flexibility Score: inf
ROOT
ATOM      1  C   UNL     1      -2.982  30.118  57.746  1.00  0.00     0.000 C 
ENDROOT
BRANCH   1   2
ATOM      2  C   UNL     1      -3.104  28.993  56.704  1.00  0.00     0.000 C 
BRANCH   2   3
ATOM      3  C   UNL     1      -4.558  28.718  56.286  1.00  0.00     0.000 C 
BRANCH   3   4
ATOM      4  C   UNL     1      -4.701  27.383  55.526  1.00  0.00     0.000 C 
BRANCH   4   5
ATOM      5  C   UNL     1      -3.534  27.092  54.567  1.00  0.00     0.000 C 
BRANCH   5   6
ATOM      6  C   UNL     1      -2.602  25.984  55.078  1.00  0.00     0.000 C 
BRANCH   6   7
ATOM      7  C   UNL     1      -1.132  26.396  54.941  1.00  0.00     0.006 C 
BRANCH   7   8
ATOM      8  C   UNL     1      -0.270  25.213  54.485  1.00  0.00     0.053 C 
BRANCH   8   9
ATOM      9  C   UNL     1      -0.079  25.242  53.002  1.00  0.00     0.041 C 
ATOM     10  O   UNL     1       0.906  24.655  52.479  1.00  0.00    -0.550 OA
ATOM     11  O   UNL     1      -0.962  25.954  52.200  1.00  0.00    -0.550 OA
ENDBRANCH   8   9
ENDBRANCH   7   8
ENDBRANCH   6   7
ENDBRANCH   5   6
ENDBRANCH   4   5
ENDBRANCH   3   4
ENDBRANCH   2   3
ENDBRANCH   1   2
BRANCH   1  12
ATOM     12  C   UNL     1      -4.287  30.383  58.525  1.00  0.00     0.000 C 
BRANCH  12  13
ATOM     13  C   UNL     1      -4.052  31.250  59.776  1.00  0.00    -0.000 C 
BRANCH  13  14
ATOM     14  C   UNL     1      -2.882  32.233  59.602  1.00  0.00    -0.000 C 
BRANCH  14  15
ATOM     15  C   UNL     1      -2.534  32.973  60.902  1.00  0.00    -0.000 C 
BRANCH  15  16
ATOM     16  C   UNL     1      -3.474  32.552  62.042  1.00  0.00    -0.000 C 
BRANCH  16  17
ATOM     17  C   UNL     1      -2.713  32.065  63.285  1.00  0.00    -0.000 C 
BRANCH  17  18
ATOM     18  C   UNL     1      -2.035  33.214  64.052  1.00  0.00    -0.000 C 
BRANCH  18  19
ATOM     19  C   UNL     1      -0.715  32.784  64.710  1.00  0.00    -0.003 C 
ATOM     20  C   UNL     1       0.513  33.305  63.965  1.00  0.00     0.004 C 
ENDBRANCH  18  19
ENDBRANCH  17  18
ENDBRANCH  16  17
ENDBRANCH  15  16
ENDBRANCH  14  15
ENDBRANCH  13  14
ENDBRANCH  12  13
ENDBRANCH   1  12
TORSDOF 16
ENDMDL
MODEL 6
REMARK VINA RESULT:    -5.036      3.930      6.560
REMARK INTER + INTRA:         -10.636
REMARK INTER:                  -9.153
REMARK INTRA:                  -1.483
REMARK UNBOUND:                -0.890
REMARK SMILES CCCCCCCCCCCCCCCCCC(=O)[O-]
REMARK SMILES IDX 10 1 11 2 12 3 13 4 14 5 15 6 16 7 17 8 18 9 19 10 20 11
REMARK SMILES IDX 9 12 8 13 7 14 6 15 5 16 4 17 3 18 2 19 1 20
REMARK H PARENT
REMARK Flexibility Score: inf
ROOT
ATOM      1  C   UNL     1      -0.604  27.104  56.814  1.00  0.00     0.000 C 
ENDROOT
BRANCH   1   2
ATOM      2  C   UNL     1      -0.606  26.334  55.482  1.00  0.00     0.000 C 
BRANCH   2   3
ATOM      3  C   UNL     1      -1.889  26.556  54.663  1.00  0.00     0.000 C 
BRANCH   3   4
ATOM      4  C   UNL     1      -3.162  26.364  55.513  1.00  0.00     0.000 C 
BRANCH   4   5
ATOM      5  C   UNL     1      -4.294  27.343  55.155  1.00  0.00     0.000 C 
BRANCH   5   6
ATOM      6  C   UNL     1      -4.577  28.363  56.267  1.00  0.00     0.000 C 
BRANCH   6   7
ATOM      7  C   UNL     1      -3.507  29.460  56.293  1.00  0.00     0.006 C 
BRANCH   7   8
ATOM      8  C   UNL     1      -3.094  29.791  57.731  1.00  0.00     0.053 C 
BRANCH   8   9
ATOM      9  C   UNL     1      -4.108  30.679  58.379  1.00  0.00     0.041 C 
ATOM     10  O   UNL     1      -4.913  30.210  59.227  1.00  0.00    -0.550 OA
ATOM     11  O   UNL     1      -4.194  32.017  58.015  1.00  0.00    -0.550 OA
ENDBRANCH   8   9
ENDBRANCH   7   8
ENDBRANCH   6   7
ENDBRANCH   5   6
ENDBRANCH   4   5
ENDBRANCH   3   4
ENDBRANCH   2   3
ENDBRANCH   1   2
BRANCH   1  12
ATOM     12  C   UNL     1       0.769  27.708  57.176  1.00  0.00     0.000 C 
BRANCH  12  13
ATOM     13  C   UNL     1       1.937  26.849  56.659  1.00  0.00    -0.000 C 
BRANCH  13  14
ATOM     14  C   UNL     1       2.958  26.514  57.758  1.00  0.00    -0.000 C 
BRANCH  14  15
ATOM     15  C   UNL     1       3.838  27.715  58.135  1.00  0.00    -0.000 C 
BRANCH  15  16
ATOM     16  C   UNL     1       3.896  27.895  59.659  1.00  0.00    -0.000 C 
BRANCH  16  17
ATOM     17  C   UNL     1       2.523  28.221  60.268  1.00  0.00    -0.000 C 
BRANCH  17  18
ATOM     18  C   UNL     1       2.260  29.734  60.361  1.00  0.00    -0.000 C 
BRANCH  18  19
ATOM     19  C   UNL     1       1.338  30.100  61.535  1.00  0.00    -0.003 C 
ATOM     20  C   UNL     1       0.608  31.425  61.321  1.00  0.00     0.004 C 
ENDBRANCH  18  19
ENDBRANCH  17  18
ENDBRANCH  16  17
ENDBRANCH  15  16
ENDBRANCH  14  15
ENDBRANCH  13  14
ENDBRANCH  12  13
ENDBRANCH   1  12
TORSDOF 16
ENDMDL
MODEL 7
REMARK VINA RESULT:    -4.976      2.113      3.171
REMARK INTER + INTRA:         -10.520
REMARK INTER:                  -9.449
REMARK INTRA:                  -1.071
REMARK UNBOUND:                -0.890
REMARK SMILES CCCCCCCCCCCCCCCCCC(=O)[O-]
REMARK SMILES IDX 10 1 11 2 12 3 13 4 14 5 15 6 16 7 17 8 18 9 19 10 20 11
REMARK SMILES IDX 9 12 8 13 7 14 6 15 5 16 4 17 3 18 2 19 1 20
REMARK H PARENT
REMARK Flexibility Score: inf
ROOT
ATOM      1  C   UNL     1      -2.730  30.143  57.849  1.00  0.00     0.000 C 
ENDROOT
BRANCH   1   2
ATOM      2  C   UNL     1      -2.794  28.849  57.021  1.00  0.00     0.000 C 
BRANCH   2   3
ATOM      3  C   UNL     1      -3.863  28.895  55.917  1.00  0.00     0.000 C 
BRANCH   3   4
ATOM      4  C   UNL     1      -4.500  27.512  55.666  1.00  0.00     0.000 C 
BRANCH   4   5
ATOM      5  C   UNL     1      -3.845  26.733  54.512  1.00  0.00     0.000 C 
BRANCH   5   6
ATOM      6  C   UNL     1      -2.643  25.891  54.965  1.00  0.00     0.000 C 
BRANCH   6   7
ATOM      7  C   UNL     1      -1.362  26.330  54.247  1.00  0.00     0.006 C 
BRANCH   7   8
ATOM      8  C   UNL     1      -0.167  25.476  54.683  1.00  0.00     0.053 C 
BRANCH   8   9
ATOM      9  C   UNL     1       0.457  24.803  53.503  1.00  0.00     0.041 C 
ATOM     10  O   UNL     1       1.366  23.946  53.669  1.00  0.00    -0.550 OA
ATOM     11  O   UNL     1       0.068  25.152  52.216  1.00  0.00    -0.550 OA
ENDBRANCH   8   9
ENDBRANCH   7   8
ENDBRANCH   6   7
ENDBRANCH   5   6
ENDBRANCH   4   5
ENDBRANCH   3   4
ENDBRANCH   2   3
ENDBRANCH   1   2
BRANCH   1  12
ATOM     12  C   UNL     1      -4.118  30.730  58.187  1.00  0.00     0.000 C 
BRANCH  12  13
ATOM     13  C   UNL     1      -4.216  31.182  59.655  1.00  0.00    -0.000 C 
BRANCH  13  14
ATOM     14  C   UNL     1      -3.175  32.254  60.015  1.00  0.00    -0.000 C 
BRANCH  14  15
ATOM     15  C   UNL     1      -3.175  32.601  61.511  1.00  0.00    -0.000 C 
BRANCH  15  16
ATOM     16  C   UNL     1      -1.740  32.692  62.053  1.00  0.00    -0.000 C 
BRANCH  16  17
ATOM     17  C   UNL     1      -0.698  32.162  61.056  1.00  0.00    -0.000 C 
BRANCH  17  18
ATOM     18  C   UNL     1       0.563  31.619  61.750  1.00  0.00    -0.000 C 
BRANCH  18  19
ATOM     19  C   UNL     1       1.633  31.156  60.748  1.00  0.00    -0.003 C 
ATOM     20  C   UNL     1       1.039  30.735  59.405  1.00  0.00     0.004 C 
ENDBRANCH  18  19
ENDBRANCH  17  18
ENDBRANCH  16  17
ENDBRANCH  15  16
ENDBRANCH  14  15
ENDBRANCH  13  14
ENDBRANCH  12  13
ENDBRANCH   1  12
TORSDOF 16
ENDMDL
MODEL 8
REMARK VINA RESULT:    -4.916      2.187      4.075
REMARK INTER + INTRA:         -10.404
REMARK INTER:                  -9.012
REMARK INTRA:                  -1.392
REMARK UNBOUND:                -0.890
REMARK SMILES CCCCCCCCCCCCCCCCCC(=O)[O-]
REMARK SMILES IDX 10 1 11 2 12 3 13 4 14 5 15 6 16 7 17 8 18 9 19 10 20 11
REMARK SMILES IDX 9 12 8 13 7 14 6 15 5 16 4 17 3 18 2 19 1 20
REMARK H PARENT
REMARK Flexibility Score: inf
ROOT
ATOM      1  C   UNL     1      -3.261  32.147  60.304  1.00  0.00     0.000 C 
ENDROOT
BRANCH   1   2
ATOM      2  C   UNL     1      -4.249  31.209  59.590  1.00  0.00     0.000 C 
BRANCH   2   3
ATOM      3  C   UNL     1      -4.089  31.222  58.060  1.00  0.00     0.000 C 
BRANCH   3   4
ATOM      4  C   UNL     1      -3.518  29.894  57.523  1.00  0.00     0.000 C 
BRANCH   4   5
ATOM      5  C   UNL     1      -4.586  28.962  56.925  1.00  0.00     0.000 C 
BRANCH   5   6
ATOM      6  C   UNL     1      -4.103  28.230  55.664  1.00  0.00     0.000 C 
BRANCH   6   7
ATOM      7  C   UNL     1      -3.458  26.886  56.022  1.00  0.00     0.006 C 
BRANCH   7   8
ATOM      8  C   UNL     1      -2.491  26.432  54.924  1.00  0.00     0.053 C 
BRANCH   8   9
ATOM      9  C   UNL     1      -1.089  26.388  55.442  1.00  0.00     0.041 C 
ATOM     10  O   UNL     1      -0.801  26.943  56.537  1.00  0.00    -0.550 OA
ATOM     11  O   UNL     1      -0.090  25.773  54.698  1.00  0.00    -0.550 OA
ENDBRANCH   8   9
ENDBRANCH   7   8
ENDBRANCH   6   7
ENDBRANCH   5   6
ENDBRANCH   4   5
ENDBRANCH   3   4
ENDBRANCH   2   3
ENDBRANCH   1   2
BRANCH   1  12
ATOM     12  C   UNL     1      -3.570  32.343  61.804  1.00  0.00     0.000 C 
BRANCH  12  13
ATOM     13  C   UNL     1      -2.897  33.605  62.375  1.00  0.00    -0.000 C 
BRANCH  13  14
ATOM     14  C   UNL     1      -2.121  33.325  63.672  1.00  0.00    -0.000 C 
BRANCH  14  15
ATOM     15  C   UNL     1      -1.344  32.001  63.623  1.00  0.00    -0.000 C 
BRANCH  15  16
ATOM     16  C   UNL     1       0.072  32.218  63.067  1.00  0.00    -0.000 C 
BRANCH  16  17
ATOM     17  C   UNL     1       0.180  31.867  61.575  1.00  0.00    -0.000 C 
BRANCH  17  18
ATOM     18  C   UNL     1       1.153  32.789  60.819  1.00  0.00    -0.000 C 
BRANCH  18  19
ATOM     19  C   UNL     1       1.048  34.254  61.272  1.00  0.00    -0.003 C 
ATOM     20  C   UNL     1      -0.115  34.993  60.612  1.00  0.00     0.004 C 
ENDBRANCH  18  19
ENDBRANCH  17  18
ENDBRANCH  16  17
ENDBRANCH  15  16
ENDBRANCH  14  15
ENDBRANCH  13  14
ENDBRANCH  12  13
ENDBRANCH   1  12
TORSDOF 16
ENDMDL
MODEL 9
REMARK VINA RESULT:    -4.866      2.368      3.242
REMARK INTER + INTRA:         -10.307
REMARK INTER:                  -9.414
REMARK INTRA:                  -0.893
REMARK UNBOUND:                -0.890
REMARK SMILES CCCCCCCCCCCCCCCCCC(=O)[O-]
REMARK SMILES IDX 10 1 11 2 12 3 13 4 14 5 15 6 16 7 17 8 18 9 19 10 20 11
REMARK SMILES IDX 9 12 8 13 7 14 6 15 5 16 4 17 3 18 2 19 1 20
REMARK H PARENT
REMARK Flexibility Score: inf
ROOT
ATOM      1  C   UNL     1      -3.777  28.149  56.209  1.00  0.00     0.000 C 
ENDROOT
BRANCH   1   2
ATOM      2  C   UNL     1      -4.086  27.134  55.095  1.00  0.00     0.000 C 
BRANCH   2   3
ATOM      3  C   UNL     1      -3.004  26.050  54.956  1.00  0.00     0.000 C 
BRANCH   3   4
ATOM      4  C   UNL     1      -1.594  26.653  54.788  1.00  0.00     0.000 C 
BRANCH   4   5
ATOM      5  C   UNL     1      -0.460  25.648  55.056  1.00  0.00     0.000 C 
BRANCH   5   6
ATOM      6  C   UNL     1      -0.078  24.831  53.814  1.00  0.00     0.000 C 
BRANCH   6   7
ATOM      7  C   UNL     1       0.108  25.740  52.593  1.00  0.00     0.006 C 
BRANCH   7   8
ATOM      8  C   UNL     1      -0.808  25.309  51.443  1.00  0.00     0.053 C 
BRANCH   8   9
ATOM      9  C   UNL     1      -1.685  26.442  51.016  1.00  0.00     0.041 C 
ATOM     10  O   UNL     1      -1.239  27.333  50.244  1.00  0.00    -0.550 OA
ATOM     11  O   UNL     1      -2.983  26.541  51.504  1.00  0.00    -0.550 OA
ENDBRANCH   8   9
ENDBRANCH   7   8
ENDBRANCH   6   7
ENDBRANCH   5   6
ENDBRANCH   4   5
ENDBRANCH   3   4
ENDBRANCH   2   3
ENDBRANCH   1   2
BRANCH   1  12
ATOM     12  C   UNL     1      -5.021  28.916  56.708  1.00  0.00     0.000 C 
BRANCH  12  13
ATOM     13  C   UNL     1      -4.796  29.547  58.094  1.00  0.00    -0.000 C 
BRANCH  13  14
ATOM     14  C   UNL     1      -3.568  30.471  58.132  1.00  0.00    -0.000 C 
BRANCH  14  15
ATOM     15  C   UNL     1      -3.886  31.855  58.717  1.00  0.00    -0.000 C 
BRANCH  15  16
ATOM     16  C   UNL     1      -3.015  32.142  59.949  1.00  0.00    -0.000 C 
BRANCH  16  17
ATOM     17  C   UNL     1      -3.809  32.074  61.263  1.00  0.00    -0.000 C 
BRANCH  17  18
ATOM     18  C   UNL     1      -3.177  32.921  62.381  1.00  0.00    -0.000 C 
BRANCH  18  19
ATOM     19  C   UNL     1      -1.864  32.319  62.906  1.00  0.00    -0.003 C 
ATOM     20  C   UNL     1      -1.380  32.988  64.192  1.00  0.00     0.004 C 
ENDBRANCH  18  19
ENDBRANCH  17  18
ENDBRANCH  16  17
ENDBRANCH  15  16
ENDBRANCH  14  15
ENDBRANCH  13  14
ENDBRANCH  12  13
ENDBRANCH   1  12
TORSDOF 16
ENDMDL
