MODEL 1
REMARK VINA RESULT:    -3.003      0.000      0.000
REMARK INTER + INTRA:          -3.308
REMARK INTER:                  -4.582
REMARK INTRA:                   1.275
REMARK UNBOUND:                 1.275
REMARK SMILES CC1=CCC[C@@H](C)C(=O)C[C@H](C(C)C)C(=O)C1
REMARK SMILES IDX 8 1 9 2 6 3 7 4 5 5 4 6 3 7 2 8 1 9 10 11 11 12 15 13 16 14
REMARK SMILES IDX 17 15 12 17 13 18 14 19
REMARK H PARENT
REMARK Flexibility Score: 70.00
ROOT
ATOM      1  C   UNL     1      12.241  15.890  24.974  1.00  0.00     0.136 C 
ATOM      2  O   UNL     1      11.398  16.755  24.784  1.00  0.00    -0.299 OA
ENDROOT
BRANCH   1   3
ATOM      3  C   UNL     1      11.806  14.463  25.215  1.00  0.00     0.053 C 
ATOM      4  C   UNL     1      10.965  13.932  24.048  1.00  0.00     0.016 C 
BRANCH   3   5
ATOM      5  C   UNL     1      11.029  14.394  26.553  1.00  0.00     0.015 C 
BRANCH   5   6
ATOM      6  C   UNL     1      11.812  13.840  27.759  1.00  0.00     0.028 C 
BRANCH   6   7
ATOM      7  C   UNL     1      13.323  13.929  27.703  1.00  0.00    -0.028 C 
ATOM      8  C   UNL     1      14.082  15.030  27.923  1.00  0.00    -0.070 CG0
ATOM      9  C   UNL     1      15.581  14.854  27.925  1.00  0.00     0.039 C 
ATOM     10  G   UNL     1      13.526  16.433  28.083  1.00  0.00     0.000 G0
ENDBRANCH   6   7
ENDBRANCH   5   6
ENDBRANCH   3   5
ENDBRANCH   1   3
BRANCH   1  11
ATOM     11  C   UNL     1      13.700  16.281  25.036  1.00  0.00     0.087 C 
BRANCH  11  12
ATOM     12  C   UNL     1      13.921  17.649  25.748  1.00  0.00     0.066 C 
BRANCH  12  13
ATOM     13  C   UNL     1      14.252  17.453  27.221  1.00  0.00     0.140 C 
ATOM     14  O   UNL     1      15.122  18.144  27.733  1.00  0.00    -0.299 OA
BRANCH  13  15
ATOM     15  C   UNL     1      13.517  16.450  28.088  1.00  0.00     0.106 CG0
ATOM     16  G   UNL     1      14.095  15.058  27.913  1.00  0.00     0.000 G0
ENDBRANCH  13  15
ENDBRANCH  12  13
BRANCH  12  17
ATOM     17  C   UNL     1      15.004  18.542  25.059  1.00  0.00    -0.006 C 
ATOM     18  C   UNL     1      16.449  18.214  25.476  1.00  0.00     0.008 C 
ATOM     19  C   UNL     1      14.878  18.502  23.526  1.00  0.00     0.008 C 
ENDBRANCH  12  17
ENDBRANCH  11  12
ENDBRANCH   1  11
TORSDOF 1
ENDMDL
MODEL 2
REMARK VINA RESULT:    -2.909      1.723      3.875
REMARK INTER + INTRA:          -3.166
REMARK INTER:                  -4.283
REMARK INTRA:                   1.118
REMARK UNBOUND:                 1.275
REMARK SMILES CC1=CCC[C@@H](C)C(=O)C[C@H](C(C)C)C(=O)C1
REMARK SMILES IDX 8 1 9 2 6 3 7 4 5 5 4 6 3 7 2 8 1 9 10 11 11 12 15 13 16 14
REMARK SMILES IDX 17 15 12 17 13 18 14 19
REMARK H PARENT
REMARK Flexibility Score: 70.00
ROOT
ATOM      1  C   UNL     1      16.413  17.973  27.528  1.00  0.00     0.136 C 
ATOM      2  O   UNL     1      17.600  18.198  27.716  1.00  0.00    -0.299 OA
ENDROOT
BRANCH   1   3
ATOM      3  C   UNL     1      15.783  16.734  28.123  1.00  0.00     0.053 C 
ATOM      4  C   UNL     1      16.270  15.466  27.411  1.00  0.00     0.016 C 
BRANCH   3   5
ATOM      5  C   UNL     1      14.243  16.869  28.051  1.00  0.00     0.015 C 
BRANCH   5   6
ATOM      6  C   UNL     1      13.457  15.552  27.901  1.00  0.00     0.028 C 
BRANCH   6   7
ATOM      7  C   UNL     1      12.380  15.507  26.837  1.00  0.00    -0.028 C 
ATOM      8  C   UNL     1      12.543  15.698  25.505  1.00  0.00    -0.070 CG0
ATOM      9  C   UNL     1      11.340  15.490  24.618  1.00  0.00     0.039 C 
ATOM     10  G   UNL     1      13.829  16.187  24.864  1.00  0.00     0.000 G0
ENDBRANCH   6   7
ENDBRANCH   5   6
ENDBRANCH   3   5
ENDBRANCH   1   3
BRANCH   1  11
ATOM     11  C   UNL     1      15.617  18.902  26.640  1.00  0.00     0.087 C 
BRANCH  11  12
ATOM     12  C   UNL     1      15.405  18.325  25.209  1.00  0.00     0.066 C 
BRANCH  12  13
ATOM     13  C   UNL     1      14.023  17.703  25.067  1.00  0.00     0.140 C 
ATOM     14  O   UNL     1      13.037  18.425  25.116  1.00  0.00    -0.299 OA
BRANCH  13  15
ATOM     15  C   UNL     1      13.826  16.218  24.833  1.00  0.00     0.106 CG0
ATOM     16  G   UNL     1      12.565  15.725  25.519  1.00  0.00     0.000 G0
ENDBRANCH  13  15
ENDBRANCH  12  13
BRANCH  12  17
ATOM     17  C   UNL     1      15.653  19.370  24.073  1.00  0.00    -0.006 C 
ATOM     18  C   UNL     1      17.138  19.585  23.729  1.00  0.00     0.008 C 
ATOM     19  C   UNL     1      14.866  19.017  22.799  1.00  0.00     0.008 C 
ENDBRANCH  12  17
ENDBRANCH  11  12
ENDBRANCH   1  11
TORSDOF 1
ENDMDL
MODEL 3
REMARK VINA RESULT:    -2.776      1.909      3.482
REMARK INTER + INTRA:          -2.962
REMARK INTER:                  -3.985
REMARK INTRA:                   1.023
REMARK UNBOUND:                 1.275
REMARK SMILES CC1=CCC[C@@H](C)C(=O)C[C@H](C(C)C)C(=O)C1
REMARK SMILES IDX 8 1 9 2 6 3 7 4 5 5 4 6 3 7 2 8 1 9 10 11 11 12 15 13 16 14
REMARK SMILES IDX 17 15 12 17 13 18 14 19
REMARK H PARENT
REMARK Flexibility Score: 70.00
ROOT
ATOM      1  C   UNL     1      15.403  14.524  27.391  1.00  0.00     0.136 C 
ATOM      2  O   UNL     1      16.251  13.989  26.690  1.00  0.00    -0.299 OA
ENDROOT
BRANCH   1   3
ATOM      3  C   UNL     1      14.388  13.672  28.118  1.00  0.00     0.053 C 
ATOM      4  C   UNL     1      14.542  12.190  27.754  1.00  0.00     0.016 C 
BRANCH   3   5
ATOM      5  C   UNL     1      12.967  14.193  27.790  1.00  0.00     0.015 C 
BRANCH   5   6
ATOM      6  C   UNL     1      12.183  13.391  26.732  1.00  0.00     0.028 C 
BRANCH   6   7
ATOM      7  C   UNL     1      11.445  14.183  25.673  1.00  0.00    -0.028 C 
ATOM      8  C   UNL     1      11.724  15.441  25.254  1.00  0.00    -0.070 CG0
ATOM      9  C   UNL     1      10.919  15.987  24.100  1.00  0.00     0.039 C 
ATOM     10  G   UNL     1      12.730  16.360  25.922  1.00  0.00     0.000 G0
ENDBRANCH   6   7
ENDBRANCH   5   6
ENDBRANCH   3   5
ENDBRANCH   1   3
BRANCH   1  11
ATOM     11  C   UNL     1      15.343  16.033  27.455  1.00  0.00     0.087 C 
BRANCH  11  12
ATOM     12  C   UNL     1      15.342  16.691  26.044  1.00  0.00     0.066 C 
BRANCH  12  13
ATOM     13  C   UNL     1      14.071  16.346  25.279  1.00  0.00     0.140 C 
ATOM     14  O   UNL     1      14.157  15.989  24.112  1.00  0.00    -0.299 OA
BRANCH  13  15
ATOM     15  C   UNL     1      12.701  16.399  25.924  1.00  0.00     0.106 CG0
ATOM     16  G   UNL     1      11.735  15.463  25.219  1.00  0.00     0.000 G0
ENDBRANCH  13  15
ENDBRANCH  12  13
BRANCH  12  17
ATOM     17  C   UNL     1      15.555  18.240  26.078  1.00  0.00    -0.006 C 
ATOM     18  C   UNL     1      16.329  18.741  27.310  1.00  0.00     0.008 C 
ATOM     19  C   UNL     1      16.231  18.745  24.792  1.00  0.00     0.008 C 
ENDBRANCH  12  17
ENDBRANCH  11  12
ENDBRANCH   1  11
TORSDOF 1
ENDMDL
MODEL 4
REMARK VINA RESULT:    -2.078      1.705      2.563
REMARK INTER + INTRA:          -1.896
REMARK INTER:                  -4.057
REMARK INTRA:                   2.160
REMARK UNBOUND:                 1.275
REMARK SMILES CC1=CCC[C@@H](C)C(=O)C[C@H](C(C)C)C(=O)C1
REMARK SMILES IDX 8 1 9 2 6 3 7 4 5 5 4 6 3 7 2 8 1 9 10 11 11 12 15 13 16 14
REMARK SMILES IDX 17 15 12 17 13 18 14 19
REMARK H PARENT
REMARK Flexibility Score: 70.00
ROOT
ATOM      1  C   UNL     1      13.111  15.769  25.119  1.00  0.00     0.136 C 
ATOM      2  O   UNL     1      12.065  15.999  24.530  1.00  0.00    -0.299 OA
ENDROOT
BRANCH   1   3
ATOM      3  C   UNL     1      13.128  14.764  26.249  1.00  0.00     0.053 C 
ATOM      4  C   UNL     1      12.007  15.042  27.257  1.00  0.00     0.016 C 
BRANCH   3   5
ATOM      5  C   UNL     1      14.520  14.792  26.926  1.00  0.00     0.015 C 
BRANCH   5   6
ATOM      6  C   UNL     1      14.682  15.785  28.093  1.00  0.00     0.028 C 
BRANCH   6   7
ATOM      7  C   UNL     1      15.935  16.635  28.109  1.00  0.00    -0.028 C 
ATOM      8  C   UNL     1      16.010  17.979  27.957  1.00  0.00    -0.070 CG0
ATOM      9  C   UNL     1      17.363  18.627  28.125  1.00  0.00     0.039 C 
ATOM     10  G   UNL     1      14.842  18.859  27.547  1.00  0.00     0.000 G0
ENDBRANCH   6   7
ENDBRANCH   5   6
ENDBRANCH   3   5
ENDBRANCH   1   3
BRANCH   1  11
ATOM     11  C   UNL     1      14.352  16.549  24.752  1.00  0.00     0.087 C 
BRANCH  11  12
ATOM     12  C   UNL     1      14.229  18.063  25.096  1.00  0.00     0.066 C 
BRANCH  12  13
ATOM     13  C   UNL     1      13.889  18.266  26.567  1.00  0.00     0.140 C 
ATOM     14  O   UNL     1      12.811  17.873  26.989  1.00  0.00    -0.299 OA
BRANCH  13  15
ATOM     15  C   UNL     1      14.858  18.911  27.538  1.00  0.00     0.106 CG0
ATOM     16  G   UNL     1      15.975  17.950  27.905  1.00  0.00     0.000 G0
ENDBRANCH  13  15
ENDBRANCH  12  13
BRANCH  12  17
ATOM     17  C   UNL     1      15.494  18.896  24.709  1.00  0.00    -0.006 C 
ATOM     18  C   UNL     1      16.822  18.137  24.875  1.00  0.00     0.008 C 
ATOM     19  C   UNL     1      15.385  19.457  23.280  1.00  0.00     0.008 C 
ENDBRANCH  12  17
ENDBRANCH  11  12
ENDBRANCH   1  11
TORSDOF 1
ENDMDL
MODEL 5
REMARK VINA RESULT:    -1.999      1.572      4.071
REMARK INTER + INTRA:          -1.777
REMARK INTER:                  -5.447
REMARK INTRA:                   3.670
REMARK UNBOUND:                 1.275
REMARK SMILES CC1=CCC[C@@H](C)C(=O)C[C@H](C(C)C)C(=O)C1
REMARK SMILES IDX 8 1 9 2 6 3 7 4 5 5 4 6 3 7 2 8 1 9 10 11 11 12 15 13 16 14
REMARK SMILES IDX 17 15 12 17 13 18 14 19
REMARK H PARENT
REMARK Flexibility Score: 70.00
ROOT
ATOM      1  C   UNL     1      13.971  18.247  26.187  1.00  0.00     0.136 C 
ATOM      2  O   UNL     1      13.336  18.156  27.228  1.00  0.00    -0.299 OA
ENDROOT
BRANCH   1   3
ATOM      3  C   UNL     1      15.370  18.821  26.211  1.00  0.00     0.053 C 
ATOM      4  C   UNL     1      16.024  18.751  24.826  1.00  0.00     0.016 C 
BRANCH   3   5
ATOM      5  C   UNL     1      16.205  18.064  27.273  1.00  0.00     0.015 C 
BRANCH   5   6
ATOM      6  C   UNL     1      15.440  17.026  28.118  1.00  0.00     0.028 C 
BRANCH   6   7
ATOM      7  C   UNL     1      15.939  15.597  28.075  1.00  0.00    -0.028 C 
ATOM      8  C   UNL     1      15.427  14.576  27.346  1.00  0.00    -0.070 CG0
ATOM      9  C   UNL     1      16.164  13.260  27.374  1.00  0.00     0.039 C 
ATOM     10  G   UNL     1      14.121  14.649  26.575  1.00  0.00     0.000 G0
ENDBRANCH   6   7
ENDBRANCH   5   6
ENDBRANCH   3   5
ENDBRANCH   1   3
BRANCH   1  11
ATOM     11  C   UNL     1      13.315  17.850  24.885  1.00  0.00     0.087 C 
BRANCH  11  12
ATOM     12  C   UNL     1      13.105  16.311  24.766  1.00  0.00     0.066 C 
BRANCH  12  13
ATOM     13  C   UNL     1      14.283  15.549  25.357  1.00  0.00     0.140 C 
ATOM     14  O   UNL     1      15.393  15.692  24.862  1.00  0.00    -0.299 OA
BRANCH  13  15
ATOM     15  C   UNL     1      14.136  14.642  26.562  1.00  0.00     0.106 CG0
ATOM     16  G   UNL     1      15.430  14.584  27.355  1.00  0.00     0.000 G0
ENDBRANCH  13  15
ENDBRANCH  12  13
BRANCH  12  17
ATOM     17  C   UNL     1      11.763  15.815  25.397  1.00  0.00    -0.006 C 
ATOM     18  C   UNL     1      11.015  14.773  24.545  1.00  0.00     0.008 C 
ATOM     19  C   UNL     1      11.974  15.274  26.821  1.00  0.00     0.008 C 
ENDBRANCH  12  17
ENDBRANCH  11  12
ENDBRANCH   1  11
TORSDOF 1
ENDMDL
MODEL 6
REMARK VINA RESULT:    -1.744      1.786      2.618
REMARK INTER + INTRA:          -1.387
REMARK INTER:                  -3.239
REMARK INTRA:                   1.852
REMARK UNBOUND:                 1.275
REMARK SMILES CC1=CCC[C@@H](C)C(=O)C[C@H](C(C)C)C(=O)C1
REMARK SMILES IDX 8 1 9 2 6 3 7 4 5 5 4 6 3 7 2 8 1 9 10 11 11 12 15 13 16 14
REMARK SMILES IDX 17 15 12 17 13 18 14 19
REMARK H PARENT
REMARK Flexibility Score: 70.00
ROOT
ATOM      1  C   UNL     1      12.416  16.035  25.942  1.00  0.00     0.136 C 
ATOM      2  O   UNL     1      11.665  15.469  25.160  1.00  0.00    -0.299 OA
ENDROOT
BRANCH   1   3
ATOM      3  C   UNL     1      12.086  16.049  27.418  1.00  0.00     0.053 C 
ATOM      4  C   UNL     1      12.362  17.426  28.036  1.00  0.00     0.016 C 
BRANCH   3   5
ATOM      5  C   UNL     1      12.898  14.937  28.125  1.00  0.00     0.015 C 
BRANCH   5   6
ATOM      6  C   UNL     1      12.865  13.549  27.455  1.00  0.00     0.028 C 
BRANCH   6   7
ATOM      7  C   UNL     1      14.147  12.743  27.470  1.00  0.00    -0.028 C 
ATOM      8  C   UNL     1      15.401  13.212  27.678  1.00  0.00    -0.070 CG0
ATOM      9  C   UNL     1      16.519  12.202  27.764  1.00  0.00     0.039 C 
ATOM     10  G   UNL     1      15.762  14.685  27.745  1.00  0.00     0.000 G0
ENDBRANCH   6   7
ENDBRANCH   5   6
ENDBRANCH   3   5
ENDBRANCH   1   3
BRANCH   1  11
ATOM     11  C   UNL     1      13.622  16.772  25.406  1.00  0.00     0.087 C 
BRANCH  11  12
ATOM     12  C   UNL     1      14.814  16.776  26.408  1.00  0.00     0.066 C 
BRANCH  12  13
ATOM     13  C   UNL     1      15.500  15.417  26.450  1.00  0.00     0.140 C 
ATOM     14  O   UNL     1      15.855  14.897  25.401  1.00  0.00    -0.299 OA
BRANCH  13  15
ATOM     15  C   UNL     1      15.788  14.697  27.752  1.00  0.00     0.106 CG0
ATOM     16  G   UNL     1      15.401  13.232  27.658  1.00  0.00     0.000 G0
ENDBRANCH  13  15
ENDBRANCH  12  13
BRANCH  12  17
ATOM     17  C   UNL     1      15.858  17.906  26.132  1.00  0.00    -0.006 C 
ATOM     18  C   UNL     1      15.499  18.817  24.944  1.00  0.00     0.008 C 
ATOM     19  C   UNL     1      16.115  18.757  27.387  1.00  0.00     0.008 C 
ENDBRANCH  12  17
ENDBRANCH  11  12
ENDBRANCH   1  11
TORSDOF 1
ENDMDL
MODEL 7
REMARK VINA RESULT:    -1.333      1.548      3.604
REMARK INTER + INTRA:          -0.760
REMARK INTER:                  -3.717
REMARK INTRA:                   2.957
REMARK UNBOUND:                 1.275
REMARK SMILES CC1=CCC[C@@H](C)C(=O)C[C@H](C(C)C)C(=O)C1
REMARK SMILES IDX 8 1 9 2 6 3 7 4 5 5 4 6 3 7 2 8 1 9 10 11 11 12 15 13 16 14
REMARK SMILES IDX 17 15 12 17 13 18 14 19
REMARK H PARENT
REMARK Flexibility Score: 70.00
ROOT
ATOM      1  C   UNL     1      15.210  14.937  27.425  1.00  0.00     0.136 C 
ATOM      2  O   UNL     1      14.853  15.905  28.080  1.00  0.00    -0.299 OA
ENDROOT
BRANCH   1   3
ATOM      3  C   UNL     1      15.507  13.630  28.123  1.00  0.00     0.053 C 
ATOM      4  C   UNL     1      17.008  13.316  28.103  1.00  0.00     0.016 C 
BRANCH   3   5
ATOM      5  C   UNL     1      14.682  12.503  27.453  1.00  0.00     0.015 C 
BRANCH   5   6
ATOM      6  C   UNL     1      13.291  12.234  28.060  1.00  0.00     0.028 C 
BRANCH   6   7
ATOM      7  C   UNL     1      12.316  13.393  28.094  1.00  0.00    -0.028 C 
ATOM      8  C   UNL     1      11.979  14.204  27.063  1.00  0.00    -0.070 CG0
ATOM      9  C   UNL     1      10.894  15.225  27.304  1.00  0.00     0.039 C 
ATOM     10  G   UNL     1      12.678  14.207  25.715  1.00  0.00     0.000 G0
ENDBRANCH   6   7
ENDBRANCH   5   6
ENDBRANCH   3   5
ENDBRANCH   1   3
BRANCH   1  11
ATOM     11  C   UNL     1      15.419  15.089  25.936  1.00  0.00     0.087 C 
BRANCH  11  12
ATOM     12  C   UNL     1      14.466  16.147  25.304  1.00  0.00     0.066 C 
BRANCH  12  13
ATOM     13  C   UNL     1      13.027  15.650  25.289  1.00  0.00     0.140 C 
ATOM     14  O   UNL     1      12.141  16.401  24.907  1.00  0.00    -0.299 OA
BRANCH  13  15
ATOM     15  C   UNL     1      12.656  14.239  25.703  1.00  0.00     0.106 CG0
ATOM     16  G   UNL     1      11.991  14.233  27.068  1.00  0.00     0.000 G0
ENDBRANCH  13  15
ENDBRANCH  12  13
BRANCH  12  17
ATOM     17  C   UNL     1      14.551  17.551  25.987  1.00  0.00    -0.006 C 
ATOM     18  C   UNL     1      15.377  18.584  25.200  1.00  0.00     0.008 C 
ATOM     19  C   UNL     1      13.154  18.117  26.292  1.00  0.00     0.008 C 
ENDBRANCH  12  17
ENDBRANCH  11  12
ENDBRANCH   1  11
TORSDOF 1
ENDMDL
MODEL 8
REMARK VINA RESULT:    -1.285      1.779      3.842
REMARK INTER + INTRA:          -0.686
REMARK INTER:                  -4.216
REMARK INTRA:                   3.530
REMARK UNBOUND:                 1.275
REMARK SMILES CC1=CCC[C@@H](C)C(=O)C[C@H](C(C)C)C(=O)C1
REMARK SMILES IDX 8 1 9 2 6 3 7 4 5 5 4 6 3 7 2 8 1 9 10 11 11 12 15 13 16 14
REMARK SMILES IDX 17 15 12 17 13 18 14 19
REMARK H PARENT
REMARK Flexibility Score: 70.00
ROOT
ATOM      1  C   UNL     1      12.632  14.485  26.297  1.00  0.00     0.136 C 
ATOM      2  O   UNL     1      12.224  13.833  27.247  1.00  0.00    -0.299 OA
ENDROOT
BRANCH   1   3
ATOM      3  C   UNL     1      11.670  15.353  25.518  1.00  0.00     0.053 C 
ATOM      4  C   UNL     1      10.882  14.529  24.493  1.00  0.00     0.016 C 
BRANCH   3   5
ATOM      5  C   UNL     1      12.462  16.497  24.839  1.00  0.00     0.015 C 
BRANCH   5   6
ATOM      6  C   UNL     1      12.871  17.669  25.753  1.00  0.00     0.028 C 
BRANCH   6   7
ATOM      7  C   UNL     1      14.229  18.294  25.510  1.00  0.00    -0.028 C 
ATOM      8  C   UNL     1      15.344  18.137  26.264  1.00  0.00    -0.070 CG0
ATOM      9  C   UNL     1      16.620  18.768  25.762  1.00  0.00     0.039 C 
ATOM     10  G   UNL     1      15.371  17.445  27.615  1.00  0.00     0.000 G0
ENDBRANCH   6   7
ENDBRANCH   5   6
ENDBRANCH   3   5
ENDBRANCH   1   3
BRANCH   1  11
ATOM     11  C   UNL     1      14.077  14.352  25.876  1.00  0.00     0.087 C 
BRANCH  11  12
ATOM     12  C   UNL     1      15.066  14.874  26.959  1.00  0.00     0.066 C 
BRANCH  12  13
ATOM     13  C   UNL     1      14.552  16.157  27.599  1.00  0.00     0.140 C 
ATOM     14  O   UNL     1      13.447  16.159  28.124  1.00  0.00    -0.299 OA
BRANCH  13  15
ATOM     15  C   UNL     1      15.377  17.427  27.638  1.00  0.00     0.106 CG0
ATOM     16  G   UNL     1      15.349  18.132  26.294  1.00  0.00     0.000 G0
ENDBRANCH  13  15
ENDBRANCH  12  13
BRANCH  12  17
ATOM     17  C   UNL     1      15.404  13.814  28.058  1.00  0.00    -0.006 C 
ATOM     18  C   UNL     1      14.412  12.639  28.125  1.00  0.00     0.008 C 
ATOM     19  C   UNL     1      16.839  13.281  27.906  1.00  0.00     0.008 C 
ENDBRANCH  12  17
ENDBRANCH  11  12
ENDBRANCH   1  11
TORSDOF 1
ENDMDL
MODEL 9
REMARK VINA RESULT:    -1.139      1.803      5.281
REMARK INTER + INTRA:          -0.463
REMARK INTER:                  -1.470
REMARK INTRA:                   1.007
REMARK UNBOUND:                 1.275
REMARK SMILES CC1=CCC[C@@H](C)C(=O)C[C@H](C(C)C)C(=O)C1
REMARK SMILES IDX 8 1 9 2 6 3 7 4 5 5 4 6 3 7 2 8 1 9 10 11 11 12 15 13 16 14
REMARK SMILES IDX 17 15 12 17 13 18 14 19
REMARK H PARENT
REMARK Flexibility Score: 70.00
ROOT
ATOM      1  C   UNL     1      14.405  17.644  28.000  1.00  0.00     0.136 C 
ATOM      2  O   UNL     1      13.461  18.416  27.920  1.00  0.00    -0.299 OA
ENDROOT
BRANCH   1   3
ATOM      3  C   UNL     1      15.810  18.190  28.117  1.00  0.00     0.053 C 
ATOM      4  C   UNL     1      15.812  19.723  28.125  1.00  0.00     0.016 C 
BRANCH   3   5
ATOM      5  C   UNL     1      16.666  17.627  26.956  1.00  0.00     0.015 C 
BRANCH   5   6
ATOM      6  C   UNL     1      16.832  18.549  25.733  1.00  0.00     0.028 C 
BRANCH   6   7
ATOM      7  C   UNL     1      15.761  18.481  24.665  1.00  0.00    -0.028 C 
ATOM      8  C   UNL     1      14.884  17.469  24.455  1.00  0.00    -0.070 CG0
ATOM      9  C   UNL     1      13.824  17.672  23.400  1.00  0.00     0.039 C 
ATOM     10  G   UNL     1      14.953  16.121  25.150  1.00  0.00     0.000 G0
ENDBRANCH   6   7
ENDBRANCH   5   6
ENDBRANCH   3   5
ENDBRANCH   1   3
BRANCH   1  11
ATOM     11  C   UNL     1      14.153  16.157  27.906  1.00  0.00     0.087 C 
BRANCH  11  12
ATOM     12  C   UNL     1      13.021  15.806  26.896  1.00  0.00     0.066 C 
BRANCH  12  13
ATOM     13  C   UNL     1      13.573  15.649  25.486  1.00  0.00     0.140 C 
ATOM     14  O   UNL     1      12.863  15.159  24.619  1.00  0.00    -0.299 OA
BRANCH  13  15
ATOM     15  C   UNL     1      14.966  16.112  25.108  1.00  0.00     0.106 CG0
ATOM     16  G   UNL     1      14.916  17.455  24.401  1.00  0.00     0.000 G0
ENDBRANCH  13  15
ENDBRANCH  12  13
BRANCH  12  17
ATOM     17  C   UNL     1      12.192  14.543  27.301  1.00  0.00    -0.006 C 
ATOM     18  C   UNL     1      12.999  13.483  28.073  1.00  0.00     0.008 C 
ATOM     19  C   UNL     1      10.932  14.925  28.096  1.00  0.00     0.008 C 
ENDBRANCH  12  17
ENDBRANCH  11  12
ENDBRANCH   1  11
TORSDOF 1
ENDMDL
