MODEL 1
REMARK VINA RESULT:    -7.619      0.000      0.000
REMARK INTER + INTRA:         -11.487
REMARK INTER:                 -10.292
REMARK INTRA:                  -1.195
REMARK UNBOUND:                -1.195
REMARK SMILES CC[C@@H](CC[C@@H](C)[C@@H]1CC[C@H]2[C@@H]3CC(=O)C4=CC(=O)CC[C@]4(C)[C@@H]3CC[C@@]21C)C(C)C
REMARK SMILES IDX 4 1 3 2 2 3 1 4 29 5 30 6 31 7 5 8 6 9 7 10 8 11 9 12 27 13
REMARK SMILES IDX 10 14 11 15 26 16 28 17 12 18 25 19 24 20 13 21 22 22 14 23
REMARK SMILES IDX 16 24 21 25 23 26 15 27 17 28 20 29 18 30 19 31
REMARK H PARENT
REMARK Flexibility Score: inf
ROOT
ATOM      1  C   UNL     1       6.498  28.585 -11.743  1.00  0.00     0.004 C 
ENDROOT
BRANCH   1   2
ATOM      2  C   UNL     1       5.698  29.712 -11.030  1.00  0.00    -0.009 C 
BRANCH   2   3
ATOM      3  C   UNL     1       6.177  30.007  -9.577  1.00  0.00     0.000 C 
ATOM      4  C   UNL     1       6.680  31.431  -9.302  1.00  0.00     0.004 C 
ENDBRANCH   2   3
BRANCH   2   5
ATOM      5  C   UNL     1       4.144  29.558 -11.137  1.00  0.00    -0.014 C 
ATOM      6  C   UNL     1       3.630  28.310 -10.397  1.00  0.00     0.007 C 
ATOM      7  C   UNL     1       3.347  30.796 -10.694  1.00  0.00     0.007 C 
ENDBRANCH   2   5
ENDBRANCH   1   2
BRANCH   1   8
ATOM      8  C   UNL     1       7.923  29.027 -12.140  1.00  0.00     0.004 C 
BRANCH   8   9
ATOM      9  C   UNL     1       9.015  28.048 -11.608  1.00  0.00    -0.011 C 
ATOM     10  C   UNL     1       9.583  27.262 -12.816  1.00  0.00     0.008 C 
BRANCH   9  11
ATOM     11  C   UNL     1      10.140  28.826 -10.838  1.00  0.00    -0.002 C 
ATOM     12  C   UNL     1       9.723  29.263  -9.408  1.00  0.00     0.005 C 
ATOM     13  C   UNL     1      10.739  30.134 -11.504  1.00  0.00    -0.026 C 
ATOM     14  C   UNL     1      10.239  30.678  -9.199  1.00  0.00     0.005 C 
ATOM     15  C   UNL     1      10.210  31.261 -10.601  1.00  0.00    -0.001 C 
ATOM     16  C   UNL     1      10.334  30.493 -12.971  1.00  0.00     0.007 C 
ATOM     17  C   UNL     1      12.294  29.986 -11.436  1.00  0.00     0.012 C 
ATOM     18  C   UNL     1      10.916  32.629 -10.830  1.00  0.00     0.004 C 
ATOM     19  C   UNL     1      10.183  32.014 -13.254  1.00  0.00     0.005 C 
ATOM     20  C   UNL     1      11.092  32.939 -12.385  1.00  0.00     0.003 C 
ATOM     21  C   UNL     1      10.187  33.745 -10.025  1.00  0.00     0.085 C 
ATOM     22  C   UNL     1      10.981  34.478 -12.755  1.00  0.00    -0.000 C 
ATOM     23  C   UNL     1       9.242  34.539 -10.864  1.00  0.00     0.159 C 
ATOM     24  C   UNL     1       9.717  35.081 -12.146  1.00  0.00     0.005 C 
ATOM     25  C   UNL     1      10.952  34.707 -14.304  1.00  0.00     0.020 C 
ATOM     26  C   UNL     1      12.226  35.216 -12.184  1.00  0.00     0.017 C 
ATOM     27  O   UNL     1       8.078  34.785 -10.444  1.00  0.00    -0.295 OA
ATOM     28  C   UNL     1       9.110  36.153 -12.693  1.00  0.00     0.055 C 
ATOM     29  C   UNL     1      10.769  36.183 -14.677  1.00  0.00     0.081 C 
ATOM     30  C   UNL     1       9.588  36.756 -13.949  1.00  0.00     0.156 C 
ATOM     31  O   UNL     1       9.018  37.782 -14.401  1.00  0.00    -0.295 OA
ENDBRANCH   9  11
ENDBRANCH   8   9
ENDBRANCH   1   8
TORSDOF 6
ENDMDL
MODEL 2
REMARK VINA RESULT:    -7.342      1.604      3.307
REMARK INTER + INTRA:         -11.112
REMARK INTER:                  -8.909
REMARK INTRA:                  -2.203
REMARK UNBOUND:                -1.195
REMARK SMILES CC[C@@H](CC[C@@H](C)[C@@H]1CC[C@H]2[C@@H]3CC(=O)C4=CC(=O)CC[C@]4(C)[C@@H]3CC[C@@]21C)C(C)C
REMARK SMILES IDX 4 1 3 2 2 3 1 4 29 5 30 6 31 7 5 8 6 9 7 10 8 11 9 12 27 13
REMARK SMILES IDX 10 14 11 15 26 16 28 17 12 18 25 19 24 20 13 21 22 22 14 23
REMARK SMILES IDX 16 24 21 25 23 26 15 27 17 28 20 29 18 30 19 31
REMARK H PARENT
REMARK Flexibility Score: inf
ROOT
ATOM      1  C   UNL     1       9.785  26.968 -12.133  1.00  0.00     0.004 C 
ENDROOT
BRANCH   1   2
ATOM      2  C   UNL     1       9.559  25.940 -10.988  1.00  0.00    -0.009 C 
BRANCH   2   3
ATOM      3  C   UNL     1       8.069  25.786 -10.560  1.00  0.00     0.000 C 
ATOM      4  C   UNL     1       7.667  26.458  -9.240  1.00  0.00     0.004 C 
ENDBRANCH   2   3
BRANCH   2   5
ATOM      5  C   UNL     1      10.525  26.118  -9.770  1.00  0.00    -0.014 C 
ATOM      6  C   UNL     1      11.147  24.783  -9.321  1.00  0.00     0.007 C 
ATOM      7  C   UNL     1      11.629  27.168  -9.977  1.00  0.00     0.007 C 
ENDBRANCH   2   5
ENDBRANCH   1   2
BRANCH   1   8
ATOM      8  C   UNL     1       8.468  27.404 -12.810  1.00  0.00     0.004 C 
BRANCH   8   9
ATOM      9  C   UNL     1       8.127  28.900 -12.534  1.00  0.00    -0.011 C 
ATOM     10  C   UNL     1       6.668  28.972 -12.017  1.00  0.00     0.008 C 
BRANCH   9  11
ATOM     11  C   UNL     1       9.138  29.528 -11.511  1.00  0.00    -0.002 C 
ATOM     12  C   UNL     1       8.472  29.996 -10.189  1.00  0.00     0.005 C 
ATOM     13  C   UNL     1      10.014  30.763 -11.983  1.00  0.00    -0.026 C 
ATOM     14  C   UNL     1       9.088  31.337  -9.821  1.00  0.00     0.005 C 
ATOM     15  C   UNL     1       9.433  31.935 -11.174  1.00  0.00    -0.001 C 
ATOM     16  C   UNL     1       9.982  31.184 -13.488  1.00  0.00     0.007 C 
ATOM     17  C   UNL     1      11.489  30.429 -11.587  1.00  0.00     0.012 C 
ATOM     18  C   UNL     1      10.323  33.212 -11.195  1.00  0.00     0.004 C 
ATOM     19  C   UNL     1      10.072  32.716 -13.741  1.00  0.00     0.005 C 
ATOM     20  C   UNL     1      10.869  33.516 -12.663  1.00  0.00     0.003 C 
ATOM     21  C   UNL     1       9.569  34.397 -10.525  1.00  0.00     0.085 C 
ATOM     22  C   UNL     1      11.018  35.061 -12.991  1.00  0.00    -0.000 C 
ATOM     23  C   UNL     1       8.927  35.308 -11.518  1.00  0.00     0.159 C 
ATOM     24  C   UNL     1       9.729  35.804 -12.646  1.00  0.00     0.005 C 
ATOM     25  C   UNL     1      11.355  35.309 -14.499  1.00  0.00     0.020 C 
ATOM     26  C   UNL     1      12.185  35.637 -12.138  1.00  0.00     0.017 C 
ATOM     27  O   UNL     1       7.735  35.687 -11.349  1.00  0.00    -0.295 OA
ATOM     28  C   UNL     1       9.383  36.947 -13.271  1.00  0.00     0.055 C 
ATOM     29  C   UNL     1      11.428  36.800 -14.848  1.00  0.00     0.081 C 
ATOM     30  C   UNL     1      10.190  37.502 -14.371  1.00  0.00     0.156 C 
ATOM     31  O   UNL     1       9.853  38.594 -14.897  1.00  0.00    -0.295 OA
ENDBRANCH   9  11
ENDBRANCH   8   9
ENDBRANCH   1   8
TORSDOF 6
ENDMDL
MODEL 3
REMARK VINA RESULT:    -7.263      1.621      3.730
REMARK INTER + INTRA:         -11.005
REMARK INTER:                  -8.915
REMARK INTRA:                  -2.090
REMARK UNBOUND:                -1.195
REMARK SMILES CC[C@@H](CC[C@@H](C)[C@@H]1CC[C@H]2[C@@H]3CC(=O)C4=CC(=O)CC[C@]4(C)[C@@H]3CC[C@@]21C)C(C)C
REMARK SMILES IDX 4 1 3 2 2 3 1 4 29 5 30 6 31 7 5 8 6 9 7 10 8 11 9 12 27 13
REMARK SMILES IDX 10 14 11 15 26 16 28 17 12 18 25 19 24 20 13 21 22 22 14 23
REMARK SMILES IDX 16 24 21 25 23 26 15 27 17 28 20 29 18 30 19 31
REMARK H PARENT
REMARK Flexibility Score: inf
ROOT
ATOM      1  C   UNL     1       9.525  26.990 -12.953  1.00  0.00     0.004 C 
ENDROOT
BRANCH   1   2
ATOM      2  C   UNL     1      10.057  26.967 -14.413  1.00  0.00    -0.009 C 
BRANCH   2   3
ATOM      3  C   UNL     1      11.361  27.795 -14.626  1.00  0.00     0.000 C 
ATOM      4  C   UNL     1      12.684  27.052 -14.396  1.00  0.00     0.004 C 
ENDBRANCH   2   3
BRANCH   2   5
ATOM      5  C   UNL     1       8.967  27.263 -15.496  1.00  0.00    -0.014 C 
ATOM      6  C   UNL     1       9.309  28.503 -16.343  1.00  0.00     0.007 C 
ATOM      7  C   UNL     1       8.638  26.075 -16.415  1.00  0.00     0.007 C 
ENDBRANCH   2   5
ENDBRANCH   1   2
BRANCH   1   8
ATOM      8  C   UNL     1       8.023  27.337 -12.872  1.00  0.00     0.004 C 
BRANCH   8   9
ATOM      9  C   UNL     1       7.780  28.842 -12.541  1.00  0.00    -0.011 C 
ATOM     10  C   UNL     1       6.353  28.979 -11.954  1.00  0.00     0.008 C 
BRANCH   9  11
ATOM     11  C   UNL     1       8.871  29.383 -11.552  1.00  0.00    -0.002 C 
ATOM     12  C   UNL     1       8.289  29.890 -10.205  1.00  0.00     0.005 C 
ATOM     13  C   UNL     1       9.821  30.552 -12.048  1.00  0.00    -0.026 C 
ATOM     14  C   UNL     1       9.018  31.177  -9.851  1.00  0.00     0.005 C 
ATOM     15  C   UNL     1       9.360  31.758 -11.213  1.00  0.00    -0.001 C 
ATOM     16  C   UNL     1       9.770  30.986 -13.549  1.00  0.00     0.007 C 
ATOM     17  C   UNL     1      11.280  30.103 -11.706  1.00  0.00     0.012 C 
ATOM     18  C   UNL     1      10.343  32.964 -11.258  1.00  0.00     0.004 C 
ATOM     19  C   UNL     1       9.966  32.508 -13.797  1.00  0.00     0.005 C 
ATOM     20  C   UNL     1      10.859  33.237 -12.743  1.00  0.00     0.003 C 
ATOM     21  C   UNL     1       9.705  34.197 -10.556  1.00  0.00     0.085 C 
ATOM     22  C   UNL     1      11.114  34.769 -13.068  1.00  0.00    -0.000 C 
ATOM     23  C   UNL     1       9.100  35.162 -11.521  1.00  0.00     0.159 C 
ATOM     24  C   UNL     1       9.898  35.604 -12.675  1.00  0.00     0.005 C 
ATOM     25  C   UNL     1      11.416  35.003 -14.586  1.00  0.00     0.020 C 
ATOM     26  C   UNL     1      12.350  35.248 -12.254  1.00  0.00     0.017 C 
ATOM     27  O   UNL     1       7.947  35.629 -11.308  1.00  0.00    -0.295 OA
ATOM     28  C   UNL     1       9.619  36.776 -13.280  1.00  0.00     0.055 C 
ATOM     29  C   UNL     1      11.590  36.487 -14.930  1.00  0.00     0.081 C 
ATOM     30  C   UNL     1      10.426  37.277 -14.406  1.00  0.00     0.156 C 
ATOM     31  O   UNL     1      10.155  38.395 -14.913  1.00  0.00    -0.295 OA
ENDBRANCH   9  11
ENDBRANCH   8   9
ENDBRANCH   1   8
TORSDOF 6
ENDMDL
MODEL 4
REMARK VINA RESULT:    -6.829      1.479      2.419
REMARK INTER + INTRA:         -10.419
REMARK INTER:                  -9.045
REMARK INTRA:                  -1.375
REMARK UNBOUND:                -1.195
REMARK SMILES CC[C@@H](CC[C@@H](C)[C@@H]1CC[C@H]2[C@@H]3CC(=O)C4=CC(=O)CC[C@]4(C)[C@@H]3CC[C@@]21C)C(C)C
REMARK SMILES IDX 4 1 3 2 2 3 1 4 29 5 30 6 31 7 5 8 6 9 7 10 8 11 9 12 27 13
REMARK SMILES IDX 10 14 11 15 26 16 28 17 12 18 25 19 24 20 13 21 22 22 14 23
REMARK SMILES IDX 16 24 21 25 23 26 15 27 17 28 20 29 18 30 19 31
REMARK H PARENT
REMARK Flexibility Score: inf
ROOT
ATOM      1  C   UNL     1       5.378  26.892 -11.693  1.00  0.00     0.004 C 
ENDROOT
BRANCH   1   2
ATOM      2  C   UNL     1       4.891  26.416 -10.296  1.00  0.00    -0.009 C 
BRANCH   2   3
ATOM      3  C   UNL     1       4.611  24.885 -10.211  1.00  0.00     0.000 C 
ATOM      4  C   UNL     1       3.297  24.469  -9.537  1.00  0.00     0.004 C 
ENDBRANCH   2   3
BRANCH   2   5
ATOM      5  C   UNL     1       3.731  27.278  -9.695  1.00  0.00    -0.014 C 
ATOM      6  C   UNL     1       4.258  28.471  -8.875  1.00  0.00     0.007 C 
ATOM      7  C   UNL     1       2.696  27.764 -10.722  1.00  0.00     0.007 C 
ENDBRANCH   2   5
ENDBRANCH   1   2
BRANCH   1   8
ATOM      8  C   UNL     1       6.896  27.169 -11.732  1.00  0.00     0.004 C 
BRANCH   8   9
ATOM      9  C   UNL     1       7.217  28.669 -12.010  1.00  0.00    -0.011 C 
ATOM     10  C   UNL     1       5.894  29.469 -11.911  1.00  0.00     0.008 C 
BRANCH   9  11
ATOM     11  C   UNL     1       8.299  29.207 -11.008  1.00  0.00    -0.002 C 
ATOM     12  C   UNL     1       7.695  29.867  -9.739  1.00  0.00     0.005 C 
ATOM     13  C   UNL     1       9.362  30.256 -11.543  1.00  0.00    -0.026 C 
ATOM     14  C   UNL     1       8.505  31.120  -9.450  1.00  0.00     0.005 C 
ATOM     15  C   UNL     1       8.957  31.559 -10.832  1.00  0.00    -0.001 C 
ATOM     16  C   UNL     1       9.417  30.567 -13.074  1.00  0.00     0.007 C 
ATOM     17  C   UNL     1      10.762  29.729 -11.087  1.00  0.00     0.012 C 
ATOM     18  C   UNL     1      10.034  32.679 -10.919  1.00  0.00     0.004 C 
ATOM     19  C   UNL     1       9.745  32.044 -13.430  1.00  0.00     0.005 C 
ATOM     20  C   UNL     1      10.642  32.788 -12.390  1.00  0.00     0.003 C 
ATOM     21  C   UNL     1       9.463  34.011 -10.352  1.00  0.00     0.085 C 
ATOM     22  C   UNL     1      11.032  34.265 -12.821  1.00  0.00    -0.000 C 
ATOM     23  C   UNL     1       8.984  34.935 -11.422  1.00  0.00     0.159 C 
ATOM     24  C   UNL     1       9.869  35.219 -12.562  1.00  0.00     0.005 C 
ATOM     25  C   UNL     1      11.425  34.348 -14.334  1.00  0.00     0.020 C 
ATOM     26  C   UNL     1      12.262  34.716 -11.981  1.00  0.00     0.017 C 
ATOM     27  O   UNL     1       7.862  35.503 -11.310  1.00  0.00    -0.295 OA
ATOM     28  C   UNL     1       9.713  36.354 -13.272  1.00  0.00     0.055 C 
ATOM     29  C   UNL     1      11.732  35.782 -14.784  1.00  0.00     0.081 C 
ATOM     30  C   UNL     1      10.611  36.698 -14.388  1.00  0.00     0.156 C 
ATOM     31  O   UNL     1      10.455  37.787 -14.997  1.00  0.00    -0.295 OA
ENDBRANCH   9  11
ENDBRANCH   8   9
ENDBRANCH   1   8
TORSDOF 6
ENDMDL
MODEL 5
REMARK VINA RESULT:    -6.776      2.116      3.426
REMARK INTER + INTRA:         -10.348
REMARK INTER:                  -9.151
REMARK INTRA:                  -1.197
REMARK UNBOUND:                -1.195
REMARK SMILES CC[C@@H](CC[C@@H](C)[C@@H]1CC[C@H]2[C@@H]3CC(=O)C4=CC(=O)CC[C@]4(C)[C@@H]3CC[C@@]21C)C(C)C
REMARK SMILES IDX 4 1 3 2 2 3 1 4 29 5 30 6 31 7 5 8 6 9 7 10 8 11 9 12 27 13
REMARK SMILES IDX 10 14 11 15 26 16 28 17 12 18 25 19 24 20 13 21 22 22 14 23
REMARK SMILES IDX 16 24 21 25 23 26 15 27 17 28 20 29 18 30 19 31
REMARK H PARENT
REMARK Flexibility Score: inf
ROOT
ATOM      1  C   UNL     1       8.045  26.372 -12.998  1.00  0.00     0.004 C 
ENDROOT
BRANCH   1   2
ATOM      2  C   UNL     1       7.493  25.514 -14.171  1.00  0.00    -0.009 C 
BRANCH   2   3
ATOM      3  C   UNL     1       7.631  26.189 -15.569  1.00  0.00     0.000 C 
ATOM      4  C   UNL     1       8.005  25.266 -16.736  1.00  0.00     0.004 C 
ENDBRANCH   2   3
BRANCH   2   5
ATOM      5  C   UNL     1       6.064  24.929 -13.918  1.00  0.00    -0.014 C 
ATOM      6  C   UNL     1       4.961  25.783 -14.571  1.00  0.00     0.007 C 
ATOM      7  C   UNL     1       5.895  23.455 -14.323  1.00  0.00     0.007 C 
ENDBRANCH   2   5
ENDBRANCH   1   2
BRANCH   1   8
ATOM      8  C   UNL     1       8.809  27.623 -13.483  1.00  0.00     0.004 C 
BRANCH   8   9
ATOM      9  C   UNL     1       8.248  28.937 -12.859  1.00  0.00    -0.011 C 
ATOM     10  C   UNL     1       6.877  28.615 -12.214  1.00  0.00     0.008 C 
BRANCH   9  11
ATOM     11  C   UNL     1       9.254  29.539 -11.816  1.00  0.00    -0.002 C 
ATOM     12  C   UNL     1       8.585  29.959 -10.480  1.00  0.00     0.005 C 
ATOM     13  C   UNL     1      10.121  30.796 -12.247  1.00  0.00    -0.026 C 
ATOM     14  C   UNL     1       9.190  31.291 -10.067  1.00  0.00     0.005 C 
ATOM     15  C   UNL     1       9.531  31.936 -11.400  1.00  0.00    -0.001 C 
ATOM     16  C   UNL     1      10.086  31.266 -13.738  1.00  0.00     0.007 C 
ATOM     17  C   UNL     1      11.598  30.460 -11.861  1.00  0.00     0.012 C 
ATOM     18  C   UNL     1      10.411  33.219 -11.379  1.00  0.00     0.004 C 
ATOM     19  C   UNL     1      10.163  32.805 -13.940  1.00  0.00     0.005 C 
ATOM     20  C   UNL     1      10.955  33.575 -12.836  1.00  0.00     0.003 C 
ATOM     21  C   UNL     1       9.648  34.376 -10.671  1.00  0.00     0.085 C 
ATOM     22  C   UNL     1      11.092  35.132 -13.113  1.00  0.00    -0.000 C 
ATOM     23  C   UNL     1       8.999  35.314 -11.633  1.00  0.00     0.159 C 
ATOM     24  C   UNL     1       9.797  35.853 -12.745  1.00  0.00     0.005 C 
ATOM     25  C   UNL     1      11.427  35.432 -14.613  1.00  0.00     0.020 C 
ATOM     26  C   UNL     1      12.254  35.689 -12.241  1.00  0.00     0.017 C 
ATOM     27  O   UNL     1       7.804  35.678 -11.453  1.00  0.00    -0.295 OA
ATOM     28  C   UNL     1       9.443  37.013 -13.332  1.00  0.00     0.055 C 
ATOM     29  C   UNL     1      11.489  36.934 -14.912  1.00  0.00     0.081 C 
ATOM     30  C   UNL     1      10.245  37.611 -14.413  1.00  0.00     0.156 C 
ATOM     31  O   UNL     1       9.900  38.717 -14.903  1.00  0.00    -0.295 OA
ENDBRANCH   9  11
ENDBRANCH   8   9
ENDBRANCH   1   8
TORSDOF 6
ENDMDL
MODEL 6
REMARK VINA RESULT:    -6.562      2.014      4.127
REMARK INTER + INTRA:         -10.058
REMARK INTER:                  -8.139
REMARK INTRA:                  -1.920
REMARK UNBOUND:                -1.195
REMARK SMILES CC[C@@H](CC[C@@H](C)[C@@H]1CC[C@H]2[C@@H]3CC(=O)C4=CC(=O)CC[C@]4(C)[C@@H]3CC[C@@]21C)C(C)C
REMARK SMILES IDX 4 1 3 2 2 3 1 4 29 5 30 6 31 7 5 8 6 9 7 10 8 11 9 12 27 13
REMARK SMILES IDX 10 14 11 15 26 16 28 17 12 18 25 19 24 20 13 21 22 22 14 23
REMARK SMILES IDX 16 24 21 25 23 26 15 27 17 28 20 29 18 30 19 31
REMARK H PARENT
REMARK Flexibility Score: inf
ROOT
ATOM      1  C   UNL     1       4.143  27.073 -11.824  1.00  0.00     0.004 C 
ENDROOT
BRANCH   1   2
ATOM      2  C   UNL     1       5.123  25.976 -11.322  1.00  0.00    -0.009 C 
BRANCH   2   3
ATOM      3  C   UNL     1       5.396  26.024  -9.789  1.00  0.00     0.000 C 
ATOM      4  C   UNL     1       6.850  25.803  -9.349  1.00  0.00     0.004 C 
ENDBRANCH   2   3
BRANCH   2   5
ATOM      5  C   UNL     1       6.434  25.853 -12.169  1.00  0.00    -0.014 C 
ATOM      6  C   UNL     1       6.659  24.421 -12.689  1.00  0.00     0.007 C 
ATOM      7  C   UNL     1       6.542  26.856 -13.329  1.00  0.00     0.007 C 
ENDBRANCH   2   5
ENDBRANCH   1   2
BRANCH   1   8
ATOM      8  C   UNL     1       3.769  28.087 -10.722  1.00  0.00     0.004 C 
BRANCH   8   9
ATOM      9  C   UNL     1       4.375  29.500 -10.987  1.00  0.00    -0.011 C 
ATOM     10  C   UNL     1       3.205  30.485 -11.227  1.00  0.00     0.008 C 
BRANCH   9  11
ATOM     11  C   UNL     1       5.285  29.955  -9.792  1.00  0.00    -0.002 C 
ATOM     12  C   UNL     1       4.838  31.297  -9.151  1.00  0.00     0.005 C 
ATOM     13  C   UNL     1       6.839  30.129 -10.055  1.00  0.00    -0.026 C 
ATOM     14  C   UNL     1       6.094  32.108  -8.875  1.00  0.00     0.005 C 
ATOM     15  C   UNL     1       7.040  31.652  -9.973  1.00  0.00    -0.001 C 
ATOM     16  C   UNL     1       7.434  29.661 -11.423  1.00  0.00     0.007 C 
ATOM     17  C   UNL     1       7.565  29.361  -8.903  1.00  0.00     0.012 C 
ATOM     18  C   UNL     1       8.533  32.080  -9.865  1.00  0.00     0.004 C 
ATOM     19  C   UNL     1       8.585  30.548 -11.973  1.00  0.00     0.005 C 
ATOM     20  C   UNL     1       9.448  31.259 -10.883  1.00  0.00     0.003 C 
ATOM     21  C   UNL     1       8.652  33.627  -9.989  1.00  0.00     0.085 C 
ATOM     22  C   UNL     1      10.667  32.088 -11.469  1.00  0.00    -0.000 C 
ATOM     23  C   UNL     1       9.034  34.069 -11.361  1.00  0.00     0.159 C 
ATOM     24  C   UNL     1      10.184  33.428 -12.018  1.00  0.00     0.005 C 
ATOM     25  C   UNL     1      11.406  31.313 -12.611  1.00  0.00     0.020 C 
ATOM     26  C   UNL     1      11.689  32.342 -10.323  1.00  0.00     0.017 C 
ATOM     27  O   UNL     1       8.413  35.017 -11.916  1.00  0.00    -0.295 OA
ATOM     28  C   UNL     1      10.849  34.073 -12.997  1.00  0.00     0.055 C 
ATOM     29  C   UNL     1      12.540  32.131 -13.239  1.00  0.00     0.081 C 
ATOM     30  C   UNL     1      12.036  33.486 -13.643  1.00  0.00     0.156 C 
ATOM     31  O   UNL     1      12.651  34.142 -14.522  1.00  0.00    -0.295 OA
ENDBRANCH   9  11
ENDBRANCH   8   9
ENDBRANCH   1   8
TORSDOF 6
ENDMDL
MODEL 7
REMARK VINA RESULT:    -6.265      1.693      3.619
REMARK INTER + INTRA:          -9.657
REMARK INTER:                  -8.159
REMARK INTRA:                  -1.498
REMARK UNBOUND:                -1.195
REMARK SMILES CC[C@@H](CC[C@@H](C)[C@@H]1CC[C@H]2[C@@H]3CC(=O)C4=CC(=O)CC[C@]4(C)[C@@H]3CC[C@@]21C)C(C)C
REMARK SMILES IDX 4 1 3 2 2 3 1 4 29 5 30 6 31 7 5 8 6 9 7 10 8 11 9 12 27 13
REMARK SMILES IDX 10 14 11 15 26 16 28 17 12 18 25 19 24 20 13 21 22 22 14 23
REMARK SMILES IDX 16 24 21 25 23 26 15 27 17 28 20 29 18 30 19 31
REMARK H PARENT
REMARK Flexibility Score: inf
ROOT
ATOM      1  C   UNL     1       7.244  26.948 -13.097  1.00  0.00     0.004 C 
ENDROOT
BRANCH   1   2
ATOM      2  C   UNL     1       8.471  26.052 -12.770  1.00  0.00    -0.009 C 
BRANCH   2   3
ATOM      3  C   UNL     1       9.546  26.012 -13.898  1.00  0.00     0.000 C 
ATOM      4  C   UNL     1      10.509  27.205 -13.962  1.00  0.00     0.004 C 
ENDBRANCH   2   3
BRANCH   2   5
ATOM      5  C   UNL     1       8.099  24.628 -12.236  1.00  0.00    -0.014 C 
ATOM      6  C   UNL     1       8.139  23.562 -13.346  1.00  0.00     0.007 C 
ATOM      7  C   UNL     1       8.928  24.160 -11.029  1.00  0.00     0.007 C 
ENDBRANCH   2   5
ENDBRANCH   1   2
BRANCH   1   8
ATOM      8  C   UNL     1       6.493  27.415 -11.832  1.00  0.00     0.004 C 
BRANCH   8   9
ATOM      9  C   UNL     1       6.444  28.970 -11.713  1.00  0.00    -0.011 C 
ATOM     10  C   UNL     1       4.997  29.376 -11.341  1.00  0.00     0.008 C 
BRANCH   9  11
ATOM     11  C   UNL     1       7.484  29.486 -10.658  1.00  0.00    -0.002 C 
ATOM     12  C   UNL     1       6.861  30.407  -9.574  1.00  0.00     0.005 C 
ATOM     13  C   UNL     1       8.755  30.277 -11.180  1.00  0.00    -0.026 C 
ATOM     14  C   UNL     1       7.829  31.557  -9.346  1.00  0.00     0.005 C 
ATOM     15  C   UNL     1       8.494  31.716 -10.702  1.00  0.00    -0.001 C 
ATOM     16  C   UNL     1       9.026  30.347 -12.718  1.00  0.00     0.007 C 
ATOM     17  C   UNL     1       9.993  29.625 -10.482  1.00  0.00     0.012 C 
ATOM     18  C   UNL     1       9.742  32.641 -10.793  1.00  0.00     0.004 C 
ATOM     19  C   UNL     1       9.627  31.690 -13.217  1.00  0.00     0.005 C 
ATOM     20  C   UNL     1      10.515  32.441 -12.174  1.00  0.00     0.003 C 
ATOM     21  C   UNL     1       9.338  34.112 -10.482  1.00  0.00     0.085 C 
ATOM     22  C   UNL     1      11.186  33.765 -12.737  1.00  0.00    -0.000 C 
ATOM     23  C   UNL     1       9.134  34.927 -11.715  1.00  0.00     0.159 C 
ATOM     24  C   UNL     1      10.172  34.907 -12.757  1.00  0.00     0.005 C 
ATOM     25  C   UNL     1      11.748  33.565 -14.185  1.00  0.00     0.020 C 
ATOM     26  C   UNL     1      12.374  34.151 -11.810  1.00  0.00     0.017 C 
ATOM     27  O   UNL     1       8.115  35.663 -11.825  1.00  0.00    -0.295 OA
ATOM     28  C   UNL     1      10.281  35.934 -13.623  1.00  0.00     0.055 C 
ATOM     29  C   UNL     1      12.332  34.855 -14.772  1.00  0.00     0.081 C 
ATOM     30  C   UNL     1      11.339  35.974 -14.647  1.00  0.00     0.156 C 
ATOM     31  O   UNL     1      11.429  36.973 -15.407  1.00  0.00    -0.295 OA
ENDBRANCH   9  11
ENDBRANCH   8   9
ENDBRANCH   1   8
TORSDOF 6
ENDMDL
MODEL 8
REMARK VINA RESULT:    -6.080      3.379      8.000
REMARK INTER + INTRA:          -9.407
REMARK INTER:                  -7.834
REMARK INTRA:                  -1.574
REMARK UNBOUND:                -1.195
REMARK SMILES CC[C@@H](CC[C@@H](C)[C@@H]1CC[C@H]2[C@@H]3CC(=O)C4=CC(=O)CC[C@]4(C)[C@@H]3CC[C@@]21C)C(C)C
REMARK SMILES IDX 4 1 3 2 2 3 1 4 29 5 30 6 31 7 5 8 6 9 7 10 8 11 9 12 27 13
REMARK SMILES IDX 10 14 11 15 26 16 28 17 12 18 25 19 24 20 13 21 22 22 14 23
REMARK SMILES IDX 16 24 21 25 23 26 15 27 17 28 20 29 18 30 19 31
REMARK H PARENT
REMARK Flexibility Score: inf
ROOT
ATOM      1  C   UNL     1      10.347  33.214 -12.648  1.00  0.00     0.004 C 
ENDROOT
BRANCH   1   2
ATOM      2  C   UNL     1      10.630  34.420 -11.708  1.00  0.00    -0.009 C 
BRANCH   2   3
ATOM      3  C   UNL     1       9.764  34.428 -10.412  1.00  0.00     0.000 C 
ATOM      4  C   UNL     1       8.351  35.011 -10.542  1.00  0.00     0.004 C 
ENDBRANCH   2   3
BRANCH   2   5
ATOM      5  C   UNL     1      10.650  35.806 -12.434  1.00  0.00    -0.014 C 
ATOM      6  C   UNL     1      11.990  36.540 -12.250  1.00  0.00     0.007 C 
ATOM      7  C   UNL     1      10.282  35.752 -13.926  1.00  0.00     0.007 C 
ENDBRANCH   2   5
ENDBRANCH   1   2
BRANCH   1   8
ATOM      8  C   UNL     1      11.549  32.252 -12.761  1.00  0.00     0.004 C 
BRANCH   8   9
ATOM      9  C   UNL     1      11.210  30.819 -12.248  1.00  0.00    -0.011 C 
ATOM     10  C   UNL     1      12.539  30.040 -12.088  1.00  0.00     0.008 C 
BRANCH   9  11
ATOM     11  C   UNL     1      10.404  30.878 -10.903  1.00  0.00    -0.002 C 
ATOM     12  C   UNL     1      11.121  30.174  -9.720  1.00  0.00     0.005 C 
ATOM     13  C   UNL     1       8.928  30.299 -10.885  1.00  0.00    -0.026 C 
ATOM     14  C   UNL     1      10.067  29.397  -8.948  1.00  0.00     0.005 C 
ATOM     15  C   UNL     1       9.060  29.031 -10.024  1.00  0.00    -0.001 C 
ATOM     16  C   UNL     1       8.264  29.871 -12.234  1.00  0.00     0.007 C 
ATOM     17  C   UNL     1       8.037  31.394 -10.213  1.00  0.00     0.012 C 
ATOM     18  C   UNL     1       7.694  28.441  -9.567  1.00  0.00     0.004 C 
ATOM     19  C   UNL     1       7.340  28.625 -12.142  1.00  0.00     0.005 C 
ATOM     20  C   UNL     1       6.637  28.427 -10.762  1.00  0.00     0.003 C 
ATOM     21  C   UNL     1       7.913  27.062  -8.878  1.00  0.00     0.085 C 
ATOM     22  C   UNL     1       5.634  27.198 -10.724  1.00  0.00    -0.000 C 
ATOM     23  C   UNL     1       7.655  25.913  -9.794  1.00  0.00     0.159 C 
ATOM     24  C   UNL     1       6.403  25.889 -10.565  1.00  0.00     0.005 C 
ATOM     25  C   UNL     1       4.760  27.115 -12.021  1.00  0.00     0.020 C 
ATOM     26  C   UNL     1       4.676  27.379  -9.511  1.00  0.00     0.017 C 
ATOM     27  O   UNL     1       8.475  24.955  -9.851  1.00  0.00    -0.295 OA
ATOM     28  C   UNL     1       5.907  24.718 -11.012  1.00  0.00     0.055 C 
ATOM     29  C   UNL     1       3.839  25.890 -12.032  1.00  0.00     0.081 C 
ATOM     30  C   UNL     1       4.630  24.647 -11.744  1.00  0.00     0.156 C 
ATOM     31  O   UNL     1       4.183  23.528 -12.104  1.00  0.00    -0.295 OA
ENDBRANCH   9  11
ENDBRANCH   8   9
ENDBRANCH   1   8
TORSDOF 6
ENDMDL
MODEL 9
REMARK VINA RESULT:    -6.034      4.898     10.448
REMARK INTER + INTRA:          -9.345
REMARK INTER:                  -7.504
REMARK INTRA:                  -1.840
REMARK UNBOUND:                -1.195
REMARK SMILES CC[C@@H](CC[C@@H](C)[C@@H]1CC[C@H]2[C@@H]3CC(=O)C4=CC(=O)CC[C@]4(C)[C@@H]3CC[C@@]21C)C(C)C
REMARK SMILES IDX 4 1 3 2 2 3 1 4 29 5 30 6 31 7 5 8 6 9 7 10 8 11 9 12 27 13
REMARK SMILES IDX 10 14 11 15 26 16 28 17 12 18 25 19 24 20 13 21 22 22 14 23
REMARK SMILES IDX 16 24 21 25 23 26 15 27 17 28 20 29 18 30 19 31
REMARK H PARENT
REMARK Flexibility Score: inf
ROOT
ATOM      1  C   UNL     1       7.360  30.350  -8.875  1.00  0.00     0.004 C 
ENDROOT
BRANCH   1   2
ATOM      2  C   UNL     1       8.700  30.910  -9.430  1.00  0.00    -0.009 C 
BRANCH   2   3
ATOM      3  C   UNL     1       8.535  32.177 -10.322  1.00  0.00     0.000 C 
ATOM      4  C   UNL     1       9.689  33.188 -10.286  1.00  0.00     0.004 C 
ENDBRANCH   2   3
BRANCH   2   5
ATOM      5  C   UNL     1       9.625  29.827 -10.079  1.00  0.00    -0.014 C 
ATOM      6  C   UNL     1       9.387  28.426  -9.486  1.00  0.00     0.007 C 
ATOM      7  C   UNL     1       9.558  29.765 -11.614  1.00  0.00     0.007 C 
ENDBRANCH   2   5
ENDBRANCH   1   2
BRANCH   1   8
ATOM      8  C   UNL     1       6.128  30.906  -9.620  1.00  0.00     0.004 C 
BRANCH   8   9
ATOM      9  C   UNL     1       5.067  29.802  -9.917  1.00  0.00    -0.011 C 
ATOM     10  C   UNL     1       4.048  30.377 -10.932  1.00  0.00     0.008 C 
BRANCH   9  11
ATOM     11  C   UNL     1       5.751  28.496 -10.456  1.00  0.00    -0.002 C 
ATOM     12  C   UNL     1       6.080  28.549 -11.972  1.00  0.00     0.005 C 
ATOM     13  C   UNL     1       4.997  27.116 -10.253  1.00  0.00    -0.026 C 
ATOM     14  C   UNL     1       5.722  27.195 -12.562  1.00  0.00     0.005 C 
ATOM     15  C   UNL     1       4.572  26.735 -11.681  1.00  0.00    -0.001 C 
ATOM     16  C   UNL     1       3.710  27.077  -9.366  1.00  0.00     0.007 C 
ATOM     17  C   UNL     1       6.050  26.127  -9.653  1.00  0.00     0.012 C 
ATOM     18  C   UNL     1       4.100  25.258 -11.821  1.00  0.00     0.004 C 
ATOM     19  C   UNL     1       2.609  26.094  -9.853  1.00  0.00     0.005 C 
ATOM     20  C   UNL     1       3.138  24.840 -10.619  1.00  0.00     0.003 C 
ATOM     21  C   UNL     1       3.506  25.021 -13.240  1.00  0.00     0.085 C 
ATOM     22  C   UNL     1       2.001  23.811 -11.028  1.00  0.00    -0.000 C 
ATOM     23  C   UNL     1       2.015  25.086 -13.259  1.00  0.00     0.159 C 
ATOM     24  C   UNL     1       1.259  24.306 -12.268  1.00  0.00     0.005 C 
ATOM     25  C   UNL     1       0.965  23.595  -9.874  1.00  0.00     0.020 C 
ATOM     26  C   UNL     1       2.664  22.439 -11.341  1.00  0.00     0.017 C 
ATOM     27  O   UNL     1       1.423  25.753 -14.152  1.00  0.00    -0.295 OA
ATOM     28  C   UNL     1      -0.016  23.948 -12.518  1.00  0.00     0.055 C 
ATOM     29  C   UNL     1      -0.181  22.662 -10.280  1.00  0.00     0.081 C 
ATOM     30  C   UNL     1      -0.789  23.124 -11.573  1.00  0.00     0.156 C 
ATOM     31  O   UNL     1      -1.962  22.778 -11.867  1.00  0.00    -0.295 OA
ENDBRANCH   9  11
ENDBRANCH   8   9
ENDBRANCH   1   8
TORSDOF 6
ENDMDL
