MODEL 1
REMARK VINA RESULT:    -4.446      0.000      0.000
REMARK INTER + INTRA:          -8.483
REMARK INTER:                  -7.045
REMARK INTRA:                  -1.438
REMARK UNBOUND:                -1.438
REMARK SMILES CCCCCCCCCCCC(=O)[O-]
REMARK SMILES IDX 7 1 8 2 9 3 10 4 11 5 12 6 13 7 14 8 6 9 5 10 4 11 3 12 2 13
REMARK SMILES IDX 1 14
REMARK H PARENT
REMARK Flexibility Score: inf
ROOT
ATOM      1  C   UNL     1      62.327  28.571  13.430  1.00  0.00     0.000 C 
ENDROOT
BRANCH   1   2
ATOM      2  C   UNL     1      60.806  28.631  13.662  1.00  0.00     0.000 C 
BRANCH   2   3
ATOM      3  C   UNL     1      59.954  27.885  12.619  1.00  0.00     0.000 C 
BRANCH   3   4
ATOM      4  C   UNL     1      59.228  28.780  11.596  1.00  0.00     0.006 C 
BRANCH   4   5
ATOM      5  C   UNL     1      60.166  29.447  10.573  1.00  0.00     0.053 C 
BRANCH   5   6
ATOM      6  C   UNL     1      61.017  28.452   9.843  1.00  0.00     0.041 C 
ATOM      7  O   UNL     1      60.481  27.553   9.141  1.00  0.00    -0.550 OA
ATOM      8  O   UNL     1      62.400  28.495   9.965  1.00  0.00    -0.550 OA
ENDBRANCH   5   6
ENDBRANCH   4   5
ENDBRANCH   3   4
ENDBRANCH   2   3
ENDBRANCH   1   2
BRANCH   1   9
ATOM      9  C   UNL     1      63.030  29.907  13.717  1.00  0.00     0.000 C 
BRANCH   9  10
ATOM     10  C   UNL     1      62.973  30.830  12.492  1.00  0.00    -0.000 C 
BRANCH  10  11
ATOM     11  C   UNL     1      62.272  32.170  12.783  1.00  0.00    -0.000 C 
BRANCH  11  12
ATOM     12  C   UNL     1      61.771  32.345  14.232  1.00  0.00    -0.000 C 
BRANCH  12  13
ATOM     13  C   UNL     1      60.315  32.828  14.363  1.00  0.00    -0.003 C 
ATOM     14  C   UNL     1      59.297  31.770  13.941  1.00  0.00     0.004 C 
ENDBRANCH  12  13
ENDBRANCH  11  12
ENDBRANCH  10  11
ENDBRANCH   9  10
ENDBRANCH   1   9
TORSDOF 10
ENDMDL
MODEL 2
REMARK VINA RESULT:    -4.438     13.286     14.626
REMARK INTER + INTRA:          -8.471
REMARK INTER:                  -6.946
REMARK INTRA:                  -1.525
REMARK UNBOUND:                -1.438
REMARK SMILES CCCCCCCCCCCC(=O)[O-]
REMARK SMILES IDX 7 1 8 2 9 3 10 4 11 5 12 6 13 7 14 8 6 9 5 10 4 11 3 12 2 13
REMARK SMILES IDX 1 14
REMARK H PARENT
REMARK Flexibility Score: inf
ROOT
ATOM      1  C   UNL     1      62.109  29.723  24.968  1.00  0.00     0.000 C 
ENDROOT
BRANCH   1   2
ATOM      2  C   UNL     1      61.438  28.366  24.688  1.00  0.00     0.000 C 
BRANCH   2   3
ATOM      3  C   UNL     1      60.479  27.870  25.786  1.00  0.00     0.000 C 
BRANCH   3   4
ATOM      4  C   UNL     1      61.079  26.854  26.778  1.00  0.00     0.006 C 
BRANCH   4   5
ATOM      5  C   UNL     1      61.932  27.494  27.889  1.00  0.00     0.053 C 
BRANCH   5   6
ATOM      6  C   UNL     1      61.273  28.696  28.495  1.00  0.00     0.041 C 
ATOM      7  O   UNL     1      60.190  28.576  29.125  1.00  0.00    -0.550 OA
ATOM      8  O   UNL     1      61.838  29.955  28.334  1.00  0.00    -0.550 OA
ENDBRANCH   5   6
ENDBRANCH   4   5
ENDBRANCH   3   4
ENDBRANCH   2   3
ENDBRANCH   1   2
BRANCH   1   9
ATOM      9  C   UNL     1      63.602  29.739  24.605  1.00  0.00     0.000 C 
BRANCH   9  10
ATOM     10  C   UNL     1      64.436  29.038  25.686  1.00  0.00    -0.000 C 
BRANCH  10  11
ATOM     11  C   UNL     1      65.237  27.841  25.142  1.00  0.00    -0.000 C 
BRANCH  11  12
ATOM     12  C   UNL     1      64.543  26.471  25.280  1.00  0.00    -0.000 C 
BRANCH  12  13
ATOM     13  C   UNL     1      64.450  25.654  23.978  1.00  0.00    -0.003 C 
ATOM     14  C   UNL     1      63.992  26.489  22.783  1.00  0.00     0.004 C 
ENDBRANCH  12  13
ENDBRANCH  11  12
ENDBRANCH  10  11
ENDBRANCH   9  10
ENDBRANCH   1   9
TORSDOF 10
ENDMDL
MODEL 3
REMARK VINA RESULT:    -4.427      2.746      4.951
REMARK INTER + INTRA:          -8.454
REMARK INTER:                  -6.887
REMARK INTRA:                  -1.567
REMARK UNBOUND:                -1.438
REMARK SMILES CCCCCCCCCCCC(=O)[O-]
REMARK SMILES IDX 7 1 8 2 9 3 10 4 11 5 12 6 13 7 14 8 6 9 5 10 4 11 3 12 2 13
REMARK SMILES IDX 1 14
REMARK H PARENT
REMARK Flexibility Score: inf
ROOT
ATOM      1  C   UNL     1      62.141  28.374  13.158  1.00  0.00     0.000 C 
ENDROOT
BRANCH   1   2
ATOM      2  C   UNL     1      63.020  29.638  13.159  1.00  0.00     0.000 C 
BRANCH   2   3
ATOM      3  C   UNL     1      62.423  30.852  13.894  1.00  0.00     0.000 C 
BRANCH   3   4
ATOM      4  C   UNL     1      62.036  32.044  12.996  1.00  0.00     0.006 C 
BRANCH   4   5
ATOM      5  C   UNL     1      60.517  32.232  12.828  1.00  0.00     0.053 C 
BRANCH   5   6
ATOM      6  C   UNL     1      59.808  32.370  14.142  1.00  0.00     0.041 C 
ATOM      7  O   UNL     1      58.836  31.619  14.420  1.00  0.00    -0.550 OA
ATOM      8  O   UNL     1      60.199  33.351  15.044  1.00  0.00    -0.550 OA
ENDBRANCH   5   6
ENDBRANCH   4   5
ENDBRANCH   3   4
ENDBRANCH   2   3
ENDBRANCH   1   2
BRANCH   1   9
ATOM      9  C   UNL     1      60.742  28.617  13.743  1.00  0.00     0.000 C 
BRANCH   9  10
ATOM     10  C   UNL     1      59.655  28.049  12.820  1.00  0.00    -0.000 C 
BRANCH  10  11
ATOM     11  C   UNL     1      59.274  29.011  11.679  1.00  0.00    -0.000 C 
BRANCH  11  12
ATOM     12  C   UNL     1      59.775  28.598  10.280  1.00  0.00    -0.000 C 
BRANCH  12  13
ATOM     13  C   UNL     1      60.913  29.467   9.714  1.00  0.00    -0.003 C 
ATOM     14  C   UNL     1      62.221  28.696   9.543  1.00  0.00     0.004 C 
ENDBRANCH  12  13
ENDBRANCH  11  12
ENDBRANCH  10  11
ENDBRANCH   9  10
ENDBRANCH   1   9
TORSDOF 10
ENDMDL
MODEL 4
REMARK VINA RESULT:    -4.309     12.630     13.960
REMARK INTER + INTRA:          -8.266
REMARK INTER:                  -6.761
REMARK INTRA:                  -1.505
REMARK UNBOUND:                -1.438
REMARK SMILES CCCCCCCCCCCC(=O)[O-]
REMARK SMILES IDX 7 1 8 2 9 3 10 4 11 5 12 6 13 7 14 8 6 9 5 10 4 11 3 12 2 13
REMARK SMILES IDX 1 14
REMARK H PARENT
REMARK Flexibility Score: inf
ROOT
ATOM      1  C   UNL     1      62.963  29.758  24.700  1.00  0.00     0.000 C 
ENDROOT
BRANCH   1   2
ATOM      2  C   UNL     1      63.818  29.857  25.977  1.00  0.00     0.000 C 
BRANCH   2   3
ATOM      3  C   UNL     1      64.946  28.814  26.093  1.00  0.00     0.000 C 
BRANCH   3   4
ATOM      4  C   UNL     1      65.148  27.917  24.857  1.00  0.00     0.006 C 
BRANCH   4   5
ATOM      5  C   UNL     1      64.838  26.429  25.108  1.00  0.00     0.053 C 
BRANCH   5   6
ATOM      6  C   UNL     1      64.619  25.668  23.835  1.00  0.00     0.041 C 
ATOM      7  O   UNL     1      65.589  25.414  23.073  1.00  0.00    -0.550 OA
ATOM      8  O   UNL     1      63.339  25.270  23.473  1.00  0.00    -0.550 OA
ENDBRANCH   5   6
ENDBRANCH   4   5
ENDBRANCH   3   4
ENDBRANCH   2   3
ENDBRANCH   1   2
BRANCH   1   9
ATOM      9  C   UNL     1      61.489  29.434  24.990  1.00  0.00     0.000 C 
BRANCH   9  10
ATOM     10  C   UNL     1      61.207  27.938  24.787  1.00  0.00    -0.000 C 
BRANCH  10  11
ATOM     11  C   UNL     1      60.701  27.245  26.065  1.00  0.00    -0.000 C 
BRANCH  11  12
ATOM     12  C   UNL     1      61.799  26.840  27.069  1.00  0.00    -0.000 C 
BRANCH  12  13
ATOM     13  C   UNL     1      61.704  27.520  28.447  1.00  0.00    -0.003 C 
ATOM     14  C   UNL     1      60.782  28.738  28.448  1.00  0.00     0.004 C 
ENDBRANCH  12  13
ENDBRANCH  11  12
ENDBRANCH  10  11
ENDBRANCH   9  10
ENDBRANCH   1   9
TORSDOF 10
ENDMDL
MODEL 5
REMARK VINA RESULT:    -4.294      2.773      4.853
REMARK INTER + INTRA:          -8.243
REMARK INTER:                  -6.780
REMARK INTRA:                  -1.463
REMARK UNBOUND:                -1.438
REMARK SMILES CCCCCCCCCCCC(=O)[O-]
REMARK SMILES IDX 7 1 8 2 9 3 10 4 11 5 12 6 13 7 14 8 6 9 5 10 4 11 3 12 2 13
REMARK SMILES IDX 1 14
REMARK H PARENT
REMARK Flexibility Score: inf
ROOT
ATOM      1  C   UNL     1      62.929  28.769  10.698  1.00  0.00     0.000 C 
ENDROOT
BRANCH   1   2
ATOM      2  C   UNL     1      63.278  29.641  11.918  1.00  0.00     0.000 C 
BRANCH   2   3
ATOM      3  C   UNL     1      62.868  31.121  11.805  1.00  0.00     0.000 C 
BRANCH   3   4
ATOM      4  C   UNL     1      62.125  31.697  13.026  1.00  0.00     0.006 C 
BRANCH   4   5
ATOM      5  C   UNL     1      60.649  32.043  12.754  1.00  0.00     0.053 C 
BRANCH   5   6
ATOM      6  C   UNL     1      59.881  32.302  14.015  1.00  0.00     0.041 C 
ATOM      7  O   UNL     1      58.868  31.608  14.294  1.00  0.00    -0.550 OA
ATOM      8  O   UNL     1      60.262  33.333  14.864  1.00  0.00    -0.550 OA
ENDBRANCH   5   6
ENDBRANCH   4   5
ENDBRANCH   3   4
ENDBRANCH   2   3
ENDBRANCH   1   2
BRANCH   1   9
ATOM      9  C   UNL     1      61.788  29.353   9.851  1.00  0.00     0.000 C 
BRANCH   9  10
ATOM     10  C   UNL     1      60.747  28.276   9.516  1.00  0.00    -0.000 C 
BRANCH  10  11
ATOM     11  C   UNL     1      59.329  28.646   9.989  1.00  0.00    -0.000 C 
BRANCH  11  12
ATOM     12  C   UNL     1      59.240  29.187  11.430  1.00  0.00    -0.000 C 
BRANCH  12  13
ATOM     13  C   UNL     1      59.268  28.113  12.532  1.00  0.00    -0.003 C 
ATOM     14  C   UNL     1      60.406  28.315  13.532  1.00  0.00     0.004 C 
ENDBRANCH  12  13
ENDBRANCH  11  12
ENDBRANCH  10  11
ENDBRANCH   9  10
ENDBRANCH   1   9
TORSDOF 10
ENDMDL
MODEL 6
REMARK VINA RESULT:    -4.263     12.894     14.262
REMARK INTER + INTRA:          -8.194
REMARK INTER:                  -6.843
REMARK INTRA:                  -1.352
REMARK UNBOUND:                -1.438
REMARK SMILES CCCCCCCCCCCC(=O)[O-]
REMARK SMILES IDX 7 1 8 2 9 3 10 4 11 5 12 6 13 7 14 8 6 9 5 10 4 11 3 12 2 13
REMARK SMILES IDX 1 14
REMARK H PARENT
REMARK Flexibility Score: inf
ROOT
ATOM      1  C   UNL     1      63.497  30.023  26.671  1.00  0.00     0.000 C 
ENDROOT
BRANCH   1   2
ATOM      2  C   UNL     1      64.974  29.711  26.974  1.00  0.00     0.000 C 
BRANCH   2   3
ATOM      3  C   UNL     1      65.718  28.931  25.874  1.00  0.00     0.000 C 
BRANCH   3   4
ATOM      4  C   UNL     1      64.826  28.087  24.942  1.00  0.00     0.006 C 
BRANCH   4   5
ATOM      5  C   UNL     1      64.797  26.588  25.295  1.00  0.00     0.053 C 
BRANCH   5   6
ATOM      6  C   UNL     1      64.547  25.723  24.096  1.00  0.00     0.041 C 
ATOM      7  O   UNL     1      65.494  25.422  23.323  1.00  0.00    -0.550 OA
ATOM      8  O   UNL     1      63.262  25.279  23.814  1.00  0.00    -0.550 OA
ENDBRANCH   5   6
ENDBRANCH   4   5
ENDBRANCH   3   4
ENDBRANCH   2   3
ENDBRANCH   1   2
BRANCH   1   9
ATOM      9  C   UNL     1      62.643  30.167  27.940  1.00  0.00     0.000 C 
BRANCH   9  10
ATOM     10  C   UNL     1      61.517  29.123  27.964  1.00  0.00    -0.000 C 
BRANCH  10  11
ATOM     11  C   UNL     1      62.006  27.707  27.609  1.00  0.00    -0.000 C 
BRANCH  11  12
ATOM     12  C   UNL     1      61.083  26.915  26.660  1.00  0.00    -0.000 C 
BRANCH  12  13
ATOM     13  C   UNL     1      60.353  27.764  25.604  1.00  0.00    -0.003 C 
ATOM     14  C   UNL     1      61.246  28.144  24.425  1.00  0.00     0.004 C 
ENDBRANCH  12  13
ENDBRANCH  11  12
ENDBRANCH  10  11
ENDBRANCH   9  10
ENDBRANCH   1   9
TORSDOF 10
ENDMDL
MODEL 7
REMARK VINA RESULT:    -4.166      1.341      2.679
REMARK INTER + INTRA:          -8.040
REMARK INTER:                  -6.778
REMARK INTRA:                  -1.262
REMARK UNBOUND:                -1.438
REMARK SMILES CCCCCCCCCCCC(=O)[O-]
REMARK SMILES IDX 7 1 8 2 9 3 10 4 11 5 12 6 13 7 14 8 6 9 5 10 4 11 3 12 2 13
REMARK SMILES IDX 1 14
REMARK H PARENT
REMARK Flexibility Score: inf
ROOT
ATOM      1  C   UNL     1      61.875  28.257  13.018  1.00  0.00     0.000 C 
ENDROOT
BRANCH   1   2
ATOM      2  C   UNL     1      63.053  29.196  12.698  1.00  0.00     0.000 C 
BRANCH   2   3
ATOM      3  C   UNL     1      63.010  29.851  11.306  1.00  0.00     0.000 C 
BRANCH   3   4
ATOM      4  C   UNL     1      63.066  28.877  10.113  1.00  0.00     0.006 C 
BRANCH   4   5
ATOM      5  C   UNL     1      62.194  29.303   8.917  1.00  0.00     0.053 C 
BRANCH   5   6
ATOM      6  C   UNL     1      60.783  28.812   9.035  1.00  0.00     0.041 C 
ATOM      7  O   UNL     1      59.832  29.632   9.136  1.00  0.00    -0.550 OA
ATOM      8  O   UNL     1      60.520  27.448   9.070  1.00  0.00    -0.550 OA
ENDBRANCH   5   6
ENDBRANCH   4   5
ENDBRANCH   3   4
ENDBRANCH   2   3
ENDBRANCH   1   2
BRANCH   1   9
ATOM      9  C   UNL     1      60.507  28.897  12.738  1.00  0.00     0.000 C 
BRANCH   9  10
ATOM     10  C   UNL     1      60.261  30.095  13.667  1.00  0.00    -0.000 C 
BRANCH  10  11
ATOM     11  C   UNL     1      59.771  31.346  12.914  1.00  0.00    -0.000 C 
BRANCH  11  12
ATOM     12  C   UNL     1      60.484  32.660  13.294  1.00  0.00    -0.000 C 
BRANCH  12  13
ATOM     13  C   UNL     1      61.639  32.506  14.301  1.00  0.00    -0.003 C 
ATOM     14  C   UNL     1      63.010  32.768  13.679  1.00  0.00     0.004 C 
ENDBRANCH  12  13
ENDBRANCH  11  12
ENDBRANCH  10  11
ENDBRANCH   9  10
ENDBRANCH   1   9
TORSDOF 10
ENDMDL
MODEL 8
REMARK VINA RESULT:    -4.140      1.870      2.605
REMARK INTER + INTRA:          -7.999
REMARK INTER:                  -6.740
REMARK INTRA:                  -1.260
REMARK UNBOUND:                -1.438
REMARK SMILES CCCCCCCCCCCC(=O)[O-]
REMARK SMILES IDX 7 1 8 2 9 3 10 4 11 5 12 6 13 7 14 8 6 9 5 10 4 11 3 12 2 13
REMARK SMILES IDX 1 14
REMARK H PARENT
REMARK Flexibility Score: inf
ROOT
ATOM      1  C   UNL     1      63.127  29.730  11.602  1.00  0.00     0.000 C 
ENDROOT
BRANCH   1   2
ATOM      2  C   UNL     1      62.288  28.730  10.785  1.00  0.00     0.000 C 
BRANCH   2   3
ATOM      3  C   UNL     1      61.131  29.350   9.980  1.00  0.00     0.000 C 
BRANCH   3   4
ATOM      4  C   UNL     1      59.715  28.954  10.442  1.00  0.00     0.006 C 
BRANCH   4   5
ATOM      5  C   UNL     1      59.416  29.306  11.911  1.00  0.00     0.053 C 
BRANCH   5   6
ATOM      6  C   UNL     1      59.164  28.090  12.751  1.00  0.00     0.041 C 
ATOM      7  O   UNL     1      60.111  27.547  13.379  1.00  0.00    -0.550 OA
ATOM      8  O   UNL     1      57.892  27.537  12.812  1.00  0.00    -0.550 OA
ENDBRANCH   5   6
ENDBRANCH   4   5
ENDBRANCH   3   4
ENDBRANCH   2   3
ENDBRANCH   1   2
BRANCH   1   9
ATOM      9  C   UNL     1      62.976  29.539  13.119  1.00  0.00     0.000 C 
BRANCH   9  10
ATOM     10  C   UNL     1      62.956  30.893  13.843  1.00  0.00    -0.000 C 
BRANCH  10  11
ATOM     11  C   UNL     1      62.514  32.052  12.931  1.00  0.00    -0.000 C 
BRANCH  11  12
ATOM     12  C   UNL     1      61.013  32.402  12.998  1.00  0.00    -0.000 C 
BRANCH  12  13
ATOM     13  C   UNL     1      60.464  32.645  14.416  1.00  0.00    -0.003 C 
ATOM     14  C   UNL     1      59.276  31.747  14.756  1.00  0.00     0.004 C 
ENDBRANCH  12  13
ENDBRANCH  11  12
ENDBRANCH  10  11
ENDBRANCH   9  10
ENDBRANCH   1   9
TORSDOF 10
ENDMDL
MODEL 9
REMARK VINA RESULT:    -4.090      1.635      2.778
REMARK INTER + INTRA:          -7.919
REMARK INTER:                  -6.815
REMARK INTRA:                  -1.104
REMARK UNBOUND:                -1.438
REMARK SMILES CCCCCCCCCCCC(=O)[O-]
REMARK SMILES IDX 7 1 8 2 9 3 10 4 11 5 12 6 13 7 14 8 6 9 5 10 4 11 3 12 2 13
REMARK SMILES IDX 1 14
REMARK H PARENT
REMARK Flexibility Score: inf
ROOT
ATOM      1  C   UNL     1      62.509  31.059  12.475  1.00  0.00     0.000 C 
ENDROOT
BRANCH   1   2
ATOM      2  C   UNL     1      62.982  30.003  13.489  1.00  0.00     0.000 C 
BRANCH   2   3
ATOM      3  C   UNL     1      62.254  28.648  13.413  1.00  0.00     0.000 C 
BRANCH   3   4
ATOM      4  C   UNL     1      60.759  28.678  13.783  1.00  0.00     0.006 C 
BRANCH   4   5
ATOM      5  C   UNL     1      59.847  27.978  12.758  1.00  0.00     0.053 C 
BRANCH   5   6
ATOM      6  C   UNL     1      59.993  28.550  11.379  1.00  0.00     0.041 C 
ATOM      7  O   UNL     1      60.639  27.923  10.498  1.00  0.00    -0.550 OA
ATOM      8  O   UNL     1      59.446  29.790  11.078  1.00  0.00    -0.550 OA
ENDBRANCH   5   6
ENDBRANCH   4   5
ENDBRANCH   3   4
ENDBRANCH   2   3
ENDBRANCH   1   2
BRANCH   1   9
ATOM      9  C   UNL     1      62.083  32.378  13.138  1.00  0.00     0.000 C 
BRANCH   9  10
ATOM     10  C   UNL     1      60.560  32.434  13.320  1.00  0.00    -0.000 C 
BRANCH  10  11
ATOM     11  C   UNL     1      60.128  32.315  14.793  1.00  0.00    -0.000 C 
BRANCH  11  12
ATOM     12  C   UNL     1      61.278  32.374  15.819  1.00  0.00    -0.000 C 
BRANCH  12  13
ATOM     13  C   UNL     1      61.582  33.777  16.377  1.00  0.00    -0.003 C 
ATOM     14  C   UNL     1      60.927  34.033  17.733  1.00  0.00     0.004 C 
ENDBRANCH  12  13
ENDBRANCH  11  12
ENDBRANCH  10  11
ENDBRANCH   9  10
ENDBRANCH   1   9
TORSDOF 10
ENDMDL
