MODEL 1
REMARK VINA RESULT:    -4.746      0.000      0.000
REMARK INTER + INTRA:          -5.521
REMARK INTER:                  -5.301
REMARK INTRA:                  -0.220
REMARK UNBOUND:                -0.220
REMARK SMILES O=C([O-])c1ccccc1C(=O)[O-]
REMARK SMILES IDX 4 1 9 2 5 3 8 4 6 5 7 6 2 7 1 8 3 9 10 10 11 11 12 12
REMARK H PARENT
REMARK Flexibility Score: inf
ROOT
ATOM      1  C   UNL     1       4.863 -23.282  24.346  1.00  0.00     0.006 A 
ATOM      2  C   UNL     1       3.543 -22.778  24.536  1.00  0.00     0.006 A 
ATOM      3  C   UNL     1       5.043 -24.660  24.126  1.00  0.00     0.010 A 
ATOM      4  C   UNL     1       2.465 -23.682  24.565  1.00  0.00     0.010 A 
ATOM      5  C   UNL     1       3.955 -25.534  24.137  1.00  0.00     0.001 A 
ATOM      6  C   UNL     1       2.671 -25.047  24.367  1.00  0.00     0.001 A 
ENDROOT
BRANCH   1   7
ATOM      7  C   UNL     1       6.072 -22.432  24.435  1.00  0.00     0.072 C 
ATOM      8  O   UNL     1       6.617 -21.974  23.397  1.00  0.00    -0.545 OA
ATOM      9  O   UNL     1       6.581 -22.073  25.677  1.00  0.00    -0.545 OA
ENDBRANCH   1   7
BRANCH   2  10
ATOM     10  C   UNL     1       3.238 -21.333  24.639  1.00  0.00     0.072 C 
ATOM     11  O   UNL     1       2.831 -20.687  23.638  1.00  0.00    -0.545 OA
ATOM     12  O   UNL     1       3.333 -20.686  25.865  1.00  0.00    -0.545 OA
ENDBRANCH   2  10
TORSDOF 2
ENDMDL
MODEL 2
REMARK VINA RESULT:    -4.746      4.277      5.767
REMARK INTER + INTRA:          -5.521
REMARK INTER:                  -5.298
REMARK INTRA:                  -0.222
REMARK UNBOUND:                -0.220
REMARK SMILES O=C([O-])c1ccccc1C(=O)[O-]
REMARK SMILES IDX 4 1 9 2 5 3 8 4 6 5 7 6 2 7 1 8 3 9 10 10 11 11 12 12
REMARK H PARENT
REMARK Flexibility Score: inf
ROOT
ATOM      1  C   UNL     1       1.939 -25.877  24.286  1.00  0.00     0.006 A 
ATOM      2  C   UNL     1       3.225 -26.374  24.646  1.00  0.00     0.006 A 
ATOM      3  C   UNL     1       1.784 -24.502  24.032  1.00  0.00     0.010 A 
ATOM      4  C   UNL     1       4.289 -25.467  24.802  1.00  0.00     0.010 A 
ATOM      5  C   UNL     1       2.860 -23.624  24.171  1.00  0.00     0.001 A 
ATOM      6  C   UNL     1       4.106 -24.104  24.567  1.00  0.00     0.001 A 
ENDROOT
BRANCH   1   7
ATOM      7  C   UNL     1       0.730 -26.731  24.229  1.00  0.00     0.072 C 
ATOM      8  O   UNL     1       0.321 -27.198  23.134  1.00  0.00    -0.545 OA
ATOM      9  O   UNL     1       0.070 -27.081  25.401  1.00  0.00    -0.545 OA
ENDBRANCH   1   7
BRANCH   2  10
ATOM     10  C   UNL     1       3.518 -27.817  24.800  1.00  0.00     0.072 C 
ATOM     11  O   UNL     1       3.850 -28.518  23.807  1.00  0.00    -0.545 OA
ATOM     12  O   UNL     1       3.496 -28.402  26.060  1.00  0.00    -0.545 OA
ENDBRANCH   2  10
TORSDOF 2
ENDMDL
MODEL 3
REMARK VINA RESULT:    -4.743      8.507      9.915
REMARK INTER + INTRA:          -5.517
REMARK INTER:                  -5.348
REMARK INTRA:                  -0.169
REMARK UNBOUND:                -0.220
REMARK SMILES O=C([O-])c1ccccc1C(=O)[O-]
REMARK SMILES IDX 4 1 9 2 5 3 8 4 6 5 7 6 2 7 1 8 3 9 10 10 11 11 12 12
REMARK H PARENT
REMARK Flexibility Score: inf
ROOT
ATOM      1  C   UNL     1      10.348 -26.722  31.400  1.00  0.00     0.006 A 
ATOM      2  C   UNL     1      10.188 -25.992  30.187  1.00  0.00     0.006 A 
ATOM      3  C   UNL     1      11.617 -26.774  32.004  1.00  0.00     0.010 A 
ATOM      4  C   UNL     1      11.317 -25.400  29.592  1.00  0.00     0.010 A 
ATOM      5  C   UNL     1      12.719 -26.160  31.406  1.00  0.00     0.001 A 
ATOM      6  C   UNL     1      12.571 -25.485  30.197  1.00  0.00     0.001 A 
ENDROOT
BRANCH   1   7
ATOM      7  C   UNL     1       9.250 -27.492  32.030  1.00  0.00     0.072 C 
ATOM      8  O   UNL     1       9.240 -28.750  31.990  1.00  0.00    -0.545 OA
ATOM      9  O   UNL     1       8.251 -26.831  32.733  1.00  0.00    -0.545 OA
ENDBRANCH   1   7
BRANCH   2  10
ATOM     10  C   UNL     1       8.871 -25.765  29.549  1.00  0.00     0.072 C 
ATOM     11  O   UNL     1       8.090 -24.875  29.979  1.00  0.00    -0.545 OA
ATOM     12  O   UNL     1       8.509 -26.490  28.420  1.00  0.00    -0.545 OA
ENDBRANCH   2  10
TORSDOF 2
ENDMDL
MODEL 4
REMARK VINA RESULT:    -4.733      4.264      5.022
REMARK INTER + INTRA:          -5.506
REMARK INTER:                  -5.288
REMARK INTRA:                  -0.218
REMARK UNBOUND:                -0.220
REMARK SMILES O=C([O-])c1ccccc1C(=O)[O-]
REMARK SMILES IDX 4 1 9 2 5 3 8 4 6 5 7 6 2 7 1 8 3 9 10 10 11 11 12 12
REMARK H PARENT
REMARK Flexibility Score: inf
ROOT
ATOM      1  C   UNL     1       3.247 -26.364  24.643  1.00  0.00     0.006 A 
ATOM      2  C   UNL     1       1.967 -25.869  24.262  1.00  0.00     0.006 A 
ATOM      3  C   UNL     1       4.312 -25.458  24.799  1.00  0.00     0.010 A 
ATOM      4  C   UNL     1       1.819 -24.496  23.988  1.00  0.00     0.010 A 
ATOM      5  C   UNL     1       4.135 -24.097  24.544  1.00  0.00     0.001 A 
ATOM      6  C   UNL     1       2.895 -23.620  24.128  1.00  0.00     0.001 A 
ENDROOT
BRANCH   1   7
ATOM      7  C   UNL     1       3.535 -27.806  24.820  1.00  0.00     0.072 C 
ATOM      8  O   UNL     1       3.816 -28.533  23.831  1.00  0.00    -0.545 OA
ATOM      9  O   UNL     1       3.563 -28.360  26.094  1.00  0.00    -0.545 OA
ENDBRANCH   1   7
BRANCH   2  10
ATOM     10  C   UNL     1       0.756 -26.720  24.203  1.00  0.00     0.072 C 
ATOM     11  O   UNL     1       0.337 -27.169  23.104  1.00  0.00    -0.545 OA
ATOM     12  O   UNL     1       0.106 -27.089  25.374  1.00  0.00    -0.545 OA
ENDBRANCH   2  10
TORSDOF 2
ENDMDL
MODEL 5
REMARK VINA RESULT:    -4.732      8.529     10.039
REMARK INTER + INTRA:          -5.505
REMARK INTER:                  -5.346
REMARK INTRA:                  -0.159
REMARK UNBOUND:                -0.220
REMARK SMILES O=C([O-])c1ccccc1C(=O)[O-]
REMARK SMILES IDX 4 1 9 2 5 3 8 4 6 5 7 6 2 7 1 8 3 9 10 10 11 11 12 12
REMARK H PARENT
REMARK Flexibility Score: inf
ROOT
ATOM      1  C   UNL     1      10.216 -25.998  30.197  1.00  0.00     0.006 A 
ATOM      2  C   UNL     1      10.375 -26.738  31.404  1.00  0.00     0.006 A 
ATOM      3  C   UNL     1      11.344 -25.401  29.607  1.00  0.00     0.010 A 
ATOM      4  C   UNL     1      11.645 -26.793  32.008  1.00  0.00     0.010 A 
ATOM      5  C   UNL     1      12.598 -25.489  30.213  1.00  0.00     0.001 A 
ATOM      6  C   UNL     1      12.746 -26.173  31.416  1.00  0.00     0.001 A 
ENDROOT
BRANCH   1   7
ATOM      7  C   UNL     1       8.899 -25.768  29.559  1.00  0.00     0.072 C 
ATOM      8  O   UNL     1       8.132 -24.860  29.974  1.00  0.00    -0.545 OA
ATOM      9  O   UNL     1       8.523 -26.512  28.447  1.00  0.00    -0.545 OA
ENDBRANCH   1   7
BRANCH   2  10
ATOM     10  C   UNL     1       9.279 -27.513  32.027  1.00  0.00     0.072 C 
ATOM     11  O   UNL     1       9.294 -28.772  32.018  1.00  0.00    -0.545 OA
ATOM     12  O   UNL     1       8.249 -26.856  32.691  1.00  0.00    -0.545 OA
ENDBRANCH   2  10
TORSDOF 2
ENDMDL
MODEL 6
REMARK VINA RESULT:    -4.727      8.820     10.467
REMARK INTER + INTRA:          -5.499
REMARK INTER:                  -5.332
REMARK INTRA:                  -0.167
REMARK UNBOUND:                -0.220
REMARK SMILES O=C([O-])c1ccccc1C(=O)[O-]
REMARK SMILES IDX 4 1 9 2 5 3 8 4 6 5 7 6 2 7 1 8 3 9 10 10 11 11 12 12
REMARK H PARENT
REMARK Flexibility Score: inf
ROOT
ATOM      1  C   UNL     1      -4.291 -21.871  30.684  1.00  0.00     0.006 A 
ATOM      2  C   UNL     1      -4.043 -22.702  29.554  1.00  0.00     0.006 A 
ATOM      3  C   UNL     1      -5.604 -21.758  31.175  1.00  0.00     0.010 A 
ATOM      4  C   UNL     1      -5.129 -23.334  28.919  1.00  0.00     0.010 A 
ATOM      5  C   UNL     1      -6.662 -22.412  30.542  1.00  0.00     0.001 A 
ATOM      6  C   UNL     1      -6.427 -23.188  29.410  1.00  0.00     0.001 A 
ENDROOT
BRANCH   1   7
ATOM      7  C   UNL     1      -3.237 -21.059  31.336  1.00  0.00     0.072 C 
ATOM      8  O   UNL     1      -3.224 -19.806  31.218  1.00  0.00    -0.545 OA
ATOM      9  O   UNL     1      -2.286 -21.671  32.143  1.00  0.00    -0.545 OA
ENDBRANCH   1   7
BRANCH   2  10
ATOM     10  C   UNL     1      -2.682 -22.993  29.047  1.00  0.00     0.072 C 
ATOM     11  O   UNL     1      -1.981 -23.900  29.568  1.00  0.00    -0.545 OA
ATOM     12  O   UNL     1      -2.189 -22.309  27.943  1.00  0.00    -0.545 OA
ENDBRANCH   2  10
TORSDOF 2
ENDMDL
MODEL 7
REMARK VINA RESULT:    -4.717      0.170      2.878
REMARK INTER + INTRA:          -5.489
REMARK INTER:                  -5.277
REMARK INTRA:                  -0.212
REMARK UNBOUND:                -0.220
REMARK SMILES O=C([O-])c1ccccc1C(=O)[O-]
REMARK SMILES IDX 4 1 9 2 5 3 8 4 6 5 7 6 2 7 1 8 3 9 10 10 11 11 12 12
REMARK H PARENT
REMARK Flexibility Score: inf
ROOT
ATOM      1  C   UNL     1       3.459 -22.900  24.551  1.00  0.00     0.006 A 
ATOM      2  C   UNL     1       4.802 -23.346  24.394  1.00  0.00     0.006 A 
ATOM      3  C   UNL     1       2.418 -23.847  24.542  1.00  0.00     0.010 A 
ATOM      4  C   UNL     1       5.046 -24.714  24.169  1.00  0.00     0.010 A 
ATOM      5  C   UNL     1       2.687 -25.201  24.339  1.00  0.00     0.001 A 
ATOM      6  C   UNL     1       3.996 -25.632  24.141  1.00  0.00     0.001 A 
ENDROOT
BRANCH   1   7
ATOM      7  C   UNL     1       3.090 -21.469  24.656  1.00  0.00     0.072 C 
ATOM      8  O   UNL     1       2.700 -20.828  23.646  1.00  0.00    -0.545 OA
ATOM      9  O   UNL     1       3.108 -20.835  25.892  1.00  0.00    -0.545 OA
ENDBRANCH   1   7
BRANCH   2  10
ATOM     10  C   UNL     1       5.972 -22.448  24.524  1.00  0.00     0.072 C 
ATOM     11  O   UNL     1       6.579 -22.028  23.504  1.00  0.00    -0.545 OA
ATOM     12  O   UNL     1       6.374 -22.002  25.778  1.00  0.00    -0.545 OA
ENDBRANCH   2  10
TORSDOF 2
ENDMDL
MODEL 8
REMARK VINA RESULT:    -4.685      8.883     10.363
REMARK INTER + INTRA:          -5.453
REMARK INTER:                  -5.281
REMARK INTRA:                  -0.172
REMARK UNBOUND:                -0.220
REMARK SMILES O=C([O-])c1ccccc1C(=O)[O-]
REMARK SMILES IDX 4 1 9 2 5 3 8 4 6 5 7 6 2 7 1 8 3 9 10 10 11 11 12 12
REMARK H PARENT
REMARK Flexibility Score: inf
ROOT
ATOM      1  C   UNL     1      -4.110 -22.628  29.604  1.00  0.00     0.006 A 
ATOM      2  C   UNL     1      -4.278 -21.784  30.739  1.00  0.00     0.006 A 
ATOM      3  C   UNL     1      -5.247 -23.196  29.001  1.00  0.00     0.010 A 
ATOM      4  C   UNL     1      -5.570 -21.595  31.265  1.00  0.00     0.010 A 
ATOM      5  C   UNL     1      -6.521 -22.975  29.526  1.00  0.00     0.001 A 
ATOM      6  C   UNL     1      -6.680 -22.186  30.662  1.00  0.00     0.001 A 
ENDROOT
BRANCH   1   7
ATOM      7  C   UNL     1      -2.782 -22.997  29.062  1.00  0.00     0.072 C 
ATOM      8  O   UNL     1      -2.126 -23.951  29.557  1.00  0.00    -0.545 OA
ATOM      9  O   UNL     1      -2.275 -22.333  27.952  1.00  0.00    -0.545 OA
ENDBRANCH   1   7
BRANCH   2  10
ATOM     10  C   UNL     1      -3.163 -21.034  31.361  1.00  0.00     0.072 C 
ATOM     11  O   UNL     1      -3.075 -19.784  31.233  1.00  0.00    -0.545 OA
ATOM     12  O   UNL     1      -2.233 -21.697  32.152  1.00  0.00    -0.545 OA
ENDBRANCH   2  10
TORSDOF 2
ENDMDL
MODEL 9
REMARK VINA RESULT:    -4.491      3.470      4.726
REMARK INTER + INTRA:          -5.237
REMARK INTER:                  -5.078
REMARK INTRA:                  -0.158
REMARK UNBOUND:                -0.220
REMARK SMILES O=C([O-])c1ccccc1C(=O)[O-]
REMARK SMILES IDX 4 1 9 2 5 3 8 4 6 5 7 6 2 7 1 8 3 9 10 10 11 11 12 12
REMARK H PARENT
REMARK Flexibility Score: inf
ROOT
ATOM      1  C   UNL     1       2.169 -26.523  24.379  1.00  0.00     0.006 A 
ATOM      2  C   UNL     1       2.626 -25.186  24.563  1.00  0.00     0.006 A 
ATOM      3  C   UNL     1       3.114 -27.557  24.252  1.00  0.00     0.010 A 
ATOM      4  C   UNL     1       4.010 -24.928  24.545  1.00  0.00     0.010 A 
ATOM      5  C   UNL     1       4.482 -27.280  24.260  1.00  0.00     0.001 A 
ATOM      6  C   UNL     1       4.928 -25.968  24.394  1.00  0.00     0.001 A 
ENDROOT
BRANCH   1   7
ATOM      7  C   UNL     1       0.737 -26.875  24.247  1.00  0.00     0.072 C 
ATOM      8  O   UNL     1       0.209 -27.015  23.113  1.00  0.00    -0.545 OA
ATOM      9  O   UNL     1      -0.027 -27.121  25.381  1.00  0.00    -0.545 OA
ENDBRANCH   1   7
BRANCH   2  10
ATOM     10  C   UNL     1       1.715 -24.052  24.840  1.00  0.00     0.072 C 
ATOM     11  O   UNL     1       1.547 -23.137  23.991  1.00  0.00    -0.545 OA
ATOM     12  O   UNL     1       0.982 -24.019  26.020  1.00  0.00    -0.545 OA
ENDBRANCH   2  10
TORSDOF 2
ENDMDL
