MODEL 1
REMARK VINA RESULT:    -5.561      0.000      0.000
REMARK INTER + INTRA:          -6.294
REMARK INTER:                  -6.049
REMARK INTRA:                  -0.245
REMARK UNBOUND:                -0.245
REMARK SMILES O=C([O-])c1ccccc1O
REMARK SMILES IDX 4 1 9 2 5 3 8 4 6 5 7 6 2 7 1 8 3 9 10 10
REMARK H PARENT 10 11
REMARK Flexibility Score: inf
ROOT
ATOM      1  C   UNL     1      10.807  55.355   6.431  1.00  0.00     0.039 A 
ATOM      2  C   UNL     1      12.047  55.779   6.975  1.00  0.00     0.124 A 
ATOM      3  C   UNL     1       9.679  55.301   7.273  1.00  0.00     0.014 A 
ATOM      4  C   UNL     1      12.112  56.194   8.311  1.00  0.00     0.047 A 
ATOM      5  C   UNL     1       9.767  55.698   8.609  1.00  0.00     0.001 A 
ATOM      6  C   UNL     1      10.979  56.153   9.125  1.00  0.00     0.004 A 
ENDROOT
BRANCH   1   7
ATOM      7  C   UNL     1      10.636  54.996   5.006  1.00  0.00     0.075 C 
ATOM      8  O   UNL     1      11.350  55.527   4.116  1.00  0.00    -0.545 OA
ATOM      9  O   UNL     1       9.631  54.114   4.627  1.00  0.00    -0.545 OA
ENDBRANCH   1   7
BRANCH   2  10
ATOM     10  O   UNL     1      13.235  55.773   6.239  1.00  0.00    -0.507 OA
ATOM     11  H   UNL     1      13.961  55.080   6.357  1.00  0.00     0.293 HD
ENDBRANCH   2  10
TORSDOF 2
ENDMDL
MODEL 2
REMARK VINA RESULT:    -5.528      1.127      1.317
REMARK INTER + INTRA:          -6.258
REMARK INTER:                  -6.026
REMARK INTRA:                  -0.232
REMARK UNBOUND:                -0.245
REMARK SMILES O=C([O-])c1ccccc1O
REMARK SMILES IDX 4 1 9 2 5 3 8 4 6 5 7 6 2 7 1 8 3 9 10 10
REMARK H PARENT 10 11
REMARK Flexibility Score: inf
ROOT
ATOM      1  C   UNL     1      10.781  55.061   5.220  1.00  0.00     0.039 A 
ATOM      2  C   UNL     1      11.960  55.570   5.825  1.00  0.00     0.124 A 
ATOM      3  C   UNL     1       9.646  54.841   6.024  1.00  0.00     0.014 A 
ATOM      4  C   UNL     1      11.953  55.901   7.185  1.00  0.00     0.047 A 
ATOM      5  C   UNL     1       9.664  55.157   7.385  1.00  0.00     0.001 A 
ATOM      6  C   UNL     1      10.813  55.696   7.962  1.00  0.00     0.004 A 
ENDROOT
BRANCH   1   7
ATOM      7  C   UNL     1      10.679  54.781   3.771  1.00  0.00     0.075 C 
ATOM      8  O   UNL     1      11.704  54.519   3.089  1.00  0.00    -0.545 OA
ATOM      9  O   UNL     1       9.448  54.873   3.130  1.00  0.00    -0.545 OA
ENDBRANCH   1   7
BRANCH   2  10
ATOM     10  O   UNL     1      13.159  55.730   5.124  1.00  0.00    -0.507 OA
ATOM     11  H   UNL     1      13.685  54.960   4.736  1.00  0.00     0.293 HD
ENDBRANCH   2  10
TORSDOF 2
ENDMDL
MODEL 3
REMARK VINA RESULT:    -5.462      1.758      3.495
REMARK INTER + INTRA:          -6.186
REMARK INTER:                  -5.957
REMARK INTRA:                  -0.229
REMARK UNBOUND:                -0.245
REMARK SMILES O=C([O-])c1ccccc1O
REMARK SMILES IDX 4 1 9 2 5 3 8 4 6 5 7 6 2 7 1 8 3 9 10 10
REMARK H PARENT 10 11
REMARK Flexibility Score: inf
ROOT
ATOM      1  C   UNL     1      11.042  55.410   6.877  1.00  0.00     0.039 A 
ATOM      2  C   UNL     1      11.856  55.433   5.715  1.00  0.00     0.124 A 
ATOM      3  C   UNL     1       9.706  54.981   6.763  1.00  0.00     0.014 A 
ATOM      4  C   UNL     1      11.339  54.972   4.498  1.00  0.00     0.047 A 
ATOM      5  C   UNL     1       9.200  54.545   5.536  1.00  0.00     0.001 A 
ATOM      6  C   UNL     1      10.018  54.531   4.407  1.00  0.00     0.004 A 
ENDROOT
BRANCH   1   7
ATOM      7  C   UNL     1      11.546  55.787   8.217  1.00  0.00     0.075 C 
ATOM      8  O   UNL     1      10.755  56.154   9.125  1.00  0.00    -0.545 OA
ATOM      9  O   UNL     1      12.913  55.807   8.464  1.00  0.00    -0.545 OA
ENDBRANCH   1   7
BRANCH   2  10
ATOM     10  O   UNL     1      13.162  55.932   5.717  1.00  0.00    -0.507 OA
ATOM     11  H   UNL     1      13.874  55.629   6.366  1.00  0.00     0.293 HD
ENDBRANCH   2  10
TORSDOF 2
ENDMDL
MODEL 4
REMARK VINA RESULT:    -5.334     11.653     13.125
REMARK INTER + INTRA:          -6.047
REMARK INTER:                  -5.809
REMARK INTRA:                  -0.238
REMARK UNBOUND:                -0.245
REMARK SMILES O=C([O-])c1ccccc1O
REMARK SMILES IDX 4 1 9 2 5 3 8 4 6 5 7 6 2 7 1 8 3 9 10 10
REMARK H PARENT 10 11
REMARK Flexibility Score: inf
ROOT
ATOM      1  C   UNL     1      13.308  52.210  -5.315  1.00  0.00     0.039 A 
ATOM      2  C   UNL     1      12.867  51.165  -6.169  1.00  0.00     0.124 A 
ATOM      3  C   UNL     1      13.238  52.023  -3.921  1.00  0.00     0.014 A 
ATOM      4  C   UNL     1      12.434  49.954  -5.615  1.00  0.00     0.047 A 
ATOM      5  C   UNL     1      12.782  50.816  -3.386  1.00  0.00     0.001 A 
ATOM      6  C   UNL     1      12.390  49.779  -4.232  1.00  0.00     0.004 A 
ENDROOT
BRANCH   1   7
ATOM      7  C   UNL     1      13.871  53.480  -5.825  1.00  0.00     0.075 C 
ATOM      8  O   UNL     1      13.788  54.540  -5.152  1.00  0.00    -0.545 OA
ATOM      9  O   UNL     1      14.440  53.528  -7.092  1.00  0.00    -0.545 OA
ENDBRANCH   1   7
BRANCH   2  10
ATOM     10  O   UNL     1      12.812  51.300  -7.559  1.00  0.00    -0.507 OA
ATOM     11  H   UNL     1      12.491  50.569  -8.178  1.00  0.00     0.293 HD
ENDBRANCH   2  10
TORSDOF 2
ENDMDL
MODEL 5
REMARK VINA RESULT:    -5.324      1.772      2.823
REMARK INTER + INTRA:          -6.037
REMARK INTER:                  -5.788
REMARK INTRA:                  -0.249
REMARK UNBOUND:                -0.245
REMARK SMILES O=C([O-])c1ccccc1O
REMARK SMILES IDX 4 1 9 2 5 3 8 4 6 5 7 6 2 7 1 8 3 9 10 10
REMARK H PARENT 10 11
REMARK Flexibility Score: inf
ROOT
ATOM      1  C   UNL     1      10.675  55.364   4.871  1.00  0.00     0.039 A 
ATOM      2  C   UNL     1       9.589  55.063   5.733  1.00  0.00     0.124 A 
ATOM      3  C   UNL     1      11.901  55.761   5.437  1.00  0.00     0.014 A 
ATOM      4  C   UNL     1       9.773  55.105   7.121  1.00  0.00     0.047 A 
ATOM      5  C   UNL     1      12.062  55.820   6.823  1.00  0.00     0.001 A 
ATOM      6  C   UNL     1      11.002  55.482   7.664  1.00  0.00     0.004 A 
ENDROOT
BRANCH   1   7
ATOM      7  C   UNL     1      10.587  55.246   3.398  1.00  0.00     0.075 C 
ATOM      8  O   UNL     1       9.602  55.713   2.770  1.00  0.00    -0.545 OA
ATOM      9  O   UNL     1      11.566  54.552   2.697  1.00  0.00    -0.545 OA
ENDBRANCH   1   7
BRANCH   2  10
ATOM     10  O   UNL     1       8.312  54.752   5.258  1.00  0.00    -0.507 OA
ATOM     11  H   UNL     1       7.932  55.120   4.397  1.00  0.00     0.293 HD
ENDBRANCH   2  10
TORSDOF 2
ENDMDL
MODEL 6
REMARK VINA RESULT:    -5.320      1.536      3.166
REMARK INTER + INTRA:          -6.031
REMARK INTER:                  -5.793
REMARK INTRA:                  -0.239
REMARK UNBOUND:                -0.245
REMARK SMILES O=C([O-])c1ccccc1O
REMARK SMILES IDX 4 1 9 2 5 3 8 4 6 5 7 6 2 7 1 8 3 9 10 10
REMARK H PARENT 10 11
REMARK Flexibility Score: inf
ROOT
ATOM      1  C   UNL     1      11.573  55.219   4.871  1.00  0.00     0.039 A 
ATOM      2  C   UNL     1      10.260  54.749   4.606  1.00  0.00     0.124 A 
ATOM      3  C   UNL     1      11.912  55.581   6.188  1.00  0.00     0.014 A 
ATOM      4  C   UNL     1       9.353  54.597   5.661  1.00  0.00     0.047 A 
ATOM      5  C   UNL     1      10.988  55.442   7.226  1.00  0.00     0.001 A 
ATOM      6  C   UNL     1       9.713  54.941   6.965  1.00  0.00     0.004 A 
ENDROOT
BRANCH   1   7
ATOM      7  C   UNL     1      12.617  55.314   3.826  1.00  0.00     0.075 C 
ATOM      8  O   UNL     1      12.562  54.602   2.790  1.00  0.00    -0.545 OA
ATOM      9  O   UNL     1      13.714  56.147   4.015  1.00  0.00    -0.545 OA
ENDBRANCH   1   7
BRANCH   2  10
ATOM     10  O   UNL     1       9.809  54.458   3.315  1.00  0.00    -0.507 OA
ATOM     11  H   UNL     1      10.107  54.963   2.493  1.00  0.00     0.293 HD
ENDBRANCH   2  10
TORSDOF 2
ENDMDL
MODEL 7
REMARK VINA RESULT:    -5.265      1.635      2.294
REMARK INTER + INTRA:          -5.972
REMARK INTER:                  -5.724
REMARK INTRA:                  -0.249
REMARK UNBOUND:                -0.245
REMARK SMILES O=C([O-])c1ccccc1O
REMARK SMILES IDX 4 1 9 2 5 3 8 4 6 5 7 6 2 7 1 8 3 9 10 10
REMARK H PARENT 10 11
REMARK Flexibility Score: inf
ROOT
ATOM      1  C   UNL     1      11.784  55.452   5.317  1.00  0.00     0.039 A 
ATOM      2  C   UNL     1      12.009  55.682   6.700  1.00  0.00     0.124 A 
ATOM      3  C   UNL     1      10.515  55.005   4.901  1.00  0.00     0.014 A 
ATOM      4  C   UNL     1      10.956  55.522   7.609  1.00  0.00     0.047 A 
ATOM      5  C   UNL     1       9.482  54.830   5.824  1.00  0.00     0.001 A 
ATOM      6  C   UNL     1       9.699  55.098   7.175  1.00  0.00     0.004 A 
ENDROOT
BRANCH   1   7
ATOM      7  C   UNL     1      12.816  55.693   4.285  1.00  0.00     0.075 C 
ATOM      8  O   UNL     1      13.648  56.630   4.408  1.00  0.00    -0.545 OA
ATOM      9  O   UNL     1      12.833  54.925   3.126  1.00  0.00    -0.545 OA
ENDBRANCH   1   7
BRANCH   2  10
ATOM     10  O   UNL     1      13.261  56.034   7.212  1.00  0.00    -0.507 OA
ATOM     11  H   UNL     1      13.508  55.950   8.188  1.00  0.00     0.293 HD
ENDBRANCH   2  10
TORSDOF 2
ENDMDL
MODEL 8
REMARK VINA RESULT:    -5.241     10.995     12.358
REMARK INTER + INTRA:          -5.946
REMARK INTER:                  -5.704
REMARK INTRA:                  -0.242
REMARK UNBOUND:                -0.245
REMARK SMILES O=C([O-])c1ccccc1O
REMARK SMILES IDX 4 1 9 2 5 3 8 4 6 5 7 6 2 7 1 8 3 9 10 10
REMARK H PARENT 10 11
REMARK Flexibility Score: inf
ROOT
ATOM      1  C   UNL     1      13.271  51.822  -4.779  1.00  0.00     0.039 A 
ATOM      2  C   UNL     1      13.102  51.432  -3.425  1.00  0.00     0.124 A 
ATOM      3  C   UNL     1      12.873  50.934  -5.796  1.00  0.00     0.014 A 
ATOM      4  C   UNL     1      12.491  50.208  -3.128  1.00  0.00     0.047 A 
ATOM      5  C   UNL     1      12.284  49.708  -5.482  1.00  0.00     0.001 A 
ATOM      6  C   UNL     1      12.084  49.349  -4.149  1.00  0.00     0.004 A 
ENDROOT
BRANCH   1   7
ATOM      7  C   UNL     1      13.818  53.140  -5.172  1.00  0.00     0.075 C 
ATOM      8  O   UNL     1      14.914  53.549  -4.709  1.00  0.00    -0.545 OA
ATOM      9  O   UNL     1      13.085  53.974  -6.009  1.00  0.00    -0.545 OA
ENDBRANCH   1   7
BRANCH   2  10
ATOM     10  O   UNL     1      13.555  52.208  -2.354  1.00  0.00    -0.507 OA
ATOM     11  H   UNL     1      13.222  52.100  -1.406  1.00  0.00     0.293 HD
ENDBRANCH   2  10
TORSDOF 2
ENDMDL
MODEL 9
REMARK VINA RESULT:    -5.024      1.656      3.386
REMARK INTER + INTRA:          -5.710
REMARK INTER:                  -5.512
REMARK INTRA:                  -0.198
REMARK UNBOUND:                -0.245
REMARK SMILES O=C([O-])c1ccccc1O
REMARK SMILES IDX 4 1 9 2 5 3 8 4 6 5 7 6 2 7 1 8 3 9 10 10
REMARK H PARENT 10 11
REMARK Flexibility Score: inf
ROOT
ATOM      1  C   UNL     1      11.764  55.688   6.369  1.00  0.00     0.039 A 
ATOM      2  C   UNL     1      11.722  55.314   5.000  1.00  0.00     0.124 A 
ATOM      3  C   UNL     1      10.645  55.421   7.180  1.00  0.00     0.014 A 
ATOM      4  C   UNL     1      10.604  54.636   4.501  1.00  0.00     0.047 A 
ATOM      5  C   UNL     1       9.528  54.763   6.660  1.00  0.00     0.001 A 
ATOM      6  C   UNL     1       9.512  54.361   5.325  1.00  0.00     0.004 A 
ENDROOT
BRANCH   1   7
ATOM      7  C   UNL     1      12.949  56.319   6.993  1.00  0.00     0.075 C 
ATOM      8  O   UNL     1      12.910  56.735   8.180  1.00  0.00    -0.545 OA
ATOM      9  O   UNL     1      14.102  56.522   6.244  1.00  0.00    -0.545 OA
ENDBRANCH   1   7
BRANCH   2  10
ATOM     10  O   UNL     1      12.747  55.624   4.102  1.00  0.00    -0.507 OA
ATOM     11  H   UNL     1      13.190  56.531   4.051  1.00  0.00     0.293 HD
ENDBRANCH   2  10
TORSDOF 2
ENDMDL
