MODEL 1
REMARK VINA RESULT:    -5.731      0.000      0.000
REMARK INTER + INTRA:          -6.712
REMARK INTER:                  -6.569
REMARK INTRA:                  -0.143
REMARK UNBOUND:                -0.143
REMARK SMILES O=C([O-])C=Cc1ccc(O)cc1
REMARK SMILES IDX 6 1 7 2 12 3 8 4 11 5 9 6 5 7 4 8 2 9 1 10 3 11 10 12
REMARK H PARENT 10 13
REMARK Flexibility Score: inf
ROOT
ATOM      1  C   UNL     1     -12.830   0.429  -9.919  1.00  0.00    -0.025 A 
ATOM      2  C   UNL     1     -14.215   0.163  -9.950  1.00  0.00     0.012 A 
ATOM      3  C   UNL     1     -11.934  -0.601 -10.251  1.00  0.00     0.012 A 
ATOM      4  C   UNL     1     -14.683  -1.099 -10.330  1.00  0.00     0.047 A 
ATOM      5  C   UNL     1     -12.407  -1.860 -10.632  1.00  0.00     0.047 A 
ATOM      6  C   UNL     1     -13.784  -2.112 -10.674  1.00  0.00     0.115 A 
ENDROOT
BRANCH   1   7
ATOM      7  C   UNL     1     -12.280   1.746  -9.512  1.00  0.00     0.010 C 
ATOM      8  C   UNL     1     -13.018   2.731  -8.981  1.00  0.00     0.025 C 
BRANCH   8   9
ATOM      9  C   UNL     1     -12.430   4.026  -8.603  1.00  0.00     0.064 C 
ATOM     10  O   UNL     1     -13.151   5.058  -8.600  1.00  0.00    -0.545 OA
ATOM     11  O   UNL     1     -11.090   4.129  -8.245  1.00  0.00    -0.545 OA
ENDBRANCH   8   9
ENDBRANCH   1   7
BRANCH   6  12
ATOM     12  O   UNL     1     -14.266  -3.362 -11.052  1.00  0.00    -0.508 OA
ATOM     13  H   UNL     1     -14.590  -3.542 -11.995  1.00  0.00     0.293 HD
ENDBRANCH   6  12
TORSDOF 3
ENDMDL
MODEL 2
REMARK VINA RESULT:    -5.561     16.179     17.649
REMARK INTER + INTRA:          -6.517
REMARK INTER:                  -6.364
REMARK INTRA:                  -0.153
REMARK UNBOUND:                -0.143
REMARK SMILES O=C([O-])C=Cc1ccc(O)cc1
REMARK SMILES IDX 6 1 7 2 12 3 8 4 11 5 9 6 5 7 4 8 2 9 1 10 3 11 10 12
REMARK H PARENT 10 13
REMARK Flexibility Score: inf
ROOT
ATOM      1  C   UNL     1      -9.382   6.456   6.679  1.00  0.00    -0.025 A 
ATOM      2  C   UNL     1      -9.720   5.671   7.801  1.00  0.00     0.012 A 
ATOM      3  C   UNL     1      -9.883   6.086   5.419  1.00  0.00     0.012 A 
ATOM      4  C   UNL     1     -10.558   4.561   7.661  1.00  0.00     0.047 A 
ATOM      5  C   UNL     1     -10.721   4.976   5.284  1.00  0.00     0.047 A 
ATOM      6  C   UNL     1     -11.063   4.211   6.406  1.00  0.00     0.115 A 
ENDROOT
BRANCH   1   7
ATOM      7  C   UNL     1      -8.488   7.637   6.770  1.00  0.00     0.010 C 
ATOM      8  C   UNL     1      -8.388   8.572   5.814  1.00  0.00     0.025 C 
BRANCH   8   9
ATOM      9  C   UNL     1      -7.479   9.721   5.942  1.00  0.00     0.064 C 
ATOM     10  O   UNL     1      -7.121  10.106   7.086  1.00  0.00    -0.545 OA
ATOM     11  O   UNL     1      -7.005  10.390   4.819  1.00  0.00    -0.545 OA
ENDBRANCH   8   9
ENDBRANCH   1   7
BRANCH   6  12
ATOM     12  O   UNL     1     -11.898   3.104   6.284  1.00  0.00    -0.508 OA
ATOM     13  H   UNL     1     -11.591   2.176   6.550  1.00  0.00     0.293 HD
ENDBRANCH   6  12
TORSDOF 3
ENDMDL
MODEL 3
REMARK VINA RESULT:    -5.518      2.985      5.421
REMARK INTER + INTRA:          -6.467
REMARK INTER:                  -6.331
REMARK INTRA:                  -0.136
REMARK UNBOUND:                -0.143
REMARK SMILES O=C([O-])C=Cc1ccc(O)cc1
REMARK SMILES IDX 6 1 7 2 12 3 8 4 11 5 9 6 5 7 4 8 2 9 1 10 3 11 10 12
REMARK H PARENT 10 13
REMARK Flexibility Score: inf
ROOT
ATOM      1  C   UNL     1     -11.692  -0.221  -9.872  1.00  0.00    -0.025 A 
ATOM      2  C   UNL     1     -11.450   1.080  -9.383  1.00  0.00     0.012 A 
ATOM      3  C   UNL     1     -13.000  -0.570 -10.249  1.00  0.00     0.012 A 
ATOM      4  C   UNL     1     -12.492   2.009  -9.300  1.00  0.00     0.047 A 
ATOM      5  C   UNL     1     -14.038   0.362 -10.165  1.00  0.00     0.047 A 
ATOM      6  C   UNL     1     -13.786   1.656  -9.692  1.00  0.00     0.115 A 
ENDROOT
BRANCH   1   7
ATOM      7  C   UNL     1     -10.626  -1.249  -9.970  1.00  0.00     0.010 C 
ATOM      8  C   UNL     1     -10.374  -2.154  -9.014  1.00  0.00     0.025 C 
BRANCH   8   9
ATOM      9  C   UNL     1      -9.297  -3.149  -9.150  1.00  0.00     0.064 C 
ATOM     10  O   UNL     1      -9.279  -3.912 -10.150  1.00  0.00    -0.545 OA
ATOM     11  O   UNL     1      -8.297  -3.258  -8.190  1.00  0.00    -0.545 OA
ENDBRANCH   8   9
ENDBRANCH   1   7
BRANCH   6  12
ATOM     12  O   UNL     1     -14.812   2.593  -9.606  1.00  0.00    -0.508 OA
ATOM     13  H   UNL     1     -14.931   3.174  -8.784  1.00  0.00     0.293 HD
ENDBRANCH   6  12
TORSDOF 3
ENDMDL
MODEL 4
REMARK VINA RESULT:    -5.508      2.122      5.523
REMARK INTER + INTRA:          -6.456
REMARK INTER:                  -6.312
REMARK INTRA:                  -0.144
REMARK UNBOUND:                -0.143
REMARK SMILES O=C([O-])C=Cc1ccc(O)cc1
REMARK SMILES IDX 6 1 7 2 12 3 8 4 11 5 9 6 5 7 4 8 2 9 1 10 3 11 10 12
REMARK H PARENT 10 13
REMARK Flexibility Score: inf
ROOT
ATOM      1  C   UNL     1     -12.352   0.965  -9.599  1.00  0.00    -0.025 A 
ATOM      2  C   UNL     1     -13.732   1.258  -9.595  1.00  0.00     0.012 A 
ATOM      3  C   UNL     1     -11.445   1.970  -9.224  1.00  0.00     0.012 A 
ATOM      4  C   UNL     1     -14.185   2.520  -9.199  1.00  0.00     0.047 A 
ATOM      5  C   UNL     1     -11.903   3.230  -8.828  1.00  0.00     0.047 A 
ATOM      6  C   UNL     1     -13.275   3.508  -8.813  1.00  0.00     0.115 A 
ENDROOT
BRANCH   1   7
ATOM      7  C   UNL     1     -11.817  -0.354 -10.021  1.00  0.00     0.010 C 
ATOM      8  C   UNL     1     -10.772  -0.955  -9.437  1.00  0.00     0.025 C 
BRANCH   8   9
ATOM      9  C   UNL     1     -10.268  -2.260  -9.896  1.00  0.00     0.064 C 
ATOM     10  O   UNL     1      -9.059  -2.378 -10.225  1.00  0.00    -0.545 OA
ATOM     11  O   UNL     1     -11.106  -3.367  -9.971  1.00  0.00    -0.545 OA
ENDBRANCH   8   9
ENDBRANCH   1   7
BRANCH   6  12
ATOM     12  O   UNL     1     -13.742   4.759  -8.420  1.00  0.00    -0.508 OA
ATOM     13  H   UNL     1     -13.915   4.978  -7.445  1.00  0.00     0.293 HD
ENDBRANCH   6  12
TORSDOF 3
ENDMDL
MODEL 5
REMARK VINA RESULT:    -5.493     16.217     17.707
REMARK INTER + INTRA:          -6.438
REMARK INTER:                  -6.294
REMARK INTRA:                  -0.144
REMARK UNBOUND:                -0.143
REMARK SMILES O=C([O-])C=Cc1ccc(O)cc1
REMARK SMILES IDX 6 1 7 2 12 3 8 4 11 5 9 6 5 7 4 8 2 9 1 10 3 11 10 12
REMARK H PARENT 10 13
REMARK Flexibility Score: inf
ROOT
ATOM      1  C   UNL     1      -9.325   6.531   6.624  1.00  0.00    -0.025 A 
ATOM      2  C   UNL     1      -9.859   6.127   5.382  1.00  0.00     0.012 A 
ATOM      3  C   UNL     1      -9.658   5.796   7.774  1.00  0.00     0.012 A 
ATOM      4  C   UNL     1     -10.683   5.002   5.299  1.00  0.00     0.047 A 
ATOM      5  C   UNL     1     -10.482   4.671   7.687  1.00  0.00     0.047 A 
ATOM      6  C   UNL     1     -10.996   4.269   6.448  1.00  0.00     0.115 A 
ENDROOT
BRANCH   1   7
ATOM      7  C   UNL     1      -8.454   7.724   6.769  1.00  0.00     0.010 C 
ATOM      8  C   UNL     1      -8.310   8.661   5.822  1.00  0.00     0.025 C 
BRANCH   8   9
ATOM      9  C   UNL     1      -7.425   9.823   6.006  1.00  0.00     0.064 C 
ATOM     10  O   UNL     1      -7.160  10.224   7.169  1.00  0.00    -0.545 OA
ATOM     11  O   UNL     1      -6.876  10.486   4.914  1.00  0.00    -0.545 OA
ENDBRANCH   8   9
ENDBRANCH   1   7
BRANCH   6  12
ATOM     12  O   UNL     1     -11.817   3.149   6.348  1.00  0.00    -0.508 OA
ATOM     13  H   UNL     1     -12.791   3.228   6.082  1.00  0.00     0.293 HD
ENDBRANCH   6  12
TORSDOF 3
ENDMDL
MODEL 6
REMARK VINA RESULT:    -5.165      5.592      8.358
REMARK INTER + INTRA:          -6.063
REMARK INTER:                  -5.924
REMARK INTRA:                  -0.138
REMARK UNBOUND:                -0.143
REMARK SMILES O=C([O-])C=Cc1ccc(O)cc1
REMARK SMILES IDX 6 1 7 2 12 3 8 4 11 5 9 6 5 7 4 8 2 9 1 10 3 11 10 12
REMARK H PARENT 10 13
REMARK Flexibility Score: inf
ROOT
ATOM      1  C   UNL     1     -10.619  -4.867  -7.537  1.00  0.00    -0.025 A 
ATOM      2  C   UNL     1      -9.858  -3.784  -7.051  1.00  0.00     0.012 A 
ATOM      3  C   UNL     1     -11.140  -4.796  -8.840  1.00  0.00     0.012 A 
ATOM      4  C   UNL     1      -9.608  -2.674  -7.863  1.00  0.00     0.047 A 
ATOM      5  C   UNL     1     -10.887  -3.685  -9.649  1.00  0.00     0.047 A 
ATOM      6  C   UNL     1     -10.118  -2.620  -9.163  1.00  0.00     0.115 A 
ENDROOT
BRANCH   1   7
ATOM      7  C   UNL     1     -10.923  -6.063  -6.714  1.00  0.00     0.010 C 
ATOM      8  C   UNL     1     -12.083  -6.249  -6.070  1.00  0.00     0.025 C 
BRANCH   8   9
ATOM      9  C   UNL     1     -12.337  -7.448  -5.254  1.00  0.00     0.064 C 
ATOM     10  O   UNL     1     -11.378  -8.017  -4.671  1.00  0.00    -0.545 OA
ATOM     11  O   UNL     1     -13.622  -7.962  -5.116  1.00  0.00    -0.545 OA
ENDBRANCH   8   9
ENDBRANCH   1   7
BRANCH   6  12
ATOM     12  O   UNL     1      -9.859  -1.509  -9.960  1.00  0.00    -0.508 OA
ATOM     13  H   UNL     1      -9.086  -0.884  -9.763  1.00  0.00     0.293 HD
ENDBRANCH   6  12
TORSDOF 3
ENDMDL
MODEL 7
REMARK VINA RESULT:    -4.922     17.229     17.843
REMARK INTER + INTRA:          -5.784
REMARK INTER:                  -5.632
REMARK INTRA:                  -0.151
REMARK UNBOUND:                -0.143
REMARK SMILES O=C([O-])C=Cc1ccc(O)cc1
REMARK SMILES IDX 6 1 7 2 12 3 8 4 11 5 9 6 5 7 4 8 2 9 1 10 3 11 10 12
REMARK H PARENT 10 13
REMARK Flexibility Score: inf
ROOT
ATOM      1  C   UNL     1      -9.919   6.774   6.648  1.00  0.00    -0.025 A 
ATOM      2  C   UNL     1      -9.608   5.553   7.282  1.00  0.00     0.012 A 
ATOM      3  C   UNL     1     -11.234   6.989   6.200  1.00  0.00     0.012 A 
ATOM      4  C   UNL     1     -10.600   4.589   7.483  1.00  0.00     0.047 A 
ATOM      5  C   UNL     1     -12.222   6.021   6.404  1.00  0.00     0.047 A 
ATOM      6  C   UNL     1     -11.907   4.818   7.048  1.00  0.00     0.115 A 
ENDROOT
BRANCH   1   7
ATOM      7  C   UNL     1      -8.904   7.827   6.399  1.00  0.00     0.010 C 
ATOM      8  C   UNL     1      -9.194   9.046   5.924  1.00  0.00     0.025 C 
BRANCH   8   9
ATOM      9  C   UNL     1      -8.152  10.056   5.683  1.00  0.00     0.064 C 
ATOM     10  O   UNL     1      -7.364   9.916   4.712  1.00  0.00    -0.545 OA
ATOM     11  O   UNL     1      -8.023  11.166   6.510  1.00  0.00    -0.545 OA
ENDBRANCH   8   9
ENDBRANCH   1   7
BRANCH   6  12
ATOM     12  O   UNL     1     -12.884   3.848   7.257  1.00  0.00    -0.508 OA
ATOM     13  H   UNL     1     -13.495   3.541   6.510  1.00  0.00     0.293 HD
ENDBRANCH   6  12
TORSDOF 3
ENDMDL
MODEL 8
REMARK VINA RESULT:    -4.741     17.594     18.673
REMARK INTER + INTRA:          -5.576
REMARK INTER:                  -5.437
REMARK INTRA:                  -0.139
REMARK UNBOUND:                -0.143
REMARK SMILES O=C([O-])C=Cc1ccc(O)cc1
REMARK SMILES IDX 6 1 7 2 12 3 8 4 11 5 9 6 5 7 4 8 2 9 1 10 3 11 10 12
REMARK H PARENT 10 13
REMARK Flexibility Score: inf
ROOT
ATOM      1  C   UNL     1      -9.584   8.312   5.924  1.00  0.00    -0.025 A 
ATOM      2  C   UNL     1      -8.254   8.364   5.458  1.00  0.00     0.012 A 
ATOM      3  C   UNL     1     -10.317   9.508   6.013  1.00  0.00     0.012 A 
ATOM      4  C   UNL     1      -7.688   9.582   5.069  1.00  0.00     0.047 A 
ATOM      5  C   UNL     1      -9.748  10.723   5.622  1.00  0.00     0.047 A 
ATOM      6  C   UNL     1      -8.431  10.763   5.147  1.00  0.00     0.115 A 
ENDROOT
BRANCH   1   7
ATOM      7  C   UNL     1     -10.229   7.049   6.360  1.00  0.00     0.010 C 
ATOM      8  C   UNL     1      -9.592   6.081   7.033  1.00  0.00     0.025 C 
BRANCH   8   9
ATOM      9  C   UNL     1     -10.270   4.838   7.435  1.00  0.00     0.064 C 
ATOM     10  O   UNL     1     -10.148   4.417   8.615  1.00  0.00    -0.545 OA
ATOM     11  O   UNL     1     -11.046   4.119   6.533  1.00  0.00    -0.545 OA
ENDBRANCH   8   9
ENDBRANCH   1   7
BRANCH   6  12
ATOM     12  O   UNL     1      -7.854  11.968   4.754  1.00  0.00    -0.508 OA
ATOM     13  H   UNL     1      -7.142  12.004   4.034  1.00  0.00     0.293 HD
ENDBRANCH   6  12
TORSDOF 3
ENDMDL
MODEL 9
REMARK VINA RESULT:    -4.710      3.665      7.147
REMARK INTER + INTRA:          -5.541
REMARK INTER:                  -5.390
REMARK INTRA:                  -0.151
REMARK UNBOUND:                -0.143
REMARK SMILES O=C([O-])C=Cc1ccc(O)cc1
REMARK SMILES IDX 6 1 7 2 12 3 8 4 11 5 9 6 5 7 4 8 2 9 1 10 3 11 10 12
REMARK H PARENT 10 13
REMARK Flexibility Score: inf
ROOT
ATOM      1  C   UNL     1     -11.492  -3.132  -9.590  1.00  0.00    -0.025 A 
ATOM      2  C   UNL     1     -12.549  -2.442 -10.219  1.00  0.00     0.012 A 
ATOM      3  C   UNL     1     -10.409  -2.395  -9.082  1.00  0.00     0.012 A 
ATOM      4  C   UNL     1     -12.526  -1.047 -10.310  1.00  0.00     0.047 A 
ATOM      5  C   UNL     1     -10.391  -1.001  -9.174  1.00  0.00     0.047 A 
ATOM      6  C   UNL     1     -11.452  -0.322  -9.788  1.00  0.00     0.115 A 
ENDROOT
BRANCH   1   7
ATOM      7  C   UNL     1     -11.460  -4.612  -9.477  1.00  0.00     0.010 C 
ATOM      8  C   UNL     1     -10.638  -5.279  -8.654  1.00  0.00     0.025 C 
BRANCH   8   9
ATOM      9  C   UNL     1     -10.633  -6.749  -8.583  1.00  0.00     0.064 C 
ATOM     10  O   UNL     1      -9.944  -7.326  -7.702  1.00  0.00    -0.545 OA
ATOM     11  O   UNL     1     -11.381  -7.512  -9.472  1.00  0.00    -0.545 OA
ENDBRANCH   8   9
ENDBRANCH   1   7
BRANCH   6  12
ATOM     12  O   UNL     1     -11.446   1.067  -9.884  1.00  0.00    -0.508 OA
ATOM     13  H   UNL     1     -11.496   1.536 -10.781  1.00  0.00     0.293 HD
ENDBRANCH   6  12
TORSDOF 3
ENDMDL
