MODEL 1
REMARK VINA RESULT:    -4.716      0.000      0.000
REMARK INTER + INTRA:          -5.538
REMARK INTER:                  -5.405
REMARK INTRA:                  -0.133
REMARK UNBOUND:                -0.133
REMARK SMILES CC=Cc1ccc(O)c(OC)c1
REMARK SMILES IDX 4 1 12 2 9 3 7 4 6 5 5 6 3 7 1 8 2 9 10 10 11 11 8 12
REMARK H PARENT 8 13
REMARK Flexibility Score: inf
ROOT
ATOM      1  C   UNL     1      15.954  19.037  16.138  1.00  0.00    -0.022 A 
ATOM      2  C   UNL     1      16.385  18.061  17.054  1.00  0.00     0.058 A 
ATOM      3  C   UNL     1      17.522  18.277  17.857  1.00  0.00     0.161 A 
ATOM      4  C   UNL     1      18.223  19.485  17.746  1.00  0.00     0.157 A 
ATOM      5  C   UNL     1      17.789  20.467  16.848  1.00  0.00     0.051 A 
ATOM      6  C   UNL     1      16.663  20.249  16.053  1.00  0.00     0.012 A 
ENDROOT
BRANCH   1   7
ATOM      7  C   UNL     1      14.744  18.760  15.324  1.00  0.00     0.003 C 
ATOM      8  C   UNL     1      13.256  18.992  13.375  1.00  0.00     0.035 C 
ATOM      9  C   UNL     1      14.492  19.335  14.142  1.00  0.00    -0.030 C 
ENDBRANCH   1   7
BRANCH   3  10
ATOM     10  O   UNL     1      17.984  17.319  18.774  1.00  0.00    -0.493 OA
ATOM     11  C   UNL     1      17.626  17.282  20.152  1.00  0.00     0.278 C 
ENDBRANCH   3  10
BRANCH   4  12
ATOM     12  O   UNL     1      19.348  19.705  18.537  1.00  0.00    -0.504 OA
ATOM     13  H   UNL     1      20.082  19.011  18.623  1.00  0.00     0.293 HD
ENDBRANCH   4  12
TORSDOF 3
ENDMDL
MODEL 2
REMARK VINA RESULT:    -4.614      7.112      7.725
REMARK INTER + INTRA:          -5.422
REMARK INTER:                  -5.250
REMARK INTRA:                  -0.172
REMARK UNBOUND:                -0.133
REMARK SMILES CC=Cc1ccc(O)c(OC)c1
REMARK SMILES IDX 4 1 12 2 9 3 7 4 6 5 5 6 3 7 1 8 2 9 10 10 11 11 8 12
REMARK H PARENT 8 13
REMARK Flexibility Score: inf
ROOT
ATOM      1  C   UNL     1      17.741  13.067  13.596  1.00  0.00    -0.022 A 
ATOM      2  C   UNL     1      18.438  13.273  12.392  1.00  0.00     0.058 A 
ATOM      3  C   UNL     1      19.293  14.382  12.233  1.00  0.00     0.161 A 
ATOM      4  C   UNL     1      19.455  15.282  13.293  1.00  0.00     0.157 A 
ATOM      5  C   UNL     1      18.777  15.075  14.500  1.00  0.00     0.051 A 
ATOM      6  C   UNL     1      17.930  13.976  14.654  1.00  0.00     0.012 A 
ENDROOT
BRANCH   1   7
ATOM      7  C   UNL     1      16.861  11.878  13.712  1.00  0.00     0.003 C 
ATOM      8  C   UNL     1      15.903   9.723  13.001  1.00  0.00     0.035 C 
ATOM      9  C   UNL     1      16.807  10.897  12.803  1.00  0.00    -0.030 C 
ENDBRANCH   1   7
BRANCH   3  10
ATOM     10  O   UNL     1      19.994  14.620  11.041  1.00  0.00    -0.493 OA
ATOM     11  C   UNL     1      21.023  13.779  10.527  1.00  0.00     0.278 C 
ENDBRANCH   3  10
BRANCH   4  12
ATOM     12  O   UNL     1      20.299  16.381  13.142  1.00  0.00    -0.504 OA
ATOM     13  H   UNL     1      20.291  17.151  13.801  1.00  0.00     0.293 HD
ENDBRANCH   4  12
TORSDOF 3
ENDMDL
MODEL 3
REMARK VINA RESULT:    -4.468      3.156      4.939
REMARK INTER + INTRA:          -5.255
REMARK INTER:                  -5.082
REMARK INTRA:                  -0.173
REMARK UNBOUND:                -0.133
REMARK SMILES CC=Cc1ccc(O)c(OC)c1
REMARK SMILES IDX 4 1 12 2 9 3 7 4 6 5 5 6 3 7 1 8 2 9 10 10 11 11 8 12
REMARK H PARENT 8 13
REMARK Flexibility Score: inf
ROOT
ATOM      1  C   UNL     1      17.368  19.297  16.451  1.00  0.00    -0.022 A 
ATOM      2  C   UNL     1      17.398  18.255  15.508  1.00  0.00     0.058 A 
ATOM      3  C   UNL     1      17.048  18.487  14.163  1.00  0.00     0.161 A 
ATOM      4  C   UNL     1      16.675  19.776  13.763  1.00  0.00     0.157 A 
ATOM      5  C   UNL     1      16.659  20.823  14.693  1.00  0.00     0.051 A 
ATOM      6  C   UNL     1      17.006  20.589  16.025  1.00  0.00     0.012 A 
ENDROOT
BRANCH   1   7
ATOM      7  C   UNL     1      17.756  18.998  17.852  1.00  0.00     0.003 C 
ATOM      8  C   UNL     1      18.028  17.577  19.846  1.00  0.00     0.035 C 
ATOM      9  C   UNL     1      17.598  17.802  18.432  1.00  0.00    -0.030 C 
ENDBRANCH   1   7
BRANCH   3  10
ATOM     10  O   UNL     1      17.058  17.466  13.200  1.00  0.00    -0.493 OA
ATOM     11  C   UNL     1      18.235  16.938  12.595  1.00  0.00     0.278 C 
ENDBRANCH   3  10
BRANCH   4  12
ATOM     12  O   UNL     1      16.327  20.013  12.435  1.00  0.00    -0.504 OA
ATOM     13  H   UNL     1      17.021  20.261  11.740  1.00  0.00     0.293 HD
ENDBRANCH   4  12
TORSDOF 3
ENDMDL
MODEL 4
REMARK VINA RESULT:    -4.415      8.938      9.805
REMARK INTER + INTRA:          -5.193
REMARK INTER:                  -5.032
REMARK INTRA:                  -0.161
REMARK UNBOUND:                -0.133
REMARK SMILES CC=Cc1ccc(O)c(OC)c1
REMARK SMILES IDX 4 1 12 2 9 3 7 4 6 5 5 6 3 7 1 8 2 9 10 10 11 11 8 12
REMARK H PARENT 8 13
REMARK Flexibility Score: inf
ROOT
ATOM      1  C   UNL     1      18.617  12.540  11.703  1.00  0.00    -0.022 A 
ATOM      2  C   UNL     1      18.735  11.208  11.268  1.00  0.00     0.058 A 
ATOM      3  C   UNL     1      17.983  10.182  11.873  1.00  0.00     0.161 A 
ATOM      4  C   UNL     1      17.100  10.498  12.913  1.00  0.00     0.157 A 
ATOM      5  C   UNL     1      16.965  11.824  13.340  1.00  0.00     0.051 A 
ATOM      6  C   UNL     1      17.713  12.839  12.740  1.00  0.00     0.012 A 
ENDROOT
BRANCH   1   7
ATOM      7  C   UNL     1      19.426  13.583  11.025  1.00  0.00     0.003 C 
ATOM      8  C   UNL     1      20.698  15.688  10.878  1.00  0.00     0.035 C 
ATOM      9  C   UNL     1      19.875  14.690  11.628  1.00  0.00    -0.030 C 
ENDBRANCH   1   7
BRANCH   3  10
ATOM     10  O   UNL     1      18.086   8.841  11.468  1.00  0.00    -0.493 OA
ATOM     11  C   UNL     1      18.832   8.393  10.340  1.00  0.00     0.278 C 
ENDBRANCH   3  10
BRANCH   4  12
ATOM     12  O   UNL     1      16.354   9.487  13.515  1.00  0.00    -0.504 OA
ATOM     13  H   UNL     1      15.343   9.463  13.450  1.00  0.00     0.293 HD
ENDBRANCH   4  12
TORSDOF 3
ENDMDL
MODEL 5
REMARK VINA RESULT:    -4.402      2.172      2.296
REMARK INTER + INTRA:          -5.179
REMARK INTER:                  -5.013
REMARK INTRA:                  -0.166
REMARK UNBOUND:                -0.133
REMARK SMILES CC=Cc1ccc(O)c(OC)c1
REMARK SMILES IDX 4 1 12 2 9 3 7 4 6 5 5 6 3 7 1 8 2 9 10 10 11 11 8 12
REMARK H PARENT 8 13
REMARK Flexibility Score: inf
ROOT
ATOM      1  C   UNL     1      17.214  18.306  15.417  1.00  0.00    -0.022 A 
ATOM      2  C   UNL     1      17.665  17.841  16.664  1.00  0.00     0.058 A 
ATOM      3  C   UNL     1      17.810  18.722  17.754  1.00  0.00     0.161 A 
ATOM      4  C   UNL     1      17.490  20.075  17.590  1.00  0.00     0.157 A 
ATOM      5  C   UNL     1      17.025  20.543  16.355  1.00  0.00     0.051 A 
ATOM      6  C   UNL     1      16.883  19.667  15.277  1.00  0.00     0.012 A 
ENDROOT
BRANCH   1   7
ATOM      7  C   UNL     1      17.070  17.332  14.305  1.00  0.00     0.003 C 
ATOM      8  C   UNL     1      17.521  16.405  12.068  1.00  0.00     0.035 C 
ATOM      9  C   UNL     1      17.708  17.437  13.134  1.00  0.00    -0.030 C 
ENDBRANCH   1   7
BRANCH   3  10
ATOM     10  O   UNL     1      18.267  18.291  19.009  1.00  0.00    -0.493 OA
ATOM     11  C   UNL     1      17.660  17.257  19.779  1.00  0.00     0.278 C 
ENDBRANCH   3  10
BRANCH   4  12
ATOM     12  O   UNL     1      17.632  20.953  18.664  1.00  0.00    -0.504 OA
ATOM     13  H   UNL     1      18.303  21.711  18.645  1.00  0.00     0.293 HD
ENDBRANCH   4  12
TORSDOF 3
ENDMDL
MODEL 6
REMARK VINA RESULT:    -4.388      7.637      8.177
REMARK INTER + INTRA:          -5.163
REMARK INTER:                  -4.989
REMARK INTRA:                  -0.174
REMARK UNBOUND:                -0.133
REMARK SMILES CC=Cc1ccc(O)c(OC)c1
REMARK SMILES IDX 4 1 12 2 9 3 7 4 6 5 5 6 3 7 1 8 2 9 10 10 11 11 8 12
REMARK H PARENT 8 13
REMARK Flexibility Score: inf
ROOT
ATOM      1  C   UNL     1      18.864  12.641  11.831  1.00  0.00    -0.022 A 
ATOM      2  C   UNL     1      18.710  13.829  12.566  1.00  0.00     0.058 A 
ATOM      3  C   UNL     1      19.540  14.942  12.321  1.00  0.00     0.161 A 
ATOM      4  C   UNL     1      20.521  14.861  11.326  1.00  0.00     0.157 A 
ATOM      5  C   UNL     1      20.669  13.686  10.579  1.00  0.00     0.051 A 
ATOM      6  C   UNL     1      19.846  12.586  10.824  1.00  0.00     0.012 A 
ENDROOT
BRANCH   1   7
ATOM      7  C   UNL     1      17.956  11.503  12.124  1.00  0.00     0.003 C 
ATOM      8  C   UNL     1      16.121  10.346  13.289  1.00  0.00     0.035 C 
ATOM      9  C   UNL     1      17.005  11.530  13.065  1.00  0.00    -0.030 C 
ENDBRANCH   1   7
BRANCH   3  10
ATOM     10  O   UNL     1      19.419  16.139  13.045  1.00  0.00    -0.493 OA
ATOM     11  C   UNL     1      18.337  17.056  12.913  1.00  0.00     0.278 C 
ENDBRANCH   3  10
BRANCH   4  12
ATOM     12  O   UNL     1      21.345  15.958  11.079  1.00  0.00    -0.504 OA
ATOM     13  H   UNL     1      21.965  15.987  10.278  1.00  0.00     0.293 HD
ENDBRANCH   4  12
TORSDOF 3
ENDMDL
MODEL 7
REMARK VINA RESULT:    -4.375      8.145      9.080
REMARK INTER + INTRA:          -5.147
REMARK INTER:                  -4.964
REMARK INTRA:                  -0.184
REMARK UNBOUND:                -0.133
REMARK SMILES CC=Cc1ccc(O)c(OC)c1
REMARK SMILES IDX 4 1 12 2 9 3 7 4 6 5 5 6 3 7 1 8 2 9 10 10 11 11 8 12
REMARK H PARENT 8 13
REMARK Flexibility Score: inf
ROOT
ATOM      1  C   UNL     1      17.591  20.542   9.058  1.00  0.00    -0.022 A 
ATOM      2  C   UNL     1      18.721  21.353   9.262  1.00  0.00     0.058 A 
ATOM      3  C   UNL     1      19.993  20.946   8.813  1.00  0.00     0.161 A 
ATOM      4  C   UNL     1      20.127  19.722   8.147  1.00  0.00     0.157 A 
ATOM      5  C   UNL     1      19.004  18.916   7.926  1.00  0.00     0.051 A 
ATOM      6  C   UNL     1      17.745  19.322   8.373  1.00  0.00     0.012 A 
ENDROOT
BRANCH   1   7
ATOM      7  C   UNL     1      16.274  21.024   9.544  1.00  0.00     0.003 C 
ATOM      8  C   UNL     1      13.814  21.105   9.634  1.00  0.00     0.035 C 
ATOM      9  C   UNL     1      15.100  20.578   9.082  1.00  0.00    -0.030 C 
ENDBRANCH   1   7
BRANCH   3  10
ATOM     10  O   UNL     1      21.142  21.729   9.010  1.00  0.00    -0.493 OA
ATOM     11  C   UNL     1      21.484  22.871   8.230  1.00  0.00     0.278 C 
ENDBRANCH   3  10
BRANCH   4  12
ATOM     12  O   UNL     1      21.382  19.313   7.700  1.00  0.00    -0.504 OA
ATOM     13  H   UNL     1      21.954  19.903   7.107  1.00  0.00     0.293 HD
ENDBRANCH   4  12
TORSDOF 3
ENDMDL
MODEL 8
REMARK VINA RESULT:    -4.367      2.686      4.224
REMARK INTER + INTRA:          -5.139
REMARK INTER:                  -4.977
REMARK INTRA:                  -0.162
REMARK UNBOUND:                -0.133
REMARK SMILES CC=Cc1ccc(O)c(OC)c1
REMARK SMILES IDX 4 1 12 2 9 3 7 4 6 5 5 6 3 7 1 8 2 9 10 10 11 11 8 12
REMARK H PARENT 8 13
REMARK Flexibility Score: inf
ROOT
ATOM      1  C   UNL     1      17.366  17.180  16.046  1.00  0.00    -0.022 A 
ATOM      2  C   UNL     1      17.062  18.422  15.463  1.00  0.00     0.058 A 
ATOM      3  C   UNL     1      17.036  19.598  16.239  1.00  0.00     0.161 A 
ATOM      4  C   UNL     1      17.327  19.525  17.607  1.00  0.00     0.157 A 
ATOM      5  C   UNL     1      17.646  18.293  18.191  1.00  0.00     0.051 A 
ATOM      6  C   UNL     1      17.670  17.130  17.420  1.00  0.00     0.012 A 
ENDROOT
BRANCH   1   7
ATOM      7  C   UNL     1      17.388  15.975  15.180  1.00  0.00     0.003 C 
ATOM      8  C   UNL     1      18.172  13.758  14.447  1.00  0.00     0.035 C 
ATOM      9  C   UNL     1      18.222  14.943  15.357  1.00  0.00    -0.030 C 
ENDBRANCH   1   7
BRANCH   3  10
ATOM     10  O   UNL     1      16.727  20.851  15.688  1.00  0.00    -0.493 OA
ATOM     11  C   UNL     1      16.660  21.126  14.292  1.00  0.00     0.278 C 
ENDBRANCH   3  10
BRANCH   4  12
ATOM     12  O   UNL     1      17.303  20.684  18.380  1.00  0.00    -0.504 OA
ATOM     13  H   UNL     1      16.456  21.001  18.836  1.00  0.00     0.293 HD
ENDBRANCH   4  12
TORSDOF 3
ENDMDL
MODEL 9
REMARK VINA RESULT:    -4.237      7.872      8.855
REMARK INTER + INTRA:          -4.989
REMARK INTER:                  -4.822
REMARK INTRA:                  -0.167
REMARK UNBOUND:                -0.133
REMARK SMILES CC=Cc1ccc(O)c(OC)c1
REMARK SMILES IDX 4 1 12 2 9 3 7 4 6 5 5 6 3 7 1 8 2 9 10 10 11 11 8 12
REMARK H PARENT 8 13
REMARK Flexibility Score: inf
ROOT
ATOM      1  C   UNL     1      17.556  22.125   9.568  1.00  0.00    -0.022 A 
ATOM      2  C   UNL     1      18.558  21.147   9.438  1.00  0.00     0.058 A 
ATOM      3  C   UNL     1      19.849  21.492   8.991  1.00  0.00     0.161 A 
ATOM      4  C   UNL     1      20.136  22.827   8.681  1.00  0.00     0.157 A 
ATOM      5  C   UNL     1      19.147  23.808   8.823  1.00  0.00     0.051 A 
ATOM      6  C   UNL     1      17.869  23.463   9.266  1.00  0.00     0.012 A 
ENDROOT
BRANCH   1   7
ATOM      7  C   UNL     1      16.217  21.708  10.053  1.00  0.00     0.003 C 
ATOM      8  C   UNL     1      14.034  20.576   9.905  1.00  0.00     0.035 C 
ATOM      9  C   UNL     1      15.361  20.967   9.339  1.00  0.00    -0.030 C 
ENDBRANCH   1   7
BRANCH   3  10
ATOM     10  O   UNL     1      20.869  20.538   8.841  1.00  0.00    -0.493 OA
ATOM     11  C   UNL     1      20.874  19.510   7.855  1.00  0.00     0.278 C 
ENDBRANCH   3  10
BRANCH   4  12
ATOM     12  O   UNL     1      21.410  23.174   8.237  1.00  0.00    -0.504 OA
ATOM     13  H   UNL     1      22.022  22.498   7.796  1.00  0.00     0.293 HD
ENDBRANCH   4  12
TORSDOF 3
ENDMDL
