MODEL 1
REMARK VINA RESULT:    -6.750      0.000      0.000
REMARK INTER + INTRA:          -8.216
REMARK INTER:                  -7.934
REMARK INTRA:                  -0.282
REMARK UNBOUND:                -0.282
REMARK SMILES O=c1cc(-c2ccc(O)c(O)c2)oc2cc(O)cc(O)c12
REMARK SMILES IDX 4 1 3 2 2 3 1 4 21 5 19 6 18 7 16 8 15 9 14 10 13 11 5 12
REMARK SMILES IDX 6 13 7 14 8 15 12 16 10 17 9 18 11 20 20 22 17 24
REMARK H PARENT 9 19 11 21 20 23 17 25
REMARK Flexibility Score: inf
ROOT
ATOM      1  C   UNL     1      -7.385 -39.174 -17.627  1.00  0.00     0.138 A 
ATOM      2  C   UNL     1      -7.525 -39.386 -16.248  1.00  0.00     0.100 A 
ATOM      3  C   UNL     1      -6.841 -40.439 -15.638  1.00  0.00     0.197 A 
ATOM      4  O   UNL     1      -7.031 -40.635 -14.410  1.00  0.00    -0.289 OA
ATOM      5  C   UNL     1      -5.986 -41.262 -16.408  1.00  0.00     0.107 A 
ATOM      6  C   UNL     1      -5.211 -42.343 -15.887  1.00  0.00     0.134 A 
ATOM      7  C   UNL     1      -4.476 -43.150 -16.765  1.00  0.00     0.093 A 
ATOM      8  C   UNL     1      -4.439 -42.879 -18.135  1.00  0.00     0.123 A 
ATOM      9  C   UNL     1      -5.151 -41.796 -18.646  1.00  0.00     0.094 A 
ATOM     10  C   UNL     1      -5.922 -40.994 -17.802  1.00  0.00     0.146 A 
ATOM     11  O   UNL     1      -6.600 -39.981 -18.333  1.00  0.00    -0.456 OA
ENDROOT
BRANCH   1  12
ATOM     12  C   UNL     1      -8.086 -38.068 -18.327  1.00  0.00     0.021 A 
ATOM     13  C   UNL     1      -8.630 -38.294 -19.600  1.00  0.00     0.016 A 
ATOM     14  C   UNL     1      -9.299 -37.273 -20.277  1.00  0.00     0.051 A 
ATOM     15  C   UNL     1      -9.450 -36.010 -19.696  1.00  0.00     0.157 A 
ATOM     16  C   UNL     1      -8.249 -36.802 -17.734  1.00  0.00     0.062 A 
ATOM     17  C   UNL     1      -8.923 -35.773 -18.405  1.00  0.00     0.158 A 
BRANCH  15  18
ATOM     18  O   UNL     1     -10.124 -35.030 -20.428  1.00  0.00    -0.504 OA
ATOM     19  H   UNL     1      -9.690 -34.457 -21.138  1.00  0.00     0.293 HD
ENDBRANCH  15  18
BRANCH  17  20
ATOM     20  O   UNL     1      -9.047 -34.543 -17.755  1.00  0.00    -0.504 OA
ATOM     21  H   UNL     1      -8.952 -33.649 -18.214  1.00  0.00     0.293 HD
ENDBRANCH  17  20
ENDBRANCH   1  12
BRANCH   6  22
ATOM     22  O   UNL     1      -5.112 -42.653 -14.528  1.00  0.00    -0.507 OA
ATOM     23  H   UNL     1      -4.862 -43.556 -14.156  1.00  0.00     0.293 HD
ENDBRANCH   6  22
BRANCH   8  24
ATOM     24  O   UNL     1      -3.693 -43.678 -18.998  1.00  0.00    -0.508 OA
ATOM     25  H   UNL     1      -3.638 -44.682 -18.876  1.00  0.00     0.293 HD
ENDBRANCH   8  24
TORSDOF 5
ENDMDL
MODEL 2
REMARK VINA RESULT:    -6.619      1.322      2.964
REMARK INTER + INTRA:          -8.062
REMARK INTER:                  -7.757
REMARK INTRA:                  -0.304
REMARK UNBOUND:                -0.282
REMARK SMILES O=c1cc(-c2ccc(O)c(O)c2)oc2cc(O)cc(O)c12
REMARK SMILES IDX 4 1 3 2 2 3 1 4 21 5 19 6 18 7 16 8 15 9 14 10 13 11 5 12
REMARK SMILES IDX 6 13 7 14 8 15 12 16 10 17 9 18 11 20 20 22 17 24
REMARK H PARENT 9 19 11 21 20 23 17 25
REMARK Flexibility Score: inf
ROOT
ATOM      1  C   UNL     1      -7.481 -39.148 -17.513  1.00  0.00     0.138 A 
ATOM      2  C   UNL     1      -6.733 -40.135 -18.170  1.00  0.00     0.100 A 
ATOM      3  C   UNL     1      -6.120 -41.145 -17.427  1.00  0.00     0.197 A 
ATOM      4  O   UNL     1      -5.409 -41.983 -18.042  1.00  0.00    -0.289 OA
ATOM      5  C   UNL     1      -6.287 -41.187 -16.023  1.00  0.00     0.107 A 
ATOM      6  C   UNL     1      -5.738 -42.189 -15.167  1.00  0.00     0.134 A 
ATOM      7  C   UNL     1      -5.889 -42.070 -13.780  1.00  0.00     0.093 A 
ATOM      8  C   UNL     1      -6.620 -41.019 -13.221  1.00  0.00     0.123 A 
ATOM      9  C   UNL     1      -7.202 -40.063 -14.051  1.00  0.00     0.094 A 
ATOM     10  C   UNL     1      -7.040 -40.134 -15.436  1.00  0.00     0.146 A 
ATOM     11  O   UNL     1      -7.597 -39.192 -16.190  1.00  0.00    -0.456 OA
ENDROOT
BRANCH   1  12
ATOM     12  C   UNL     1      -8.157 -38.052 -18.253  1.00  0.00     0.021 A 
ATOM     13  C   UNL     1      -8.656 -38.295 -19.542  1.00  0.00     0.016 A 
ATOM     14  C   UNL     1      -9.300 -37.284 -20.255  1.00  0.00     0.051 A 
ATOM     15  C   UNL     1      -9.472 -36.013 -19.697  1.00  0.00     0.157 A 
ATOM     16  C   UNL     1      -8.342 -36.778 -17.683  1.00  0.00     0.062 A 
ATOM     17  C   UNL     1      -8.991 -35.759 -18.391  1.00  0.00     0.158 A 
BRANCH  15  18
ATOM     18  O   UNL     1     -10.120 -35.044 -20.466  1.00  0.00    -0.504 OA
ATOM     19  H   UNL     1      -9.989 -34.932 -21.461  1.00  0.00     0.293 HD
ENDBRANCH  15  18
BRANCH  17  20
ATOM     20  O   UNL     1      -9.140 -34.520 -17.762  1.00  0.00    -0.504 OA
ATOM     21  H   UNL     1      -9.689 -33.760 -18.134  1.00  0.00     0.293 HD
ENDBRANCH  17  20
ENDBRANCH   1  12
BRANCH   6  22
ATOM     22  O   UNL     1      -5.059 -43.323 -15.623  1.00  0.00    -0.507 OA
ATOM     23  H   UNL     1      -4.076 -43.501 -15.493  1.00  0.00     0.293 HD
ENDBRANCH   6  22
BRANCH   8  24
ATOM     24  O   UNL     1      -6.778 -40.917 -11.841  1.00  0.00    -0.508 OA
ATOM     25  H   UNL     1      -6.383 -41.605 -11.210  1.00  0.00     0.293 HD
ENDBRANCH   8  24
TORSDOF 5
ENDMDL
MODEL 3
REMARK VINA RESULT:    -6.504      1.600      6.693
REMARK INTER + INTRA:          -7.927
REMARK INTER:                  -7.633
REMARK INTRA:                  -0.294
REMARK UNBOUND:                -0.282
REMARK SMILES O=c1cc(-c2ccc(O)c(O)c2)oc2cc(O)cc(O)c12
REMARK SMILES IDX 4 1 3 2 2 3 1 4 21 5 19 6 18 7 16 8 15 9 14 10 13 11 5 12
REMARK SMILES IDX 6 13 7 14 8 15 12 16 10 17 9 18 11 20 20 22 17 24
REMARK H PARENT 9 19 11 21 20 23 17 25
REMARK Flexibility Score: inf
ROOT
ATOM      1  C   UNL     1      -6.295 -40.146 -18.367  1.00  0.00     0.138 A 
ATOM      2  C   UNL     1      -6.698 -40.325 -17.037  1.00  0.00     0.100 A 
ATOM      3  C   UNL     1      -7.612 -39.439 -16.467  1.00  0.00     0.197 A 
ATOM      4  O   UNL     1      -7.911 -39.595 -15.254  1.00  0.00    -0.289 OA
ATOM      5  C   UNL     1      -8.153 -38.388 -17.244  1.00  0.00     0.107 A 
ATOM      6  C   UNL     1      -9.118 -37.444 -16.779  1.00  0.00     0.134 A 
ATOM      7  C   UNL     1      -9.505 -36.386 -17.612  1.00  0.00     0.093 A 
ATOM      8  C   UNL     1      -9.008 -36.272 -18.912  1.00  0.00     0.123 A 
ATOM      9  C   UNL     1      -8.104 -37.217 -19.393  1.00  0.00     0.094 A 
ATOM     10  C   UNL     1      -7.671 -38.263 -18.575  1.00  0.00     0.146 A 
ATOM     11  O   UNL     1      -6.794 -39.132 -19.067  1.00  0.00    -0.456 OA
ENDROOT
BRANCH   1  12
ATOM     12  C   UNL     1      -5.328 -41.060 -19.026  1.00  0.00     0.021 A 
ATOM     13  C   UNL     1      -4.680 -40.648 -20.200  1.00  0.00     0.016 A 
ATOM     14  C   UNL     1      -3.762 -41.487 -20.835  1.00  0.00     0.051 A 
ATOM     15  C   UNL     1      -3.463 -42.747 -20.309  1.00  0.00     0.157 A 
ATOM     16  C   UNL     1      -5.018 -42.323 -18.487  1.00  0.00     0.062 A 
ATOM     17  C   UNL     1      -4.095 -43.169 -19.116  1.00  0.00     0.158 A 
BRANCH  15  18
ATOM     18  O   UNL     1      -2.541 -43.540 -20.996  1.00  0.00    -0.504 OA
ATOM     19  H   UNL     1      -2.526 -43.648 -22.000  1.00  0.00     0.293 HD
ENDBRANCH  15  18
BRANCH  17  20
ATOM     20  O   UNL     1      -3.835 -44.407 -18.523  1.00  0.00    -0.504 OA
ATOM     21  H   UNL     1      -4.345 -45.252 -18.734  1.00  0.00     0.293 HD
ENDBRANCH  17  20
ENDBRANCH   1  12
BRANCH   6  22
ATOM     22  O   UNL     1      -9.739 -37.509 -15.528  1.00  0.00    -0.507 OA
ATOM     23  H   UNL     1     -10.507 -38.117 -15.294  1.00  0.00     0.293 HD
ENDBRANCH   6  22
BRANCH   8  24
ATOM     24  O   UNL     1      -9.411 -35.226 -19.739  1.00  0.00    -0.508 OA
ATOM     25  H   UNL     1      -8.918 -35.009 -20.597  1.00  0.00     0.293 HD
ENDBRANCH   8  24
TORSDOF 5
ENDMDL
MODEL 4
REMARK VINA RESULT:    -6.310      2.523      4.267
REMARK INTER + INTRA:          -7.699
REMARK INTER:                  -7.381
REMARK INTRA:                  -0.318
REMARK UNBOUND:                -0.282
REMARK SMILES O=c1cc(-c2ccc(O)c(O)c2)oc2cc(O)cc(O)c12
REMARK SMILES IDX 4 1 3 2 2 3 1 4 21 5 19 6 18 7 16 8 15 9 14 10 13 11 5 12
REMARK SMILES IDX 6 13 7 14 8 15 12 16 10 17 9 18 11 20 20 22 17 24
REMARK H PARENT 9 19 11 21 20 23 17 25
REMARK Flexibility Score: inf
ROOT
ATOM      1  C   UNL     1      -6.180 -40.419 -18.345  1.00  0.00     0.138 A 
ATOM      2  C   UNL     1      -5.586 -41.605 -17.890  1.00  0.00     0.100 A 
ATOM      3  C   UNL     1      -4.709 -42.302 -18.723  1.00  0.00     0.197 A 
ATOM      4  O   UNL     1      -4.237 -43.391 -18.306  1.00  0.00    -0.289 OA
ATOM      5  C   UNL     1      -4.398 -41.789 -20.004  1.00  0.00     0.107 A 
ATOM      6  C   UNL     1      -3.491 -42.395 -20.926  1.00  0.00     0.134 A 
ATOM      7  C   UNL     1      -3.338 -41.846 -22.205  1.00  0.00     0.093 A 
ATOM      8  C   UNL     1      -4.013 -40.680 -22.576  1.00  0.00     0.123 A 
ATOM      9  C   UNL     1      -4.862 -40.053 -21.667  1.00  0.00     0.094 A 
ATOM     10  C   UNL     1      -5.063 -40.595 -20.395  1.00  0.00     0.146 A 
ATOM     11  O   UNL     1      -5.895 -39.975 -19.564  1.00  0.00    -0.456 OA
ENDROOT
BRANCH   1  12
ATOM     12  C   UNL     1      -7.117 -39.636 -17.501  1.00  0.00     0.021 A 
ATOM     13  C   UNL     1      -7.538 -40.160 -16.269  1.00  0.00     0.016 A 
ATOM     14  C   UNL     1      -8.414 -39.440 -15.455  1.00  0.00     0.051 A 
ATOM     15  C   UNL     1      -8.881 -38.181 -15.844  1.00  0.00     0.157 A 
ATOM     16  C   UNL     1      -7.574 -38.362 -17.888  1.00  0.00     0.062 A 
ATOM     17  C   UNL     1      -8.451 -37.633 -17.075  1.00  0.00     0.158 A 
BRANCH  15  18
ATOM     18  O   UNL     1      -9.760 -37.517 -14.987  1.00  0.00    -0.504 OA
ATOM     19  H   UNL     1     -10.090 -36.574 -15.135  1.00  0.00     0.293 HD
ENDBRANCH  15  18
BRANCH  17  20
ATOM     20  O   UNL     1      -8.862 -36.375 -17.523  1.00  0.00    -0.504 OA
ATOM     21  H   UNL     1      -9.658 -35.876 -17.154  1.00  0.00     0.293 HD
ENDBRANCH  17  20
ENDBRANCH   1  12
BRANCH   6  22
ATOM     22  O   UNL     1      -2.706 -43.514 -20.632  1.00  0.00    -0.507 OA
ATOM     23  H   UNL     1      -2.286 -43.708 -19.737  1.00  0.00     0.293 HD
ENDBRANCH   6  22
BRANCH   8  24
ATOM     24  O   UNL     1      -3.843 -40.133 -23.846  1.00  0.00    -0.508 OA
ATOM     25  H   UNL     1      -4.423 -39.371 -24.176  1.00  0.00     0.293 HD
ENDBRANCH   8  24
TORSDOF 5
ENDMDL
MODEL 5
REMARK VINA RESULT:    -6.251      2.424      6.122
REMARK INTER + INTRA:          -7.629
REMARK INTER:                  -7.311
REMARK INTRA:                  -0.318
REMARK UNBOUND:                -0.282
REMARK SMILES O=c1cc(-c2ccc(O)c(O)c2)oc2cc(O)cc(O)c12
REMARK SMILES IDX 4 1 3 2 2 3 1 4 21 5 19 6 18 7 16 8 15 9 14 10 13 11 5 12
REMARK SMILES IDX 6 13 7 14 8 15 12 16 10 17 9 18 11 20 20 22 17 24
REMARK H PARENT 9 19 11 21 20 23 17 25
REMARK Flexibility Score: inf
ROOT
ATOM      1  C   UNL     1      -5.997 -39.990 -19.269  1.00  0.00     0.138 A 
ATOM      2  C   UNL     1      -6.792 -38.864 -19.526  1.00  0.00     0.100 A 
ATOM      3  C   UNL     1      -7.572 -38.322 -18.504  1.00  0.00     0.197 A 
ATOM      4  O   UNL     1      -8.317 -37.346 -18.781  1.00  0.00    -0.289 OA
ATOM      5  C   UNL     1      -7.529 -38.890 -17.209  1.00  0.00     0.107 A 
ATOM      6  C   UNL     1      -8.255 -38.401 -16.080  1.00  0.00     0.134 A 
ATOM      7  C   UNL     1      -8.208 -39.107 -14.872  1.00  0.00     0.093 A 
ATOM      8  C   UNL     1      -7.416 -40.248 -14.733  1.00  0.00     0.123 A 
ATOM      9  C   UNL     1      -6.664 -40.705 -15.813  1.00  0.00     0.094 A 
ATOM     10  C   UNL     1      -6.717 -40.044 -17.042  1.00  0.00     0.146 A 
ATOM     11  O   UNL     1      -5.998 -40.523 -18.052  1.00  0.00    -0.456 OA
ENDROOT
BRANCH   1  12
ATOM     12  C   UNL     1      -5.145 -40.605 -20.318  1.00  0.00     0.021 A 
ATOM     13  C   UNL     1      -5.196 -40.107 -21.628  1.00  0.00     0.016 A 
ATOM     14  C   UNL     1      -4.401 -40.665 -22.630  1.00  0.00     0.051 A 
ATOM     15  C   UNL     1      -3.530 -41.722 -22.347  1.00  0.00     0.157 A 
ATOM     16  C   UNL     1      -4.259 -41.660 -20.027  1.00  0.00     0.062 A 
ATOM     17  C   UNL     1      -3.455 -42.223 -21.026  1.00  0.00     0.158 A 
BRANCH  15  18
ATOM     18  O   UNL     1      -2.767 -42.239 -23.396  1.00  0.00    -0.504 OA
ATOM     19  H   UNL     1      -2.681 -43.224 -23.600  1.00  0.00     0.293 HD
ENDBRANCH  15  18
BRANCH  17  20
ATOM     20  O   UNL     1      -2.598 -43.265 -20.664  1.00  0.00    -0.504 OA
ATOM     21  H   UNL     1      -1.872 -43.633 -21.261  1.00  0.00     0.293 HD
ENDBRANCH  17  20
ENDBRANCH   1  12
BRANCH   6  22
ATOM     22  O   UNL     1      -9.014 -37.227 -16.086  1.00  0.00    -0.507 OA
ATOM     23  H   UNL     1      -8.805 -36.399 -15.549  1.00  0.00     0.293 HD
ENDBRANCH   6  22
BRANCH   8  24
ATOM     24  O   UNL     1      -7.364 -40.935 -13.521  1.00  0.00    -0.508 OA
ATOM     25  H   UNL     1      -7.679 -41.895 -13.443  1.00  0.00     0.293 HD
ENDBRANCH   8  24
TORSDOF 5
ENDMDL
MODEL 6
REMARK VINA RESULT:    -6.133      2.912      4.849
REMARK INTER + INTRA:          -7.491
REMARK INTER:                  -7.193
REMARK INTRA:                  -0.297
REMARK UNBOUND:                -0.282
REMARK SMILES O=c1cc(-c2ccc(O)c(O)c2)oc2cc(O)cc(O)c12
REMARK SMILES IDX 4 1 3 2 2 3 1 4 21 5 19 6 18 7 16 8 15 9 14 10 13 11 5 12
REMARK SMILES IDX 6 13 7 14 8 15 12 16 10 17 9 18 11 20 20 22 17 24
REMARK H PARENT 9 19 11 21 20 23 17 25
REMARK Flexibility Score: inf
ROOT
ATOM      1  C   UNL     1      -5.625 -40.308 -19.757  1.00  0.00     0.138 A 
ATOM      2  C   UNL     1      -5.264 -39.746 -20.989  1.00  0.00     0.100 A 
ATOM      3  C   UNL     1      -4.504 -40.491 -21.891  1.00  0.00     0.197 A 
ATOM      4  O   UNL     1      -4.149 -39.937 -22.965  1.00  0.00    -0.289 OA
ATOM      5  C   UNL     1      -4.134 -41.819 -21.573  1.00  0.00     0.107 A 
ATOM      6  C   UNL     1      -3.390 -42.685 -22.430  1.00  0.00     0.134 A 
ATOM      7  C   UNL     1      -2.999 -43.946 -21.964  1.00  0.00     0.093 A 
ATOM      8  C   UNL     1      -3.375 -44.396 -20.696  1.00  0.00     0.123 A 
ATOM      9  C   UNL     1      -4.144 -43.578 -19.871  1.00  0.00     0.094 A 
ATOM     10  C   UNL     1      -4.520 -42.301 -20.293  1.00  0.00     0.146 A 
ATOM     11  O   UNL     1      -5.239 -41.546 -19.468  1.00  0.00    -0.456 OA
ENDROOT
BRANCH   1  12
ATOM     12  C   UNL     1      -6.435 -39.563 -18.760  1.00  0.00     0.021 A 
ATOM     13  C   UNL     1      -6.794 -40.189 -17.557  1.00  0.00     0.016 A 
ATOM     14  C   UNL     1      -7.550 -39.508 -16.601  1.00  0.00     0.051 A 
ATOM     15  C   UNL     1      -7.955 -38.187 -16.818  1.00  0.00     0.157 A 
ATOM     16  C   UNL     1      -6.829 -38.229 -18.974  1.00  0.00     0.062 A 
ATOM     17  C   UNL     1      -7.584 -37.537 -18.019  1.00  0.00     0.158 A 
BRANCH  15  18
ATOM     18  O   UNL     1      -8.714 -37.565 -15.825  1.00  0.00    -0.504 OA
ATOM     19  H   UNL     1      -9.179 -38.059 -15.077  1.00  0.00     0.293 HD
ENDBRANCH  15  18
BRANCH  17  20
ATOM     20  O   UNL     1      -7.938 -36.215 -18.299  1.00  0.00    -0.504 OA
ATOM     21  H   UNL     1      -8.429 -35.613 -17.655  1.00  0.00     0.293 HD
ENDBRANCH  17  20
ENDBRANCH   1  12
BRANCH   6  22
ATOM     22  O   UNL     1      -3.030 -42.368 -23.743  1.00  0.00    -0.507 OA
ATOM     23  H   UNL     1      -3.625 -42.477 -24.549  1.00  0.00     0.293 HD
ENDBRANCH   6  22
BRANCH   8  24
ATOM     24  O   UNL     1      -2.994 -45.659 -20.248  1.00  0.00    -0.508 OA
ATOM     25  H   UNL     1      -2.680 -46.377 -20.890  1.00  0.00     0.293 HD
ENDBRANCH   8  24
TORSDOF 5
ENDMDL
MODEL 7
REMARK VINA RESULT:    -5.894      1.758      3.765
REMARK INTER + INTRA:          -7.210
REMARK INTER:                  -6.892
REMARK INTRA:                  -0.318
REMARK UNBOUND:                -0.282
REMARK SMILES O=c1cc(-c2ccc(O)c(O)c2)oc2cc(O)cc(O)c12
REMARK SMILES IDX 4 1 3 2 2 3 1 4 21 5 19 6 18 7 16 8 15 9 14 10 13 11 5 12
REMARK SMILES IDX 6 13 7 14 8 15 12 16 10 17 9 18 11 20 20 22 17 24
REMARK H PARENT 9 19 11 21 20 23 17 25
REMARK Flexibility Score: inf
ROOT
ATOM      1  C   UNL     1      -6.152 -41.185 -17.019  1.00  0.00     0.138 A 
ATOM      2  C   UNL     1      -5.463 -41.669 -18.140  1.00  0.00     0.100 A 
ATOM      3  C   UNL     1      -4.767 -42.875 -18.055  1.00  0.00     0.197 A 
ATOM      4  O   UNL     1      -4.114 -43.254 -19.063  1.00  0.00    -0.289 OA
ATOM      5  C   UNL     1      -4.790 -43.618 -16.852  1.00  0.00     0.107 A 
ATOM      6  C   UNL     1      -4.145 -44.878 -16.660  1.00  0.00     0.134 A 
ATOM      7  C   UNL     1      -4.156 -45.472 -15.391  1.00  0.00     0.093 A 
ATOM      8  C   UNL     1      -4.837 -44.882 -14.324  1.00  0.00     0.123 A 
ATOM      9  C   UNL     1      -5.512 -43.678 -14.513  1.00  0.00     0.094 A 
ATOM     10  C   UNL     1      -5.490 -43.043 -15.757  1.00  0.00     0.146 A 
ATOM     11  O   UNL     1      -6.132 -41.886 -15.891  1.00  0.00    -0.456 OA
ENDROOT
BRANCH   1  12
ATOM     12  C   UNL     1      -6.911 -39.910 -17.053  1.00  0.00     0.021 A 
ATOM     13  C   UNL     1      -6.873 -39.115 -18.209  1.00  0.00     0.016 A 
ATOM     14  C   UNL     1      -7.583 -37.915 -18.268  1.00  0.00     0.051 A 
ATOM     15  C   UNL     1      -8.354 -37.486 -17.184  1.00  0.00     0.157 A 
ATOM     16  C   UNL     1      -7.698 -39.487 -15.966  1.00  0.00     0.062 A 
ATOM     17  C   UNL     1      -8.417 -38.286 -16.019  1.00  0.00     0.158 A 
BRANCH  15  18
ATOM     18  O   UNL     1      -9.036 -36.273 -17.305  1.00  0.00    -0.504 OA
ATOM     19  H   UNL     1      -8.653 -35.381 -17.028  1.00  0.00     0.293 HD
ENDBRANCH  15  18
BRANCH  17  20
ATOM     20  O   UNL     1      -9.178 -37.931 -14.902  1.00  0.00    -0.504 OA
ATOM     21  H   UNL     1      -9.407 -36.980 -14.654  1.00  0.00     0.293 HD
ENDBRANCH  17  20
ENDBRANCH   1  12
BRANCH   6  22
ATOM     22  O   UNL     1      -3.504 -45.593 -17.675  1.00  0.00    -0.507 OA
ATOM     23  H   UNL     1      -2.773 -46.272 -17.534  1.00  0.00     0.293 HD
ENDBRANCH   6  22
BRANCH   8  24
ATOM     24  O   UNL     1      -4.855 -45.488 -13.070  1.00  0.00    -0.508 OA
ATOM     25  H   UNL     1      -4.399 -46.378 -12.905  1.00  0.00     0.293 HD
ENDBRANCH   8  24
TORSDOF 5
ENDMDL
MODEL 8
REMARK VINA RESULT:    -5.832      3.054      5.048
REMARK INTER + INTRA:          -7.137
REMARK INTER:                  -6.820
REMARK INTRA:                  -0.317
REMARK UNBOUND:                -0.282
REMARK SMILES O=c1cc(-c2ccc(O)c(O)c2)oc2cc(O)cc(O)c12
REMARK SMILES IDX 4 1 3 2 2 3 1 4 21 5 19 6 18 7 16 8 15 9 14 10 13 11 5 12
REMARK SMILES IDX 6 13 7 14 8 15 12 16 10 17 9 18 11 20 20 22 17 24
REMARK H PARENT 9 19 11 21 20 23 17 25
REMARK Flexibility Score: inf
ROOT
ATOM      1  C   UNL     1      -6.524 -41.769 -14.883  1.00  0.00     0.138 A 
ATOM      2  C   UNL     1      -5.524 -42.424 -15.615  1.00  0.00     0.100 A 
ATOM      3  C   UNL     1      -4.967 -43.604 -15.120  1.00  0.00     0.197 A 
ATOM      4  O   UNL     1      -4.032 -44.137 -15.774  1.00  0.00    -0.289 OA
ATOM      5  C   UNL     1      -5.438 -44.149 -13.903  1.00  0.00     0.107 A 
ATOM      6  C   UNL     1      -4.969 -45.365 -13.318  1.00  0.00     0.134 A 
ATOM      7  C   UNL     1      -5.442 -45.752 -12.059  1.00  0.00     0.093 A 
ATOM      8  C   UNL     1      -6.411 -45.001 -11.389  1.00  0.00     0.123 A 
ATOM      9  C   UNL     1      -6.913 -43.840 -11.974  1.00  0.00     0.094 A 
ATOM     10  C   UNL     1      -6.435 -43.408 -13.213  1.00  0.00     0.146 A 
ATOM     11  O   UNL     1      -6.928 -42.285 -13.727  1.00  0.00    -0.456 OA
ENDROOT
BRANCH   1  12
ATOM     12  C   UNL     1      -7.154 -40.514 -15.363  1.00  0.00     0.021 A 
ATOM     13  C   UNL     1      -6.924 -40.086 -16.679  1.00  0.00     0.016 A 
ATOM     14  C   UNL     1      -7.510 -38.912 -17.156  1.00  0.00     0.051 A 
ATOM     15  C   UNL     1      -8.345 -38.146 -16.337  1.00  0.00     0.157 A 
ATOM     16  C   UNL     1      -8.007 -39.752 -14.541  1.00  0.00     0.062 A 
ATOM     17  C   UNL     1      -8.601 -38.575 -15.014  1.00  0.00     0.158 A 
BRANCH  15  18
ATOM     18  O   UNL     1      -8.895 -36.979 -16.873  1.00  0.00    -0.504 OA
ATOM     19  H   UNL     1      -9.417 -36.946 -17.737  1.00  0.00     0.293 HD
ENDBRANCH  15  18
BRANCH  17  20
ATOM     20  O   UNL     1      -9.436 -37.871 -14.143  1.00  0.00    -0.504 OA
ATOM     21  H   UNL     1      -9.237 -36.945 -13.794  1.00  0.00     0.293 HD
ENDBRANCH  17  20
ENDBRANCH   1  12
BRANCH   6  22
ATOM     22  O   UNL     1      -4.062 -46.231 -13.935  1.00  0.00    -0.507 OA
ATOM     23  H   UNL     1      -3.059 -46.166 -13.865  1.00  0.00     0.293 HD
ENDBRANCH   6  22
BRANCH   8  24
ATOM     24  O   UNL     1      -6.888 -45.403 -10.143  1.00  0.00    -0.508 OA
ATOM     25  H   UNL     1      -6.541 -46.239  -9.688  1.00  0.00     0.293 HD
ENDBRANCH   8  24
TORSDOF 5
ENDMDL
