MODEL 1
REMARK VINA RESULT:    -4.423      0.000      0.000
REMARK INTER + INTRA:         -10.567
REMARK INTER:                  -8.302
REMARK INTRA:                  -2.266
REMARK UNBOUND:                -2.266
REMARK SMILES O=C([O-])CCCCCCCCCCCCCCC(=O)[O-]
REMARK SMILES IDX 10 1 9 2 8 3 7 4 6 5 5 6 4 7 2 8 1 9 3 10 11 11 12 12 13 13
REMARK SMILES IDX 14 14 15 15 16 16 17 17 18 18 19 19 20 20
REMARK H PARENT
REMARK Flexibility Score: inf
ROOT
ATOM      1  C   UNL     1      24.071   5.965   6.812  1.00  0.00     0.000 C 
ENDROOT
BRANCH   1   2
ATOM      2  C   UNL     1      23.536   6.632   8.092  1.00  0.00     0.000 C 
BRANCH   2   3
ATOM      3  C   UNL     1      24.606   7.043   9.120  1.00  0.00     0.000 C 
BRANCH   3   4
ATOM      4  C   UNL     1      24.624   6.136  10.363  1.00  0.00     0.000 C 
BRANCH   4   5
ATOM      5  C   UNL     1      25.943   5.357  10.520  1.00  0.00     0.000 C 
BRANCH   5   6
ATOM      6  C   UNL     1      27.211   6.109  10.065  1.00  0.00     0.006 C 
BRANCH   6   7
ATOM      7  C   UNL     1      28.490   5.257  10.050  1.00  0.00     0.053 C 
BRANCH   7   8
ATOM      8  C   UNL     1      28.822   4.721  11.409  1.00  0.00     0.041 C 
ATOM      9  O   UNL     1      28.881   3.479  11.601  1.00  0.00    -0.550 OA
ATOM     10  O   UNL     1      29.099   5.594  12.454  1.00  0.00    -0.550 OA
ENDBRANCH   7   8
ENDBRANCH   6   7
ENDBRANCH   5   6
ENDBRANCH   4   5
ENDBRANCH   3   4
ENDBRANCH   2   3
ENDBRANCH   1   2
BRANCH   1  11
ATOM     11  C   UNL     1      25.600   6.063   6.678  1.00  0.00     0.000 C 
BRANCH  11  12
ATOM     12  C   UNL     1      26.286   4.687   6.723  1.00  0.00     0.000 C 
BRANCH  12  13
ATOM     13  C   UNL     1      25.284   3.535   6.924  1.00  0.00     0.000 C 
BRANCH  13  14
ATOM     14  C   UNL     1      25.723   2.557   8.026  1.00  0.00     0.000 C 
BRANCH  14  15
ATOM     15  C   UNL     1      27.239   2.606   8.290  1.00  0.00     0.000 C 
BRANCH  15  16
ATOM     16  C   UNL     1      27.880   1.207   8.337  1.00  0.00     0.006 C 
BRANCH  16  17
ATOM     17  C   UNL     1      26.913   0.054   8.022  1.00  0.00     0.053 C 
BRANCH  17  18
ATOM     18  C   UNL     1      27.217  -0.593   6.707  1.00  0.00     0.041 C 
ATOM     19  O   UNL     1      28.020  -1.562   6.648  1.00  0.00    -0.550 OA
ATOM     20  O   UNL     1      26.589  -0.149   5.550  1.00  0.00    -0.550 OA
ENDBRANCH  17  18
ENDBRANCH  16  17
ENDBRANCH  15  16
ENDBRANCH  14  15
ENDBRANCH  13  14
ENDBRANCH  12  13
ENDBRANCH  11  12
ENDBRANCH   1  11
TORSDOF 15
ENDMDL
MODEL 2
REMARK VINA RESULT:    -4.287      1.451      2.695
REMARK INTER + INTRA:         -10.311
REMARK INTER:                  -8.169
REMARK INTRA:                  -2.142
REMARK UNBOUND:                -2.266
REMARK SMILES O=C([O-])CCCCCCCCCCCCCCC(=O)[O-]
REMARK SMILES IDX 10 1 9 2 8 3 7 4 6 5 5 6 4 7 2 8 1 9 3 10 11 11 12 12 13 13
REMARK SMILES IDX 14 14 15 15 16 16 17 17 18 18 19 19 20 20
REMARK H PARENT
REMARK Flexibility Score: inf
ROOT
ATOM      1  C   UNL     1      24.953   8.895   8.988  1.00  0.00     0.000 C 
ENDROOT
BRANCH   1   2
ATOM      2  C   UNL     1      24.146   8.144  10.061  1.00  0.00     0.000 C 
BRANCH   2   3
ATOM      3  C   UNL     1      23.533   6.805   9.611  1.00  0.00     0.000 C 
BRANCH   3   4
ATOM      4  C   UNL     1      23.826   5.652  10.586  1.00  0.00     0.000 C 
BRANCH   4   5
ATOM      5  C   UNL     1      25.284   5.641  11.083  1.00  0.00     0.000 C 
BRANCH   5   6
ATOM      6  C   UNL     1      26.222   4.656  10.355  1.00  0.00     0.006 C 
BRANCH   6   7
ATOM      7  C   UNL     1      27.673   5.140  10.214  1.00  0.00     0.053 C 
BRANCH   7   8
ATOM      8  C   UNL     1      28.515   4.736  11.384  1.00  0.00     0.041 C 
ATOM      9  O   UNL     1      28.930   5.604  12.196  1.00  0.00    -0.550 OA
ATOM     10  O   UNL     1      28.813   3.395  11.598  1.00  0.00    -0.550 OA
ENDBRANCH   7   8
ENDBRANCH   6   7
ENDBRANCH   5   6
ENDBRANCH   4   5
ENDBRANCH   3   4
ENDBRANCH   2   3
ENDBRANCH   1   2
BRANCH   1  11
ATOM     11  C   UNL     1      25.928   7.984   8.221  1.00  0.00     0.000 C 
BRANCH  11  12
ATOM     12  C   UNL     1      25.447   7.674   6.793  1.00  0.00     0.000 C 
BRANCH  12  13
ATOM     13  C   UNL     1      26.499   6.906   5.972  1.00  0.00     0.000 C 
BRANCH  13  14
ATOM     14  C   UNL     1      26.543   5.409   6.323  1.00  0.00     0.000 C 
BRANCH  14  15
ATOM     15  C   UNL     1      25.190   4.881   6.830  1.00  0.00     0.000 C 
BRANCH  15  16
ATOM     16  C   UNL     1      25.115   3.343   6.831  1.00  0.00     0.006 C 
BRANCH  16  17
ATOM     17  C   UNL     1      26.468   2.640   6.636  1.00  0.00     0.053 C 
BRANCH  17  18
ATOM     18  C   UNL     1      26.751   1.651   7.724  1.00  0.00     0.041 C 
ATOM     19  O   UNL     1      26.159   0.539   7.738  1.00  0.00    -0.550 OA
ATOM     20  O   UNL     1      27.692   1.942   8.703  1.00  0.00    -0.550 OA
ENDBRANCH  17  18
ENDBRANCH  16  17
ENDBRANCH  15  16
ENDBRANCH  14  15
ENDBRANCH  13  14
ENDBRANCH  12  13
ENDBRANCH  11  12
ENDBRANCH   1  11
TORSDOF 15
ENDMDL
MODEL 3
REMARK VINA RESULT:    -4.177      2.563      5.594
REMARK INTER + INTRA:         -10.106
REMARK INTER:                  -8.022
REMARK INTRA:                  -2.084
REMARK UNBOUND:                -2.266
REMARK SMILES O=C([O-])CCCCCCCCCCCCCCC(=O)[O-]
REMARK SMILES IDX 10 1 9 2 8 3 7 4 6 5 5 6 4 7 2 8 1 9 3 10 11 11 12 12 13 13
REMARK SMILES IDX 14 14 15 15 16 16 17 17 18 18 19 19 20 20
REMARK H PARENT
REMARK Flexibility Score: inf
ROOT
ATOM      1  C   UNL     1      27.167   6.342   9.587  1.00  0.00     0.000 C 
ENDROOT
BRANCH   1   2
ATOM      2  C   UNL     1      26.998   5.168  10.568  1.00  0.00     0.000 C 
BRANCH   2   3
ATOM      3  C   UNL     1      27.760   3.882  10.197  1.00  0.00     0.000 C 
BRANCH   3   4
ATOM      4  C   UNL     1      28.061   3.776   8.692  1.00  0.00     0.000 C 
BRANCH   4   5
ATOM      5  C   UNL     1      27.698   2.400   8.102  1.00  0.00     0.000 C 
BRANCH   5   6
ATOM      6  C   UNL     1      27.931   1.198   9.040  1.00  0.00     0.006 C 
BRANCH   6   7
ATOM      7  C   UNL     1      28.511  -0.048   8.353  1.00  0.00     0.053 C 
BRANCH   7   8
ATOM      8  C   UNL     1      27.873  -1.309   8.848  1.00  0.00     0.041 C 
ATOM      9  O   UNL     1      27.656  -2.261   8.054  1.00  0.00    -0.550 OA
ATOM     10  O   UNL     1      27.550  -1.445  10.192  1.00  0.00    -0.550 OA
ENDBRANCH   7   8
ENDBRANCH   6   7
ENDBRANCH   5   6
ENDBRANCH   4   5
ENDBRANCH   3   4
ENDBRANCH   2   3
ENDBRANCH   1   2
BRANCH   1  11
ATOM     11  C   UNL     1      26.028   7.373   9.682  1.00  0.00     0.000 C 
BRANCH  11  12
ATOM     12  C   UNL     1      25.763   8.085   8.345  1.00  0.00     0.000 C 
BRANCH  12  13
ATOM     13  C   UNL     1      26.816   7.740   7.275  1.00  0.00     0.000 C 
BRANCH  13  14
ATOM     14  C   UNL     1      26.207   7.023   6.059  1.00  0.00     0.000 C 
BRANCH  14  15
ATOM     15  C   UNL     1      26.046   5.509   6.285  1.00  0.00     0.000 C 
BRANCH  15  16
ATOM     16  C   UNL     1      24.595   5.106   6.606  1.00  0.00     0.006 C 
BRANCH  16  17
ATOM     17  C   UNL     1      24.434   4.276   7.889  1.00  0.00     0.053 C 
BRANCH  17  18
ATOM     18  C   UNL     1      23.531   4.941   8.881  1.00  0.00     0.041 C 
ATOM     19  O   UNL     1      22.778   5.883   8.520  1.00  0.00    -0.550 OA
ATOM     20  O   UNL     1      23.497   4.498  10.198  1.00  0.00    -0.550 OA
ENDBRANCH  17  18
ENDBRANCH  16  17
ENDBRANCH  15  16
ENDBRANCH  14  15
ENDBRANCH  13  14
ENDBRANCH  12  13
ENDBRANCH  11  12
ENDBRANCH   1  11
TORSDOF 15
ENDMDL
MODEL 4
REMARK VINA RESULT:    -4.135      2.902      5.275
REMARK INTER + INTRA:         -10.027
REMARK INTER:                  -7.722
REMARK INTRA:                  -2.305
REMARK UNBOUND:                -2.266
REMARK SMILES O=C([O-])CCCCCCCCCCCCCCC(=O)[O-]
REMARK SMILES IDX 10 1 9 2 8 3 7 4 6 5 5 6 4 7 2 8 1 9 3 10 11 11 12 12 13 13
REMARK SMILES IDX 14 14 15 15 16 16 17 17 18 18 19 19 20 20
REMARK H PARENT
REMARK Flexibility Score: inf
ROOT
ATOM      1  C   UNL     1      25.851   7.153   9.556  1.00  0.00     0.000 C 
ENDROOT
BRANCH   1   2
ATOM      2  C   UNL     1      27.126   6.295   9.640  1.00  0.00     0.000 C 
BRANCH   2   3
ATOM      3  C   UNL     1      27.074   5.130  10.645  1.00  0.00     0.000 C 
BRANCH   3   4
ATOM      4  C   UNL     1      27.376   3.767  10.000  1.00  0.00     0.000 C 
BRANCH   4   5
ATOM      5  C   UNL     1      28.018   3.891   8.605  1.00  0.00     0.000 C 
BRANCH   5   6
ATOM      6  C   UNL     1      27.844   2.664   7.687  1.00  0.00     0.006 C 
BRANCH   6   7
ATOM      7  C   UNL     1      27.093   1.486   8.327  1.00  0.00     0.053 C 
BRANCH   7   8
ATOM      8  C   UNL     1      28.021   0.378   8.718  1.00  0.00     0.041 C 
ATOM      9  O   UNL     1      28.230  -0.581   7.930  1.00  0.00    -0.550 OA
ATOM     10  O   UNL     1      28.681   0.420   9.941  1.00  0.00    -0.550 OA
ENDBRANCH   7   8
ENDBRANCH   6   7
ENDBRANCH   5   6
ENDBRANCH   4   5
ENDBRANCH   3   4
ENDBRANCH   2   3
ENDBRANCH   1   2
BRANCH   1  11
ATOM     11  C   UNL     1      25.805   8.042   8.301  1.00  0.00     0.000 C 
BRANCH  11  12
ATOM     12  C   UNL     1      26.809   7.595   7.225  1.00  0.00     0.000 C 
BRANCH  12  13
ATOM     13  C   UNL     1      26.116   6.988   5.991  1.00  0.00     0.000 C 
BRANCH  13  14
ATOM     14  C   UNL     1      24.784   6.304   6.340  1.00  0.00     0.000 C 
BRANCH  14  15
ATOM     15  C   UNL     1      24.954   4.809   6.663  1.00  0.00     0.000 C 
BRANCH  15  16
ATOM     16  C   UNL     1      24.222   4.391   7.952  1.00  0.00     0.006 C 
BRANCH  16  17
ATOM     17  C   UNL     1      22.694   4.550   7.895  1.00  0.00     0.053 C 
BRANCH  17  18
ATOM     18  C   UNL     1      22.183   5.467   8.963  1.00  0.00     0.041 C 
ATOM     19  O   UNL     1      22.392   6.706   8.886  1.00  0.00    -0.550 OA
ATOM     20  O   UNL     1      21.447   4.957  10.025  1.00  0.00    -0.550 OA
ENDBRANCH  17  18
ENDBRANCH  16  17
ENDBRANCH  15  16
ENDBRANCH  14  15
ENDBRANCH  13  14
ENDBRANCH  12  13
ENDBRANCH  11  12
ENDBRANCH   1  11
TORSDOF 15
ENDMDL
MODEL 5
REMARK VINA RESULT:    -4.090      2.630      4.009
REMARK INTER + INTRA:          -9.942
REMARK INTER:                  -8.321
REMARK INTRA:                  -1.621
REMARK UNBOUND:                -2.266
REMARK SMILES O=C([O-])CCCCCCCCCCCCCCC(=O)[O-]
REMARK SMILES IDX 10 1 9 2 8 3 7 4 6 5 5 6 4 7 2 8 1 9 3 10 11 11 12 12 13 13
REMARK SMILES IDX 14 14 15 15 16 16 17 17 18 18 19 19 20 20
REMARK H PARENT
REMARK Flexibility Score: inf
ROOT
ATOM      1  C   UNL     1      27.230   5.106  10.723  1.00  0.00     0.000 C 
ENDROOT
BRANCH   1   2
ATOM      2  C   UNL     1      25.738   4.873  10.426  1.00  0.00     0.000 C 
BRANCH   2   3
ATOM      3  C   UNL     1      24.916   6.142  10.137  1.00  0.00     0.000 C 
BRANCH   3   4
ATOM      4  C   UNL     1      23.988   5.992   8.918  1.00  0.00     0.000 C 
BRANCH   4   5
ATOM      5  C   UNL     1      24.279   4.723   8.095  1.00  0.00     0.000 C 
BRANCH   5   6
ATOM      6  C   UNL     1      24.848   4.970   6.682  1.00  0.00     0.006 C 
BRANCH   6   7
ATOM      7  C   UNL     1      26.254   5.590   6.657  1.00  0.00     0.053 C 
BRANCH   7   8
ATOM      8  C   UNL     1      26.210   7.066   6.403  1.00  0.00     0.041 C 
ATOM      9  O   UNL     1      25.546   7.522   5.437  1.00  0.00    -0.550 OA
ATOM     10  O   UNL     1      26.877   7.939   7.254  1.00  0.00    -0.550 OA
ENDBRANCH   7   8
ENDBRANCH   6   7
ENDBRANCH   5   6
ENDBRANCH   4   5
ENDBRANCH   3   4
ENDBRANCH   2   3
ENDBRANCH   1   2
BRANCH   1  11
ATOM     11  C   UNL     1      28.158   4.480   9.667  1.00  0.00     0.000 C 
BRANCH  11  12
ATOM     12  C   UNL     1      28.029   2.949   9.600  1.00  0.00     0.000 C 
BRANCH  12  13
ATOM     13  C   UNL     1      27.589   2.455   8.210  1.00  0.00     0.000 C 
BRANCH  13  14
ATOM     14  C   UNL     1      27.902   0.967   7.986  1.00  0.00     0.000 C 
BRANCH  14  15
ATOM     15  C   UNL     1      28.445   0.281   9.252  1.00  0.00     0.000 C 
BRANCH  15  16
ATOM     16  C   UNL     1      27.727  -1.046   9.564  1.00  0.00     0.006 C 
BRANCH  16  17
ATOM     17  C   UNL     1      27.238  -1.810   8.323  1.00  0.00     0.053 C 
BRANCH  17  18
ATOM     18  C   UNL     1      28.270  -2.762   7.804  1.00  0.00     0.041 C 
ATOM     19  O   UNL     1      28.651  -3.731   8.513  1.00  0.00    -0.550 OA
ATOM     20  O   UNL     1      28.787  -2.599   6.525  1.00  0.00    -0.550 OA
ENDBRANCH  17  18
ENDBRANCH  16  17
ENDBRANCH  15  16
ENDBRANCH  14  15
ENDBRANCH  13  14
ENDBRANCH  12  13
ENDBRANCH  11  12
ENDBRANCH   1  11
TORSDOF 15
ENDMDL
MODEL 6
REMARK VINA RESULT:    -4.086      2.688      4.361
REMARK INTER + INTRA:          -9.934
REMARK INTER:                  -7.614
REMARK INTRA:                  -2.320
REMARK UNBOUND:                -2.266
REMARK SMILES O=C([O-])CCCCCCCCCCCCCCC(=O)[O-]
REMARK SMILES IDX 10 1 9 2 8 3 7 4 6 5 5 6 4 7 2 8 1 9 3 10 11 11 12 12 13 13
REMARK SMILES IDX 14 14 15 15 16 16 17 17 18 18 19 19 20 20
REMARK H PARENT
REMARK Flexibility Score: inf
ROOT
ATOM      1  C   UNL     1      26.858   7.035   8.630  1.00  0.00     0.000 C 
ENDROOT
BRANCH   1   2
ATOM      2  C   UNL     1      26.072   7.626   7.446  1.00  0.00     0.000 C 
BRANCH   2   3
ATOM      3  C   UNL     1      25.914   6.696   6.228  1.00  0.00     0.000 C 
BRANCH   3   4
ATOM      4  C   UNL     1      26.376   5.256   6.508  1.00  0.00     0.000 C 
BRANCH   4   5
ATOM      5  C   UNL     1      25.211   4.250   6.560  1.00  0.00     0.000 C 
BRANCH   5   6
ATOM      6  C   UNL     1      24.363   4.288   7.849  1.00  0.00     0.006 C 
BRANCH   6   7
ATOM      7  C   UNL     1      23.004   4.990   7.701  1.00  0.00     0.053 C 
BRANCH   7   8
ATOM      8  C   UNL     1      22.754   5.965   8.809  1.00  0.00     0.041 C 
ATOM      9  O   UNL     1      22.638   7.193   8.558  1.00  0.00    -0.550 OA
ATOM     10  O   UNL     1      22.614   5.514  10.116  1.00  0.00    -0.550 OA
ENDBRANCH   7   8
ENDBRANCH   6   7
ENDBRANCH   5   6
ENDBRANCH   4   5
ENDBRANCH   3   4
ENDBRANCH   2   3
ENDBRANCH   1   2
BRANCH   1  11
ATOM     11  C   UNL     1      25.991   6.828   9.883  1.00  0.00     0.000 C 
BRANCH  11  12
ATOM     12  C   UNL     1      26.406   5.585  10.689  1.00  0.00     0.000 C 
BRANCH  12  13
ATOM     13  C   UNL     1      27.923   5.531  10.949  1.00  0.00     0.000 C 
BRANCH  13  14
ATOM     14  C   UNL     1      28.574   4.261  10.377  1.00  0.00     0.000 C 
BRANCH  14  15
ATOM     15  C   UNL     1      27.561   3.350   9.659  1.00  0.00     0.000 C 
BRANCH  15  16
ATOM     16  C   UNL     1      28.114   2.766   8.346  1.00  0.00     0.006 C 
BRANCH  16  17
ATOM     17  C   UNL     1      27.452   1.449   7.907  1.00  0.00     0.053 C 
BRANCH  17  18
ATOM     18  C   UNL     1      28.165   0.251   8.452  1.00  0.00     0.041 C 
ATOM     19  O   UNL     1      28.320  -0.773   7.737  1.00  0.00    -0.550 OA
ATOM     20  O   UNL     1      28.689   0.278   9.739  1.00  0.00    -0.550 OA
ENDBRANCH  17  18
ENDBRANCH  16  17
ENDBRANCH  15  16
ENDBRANCH  14  15
ENDBRANCH  13  14
ENDBRANCH  12  13
ENDBRANCH  11  12
ENDBRANCH   1  11
TORSDOF 15
ENDMDL
MODEL 7
REMARK VINA RESULT:    -4.062      2.769      5.751
REMARK INTER + INTRA:          -9.889
REMARK INTER:                  -7.522
REMARK INTRA:                  -2.367
REMARK UNBOUND:                -2.266
REMARK SMILES O=C([O-])CCCCCCCCCCCCCCC(=O)[O-]
REMARK SMILES IDX 10 1 9 2 8 3 7 4 6 5 5 6 4 7 2 8 1 9 3 10 11 11 12 12 13 13
REMARK SMILES IDX 14 14 15 15 16 16 17 17 18 18 19 19 20 20
REMARK H PARENT
REMARK Flexibility Score: inf
ROOT
ATOM      1  C   UNL     1      25.938   8.249   7.979  1.00  0.00     0.000 C 
ENDROOT
BRANCH   1   2
ATOM      2  C   UNL     1      26.143   7.499   9.307  1.00  0.00     0.000 C 
BRANCH   2   3
ATOM      3  C   UNL     1      27.142   6.328   9.258  1.00  0.00     0.000 C 
BRANCH   3   4
ATOM      4  C   UNL     1      26.887   5.276  10.350  1.00  0.00     0.000 C 
BRANCH   4   5
ATOM      5  C   UNL     1      27.706   3.987  10.146  1.00  0.00     0.000 C 
BRANCH   5   6
ATOM      6  C   UNL     1      27.856   3.526   8.682  1.00  0.00     0.006 C 
BRANCH   6   7
ATOM      7  C   UNL     1      27.620   2.025   8.456  1.00  0.00     0.053 C 
BRANCH   7   8
ATOM      8  C   UNL     1      27.106   1.740   7.079  1.00  0.00     0.041 C 
ATOM      9  O   UNL     1      26.618   0.612   6.806  1.00  0.00    -0.550 OA
ATOM     10  O   UNL     1      27.135   2.731   6.105  1.00  0.00    -0.550 OA
ENDBRANCH   7   8
ENDBRANCH   6   7
ENDBRANCH   5   6
ENDBRANCH   4   5
ENDBRANCH   3   4
ENDBRANCH   2   3
ENDBRANCH   1   2
BRANCH   1  11
ATOM     11  C   UNL     1      26.460   7.468   6.761  1.00  0.00     0.000 C 
BRANCH  11  12
ATOM     12  C   UNL     1      25.356   7.170   5.732  1.00  0.00     0.000 C 
BRANCH  12  13
ATOM     13  C   UNL     1      24.195   6.356   6.334  1.00  0.00     0.000 C 
BRANCH  13  14
ATOM     14  C   UNL     1      24.642   4.972   6.832  1.00  0.00     0.000 C 
BRANCH  14  15
ATOM     15  C   UNL     1      23.935   4.555   8.134  1.00  0.00     0.000 C 
BRANCH  15  16
ATOM     16  C   UNL     1      23.022   5.661   8.694  1.00  0.00     0.006 C 
BRANCH  16  17
ATOM     17  C   UNL     1      23.130   5.866  10.214  1.00  0.00     0.053 C 
BRANCH  17  18
ATOM     18  C   UNL     1      22.610   7.203  10.641  1.00  0.00     0.041 C 
ATOM     19  O   UNL     1      22.112   7.352  11.788  1.00  0.00    -0.550 OA
ATOM     20  O   UNL     1      22.705   8.293   9.784  1.00  0.00    -0.550 OA
ENDBRANCH  17  18
ENDBRANCH  16  17
ENDBRANCH  15  16
ENDBRANCH  14  15
ENDBRANCH  13  14
ENDBRANCH  12  13
ENDBRANCH  11  12
ENDBRANCH   1  11
TORSDOF 15
ENDMDL
MODEL 8
REMARK VINA RESULT:    -4.050      2.737      6.606
REMARK INTER + INTRA:          -9.867
REMARK INTER:                  -8.319
REMARK INTRA:                  -1.548
REMARK UNBOUND:                -2.266
REMARK SMILES O=C([O-])CCCCCCCCCCCCCCC(=O)[O-]
REMARK SMILES IDX 10 1 9 2 8 3 7 4 6 5 5 6 4 7 2 8 1 9 3 10 11 11 12 12 13 13
REMARK SMILES IDX 14 14 15 15 16 16 17 17 18 18 19 19 20 20
REMARK H PARENT
REMARK Flexibility Score: inf
ROOT
ATOM      1  C   UNL     1      26.881   3.476   7.039  1.00  0.00     0.000 C 
ENDROOT
BRANCH   1   2
ATOM      2  C   UNL     1      26.486   2.351   6.065  1.00  0.00     0.000 C 
BRANCH   2   3
ATOM      3  C   UNL     1      26.888   0.929   6.500  1.00  0.00     0.000 C 
BRANCH   3   4
ATOM      4  C   UNL     1      25.678   0.031   6.809  1.00  0.00     0.000 C 
BRANCH   4   5
ATOM      5  C   UNL     1      25.791  -0.684   8.168  1.00  0.00     0.000 C 
BRANCH   5   6
ATOM      6  C   UNL     1      27.192  -0.654   8.814  1.00  0.00     0.006 C 
BRANCH   6   7
ATOM      7  C   UNL     1      27.596  -1.954   9.528  1.00  0.00     0.053 C 
BRANCH   7   8
ATOM      8  C   UNL     1      28.088  -2.992   8.567  1.00  0.00     0.041 C 
ATOM      9  O   UNL     1      27.995  -4.214   8.853  1.00  0.00    -0.550 OA
ATOM     10  O   UNL     1      28.618  -2.610   7.341  1.00  0.00    -0.550 OA
ENDBRANCH   7   8
ENDBRANCH   6   7
ENDBRANCH   5   6
ENDBRANCH   4   5
ENDBRANCH   3   4
ENDBRANCH   2   3
ENDBRANCH   1   2
BRANCH   1  11
ATOM     11  C   UNL     1      27.811   2.995   8.167  1.00  0.00     0.000 C 
BRANCH  11  12
ATOM     12  C   UNL     1      27.302   3.394   9.562  1.00  0.00     0.000 C 
BRANCH  12  13
ATOM     13  C   UNL     1      28.366   4.145  10.384  1.00  0.00     0.000 C 
BRANCH  13  14
ATOM     14  C   UNL     1      28.039   5.638  10.546  1.00  0.00     0.000 C 
BRANCH  14  15
ATOM     15  C   UNL     1      26.679   6.016   9.932  1.00  0.00     0.000 C 
BRANCH  15  16
ATOM     16  C   UNL     1      26.802   7.071   8.818  1.00  0.00     0.006 C 
BRANCH  16  17
ATOM     17  C   UNL     1      25.491   7.363   8.071  1.00  0.00     0.053 C 
BRANCH  17  18
ATOM     18  C   UNL     1      25.516   6.845   6.666  1.00  0.00     0.041 C 
ATOM     19  O   UNL     1      26.528   7.032   5.940  1.00  0.00    -0.550 OA
ATOM     20  O   UNL     1      24.435   6.128   6.169  1.00  0.00    -0.550 OA
ENDBRANCH  17  18
ENDBRANCH  16  17
ENDBRANCH  15  16
ENDBRANCH  14  15
ENDBRANCH  13  14
ENDBRANCH  12  13
ENDBRANCH  11  12
ENDBRANCH   1  11
TORSDOF 15
ENDMDL
MODEL 9
REMARK VINA RESULT:    -4.050      2.639      5.926
REMARK INTER + INTRA:          -9.866
REMARK INTER:                  -7.680
REMARK INTRA:                  -2.186
REMARK UNBOUND:                -2.266
REMARK SMILES O=C([O-])CCCCCCCCCCCCCCC(=O)[O-]
REMARK SMILES IDX 10 1 9 2 8 3 7 4 6 5 5 6 4 7 2 8 1 9 3 10 11 11 12 12 13 13
REMARK SMILES IDX 14 14 15 15 16 16 17 17 18 18 19 19 20 20
REMARK H PARENT
REMARK Flexibility Score: inf
ROOT
ATOM      1  C   UNL     1      23.571   3.188   8.182  1.00  0.00     0.000 C 
ENDROOT
BRANCH   1   2
ATOM      2  C   UNL     1      24.300   3.267   6.829  1.00  0.00     0.000 C 
BRANCH   2   3
ATOM      3  C   UNL     1      25.752   3.778   6.889  1.00  0.00     0.000 C 
BRANCH   3   4
ATOM      4  C   UNL     1      26.787   2.681   6.583  1.00  0.00     0.000 C 
BRANCH   4   5
ATOM      5  C   UNL     1      27.806   2.483   7.721  1.00  0.00     0.000 C 
BRANCH   5   6
ATOM      6  C   UNL     1      27.609   1.210   8.569  1.00  0.00     0.006 C 
BRANCH   6   7
ATOM      7  C   UNL     1      28.662   0.116   8.336  1.00  0.00     0.053 C 
BRANCH   7   8
ATOM      8  C   UNL     1      28.074  -1.099   7.686  1.00  0.00     0.041 C 
ATOM      9  O   UNL     1      27.632  -1.035   6.509  1.00  0.00    -0.550 OA
ATOM     10  O   UNL     1      28.044  -2.309   8.368  1.00  0.00    -0.550 OA
ENDBRANCH   7   8
ENDBRANCH   6   7
ENDBRANCH   5   6
ENDBRANCH   4   5
ENDBRANCH   3   4
ENDBRANCH   2   3
ENDBRANCH   1   2
BRANCH   1  11
ATOM     11  C   UNL     1      24.507   3.411   9.383  1.00  0.00     0.000 C 
BRANCH  11  12
ATOM     12  C   UNL     1      24.005   4.517  10.326  1.00  0.00     0.000 C 
BRANCH  12  13
ATOM     13  C   UNL     1      25.139   5.442  10.805  1.00  0.00     0.000 C 
BRANCH  13  14
ATOM     14  C   UNL     1      26.531   4.916  10.419  1.00  0.00     0.000 C 
BRANCH  14  15
ATOM     15  C   UNL     1      27.319   5.911   9.548  1.00  0.00     0.000 C 
BRANCH  15  16
ATOM     16  C   UNL     1      26.491   7.153   9.168  1.00  0.00     0.006 C 
BRANCH  16  17
ATOM     17  C   UNL     1      26.538   7.516   7.675  1.00  0.00     0.053 C 
BRANCH  17  18
ATOM     18  C   UNL     1      25.252   7.198   6.977  1.00  0.00     0.041 C 
ATOM     19  O   UNL     1      24.220   6.926   7.646  1.00  0.00    -0.550 OA
ATOM     20  O   UNL     1      25.185   7.233   5.590  1.00  0.00    -0.550 OA
ENDBRANCH  17  18
ENDBRANCH  16  17
ENDBRANCH  15  16
ENDBRANCH  14  15
ENDBRANCH  13  14
ENDBRANCH  12  13
ENDBRANCH  11  12
ENDBRANCH   1  11
TORSDOF 15
ENDMDL
