MODEL 1
REMARK VINA RESULT:    -3.748      0.000      0.000
REMARK INTER + INTRA:         -10.228
REMARK INTER:                  -7.254
REMARK INTRA:                  -2.974
REMARK UNBOUND:                -2.974
REMARK SMILES CCCCCCCCCCCCCCCCCC(=O)[O-]
REMARK SMILES IDX 10 1 11 2 12 3 13 4 14 5 15 6 16 7 17 8 18 9 19 10 20 11
REMARK SMILES IDX 9 12 8 13 7 14 6 15 5 16 4 17 3 18 2 19 1 20
REMARK H PARENT
REMARK Flexibility Score: inf
ROOT
ATOM      1  C   UNL     1       0.565   0.178  56.253  1.00  0.00     0.000 C 
ENDROOT
BRANCH   1   2
ATOM      2  C   UNL     1       1.122  -0.721  57.371  1.00  0.00     0.000 C 
BRANCH   2   3
ATOM      3  C   UNL     1       2.458  -0.211  57.940  1.00  0.00     0.000 C 
BRANCH   3   4
ATOM      4  C   UNL     1       2.554  -0.393  59.464  1.00  0.00     0.000 C 
BRANCH   4   5
ATOM      5  C   UNL     1       1.306   0.117  60.201  1.00  0.00     0.000 C 
BRANCH   5   6
ATOM      6  C   UNL     1       1.272   1.653  60.221  1.00  0.00     0.000 C 
BRANCH   6   7
ATOM      7  C   UNL     1      -0.020   2.226  59.616  1.00  0.00     0.006 C 
BRANCH   7   8
ATOM      8  C   UNL     1      -1.169   1.209  59.605  1.00  0.00     0.053 C 
BRANCH   8   9
ATOM      9  C   UNL     1      -2.322   1.737  58.810  1.00  0.00     0.041 C 
ATOM     10  O   UNL     1      -3.421   1.980  59.374  1.00  0.00    -0.550 OA
ATOM     11  O   UNL     1      -2.199   1.913  57.438  1.00  0.00    -0.550 OA
ENDBRANCH   8   9
ENDBRANCH   7   8
ENDBRANCH   6   7
ENDBRANCH   5   6
ENDBRANCH   4   5
ENDBRANCH   3   4
ENDBRANCH   2   3
ENDBRANCH   1   2
BRANCH   1  12
ATOM     12  C   UNL     1       1.242   1.554  56.121  1.00  0.00     0.000 C 
BRANCH  12  13
ATOM     13  C   UNL     1       2.064   1.699  54.832  1.00  0.00    -0.000 C 
BRANCH  13  14
ATOM     14  C   UNL     1       1.804   0.520  53.882  1.00  0.00    -0.000 C 
BRANCH  14  15
ATOM     15  C   UNL     1       3.080  -0.274  53.552  1.00  0.00    -0.000 C 
BRANCH  15  16
ATOM     16  C   UNL     1       3.987  -0.578  54.761  1.00  0.00    -0.000 C 
BRANCH  16  17
ATOM     17  C   UNL     1       3.980  -2.046  55.236  1.00  0.00    -0.000 C 
BRANCH  17  18
ATOM     18  C   UNL     1       3.290  -3.033  54.278  1.00  0.00    -0.000 C 
BRANCH  18  19
ATOM     19  C   UNL     1       2.023  -3.659  54.880  1.00  0.00    -0.003 C 
ATOM     20  C   UNL     1       0.766  -3.065  54.251  1.00  0.00     0.004 C 
ENDBRANCH  18  19
ENDBRANCH  17  18
ENDBRANCH  16  17
ENDBRANCH  15  16
ENDBRANCH  14  15
ENDBRANCH  13  14
ENDBRANCH  12  13
ENDBRANCH   1  12
TORSDOF 16
ENDMDL
MODEL 2
REMARK VINA RESULT:    -3.743      8.369     11.167
REMARK INTER + INTRA:         -10.219
REMARK INTER:                  -7.708
REMARK INTRA:                  -2.511
REMARK UNBOUND:                -2.974
REMARK SMILES CCCCCCCCCCCCCCCCCC(=O)[O-]
REMARK SMILES IDX 10 1 11 2 12 3 13 4 14 5 15 6 16 7 17 8 18 9 19 10 20 11
REMARK SMILES IDX 9 12 8 13 7 14 6 15 5 16 4 17 3 18 2 19 1 20
REMARK H PARENT
REMARK Flexibility Score: inf
ROOT
ATOM      1  C   UNL     1      -8.108   6.091  57.010  1.00  0.00     0.000 C 
ENDROOT
BRANCH   1   2
ATOM      2  C   UNL     1      -7.985   4.964  55.969  1.00  0.00     0.000 C 
BRANCH   2   3
ATOM      3  C   UNL     1      -6.779   5.144  55.030  1.00  0.00     0.000 C 
BRANCH   3   4
ATOM      4  C   UNL     1      -6.105   3.808  54.677  1.00  0.00     0.000 C 
BRANCH   4   5
ATOM      5  C   UNL     1      -5.917   3.622  53.163  1.00  0.00     0.000 C 
BRANCH   5   6
ATOM      6  C   UNL     1      -7.236   3.197  52.498  1.00  0.00     0.000 C 
BRANCH   6   7
ATOM      7  C   UNL     1      -7.509   3.954  51.188  1.00  0.00     0.006 C 
BRANCH   7   8
ATOM      8  C   UNL     1      -7.622   5.470  51.392  1.00  0.00     0.053 C 
BRANCH   8   9
ATOM      9  C   UNL     1      -9.042   5.852  51.674  1.00  0.00     0.041 C 
ATOM     10  O   UNL     1      -9.405   6.116  52.849  1.00  0.00    -0.550 OA
ATOM     11  O   UNL     1      -9.974   5.869  50.644  1.00  0.00    -0.550 OA
ENDBRANCH   8   9
ENDBRANCH   7   8
ENDBRANCH   6   7
ENDBRANCH   5   6
ENDBRANCH   4   5
ENDBRANCH   3   4
ENDBRANCH   2   3
ENDBRANCH   1   2
BRANCH   1  12
ATOM     12  C   UNL     1      -8.688   5.664  58.371  1.00  0.00     0.000 C 
BRANCH  12  13
ATOM     13  C   UNL     1      -8.118   6.470  59.547  1.00  0.00    -0.000 C 
BRANCH  13  14
ATOM     14  C   UNL     1      -7.053   5.660  60.301  1.00  0.00    -0.000 C 
BRANCH  14  15
ATOM     15  C   UNL     1      -5.617   6.033  59.891  1.00  0.00    -0.000 C 
BRANCH  15  16
ATOM     16  C   UNL     1      -4.703   4.836  59.562  1.00  0.00    -0.000 C 
BRANCH  16  17
ATOM     17  C   UNL     1      -4.901   4.223  58.162  1.00  0.00    -0.000 C 
BRANCH  17  18
ATOM     18  C   UNL     1      -5.266   2.727  58.155  1.00  0.00    -0.000 C 
BRANCH  18  19
ATOM     19  C   UNL     1      -6.776   2.482  58.284  1.00  0.00    -0.003 C 
ATOM     20  C   UNL     1      -7.138   2.014  59.690  1.00  0.00     0.004 C 
ENDBRANCH  18  19
ENDBRANCH  17  18
ENDBRANCH  16  17
ENDBRANCH  15  16
ENDBRANCH  14  15
ENDBRANCH  13  14
ENDBRANCH  12  13
ENDBRANCH   1  12
TORSDOF 16
ENDMDL
MODEL 3
REMARK VINA RESULT:    -3.710      7.166     10.164
REMARK INTER + INTRA:         -10.154
REMARK INTER:                  -8.387
REMARK INTRA:                  -1.767
REMARK UNBOUND:                -2.974
REMARK SMILES CCCCCCCCCCCCCCCCCC(=O)[O-]
REMARK SMILES IDX 10 1 11 2 12 3 13 4 14 5 15 6 16 7 17 8 18 9 19 10 20 11
REMARK SMILES IDX 9 12 8 13 7 14 6 15 5 16 4 17 3 18 2 19 1 20
REMARK H PARENT
REMARK Flexibility Score: inf
ROOT
ATOM      1  C   UNL     1      -6.757   5.738  56.162  1.00  0.00     0.000 C 
ENDROOT
BRANCH   1   2
ATOM      2  C   UNL     1      -8.008   6.485  56.657  1.00  0.00     0.000 C 
BRANCH   2   3
ATOM      3  C   UNL     1      -8.343   6.185  58.128  1.00  0.00     0.000 C 
BRANCH   3   4
ATOM      4  C   UNL     1      -8.067   4.719  58.506  1.00  0.00     0.000 C 
BRANCH   4   5
ATOM      5  C   UNL     1      -7.199   4.588  59.767  1.00  0.00     0.000 C 
BRANCH   5   6
ATOM      6  C   UNL     1      -6.123   5.684  59.806  1.00  0.00     0.000 C 
BRANCH   6   7
ATOM      7  C   UNL     1      -4.755   5.190  59.308  1.00  0.00     0.006 C 
BRANCH   7   8
ATOM      8  C   UNL     1      -4.771   3.710  58.904  1.00  0.00     0.053 C 
BRANCH   8   9
ATOM      9  C   UNL     1      -3.704   2.959  59.637  1.00  0.00     0.041 C 
ATOM     10  O   UNL     1      -3.004   3.540  60.506  1.00  0.00    -0.550 OA
ATOM     11  O   UNL     1      -3.450   1.630  59.323  1.00  0.00    -0.550 OA
ENDBRANCH   8   9
ENDBRANCH   7   8
ENDBRANCH   6   7
ENDBRANCH   5   6
ENDBRANCH   4   5
ENDBRANCH   3   4
ENDBRANCH   2   3
ENDBRANCH   1   2
BRANCH   1  12
ATOM     12  C   UNL     1      -6.956   4.910  54.879  1.00  0.00     0.000 C 
BRANCH  12  13
ATOM     13  C   UNL     1      -5.907   3.801  54.711  1.00  0.00    -0.000 C 
BRANCH  13  14
ATOM     14  C   UNL     1      -5.840   3.328  53.251  1.00  0.00    -0.000 C 
BRANCH  14  15
ATOM     15  C   UNL     1      -7.024   2.426  52.860  1.00  0.00    -0.000 C 
BRANCH  15  16
ATOM     16  C   UNL     1      -7.893   2.959  51.703  1.00  0.00    -0.000 C 
BRANCH  16  17
ATOM     17  C   UNL     1      -7.325   4.189  50.967  1.00  0.00    -0.000 C 
BRANCH  17  18
ATOM     18  C   UNL     1      -7.981   5.529  51.344  1.00  0.00    -0.000 C 
BRANCH  18  19
ATOM     19  C   UNL     1      -9.402   5.361  51.902  1.00  0.00    -0.003 C 
ATOM     20  C   UNL     1     -10.433   6.000  50.976  1.00  0.00     0.004 C 
ENDBRANCH  18  19
ENDBRANCH  17  18
ENDBRANCH  16  17
ENDBRANCH  15  16
ENDBRANCH  14  15
ENDBRANCH  13  14
ENDBRANCH  12  13
ENDBRANCH   1  12
TORSDOF 16
ENDMDL
MODEL 4
REMARK VINA RESULT:    -3.672      8.094     10.875
REMARK INTER + INTRA:         -10.081
REMARK INTER:                  -7.361
REMARK INTRA:                  -2.720
REMARK UNBOUND:                -2.974
REMARK SMILES CCCCCCCCCCCCCCCCCC(=O)[O-]
REMARK SMILES IDX 10 1 11 2 12 3 13 4 14 5 15 6 16 7 17 8 18 9 19 10 20 11
REMARK SMILES IDX 9 12 8 13 7 14 6 15 5 16 4 17 3 18 2 19 1 20
REMARK H PARENT
REMARK Flexibility Score: inf
ROOT
ATOM      1  C   UNL     1      -7.565   4.004  55.228  1.00  0.00     0.000 C 
ENDROOT
BRANCH   1   2
ATOM      2  C   UNL     1      -6.855   5.353  55.439  1.00  0.00     0.000 C 
BRANCH   2   3
ATOM      3  C   UNL     1      -7.804   6.460  55.930  1.00  0.00     0.000 C 
BRANCH   3   4
ATOM      4  C   UNL     1      -8.737   5.979  57.054  1.00  0.00     0.000 C 
BRANCH   4   5
ATOM      5  C   UNL     1      -8.264   6.428  58.446  1.00  0.00     0.000 C 
BRANCH   5   6
ATOM      6  C   UNL     1      -7.510   5.295  59.159  1.00  0.00     0.000 C 
BRANCH   6   7
ATOM      7  C   UNL     1      -6.225   5.780  59.849  1.00  0.00     0.006 C 
BRANCH   7   8
ATOM      8  C   UNL     1      -4.982   5.620  58.965  1.00  0.00     0.053 C 
BRANCH   8   9
ATOM      9  C   UNL     1      -4.659   4.170  58.780  1.00  0.00     0.041 C 
ATOM     10  O   UNL     1      -4.741   3.644  57.639  1.00  0.00    -0.550 OA
ATOM     11  O   UNL     1      -4.316   3.389  59.875  1.00  0.00    -0.550 OA
ENDBRANCH   8   9
ENDBRANCH   7   8
ENDBRANCH   6   7
ENDBRANCH   5   6
ENDBRANCH   4   5
ENDBRANCH   3   4
ENDBRANCH   2   3
ENDBRANCH   1   2
BRANCH   1  12
ATOM     12  C   UNL     1      -6.925   3.086  54.170  1.00  0.00     0.000 C 
BRANCH  12  13
ATOM     13  C   UNL     1      -6.215   3.863  53.052  1.00  0.00    -0.000 C 
BRANCH  13  14
ATOM     14  C   UNL     1      -7.090   3.928  51.791  1.00  0.00    -0.000 C 
BRANCH  14  15
ATOM     15  C   UNL     1      -7.443   5.370  51.384  1.00  0.00    -0.000 C 
BRANCH  15  16
ATOM     16  C   UNL     1      -8.952   5.683  51.343  1.00  0.00    -0.000 C 
BRANCH  16  17
ATOM     17  C   UNL     1      -9.582   6.056  52.701  1.00  0.00    -0.000 C 
BRANCH  17  18
ATOM     18  C   UNL     1     -10.553   5.007  53.274  1.00  0.00    -0.000 C 
BRANCH  18  19
ATOM     19  C   UNL     1     -10.821   3.850  52.301  1.00  0.00    -0.003 C 
ATOM     20  C   UNL     1     -10.368   2.519  52.893  1.00  0.00     0.004 C 
ENDBRANCH  18  19
ENDBRANCH  17  18
ENDBRANCH  16  17
ENDBRANCH  15  16
ENDBRANCH  14  15
ENDBRANCH  13  14
ENDBRANCH  12  13
ENDBRANCH   1  12
TORSDOF 16
ENDMDL
MODEL 5
REMARK VINA RESULT:    -3.667      2.985      6.641
REMARK INTER + INTRA:         -10.071
REMARK INTER:                  -7.940
REMARK INTRA:                  -2.130
REMARK UNBOUND:                -2.974
REMARK SMILES CCCCCCCCCCCCCCCCCC(=O)[O-]
REMARK SMILES IDX 10 1 11 2 12 3 13 4 14 5 15 6 16 7 17 8 18 9 19 10 20 11
REMARK SMILES IDX 9 12 8 13 7 14 6 15 5 16 4 17 3 18 2 19 1 20
REMARK H PARENT
REMARK Flexibility Score: inf
ROOT
ATOM      1  C   UNL     1       0.809   1.808  56.558  1.00  0.00     0.000 C 
ENDROOT
BRANCH   1   2
ATOM      2  C   UNL     1       1.685   0.794  55.800  1.00  0.00     0.000 C 
BRANCH   2   3
ATOM      3  C   UNL     1       2.343   1.391  54.545  1.00  0.00     0.000 C 
BRANCH   3   4
ATOM      4  C   UNL     1       3.037   0.324  53.681  1.00  0.00     0.000 C 
BRANCH   4   5
ATOM      5  C   UNL     1       2.075  -0.785  53.228  1.00  0.00     0.000 C 
BRANCH   5   6
ATOM      6  C   UNL     1       2.497  -2.145  53.806  1.00  0.00     0.000 C 
BRANCH   6   7
ATOM      7  C   UNL     1       1.329  -2.899  54.461  1.00  0.00     0.006 C 
BRANCH   7   8
ATOM      8  C   UNL     1       1.199  -4.342  53.956  1.00  0.00     0.053 C 
BRANCH   8   9
ATOM      9  C   UNL     1       0.204  -4.415  52.841  1.00  0.00     0.041 C 
ATOM     10  O   UNL     1       0.020  -5.498  52.226  1.00  0.00    -0.550 OA
ATOM     11  O   UNL     1      -0.484  -3.275  52.447  1.00  0.00    -0.550 OA
ENDBRANCH   8   9
ENDBRANCH   7   8
ENDBRANCH   6   7
ENDBRANCH   5   6
ENDBRANCH   4   5
ENDBRANCH   3   4
ENDBRANCH   2   3
ENDBRANCH   1   2
BRANCH   1  12
ATOM     12  C   UNL     1      -0.571   1.282  56.995  1.00  0.00     0.000 C 
BRANCH  12  13
ATOM     13  C   UNL     1      -0.802  -0.188  56.614  1.00  0.00    -0.000 C 
BRANCH  13  14
ATOM     14  C   UNL     1      -0.919  -1.066  57.869  1.00  0.00    -0.000 C 
BRANCH  14  15
ATOM     15  C   UNL     1       0.420  -1.707  58.276  1.00  0.00    -0.000 C 
BRANCH  15  16
ATOM     16  C   UNL     1       0.727  -1.668  59.786  1.00  0.00    -0.000 C 
BRANCH  16  17
ATOM     17  C   UNL     1       0.700  -0.265  60.426  1.00  0.00    -0.000 C 
BRANCH  17  18
ATOM     18  C   UNL     1       1.796   0.695  59.931  1.00  0.00    -0.000 C 
BRANCH  18  19
ATOM     19  C   UNL     1       1.573   2.142  60.391  1.00  0.00    -0.003 C 
ATOM     20  C   UNL     1       0.218   2.297  61.076  1.00  0.00     0.004 C 
ENDBRANCH  18  19
ENDBRANCH  17  18
ENDBRANCH  16  17
ENDBRANCH  15  16
ENDBRANCH  14  15
ENDBRANCH  13  14
ENDBRANCH  12  13
ENDBRANCH   1  12
TORSDOF 16
ENDMDL
MODEL 6
REMARK VINA RESULT:    -3.656      8.695     11.016
REMARK INTER + INTRA:         -10.051
REMARK INTER:                  -7.271
REMARK INTRA:                  -2.780
REMARK UNBOUND:                -2.974
REMARK SMILES CCCCCCCCCCCCCCCCCC(=O)[O-]
REMARK SMILES IDX 10 1 11 2 12 3 13 4 14 5 15 6 16 7 17 8 18 9 19 10 20 11
REMARK SMILES IDX 9 12 8 13 7 14 6 15 5 16 4 17 3 18 2 19 1 20
REMARK H PARENT
REMARK Flexibility Score: inf
ROOT
ATOM      1  C   UNL     1      -6.236   3.801  53.397  1.00  0.00     0.000 C 
ENDROOT
BRANCH   1   2
ATOM      2  C   UNL     1      -6.797   3.873  54.829  1.00  0.00     0.000 C 
BRANCH   2   3
ATOM      3  C   UNL     1      -6.156   4.991  55.669  1.00  0.00     0.000 C 
BRANCH   3   4
ATOM      4  C   UNL     1      -7.184   6.036  56.137  1.00  0.00     0.000 C 
BRANCH   4   5
ATOM      5  C   UNL     1      -8.489   5.398  56.638  1.00  0.00     0.000 C 
BRANCH   5   6
ATOM      6  C   UNL     1      -8.335   4.902  58.085  1.00  0.00     0.000 C 
BRANCH   6   7
ATOM      7  C   UNL     1      -7.620   5.921  58.987  1.00  0.00     0.006 C 
BRANCH   7   8
ATOM      8  C   UNL     1      -6.613   5.263  59.940  1.00  0.00     0.053 C 
BRANCH   8   9
ATOM      9  C   UNL     1      -5.265   5.179  59.295  1.00  0.00     0.041 C 
ATOM     10  O   UNL     1      -4.727   6.212  58.817  1.00  0.00    -0.550 OA
ATOM     11  O   UNL     1      -4.625   3.953  59.179  1.00  0.00    -0.550 OA
ENDBRANCH   8   9
ENDBRANCH   7   8
ENDBRANCH   6   7
ENDBRANCH   5   6
ENDBRANCH   4   5
ENDBRANCH   3   4
ENDBRANCH   2   3
ENDBRANCH   1   2
BRANCH   1  12
ATOM     12  C   UNL     1      -7.000   2.866  52.442  1.00  0.00     0.000 C 
BRANCH  12  13
ATOM     13  C   UNL     1      -7.531   3.584  51.194  1.00  0.00    -0.000 C 
BRANCH  13  14
ATOM     14  C   UNL     1      -7.457   5.109  51.368  1.00  0.00    -0.000 C 
BRANCH  14  15
ATOM     15  C   UNL     1      -8.845   5.764  51.487  1.00  0.00    -0.000 C 
BRANCH  15  16
ATOM     16  C   UNL     1      -9.392   5.870  52.925  1.00  0.00    -0.000 C 
BRANCH  16  17
ATOM     17  C   UNL     1     -10.619   4.987  53.228  1.00  0.00    -0.000 C 
BRANCH  17  18
ATOM     18  C   UNL     1     -10.293   3.607  53.827  1.00  0.00    -0.000 C 
BRANCH  18  19
ATOM     19  C   UNL     1     -10.846   2.447  52.987  1.00  0.00    -0.003 C 
ATOM     20  C   UNL     1     -11.203   2.912  51.578  1.00  0.00     0.004 C 
ENDBRANCH  18  19
ENDBRANCH  17  18
ENDBRANCH  16  17
ENDBRANCH  15  16
ENDBRANCH  14  15
ENDBRANCH  13  14
ENDBRANCH  12  13
ENDBRANCH   1  12
TORSDOF 16
ENDMDL
MODEL 7
REMARK VINA RESULT:    -3.650      7.332     10.757
REMARK INTER + INTRA:         -10.039
REMARK INTER:                  -7.927
REMARK INTRA:                  -2.111
REMARK UNBOUND:                -2.974
REMARK SMILES CCCCCCCCCCCCCCCCCC(=O)[O-]
REMARK SMILES IDX 10 1 11 2 12 3 13 4 14 5 15 6 16 7 17 8 18 9 19 10 20 11
REMARK SMILES IDX 9 12 8 13 7 14 6 15 5 16 4 17 3 18 2 19 1 20
REMARK H PARENT
REMARK Flexibility Score: inf
ROOT
ATOM      1  C   UNL     1      -7.100   6.231  56.330  1.00  0.00     0.000 C 
ENDROOT
BRANCH   1   2
ATOM      2  C   UNL     1      -7.605   5.394  55.141  1.00  0.00     0.000 C 
BRANCH   2   3
ATOM      3  C   UNL     1      -6.992   3.984  55.096  1.00  0.00     0.000 C 
BRANCH   3   4
ATOM      4  C   UNL     1      -6.012   3.807  53.924  1.00  0.00     0.000 C 
BRANCH   4   5
ATOM      5  C   UNL     1      -6.440   2.690  52.960  1.00  0.00     0.000 C 
BRANCH   5   6
ATOM      6  C   UNL     1      -7.789   3.021  52.304  1.00  0.00     0.000 C 
BRANCH   6   7
ATOM      7  C   UNL     1      -7.639   3.884  51.041  1.00  0.00     0.006 C 
BRANCH   7   8
ATOM      8  C   UNL     1      -7.841   5.379  51.318  1.00  0.00     0.053 C 
BRANCH   8   9
ATOM      9  C   UNL     1      -9.297   5.689  51.467  1.00  0.00     0.041 C 
ATOM     10  O   UNL     1      -9.686   6.500  52.348  1.00  0.00    -0.550 OA
ATOM     11  O   UNL     1     -10.230   5.044  50.666  1.00  0.00    -0.550 OA
ENDBRANCH   8   9
ENDBRANCH   7   8
ENDBRANCH   6   7
ENDBRANCH   5   6
ENDBRANCH   4   5
ENDBRANCH   3   4
ENDBRANCH   2   3
ENDBRANCH   1   2
BRANCH   1  12
ATOM     12  C   UNL     1      -5.916   5.620  57.103  1.00  0.00     0.000 C 
BRANCH  12  13
ATOM     13  C   UNL     1      -6.014   5.836  58.620  1.00  0.00    -0.000 C 
BRANCH  13  14
ATOM     14  C   UNL     1      -7.185   5.037  59.212  1.00  0.00    -0.000 C 
BRANCH  14  15
ATOM     15  C   UNL     1      -6.722   3.860  60.089  1.00  0.00    -0.000 C 
BRANCH  15  16
ATOM     16  C   UNL     1      -7.099   2.463  59.556  1.00  0.00    -0.000 C 
BRANCH  16  17
ATOM     17  C   UNL     1      -5.917   1.614  59.044  1.00  0.00    -0.000 C 
BRANCH  17  18
ATOM     18  C   UNL     1      -4.546   2.310  59.103  1.00  0.00    -0.000 C 
BRANCH  18  19
ATOM     19  C   UNL     1      -4.013   2.698  57.716  1.00  0.00    -0.003 C 
ATOM     20  C   UNL     1      -4.446   1.684  56.660  1.00  0.00     0.004 C 
ENDBRANCH  18  19
ENDBRANCH  17  18
ENDBRANCH  16  17
ENDBRANCH  15  16
ENDBRANCH  14  15
ENDBRANCH  13  14
ENDBRANCH  12  13
ENDBRANCH   1  12
TORSDOF 16
ENDMDL
MODEL 8
REMARK VINA RESULT:    -3.643      8.076     10.731
REMARK INTER + INTRA:         -10.024
REMARK INTER:                  -7.237
REMARK INTRA:                  -2.787
REMARK UNBOUND:                -2.974
REMARK SMILES CCCCCCCCCCCCCCCCCC(=O)[O-]
REMARK SMILES IDX 10 1 11 2 12 3 13 4 14 5 15 6 16 7 17 8 18 9 19 10 20 11
REMARK SMILES IDX 9 12 8 13 7 14 6 15 5 16 4 17 3 18 2 19 1 20
REMARK H PARENT
REMARK Flexibility Score: inf
ROOT
ATOM      1  C   UNL     1     -10.543   5.167  53.528  1.00  0.00     0.000 C 
ENDROOT
BRANCH   1   2
ATOM      2  C   UNL     1     -10.113   4.071  54.520  1.00  0.00     0.000 C 
BRANCH   2   3
ATOM      3  C   UNL     1      -9.287   4.618  55.696  1.00  0.00     0.000 C 
BRANCH   3   4
ATOM      4  C   UNL     1      -8.321   5.736  55.267  1.00  0.00     0.000 C 
BRANCH   4   5
ATOM      5  C   UNL     1      -7.323   6.111  56.373  1.00  0.00     0.000 C 
BRANCH   5   6
ATOM      6  C   UNL     1      -7.713   5.456  57.707  1.00  0.00     0.000 C 
BRANCH   6   7
ATOM      7  C   UNL     1      -6.808   4.269  58.072  1.00  0.00     0.006 C 
BRANCH   7   8
ATOM      8  C   UNL     1      -5.316   4.594  57.923  1.00  0.00     0.053 C 
BRANCH   8   9
ATOM      9  C   UNL     1      -4.718   4.913  59.257  1.00  0.00     0.041 C 
ATOM     10  O   UNL     1      -4.859   6.060  59.756  1.00  0.00    -0.550 OA
ATOM     11  O   UNL     1      -3.961   3.960  59.926  1.00  0.00    -0.550 OA
ENDBRANCH   8   9
ENDBRANCH   7   8
ENDBRANCH   6   7
ENDBRANCH   5   6
ENDBRANCH   4   5
ENDBRANCH   3   4
ENDBRANCH   2   3
ENDBRANCH   1   2
BRANCH   1  12
ATOM     12  C   UNL     1     -10.963   4.661  52.136  1.00  0.00     0.000 C 
BRANCH  12  13
ATOM     13  C   UNL     1     -10.101   5.234  51.002  1.00  0.00    -0.000 C 
BRANCH  13  14
ATOM     14  C   UNL     1      -8.796   5.827  51.555  1.00  0.00    -0.000 C 
BRANCH  14  15
ATOM     15  C   UNL     1      -7.544   5.082  51.058  1.00  0.00    -0.000 C 
BRANCH  15  16
ATOM     16  C   UNL     1      -7.641   3.544  51.109  1.00  0.00    -0.000 C 
BRANCH  16  17
ATOM     17  C   UNL     1      -7.208   2.902  52.442  1.00  0.00    -0.000 C 
BRANCH  17  18
ATOM     18  C   UNL     1      -6.089   3.650  53.189  1.00  0.00    -0.000 C 
BRANCH  18  19
ATOM     19  C   UNL     1      -5.858   3.113  54.608  1.00  0.00    -0.003 C 
ATOM     20  C   UNL     1      -6.810   1.962  54.921  1.00  0.00     0.004 C 
ENDBRANCH  18  19
ENDBRANCH  17  18
ENDBRANCH  16  17
ENDBRANCH  15  16
ENDBRANCH  14  15
ENDBRANCH  13  14
ENDBRANCH  12  13
ENDBRANCH   1  12
TORSDOF 16
ENDMDL
MODEL 9
REMARK VINA RESULT:    -3.621      7.759     11.194
REMARK INTER + INTRA:          -9.982
REMARK INTER:                  -7.174
REMARK INTRA:                  -2.808
REMARK UNBOUND:                -2.974
REMARK SMILES CCCCCCCCCCCCCCCCCC(=O)[O-]
REMARK SMILES IDX 10 1 11 2 12 3 13 4 14 5 15 6 16 7 17 8 18 9 19 10 20 11
REMARK SMILES IDX 9 12 8 13 7 14 6 15 5 16 4 17 3 18 2 19 1 20
REMARK H PARENT
REMARK Flexibility Score: inf
ROOT
ATOM      1  C   UNL     1      -7.897   4.362  55.526  1.00  0.00     0.000 C 
ENDROOT
BRANCH   1   2
ATOM      2  C   UNL     1      -7.815   3.124  54.615  1.00  0.00     0.000 C 
BRANCH   2   3
ATOM      3  C   UNL     1      -6.864   3.319  53.422  1.00  0.00     0.000 C 
BRANCH   3   4
ATOM      4  C   UNL     1      -7.500   2.894  52.088  1.00  0.00     0.000 C 
BRANCH   4   5
ATOM      5  C   UNL     1      -7.360   3.969  50.998  1.00  0.00     0.000 C 
BRANCH   5   6
ATOM      6  C   UNL     1      -7.614   5.370  51.576  1.00  0.00     0.000 C 
BRANCH   6   7
ATOM      7  C   UNL     1      -9.057   5.850  51.353  1.00  0.00     0.006 C 
BRANCH   7   8
ATOM      8  C   UNL     1      -9.828   6.037  52.666  1.00  0.00     0.053 C 
BRANCH   8   9
ATOM      9  C   UNL     1     -10.689   4.844  52.938  1.00  0.00     0.041 C 
ATOM     10  O   UNL     1     -11.144   4.641  54.094  1.00  0.00    -0.550 OA
ATOM     11  O   UNL     1     -10.948   3.928  51.926  1.00  0.00    -0.550 OA
ENDBRANCH   8   9
ENDBRANCH   7   8
ENDBRANCH   6   7
ENDBRANCH   5   6
ENDBRANCH   4   5
ENDBRANCH   3   4
ENDBRANCH   2   3
ENDBRANCH   1   2
BRANCH   1  12
ATOM     12  C   UNL     1      -6.721   5.348  55.398  1.00  0.00     0.000 C 
BRANCH  12  13
ATOM     13  C   UNL     1      -6.425   6.102  56.702  1.00  0.00    -0.000 C 
BRANCH  13  14
ATOM     14  C   UNL     1      -7.484   5.788  57.769  1.00  0.00    -0.000 C 
BRANCH  14  15
ATOM     15  C   UNL     1      -6.876   5.572  59.167  1.00  0.00    -0.000 C 
BRANCH  15  16
ATOM     16  C   UNL     1      -5.337   5.639  59.224  1.00  0.00    -0.000 C 
BRANCH  16  17
ATOM     17  C   UNL     1      -4.620   4.274  59.237  1.00  0.00    -0.000 C 
BRANCH  17  18
ATOM     18  C   UNL     1      -5.554   3.051  59.261  1.00  0.00    -0.000 C 
BRANCH  18  19
ATOM     19  C   UNL     1      -5.693   2.381  57.887  1.00  0.00    -0.003 C 
ATOM     20  C   UNL     1      -4.513   2.731  56.984  1.00  0.00     0.004 C 
ENDBRANCH  18  19
ENDBRANCH  17  18
ENDBRANCH  16  17
ENDBRANCH  15  16
ENDBRANCH  14  15
ENDBRANCH  13  14
ENDBRANCH  12  13
ENDBRANCH   1  12
TORSDOF 16
ENDMDL
