MODEL 1
REMARK VINA RESULT:    -4.676      0.000      0.000
REMARK INTER + INTRA:         -10.631
REMARK INTER:                  -8.776
REMARK INTRA:                  -1.854
REMARK UNBOUND:                -1.854
REMARK SMILES O=C([O-])CCCCCCCCCCCCCCC(=O)[O-]
REMARK SMILES IDX 10 1 9 2 8 3 7 4 6 5 5 6 4 7 2 8 1 9 3 10 11 11 12 12 13 13
REMARK SMILES IDX 14 14 15 15 16 16 17 17 18 18 19 19 20 20
REMARK H PARENT
REMARK Flexibility Score: inf
ROOT
ATOM      1  C   UNL     1     -17.860  43.823  31.283  1.00  0.00     0.000 C 
ENDROOT
BRANCH   1   2
ATOM      2  C   UNL     1     -18.394  43.998  32.718  1.00  0.00     0.000 C 
BRANCH   2   3
ATOM      3  C   UNL     1     -18.597  42.690  33.508  1.00  0.00     0.000 C 
BRANCH   3   4
ATOM      4  C   UNL     1     -17.304  42.031  34.025  1.00  0.00     0.000 C 
BRANCH   4   5
ATOM      5  C   UNL     1     -17.217  40.535  33.678  1.00  0.00     0.000 C 
BRANCH   5   6
ATOM      6  C   UNL     1     -17.778  40.219  32.282  1.00  0.00     0.006 C 
BRANCH   6   7
ATOM      7  C   UNL     1     -16.675  39.977  31.242  1.00  0.00     0.053 C 
BRANCH   7   8
ATOM      8  C   UNL     1     -16.696  38.554  30.777  1.00  0.00     0.041 C 
ATOM      9  O   UNL     1     -17.712  37.839  30.976  1.00  0.00    -0.550 OA
ATOM     10  O   UNL     1     -15.579  38.007  30.157  1.00  0.00    -0.550 OA
ENDBRANCH   7   8
ENDBRANCH   6   7
ENDBRANCH   5   6
ENDBRANCH   4   5
ENDBRANCH   3   4
ENDBRANCH   2   3
ENDBRANCH   1   2
BRANCH   1  11
ATOM     11  C   UNL     1     -17.152  45.059  30.697  1.00  0.00     0.000 C 
BRANCH  11  12
ATOM     12  C   UNL     1     -16.004  44.694  29.743  1.00  0.00     0.000 C 
BRANCH  12  13
ATOM     13  C   UNL     1     -15.574  43.233  29.940  1.00  0.00     0.000 C 
BRANCH  13  14
ATOM     14  C   UNL     1     -14.071  43.016  29.699  1.00  0.00     0.000 C 
BRANCH  14  15
ATOM     15  C   UNL     1     -13.237  44.271  30.009  1.00  0.00     0.000 C 
BRANCH  15  16
ATOM     16  C   UNL     1     -12.574  44.209  31.396  1.00  0.00     0.006 C 
BRANCH  16  17
ATOM     17  C   UNL     1     -13.469  44.779  32.503  1.00  0.00     0.053 C 
BRANCH  17  18
ATOM     18  C   UNL     1     -13.898  43.693  33.439  1.00  0.00     0.041 C 
ATOM     19  O   UNL     1     -13.627  42.491  33.182  1.00  0.00    -0.550 OA
ATOM     20  O   UNL     1     -14.555  44.014  34.621  1.00  0.00    -0.550 OA
ENDBRANCH  17  18
ENDBRANCH  16  17
ENDBRANCH  15  16
ENDBRANCH  14  15
ENDBRANCH  13  14
ENDBRANCH  12  13
ENDBRANCH  11  12
ENDBRANCH   1  11
TORSDOF 15
ENDMDL
MODEL 2
REMARK VINA RESULT:    -4.551      2.056      4.688
REMARK INTER + INTRA:         -10.395
REMARK INTER:                  -8.169
REMARK INTRA:                  -2.227
REMARK UNBOUND:                -1.854
REMARK SMILES O=C([O-])CCCCCCCCCCCCCCC(=O)[O-]
REMARK SMILES IDX 10 1 9 2 8 3 7 4 6 5 5 6 4 7 2 8 1 9 3 10 11 11 12 12 13 13
REMARK SMILES IDX 14 14 15 15 16 16 17 17 18 18 19 19 20 20
REMARK H PARENT
REMARK Flexibility Score: inf
ROOT
ATOM      1  C   UNL     1     -17.146  40.533  33.656  1.00  0.00     0.000 C 
ENDROOT
BRANCH   1   2
ATOM      2  C   UNL     1     -17.993  41.696  34.209  1.00  0.00     0.000 C 
BRANCH   2   3
ATOM      3  C   UNL     1     -19.002  42.305  33.215  1.00  0.00     0.000 C 
BRANCH   3   4
ATOM      4  C   UNL     1     -18.595  43.668  32.625  1.00  0.00     0.000 C 
BRANCH   4   5
ATOM      5  C   UNL     1     -17.643  44.455  33.542  1.00  0.00     0.000 C 
BRANCH   5   6
ATOM      6  C   UNL     1     -16.214  44.536  32.980  1.00  0.00     0.006 C 
BRANCH   6   7
ATOM      7  C   UNL     1     -15.157  44.038  33.976  1.00  0.00     0.053 C 
BRANCH   7   8
ATOM      8  C   UNL     1     -14.083  45.064  34.157  1.00  0.00     0.041 C 
ATOM      9  O   UNL     1     -14.266  46.042  34.927  1.00  0.00    -0.550 OA
ATOM     10  O   UNL     1     -12.894  44.960  33.446  1.00  0.00    -0.550 OA
ENDBRANCH   7   8
ENDBRANCH   6   7
ENDBRANCH   5   6
ENDBRANCH   4   5
ENDBRANCH   3   4
ENDBRANCH   2   3
ENDBRANCH   1   2
BRANCH   1  11
ATOM     11  C   UNL     1     -17.562  40.031  32.261  1.00  0.00     0.000 C 
BRANCH  11  12
ATOM     12  C   UNL     1     -16.423  40.108  31.233  1.00  0.00     0.000 C 
BRANCH  12  13
ATOM     13  C   UNL     1     -16.087  41.569  30.899  1.00  0.00     0.000 C 
BRANCH  13  14
ATOM     14  C   UNL     1     -15.742  41.777  29.415  1.00  0.00     0.000 C 
BRANCH  14  15
ATOM     15  C   UNL     1     -14.601  42.788  29.211  1.00  0.00     0.000 C 
BRANCH  15  16
ATOM     16  C   UNL     1     -13.900  43.159  30.529  1.00  0.00     0.006 C 
BRANCH  16  17
ATOM     17  C   UNL     1     -12.457  42.644  30.594  1.00  0.00     0.053 C 
BRANCH  17  18
ATOM     18  C   UNL     1     -12.365  41.459  31.504  1.00  0.00     0.041 C 
ATOM     19  O   UNL     1     -12.113  41.618  32.728  1.00  0.00    -0.550 OA
ATOM     20  O   UNL     1     -12.606  40.184  31.010  1.00  0.00    -0.550 OA
ENDBRANCH  17  18
ENDBRANCH  16  17
ENDBRANCH  15  16
ENDBRANCH  14  15
ENDBRANCH  13  14
ENDBRANCH  12  13
ENDBRANCH  11  12
ENDBRANCH   1  11
TORSDOF 15
ENDMDL
MODEL 3
REMARK VINA RESULT:    -4.548      1.751      5.615
REMARK INTER + INTRA:         -10.391
REMARK INTER:                  -8.585
REMARK INTRA:                  -1.806
REMARK UNBOUND:                -1.854
REMARK SMILES O=C([O-])CCCCCCCCCCCCCCC(=O)[O-]
REMARK SMILES IDX 10 1 9 2 8 3 7 4 6 5 5 6 4 7 2 8 1 9 3 10 11 11 12 12 13 13
REMARK SMILES IDX 14 14 15 15 16 16 17 17 18 18 19 19 20 20
REMARK H PARENT
REMARK Flexibility Score: inf
ROOT
ATOM      1  C   UNL     1     -17.464  44.815  31.398  1.00  0.00     0.000 C 
ENDROOT
BRANCH   1   2
ATOM      2  C   UNL     1     -16.501  43.882  30.638  1.00  0.00     0.000 C 
BRANCH   2   3
ATOM      3  C   UNL     1     -15.118  44.483  30.318  1.00  0.00     0.000 C 
BRANCH   3   4
ATOM      4  C   UNL     1     -14.038  44.243  31.389  1.00  0.00     0.000 C 
BRANCH   4   5
ATOM      5  C   UNL     1     -14.288  42.968  32.213  1.00  0.00     0.000 C 
BRANCH   5   6
ATOM      6  C   UNL     1     -13.038  42.503  32.977  1.00  0.00     0.006 C 
BRANCH   6   7
ATOM      7  C   UNL     1     -12.290  41.373  32.256  1.00  0.00     0.053 C 
BRANCH   7   8
ATOM      8  C   UNL     1     -10.820  41.654  32.225  1.00  0.00     0.041 C 
ATOM      9  O   UNL     1     -10.010  40.846  32.749  1.00  0.00    -0.550 OA
ATOM     10  O   UNL     1     -10.348  42.828  31.650  1.00  0.00    -0.550 OA
ENDBRANCH   7   8
ENDBRANCH   6   7
ENDBRANCH   5   6
ENDBRANCH   4   5
ENDBRANCH   3   4
ENDBRANCH   2   3
ENDBRANCH   1   2
BRANCH   1  11
ATOM     11  C   UNL     1     -17.605  44.519  32.903  1.00  0.00     0.000 C 
BRANCH  11  12
ATOM     12  C   UNL     1     -19.002  44.003  33.282  1.00  0.00     0.000 C 
BRANCH  12  13
ATOM     13  C   UNL     1     -19.028  42.467  33.307  1.00  0.00     0.000 C 
BRANCH  13  14
ATOM     14  C   UNL     1     -18.029  41.870  34.311  1.00  0.00     0.000 C 
BRANCH  14  15
ATOM     15  C   UNL     1     -17.035  40.900  33.649  1.00  0.00     0.000 C 
BRANCH  15  16
ATOM     16  C   UNL     1     -17.658  40.135  32.468  1.00  0.00     0.006 C 
BRANCH  16  17
ATOM     17  C   UNL     1     -16.746  40.112  31.235  1.00  0.00     0.053 C 
BRANCH  17  18
ATOM     18  C   UNL     1     -16.536  38.705  30.768  1.00  0.00     0.041 C 
ATOM     19  O   UNL     1     -15.395  38.324  30.397  1.00  0.00    -0.550 OA
ATOM     20  O   UNL     1     -17.592  37.803  30.787  1.00  0.00    -0.550 OA
ENDBRANCH  17  18
ENDBRANCH  16  17
ENDBRANCH  15  16
ENDBRANCH  14  15
ENDBRANCH  13  14
ENDBRANCH  12  13
ENDBRANCH  11  12
ENDBRANCH   1  11
TORSDOF 15
ENDMDL
MODEL 4
REMARK VINA RESULT:    -4.515      1.778      5.153
REMARK INTER + INTRA:         -10.328
REMARK INTER:                  -8.113
REMARK INTRA:                  -2.215
REMARK UNBOUND:                -1.854
REMARK SMILES O=C([O-])CCCCCCCCCCCCCCC(=O)[O-]
REMARK SMILES IDX 10 1 9 2 8 3 7 4 6 5 5 6 4 7 2 8 1 9 3 10 11 11 12 12 13 13
REMARK SMILES IDX 14 14 15 15 16 16 17 17 18 18 19 19 20 20
REMARK H PARENT
REMARK Flexibility Score: inf
ROOT
ATOM      1  C   UNL     1     -17.732  44.236  31.382  1.00  0.00     0.000 C 
ENDROOT
BRANCH   1   2
ATOM      2  C   UNL     1     -17.215  44.480  32.813  1.00  0.00     0.000 C 
BRANCH   2   3
ATOM      3  C   UNL     1     -16.431  43.309  33.437  1.00  0.00     0.000 C 
BRANCH   3   4
ATOM      4  C   UNL     1     -15.193  43.715  34.258  1.00  0.00     0.000 C 
BRANCH   4   5
ATOM      5  C   UNL     1     -14.552  45.023  33.762  1.00  0.00     0.000 C 
BRANCH   5   6
ATOM      6  C   UNL     1     -13.076  44.847  33.373  1.00  0.00     0.006 C 
BRANCH   6   7
ATOM      7  C   UNL     1     -12.890  44.554  31.878  1.00  0.00     0.053 C 
BRANCH   7   8
ATOM      8  C   UNL     1     -11.442  44.340  31.562  1.00  0.00     0.041 C 
ATOM      9  O   UNL     1     -10.662  43.895  32.444  1.00  0.00    -0.550 OA
ATOM     10  O   UNL     1     -10.947  44.667  30.306  1.00  0.00    -0.550 OA
ENDBRANCH   7   8
ENDBRANCH   6   7
ENDBRANCH   5   6
ENDBRANCH   4   5
ENDBRANCH   3   4
ENDBRANCH   2   3
ENDBRANCH   1   2
BRANCH   1  11
ATOM     11  C   UNL     1     -17.062  45.093  30.292  1.00  0.00     0.000 C 
BRANCH  11  12
ATOM     12  C   UNL     1     -15.743  44.490  29.784  1.00  0.00     0.000 C 
BRANCH  12  13
ATOM     13  C   UNL     1     -16.001  43.492  28.645  1.00  0.00     0.000 C 
BRANCH  13  14
ATOM     14  C   UNL     1     -15.590  42.056  29.007  1.00  0.00     0.000 C 
BRANCH  14  15
ATOM     15  C   UNL     1     -14.751  41.988  30.295  1.00  0.00     0.000 C 
BRANCH  15  16
ATOM     16  C   UNL     1     -15.176  40.829  31.213  1.00  0.00     0.006 C 
BRANCH  16  17
ATOM     17  C   UNL     1     -16.616  40.368  30.951  1.00  0.00     0.053 C 
BRANCH  17  18
ATOM     18  C   UNL     1     -16.677  38.875  30.861  1.00  0.00     0.041 C 
ATOM     19  O   UNL     1     -17.721  38.262  31.210  1.00  0.00    -0.550 OA
ATOM     20  O   UNL     1     -15.600  38.166  30.347  1.00  0.00    -0.550 OA
ENDBRANCH  17  18
ENDBRANCH  16  17
ENDBRANCH  15  16
ENDBRANCH  14  15
ENDBRANCH  13  14
ENDBRANCH  12  13
ENDBRANCH  11  12
ENDBRANCH   1  11
TORSDOF 15
ENDMDL
MODEL 5
REMARK VINA RESULT:    -4.428      2.721      5.045
REMARK INTER + INTRA:         -10.166
REMARK INTER:                  -8.056
REMARK INTRA:                  -2.110
REMARK UNBOUND:                -1.854
REMARK SMILES O=C([O-])CCCCCCCCCCCCCCC(=O)[O-]
REMARK SMILES IDX 10 1 9 2 8 3 7 4 6 5 5 6 4 7 2 8 1 9 3 10 11 11 12 12 13 13
REMARK SMILES IDX 14 14 15 15 16 16 17 17 18 18 19 19 20 20
REMARK H PARENT
REMARK Flexibility Score: inf
ROOT
ATOM      1  C   UNL     1     -16.461  41.065  31.730  1.00  0.00     0.000 C 
ENDROOT
BRANCH   1   2
ATOM      2  C   UNL     1     -16.227  40.483  30.322  1.00  0.00     0.000 C 
BRANCH   2   3
ATOM      3  C   UNL     1     -15.417  41.379  29.365  1.00  0.00     0.000 C 
BRANCH   3   4
ATOM      4  C   UNL     1     -15.509  42.890  29.650  1.00  0.00     0.000 C 
BRANCH   4   5
ATOM      5  C   UNL     1     -14.200  43.472  30.209  1.00  0.00     0.000 C 
BRANCH   5   6
ATOM      6  C   UNL     1     -13.109  42.405  30.394  1.00  0.00     0.006 C 
BRANCH   6   7
ATOM      7  C   UNL     1     -12.842  42.082  31.871  1.00  0.00     0.053 C 
BRANCH   7   8
ATOM      8  C   UNL     1     -11.379  42.177  32.171  1.00  0.00     0.041 C 
ATOM      9  O   UNL     1     -10.761  43.255  31.973  1.00  0.00    -0.550 OA
ATOM     10  O   UNL     1     -10.689  41.063  32.634  1.00  0.00    -0.550 OA
ENDBRANCH   7   8
ENDBRANCH   6   7
ENDBRANCH   5   6
ENDBRANCH   4   5
ENDBRANCH   3   4
ENDBRANCH   2   3
ENDBRANCH   1   2
BRANCH   1  11
ATOM     11  C   UNL     1     -17.821  40.716  32.362  1.00  0.00     0.000 C 
BRANCH  11  12
ATOM     12  C   UNL     1     -18.059  41.431  33.700  1.00  0.00     0.000 C 
BRANCH  12  13
ATOM     13  C   UNL     1     -19.209  42.442  33.582  1.00  0.00     0.000 C 
BRANCH  13  14
ATOM     14  C   UNL     1     -18.819  43.697  32.783  1.00  0.00     0.000 C 
BRANCH  14  15
ATOM     15  C   UNL     1     -17.810  44.584  33.533  1.00  0.00     0.000 C 
BRANCH  15  16
ATOM     16  C   UNL     1     -16.401  44.519  32.919  1.00  0.00     0.006 C 
BRANCH  16  17
ATOM     17  C   UNL     1     -15.336  44.078  33.932  1.00  0.00     0.053 C 
BRANCH  17  18
ATOM     18  C   UNL     1     -14.298  45.143  34.095  1.00  0.00     0.041 C 
ATOM     19  O   UNL     1     -13.349  45.234  33.273  1.00  0.00    -0.550 OA
ATOM     20  O   UNL     1     -14.405  46.065  35.129  1.00  0.00    -0.550 OA
ENDBRANCH  17  18
ENDBRANCH  16  17
ENDBRANCH  15  16
ENDBRANCH  14  15
ENDBRANCH  13  14
ENDBRANCH  12  13
ENDBRANCH  11  12
ENDBRANCH   1  11
TORSDOF 15
ENDMDL
MODEL 6
REMARK VINA RESULT:    -4.415      2.208      5.114
REMARK INTER + INTRA:         -10.141
REMARK INTER:                  -7.555
REMARK INTRA:                  -2.586
REMARK UNBOUND:                -1.854
REMARK SMILES O=C([O-])CCCCCCCCCCCCCCC(=O)[O-]
REMARK SMILES IDX 10 1 9 2 8 3 7 4 6 5 5 6 4 7 2 8 1 9 3 10 11 11 12 12 13 13
REMARK SMILES IDX 14 14 15 15 16 16 17 17 18 18 19 19 20 20
REMARK H PARENT
REMARK Flexibility Score: inf
ROOT
ATOM      1  C   UNL     1     -17.660  44.513  32.793  1.00  0.00     0.000 C 
ENDROOT
BRANCH   1   2
ATOM      2  C   UNL     1     -16.752  44.700  31.562  1.00  0.00     0.000 C 
BRANCH   2   3
ATOM      3  C   UNL     1     -15.259  44.392  31.793  1.00  0.00     0.000 C 
BRANCH   3   4
ATOM      4  C   UNL     1     -14.780  44.536  33.250  1.00  0.00     0.000 C 
BRANCH   4   5
ATOM      5  C   UNL     1     -13.667  43.538  33.613  1.00  0.00     0.000 C 
BRANCH   5   6
ATOM      6  C   UNL     1     -13.686  42.282  32.726  1.00  0.00     0.006 C 
BRANCH   6   7
ATOM      7  C   UNL     1     -12.292  41.667  32.541  1.00  0.00     0.053 C 
BRANCH   7   8
ATOM      8  C   UNL     1     -11.500  42.455  31.545  1.00  0.00     0.041 C 
ATOM      9  O   UNL     1     -11.845  42.474  30.335  1.00  0.00    -0.550 OA
ATOM     10  O   UNL     1     -10.358  43.137  31.947  1.00  0.00    -0.550 OA
ENDBRANCH   7   8
ENDBRANCH   6   7
ENDBRANCH   5   6
ENDBRANCH   4   5
ENDBRANCH   3   4
ENDBRANCH   2   3
ENDBRANCH   1   2
BRANCH   1  11
ATOM     11  C   UNL     1     -18.949  43.710  32.535  1.00  0.00     0.000 C 
BRANCH  11  12
ATOM     12  C   UNL     1     -18.976  42.367  33.280  1.00  0.00     0.000 C 
BRANCH  12  13
ATOM     13  C   UNL     1     -17.630  42.097  33.968  1.00  0.00     0.000 C 
BRANCH  13  14
ATOM     14  C   UNL     1     -17.059  40.709  33.636  1.00  0.00     0.000 C 
BRANCH  14  15
ATOM     15  C   UNL     1     -17.505  40.203  32.253  1.00  0.00     0.000 C 
BRANCH  15  16
ATOM     16  C   UNL     1     -16.342  40.135  31.248  1.00  0.00     0.006 C 
BRANCH  16  17
ATOM     17  C   UNL     1     -16.333  41.323  30.276  1.00  0.00     0.053 C 
BRANCH  17  18
ATOM     18  C   UNL     1     -15.083  41.316  29.455  1.00  0.00     0.041 C 
ATOM     19  O   UNL     1     -14.283  40.345  29.525  1.00  0.00    -0.550 OA
ATOM     20  O   UNL     1     -14.825  42.359  28.574  1.00  0.00    -0.550 OA
ENDBRANCH  17  18
ENDBRANCH  16  17
ENDBRANCH  15  16
ENDBRANCH  14  15
ENDBRANCH  13  14
ENDBRANCH  12  13
ENDBRANCH  11  12
ENDBRANCH   1  11
TORSDOF 15
ENDMDL
MODEL 7
REMARK VINA RESULT:    -4.388      3.183      6.809
REMARK INTER + INTRA:         -10.090
REMARK INTER:                  -7.778
REMARK INTRA:                  -2.312
REMARK UNBOUND:                -1.854
REMARK SMILES O=C([O-])CCCCCCCCCCCCCCC(=O)[O-]
REMARK SMILES IDX 10 1 9 2 8 3 7 4 6 5 5 6 4 7 2 8 1 9 3 10 11 11 12 12 13 13
REMARK SMILES IDX 14 14 15 15 16 16 17 17 18 18 19 19 20 20
REMARK H PARENT
REMARK Flexibility Score: inf
ROOT
ATOM      1  C   UNL     1     -13.515  42.373  33.096  1.00  0.00     0.000 C 
ENDROOT
BRANCH   1   2
ATOM      2  C   UNL     1     -12.351  41.791  32.270  1.00  0.00     0.000 C 
BRANCH   2   3
ATOM      3  C   UNL     1     -12.684  41.469  30.799  1.00  0.00     0.000 C 
BRANCH   3   4
ATOM      4  C   UNL     1     -12.156  42.488  29.772  1.00  0.00     0.000 C 
BRANCH   4   5
ATOM      5  C   UNL     1     -11.161  43.489  30.383  1.00  0.00     0.000 C 
BRANCH   5   6
ATOM      6  C   UNL     1     -11.339  44.912  29.830  1.00  0.00     0.006 C 
BRANCH   6   7
ATOM      7  C   UNL     1     -10.002  45.619  29.571  1.00  0.00     0.053 C 
BRANCH   7   8
ATOM      8  C   UNL     1     -10.120  46.555  28.409  1.00  0.00     0.041 C 
ATOM      9  O   UNL     1      -9.838  46.160  27.248  1.00  0.00    -0.550 OA
ATOM     10  O   UNL     1     -10.505  47.874  28.614  1.00  0.00    -0.550 OA
ENDBRANCH   7   8
ENDBRANCH   6   7
ENDBRANCH   5   6
ENDBRANCH   4   5
ENDBRANCH   3   4
ENDBRANCH   2   3
ENDBRANCH   1   2
BRANCH   1  11
ATOM     11  C   UNL     1     -13.285  43.800  33.628  1.00  0.00     0.000 C 
BRANCH  11  12
ATOM     12  C   UNL     1     -13.779  44.886  32.660  1.00  0.00     0.000 C 
BRANCH  12  13
ATOM     13  C   UNL     1     -15.117  44.482  32.024  1.00  0.00     0.000 C 
BRANCH  13  14
ATOM     14  C   UNL     1     -15.065  44.463  30.487  1.00  0.00     0.000 C 
BRANCH  14  15
ATOM     15  C   UNL     1     -16.108  43.513  29.873  1.00  0.00     0.000 C 
BRANCH  15  16
ATOM     16  C   UNL     1     -16.851  42.689  30.938  1.00  0.00     0.006 C 
BRANCH  16  17
ATOM     17  C   UNL     1     -16.408  41.221  30.963  1.00  0.00     0.053 C 
BRANCH  17  18
ATOM     18  C   UNL     1     -17.417  40.382  31.682  1.00  0.00     0.041 C 
ATOM     19  O   UNL     1     -17.445  39.135  31.508  1.00  0.00    -0.550 OA
ATOM     20  O   UNL     1     -18.296  40.972  32.582  1.00  0.00    -0.550 OA
ENDBRANCH  17  18
ENDBRANCH  16  17
ENDBRANCH  15  16
ENDBRANCH  14  15
ENDBRANCH  13  14
ENDBRANCH  12  13
ENDBRANCH  11  12
ENDBRANCH   1  11
TORSDOF 15
ENDMDL
MODEL 8
REMARK VINA RESULT:    -4.380      2.081      2.845
REMARK INTER + INTRA:         -10.075
REMARK INTER:                  -8.233
REMARK INTRA:                  -1.842
REMARK UNBOUND:                -1.854
REMARK SMILES O=C([O-])CCCCCCCCCCCCCCC(=O)[O-]
REMARK SMILES IDX 10 1 9 2 8 3 7 4 6 5 5 6 4 7 2 8 1 9 3 10 11 11 12 12 13 13
REMARK SMILES IDX 14 14 15 15 16 16 17 17 18 18 19 19 20 20
REMARK H PARENT
REMARK Flexibility Score: inf
ROOT
ATOM      1  C   UNL     1     -17.108  44.838  30.899  1.00  0.00     0.000 C 
ENDROOT
BRANCH   1   2
ATOM      2  C   UNL     1     -18.297  44.132  31.579  1.00  0.00     0.000 C 
BRANCH   2   3
ATOM      3  C   UNL     1     -18.139  43.887  33.093  1.00  0.00     0.000 C 
BRANCH   3   4
ATOM      4  C   UNL     1     -18.645  42.521  33.590  1.00  0.00     0.000 C 
BRANCH   4   5
ATOM      5  C   UNL     1     -17.582  41.415  33.480  1.00  0.00     0.000 C 
BRANCH   5   6
ATOM      6  C   UNL     1     -17.911  40.386  32.386  1.00  0.00     0.006 C 
BRANCH   6   7
ATOM      7  C   UNL     1     -16.774  40.220  31.369  1.00  0.00     0.053 C 
BRANCH   7   8
ATOM      8  C   UNL     1     -16.681  38.797  30.914  1.00  0.00     0.041 C 
ATOM      9  O   UNL     1     -17.660  38.021  31.062  1.00  0.00    -0.550 OA
ATOM     10  O   UNL     1     -15.499  38.318  30.362  1.00  0.00    -0.550 OA
ENDBRANCH   7   8
ENDBRANCH   6   7
ENDBRANCH   5   6
ENDBRANCH   4   5
ENDBRANCH   3   4
ENDBRANCH   2   3
ENDBRANCH   1   2
BRANCH   1  11
ATOM     11  C   UNL     1     -15.949  43.911  30.488  1.00  0.00     0.000 C 
BRANCH  11  12
ATOM     12  C   UNL     1     -14.579  44.419  30.966  1.00  0.00     0.000 C 
BRANCH  12  13
ATOM     13  C   UNL     1     -14.537  44.516  32.498  1.00  0.00     0.000 C 
BRANCH  13  14
ATOM     14  C   UNL     1     -14.436  43.141  33.180  1.00  0.00     0.000 C 
BRANCH  14  15
ATOM     15  C   UNL     1     -13.728  42.096  32.299  1.00  0.00     0.000 C 
BRANCH  15  16
ATOM     16  C   UNL     1     -12.226  41.985  32.611  1.00  0.00     0.006 C 
BRANCH  16  17
ATOM     17  C   UNL     1     -11.380  41.739  31.355  1.00  0.00     0.053 C 
BRANCH  17  18
ATOM     18  C   UNL     1      -9.998  41.307  31.732  1.00  0.00     0.041 C 
ATOM     19  O   UNL     1      -9.792  40.738  32.837  1.00  0.00    -0.550 OA
ATOM     20  O   UNL     1      -8.947  41.488  30.843  1.00  0.00    -0.550 OA
ENDBRANCH  17  18
ENDBRANCH  16  17
ENDBRANCH  15  16
ENDBRANCH  14  15
ENDBRANCH  13  14
ENDBRANCH  12  13
ENDBRANCH  11  12
ENDBRANCH   1  11
TORSDOF 15
ENDMDL
MODEL 9
REMARK VINA RESULT:    -4.376      2.224      4.491
REMARK INTER + INTRA:         -10.068
REMARK INTER:                  -8.053
REMARK INTRA:                  -2.016
REMARK UNBOUND:                -1.854
REMARK SMILES O=C([O-])CCCCCCCCCCCCCCC(=O)[O-]
REMARK SMILES IDX 10 1 9 2 8 3 7 4 6 5 5 6 4 7 2 8 1 9 3 10 11 11 12 12 13 13
REMARK SMILES IDX 14 14 15 15 16 16 17 17 18 18 19 19 20 20
REMARK H PARENT
REMARK Flexibility Score: inf
ROOT
ATOM      1  C   UNL     1     -13.233  44.042  30.621  1.00  0.00     0.000 C 
ENDROOT
BRANCH   1   2
ATOM      2  C   UNL     1     -14.458  44.960  30.442  1.00  0.00     0.000 C 
BRANCH   2   3
ATOM      3  C   UNL     1     -15.700  44.287  29.825  1.00  0.00     0.000 C 
BRANCH   3   4
ATOM      4  C   UNL     1     -15.441  42.924  29.157  1.00  0.00     0.000 C 
BRANCH   4   5
ATOM      5  C   UNL     1     -15.979  41.743  29.983  1.00  0.00     0.000 C 
BRANCH   5   6
ATOM      6  C   UNL     1     -15.267  40.421  29.657  1.00  0.00     0.006 C 
BRANCH   6   7
ATOM      7  C   UNL     1     -15.907  39.679  28.475  1.00  0.00     0.053 C 
BRANCH   7   8
ATOM      8  C   UNL     1     -15.689  38.204  28.602  1.00  0.00     0.041 C 
ATOM      9  O   UNL     1     -16.605  37.400  28.289  1.00  0.00    -0.550 OA
ATOM     10  O   UNL     1     -14.487  37.718  29.102  1.00  0.00    -0.550 OA
ENDBRANCH   7   8
ENDBRANCH   6   7
ENDBRANCH   5   6
ENDBRANCH   4   5
ENDBRANCH   3   4
ENDBRANCH   2   3
ENDBRANCH   1   2
BRANCH   1  11
ATOM     11  C   UNL     1     -12.611  44.053  32.029  1.00  0.00     0.000 C 
BRANCH  11  12
ATOM     12  C   UNL     1     -13.486  43.344  33.075  1.00  0.00     0.000 C 
BRANCH  12  13
ATOM     13  C   UNL     1     -13.874  44.308  34.206  1.00  0.00     0.000 C 
BRANCH  13  14
ATOM     14  C   UNL     1     -15.312  44.835  34.072  1.00  0.00     0.000 C 
BRANCH  14  15
ATOM     15  C   UNL     1     -16.269  43.792  33.470  1.00  0.00     0.000 C 
BRANCH  15  16
ATOM     16  C   UNL     1     -17.593  44.414  32.993  1.00  0.00     0.006 C 
BRANCH  16  17
ATOM     17  C   UNL     1     -18.442  43.435  32.173  1.00  0.00     0.053 C 
BRANCH  17  18
ATOM     18  C   UNL     1     -18.730  42.200  32.968  1.00  0.00     0.041 C 
ATOM     19  O   UNL     1     -19.412  42.271  34.024  1.00  0.00    -0.550 OA
ATOM     20  O   UNL     1     -18.285  40.964  32.517  1.00  0.00    -0.550 OA
ENDBRANCH  17  18
ENDBRANCH  16  17
ENDBRANCH  15  16
ENDBRANCH  14  15
ENDBRANCH  13  14
ENDBRANCH  12  13
ENDBRANCH  11  12
ENDBRANCH   1  11
TORSDOF 15
ENDMDL
