MODEL 1
REMARK VINA RESULT:    -3.415      0.000      0.000
REMARK INTER + INTRA:          -7.053
REMARK INTER:                  -6.210
REMARK INTRA:                  -0.843
REMARK UNBOUND:                -0.843
REMARK SMILES CCCCCCCCCCCCCCCC(=O)[O-]
REMARK SMILES IDX 9 1 10 2 11 3 12 4 13 5 14 6 15 7 16 8 17 9 18 10 8 11 7 12
REMARK SMILES IDX 6 13 5 14 4 15 3 16 2 17 1 18
REMARK H PARENT
REMARK Flexibility Score: inf
ROOT
ATOM      1  C   UNL     1      15.510  15.979   7.278  1.00  0.00     0.000 C 
ENDROOT
BRANCH   1   2
ATOM      2  C   UNL     1      15.540  16.891   8.518  1.00  0.00     0.000 C 
BRANCH   2   3
ATOM      3  C   UNL     1      16.805  17.763   8.586  1.00  0.00     0.000 C 
BRANCH   3   4
ATOM      4  C   UNL     1      16.878  18.597   9.875  1.00  0.00     0.000 C 
BRANCH   4   5
ATOM      5  C   UNL     1      16.278  20.003   9.703  1.00  0.00     0.000 C 
BRANCH   5   6
ATOM      6  C   UNL     1      15.786  20.602  11.032  1.00  0.00     0.006 C 
BRANCH   6   7
ATOM      7  C   UNL     1      14.817  19.673  11.776  1.00  0.00     0.053 C 
BRANCH   7   8
ATOM      8  C   UNL     1      13.538  20.389  12.076  1.00  0.00     0.041 C 
ATOM      9  O   UNL     1      13.283  21.491  11.522  1.00  0.00    -0.550 OA
ATOM     10  O   UNL     1      12.649  19.864  13.005  1.00  0.00    -0.550 OA
ENDBRANCH   7   8
ENDBRANCH   6   7
ENDBRANCH   5   6
ENDBRANCH   4   5
ENDBRANCH   3   4
ENDBRANCH   2   3
ENDBRANCH   1   2
BRANCH   1  11
ATOM     11  C   UNL     1      16.098  14.567   7.486  1.00  0.00     0.000 C 
BRANCH  11  12
ATOM     12  C   UNL     1      15.176  13.409   7.067  1.00  0.00    -0.000 C 
BRANCH  12  13
ATOM     13  C   UNL     1      14.140  13.050   8.144  1.00  0.00    -0.000 C 
BRANCH  13  14
ATOM     14  C   UNL     1      14.774  13.072   9.542  1.00  0.00    -0.000 C 
BRANCH  14  15
ATOM     15  C   UNL     1      14.065  12.130  10.529  1.00  0.00    -0.000 C 
BRANCH  15  16
ATOM     16  C   UNL     1      15.006  11.601  11.622  1.00  0.00    -0.000 C 
BRANCH  16  17
ATOM     17  C   UNL     1      14.564  12.087  13.008  1.00  0.00    -0.003 C 
ATOM     18  C   UNL     1      13.276  12.901  12.921  1.00  0.00     0.004 C 
ENDBRANCH  16  17
ENDBRANCH  15  16
ENDBRANCH  14  15
ENDBRANCH  13  14
ENDBRANCH  12  13
ENDBRANCH  11  12
ENDBRANCH   1  11
TORSDOF 14
ENDMDL
MODEL 2
REMARK VINA RESULT:    -3.363      1.561      3.130
REMARK INTER + INTRA:          -6.959
REMARK INTER:                  -5.788
REMARK INTRA:                  -1.171
REMARK UNBOUND:                -0.843
REMARK SMILES CCCCCCCCCCCCCCCC(=O)[O-]
REMARK SMILES IDX 9 1 10 2 11 3 12 4 13 5 14 6 15 7 16 8 17 9 18 10 8 11 7 12
REMARK SMILES IDX 6 13 5 14 4 15 3 16 2 17 1 18
REMARK H PARENT
REMARK Flexibility Score: inf
ROOT
ATOM      1  C   UNL     1      16.543  16.214  10.923  1.00  0.00     0.000 C 
ENDROOT
BRANCH   1   2
ATOM      2  C   UNL     1      16.569  16.540   9.419  1.00  0.00     0.000 C 
BRANCH   2   3
ATOM      3  C   UNL     1      15.801  17.828   9.075  1.00  0.00     0.000 C 
BRANCH   3   4
ATOM      4  C   UNL     1      16.737  18.992   8.710  1.00  0.00     0.000 C 
BRANCH   4   5
ATOM      5  C   UNL     1      16.618  20.174   9.689  1.00  0.00     0.000 C 
BRANCH   5   6
ATOM      6  C   UNL     1      15.551  19.938  10.772  1.00  0.00     0.006 C 
BRANCH   6   7
ATOM      7  C   UNL     1      14.959  21.245  11.315  1.00  0.00     0.053 C 
BRANCH   7   8
ATOM      8  C   UNL     1      13.590  21.005  11.869  1.00  0.00     0.041 C 
ATOM      9  O   UNL     1      12.805  21.971  12.058  1.00  0.00    -0.550 OA
ATOM     10  O   UNL     1      13.199  19.720  12.222  1.00  0.00    -0.550 OA
ENDBRANCH   7   8
ENDBRANCH   6   7
ENDBRANCH   5   6
ENDBRANCH   4   5
ENDBRANCH   3   4
ENDBRANCH   2   3
ENDBRANCH   1   2
BRANCH   1  11
ATOM     11  C   UNL     1      17.124  14.837  11.307  1.00  0.00     0.000 C 
BRANCH  11  12
ATOM     12  C   UNL     1      16.340  14.078  12.392  1.00  0.00    -0.000 C 
BRANCH  12  13
ATOM     13  C   UNL     1      14.998  13.529  11.887  1.00  0.00    -0.000 C 
BRANCH  13  14
ATOM     14  C   UNL     1      15.211  12.526  10.744  1.00  0.00    -0.000 C 
BRANCH  14  15
ATOM     15  C   UNL     1      14.481  12.932   9.453  1.00  0.00    -0.000 C 
BRANCH  15  16
ATOM     16  C   UNL     1      15.435  13.482   8.382  1.00  0.00    -0.000 C 
BRANCH  16  17
ATOM     17  C   UNL     1      14.906  13.185   6.974  1.00  0.00    -0.003 C 
ATOM     18  C   UNL     1      13.434  12.784   7.011  1.00  0.00     0.004 C 
ENDBRANCH  16  17
ENDBRANCH  15  16
ENDBRANCH  14  15
ENDBRANCH  13  14
ENDBRANCH  12  13
ENDBRANCH  11  12
ENDBRANCH   1  11
TORSDOF 14
ENDMDL
MODEL 3
REMARK VINA RESULT:    -3.293      2.778      6.666
REMARK INTER + INTRA:          -6.832
REMARK INTER:                  -5.135
REMARK INTRA:                  -1.697
REMARK UNBOUND:                -0.843
REMARK SMILES CCCCCCCCCCCCCCCC(=O)[O-]
REMARK SMILES IDX 9 1 10 2 11 3 12 4 13 5 14 6 15 7 16 8 17 9 18 10 8 11 7 12
REMARK SMILES IDX 6 13 5 14 4 15 3 16 2 17 1 18
REMARK H PARENT
REMARK Flexibility Score: inf
ROOT
ATOM      1  C   UNL     1      15.244  16.868   8.365  1.00  0.00     0.000 C 
ENDROOT
BRANCH   1   2
ATOM      2  C   UNL     1      15.751  16.011   7.192  1.00  0.00     0.000 C 
BRANCH   2   3
ATOM      3  C   UNL     1      15.778  14.508   7.519  1.00  0.00     0.000 C 
BRANCH   3   4
ATOM      4  C   UNL     1      16.822  14.157   8.591  1.00  0.00     0.000 C 
BRANCH   4   5
ATOM      5  C   UNL     1      16.266  13.208   9.668  1.00  0.00     0.000 C 
BRANCH   5   6
ATOM      6  C   UNL     1      14.837  13.579  10.100  1.00  0.00     0.006 C 
BRANCH   6   7
ATOM      7  C   UNL     1      14.054  12.379  10.649  1.00  0.00     0.053 C 
BRANCH   7   8
ATOM      8  C   UNL     1      14.055  12.397  12.145  1.00  0.00     0.041 C 
ATOM      9  O   UNL     1      13.192  13.067  12.772  1.00  0.00    -0.550 OA
ATOM     10  O   UNL     1      15.039  11.713  12.847  1.00  0.00    -0.550 OA
ENDBRANCH   7   8
ENDBRANCH   6   7
ENDBRANCH   5   6
ENDBRANCH   4   5
ENDBRANCH   3   4
ENDBRANCH   2   3
ENDBRANCH   1   2
BRANCH   1  11
ATOM     11  C   UNL     1      16.167  18.035   8.774  1.00  0.00     0.000 C 
BRANCH  11  12
ATOM     12  C   UNL     1      17.125  17.732   9.939  1.00  0.00    -0.000 C 
BRANCH  12  13
ATOM     13  C   UNL     1      16.410  17.140  11.163  1.00  0.00    -0.000 C 
BRANCH  13  14
ATOM     14  C   UNL     1      15.913  18.251  12.098  1.00  0.00    -0.000 C 
BRANCH  14  15
ATOM     15  C   UNL     1      16.774  19.523  12.017  1.00  0.00    -0.000 C 
BRANCH  15  16
ATOM     16  C   UNL     1      15.942  20.784  11.737  1.00  0.00    -0.000 C 
BRANCH  16  17
ATOM     17  C   UNL     1      14.571  20.417  11.157  1.00  0.00    -0.003 C 
ATOM     18  C   UNL     1      13.443  21.059  11.961  1.00  0.00     0.004 C 
ENDBRANCH  16  17
ENDBRANCH  15  16
ENDBRANCH  14  15
ENDBRANCH  13  14
ENDBRANCH  12  13
ENDBRANCH  11  12
ENDBRANCH   1  11
TORSDOF 14
ENDMDL
MODEL 4
REMARK VINA RESULT:    -3.272      2.945      6.942
REMARK INTER + INTRA:          -6.792
REMARK INTER:                  -5.413
REMARK INTRA:                  -1.379
REMARK UNBOUND:                -0.843
REMARK SMILES CCCCCCCCCCCCCCCC(=O)[O-]
REMARK SMILES IDX 9 1 10 2 11 3 12 4 13 5 14 6 15 7 16 8 17 9 18 10 8 11 7 12
REMARK SMILES IDX 6 13 5 14 4 15 3 16 2 17 1 18
REMARK H PARENT
REMARK Flexibility Score: inf
ROOT
ATOM      1  C   UNL     1      15.230  15.390   8.558  1.00  0.00     0.000 C 
ENDROOT
BRANCH   1   2
ATOM      2  C   UNL     1      16.231  14.398   7.938  1.00  0.00     0.000 C 
BRANCH   2   3
ATOM      3  C   UNL     1      17.019  13.606   8.995  1.00  0.00     0.000 C 
BRANCH   3   4
ATOM      4  C   UNL     1      17.102  14.342  10.342  1.00  0.00     0.000 C 
BRANCH   4   5
ATOM      5  C   UNL     1      16.898  13.400  11.542  1.00  0.00     0.000 C 
BRANCH   5   6
ATOM      6  C   UNL     1      16.708  11.934  11.117  1.00  0.00     0.006 C 
BRANCH   6   7
ATOM      7  C   UNL     1      15.403  11.327  11.648  1.00  0.00     0.053 C 
BRANCH   7   8
ATOM      8  C   UNL     1      14.227  12.107  11.151  1.00  0.00     0.041 C 
ATOM      9  O   UNL     1      13.445  12.665  11.967  1.00  0.00    -0.550 OA
ATOM     10  O   UNL     1      13.965  12.178   9.789  1.00  0.00    -0.550 OA
ENDBRANCH   7   8
ENDBRANCH   6   7
ENDBRANCH   5   6
ENDBRANCH   4   5
ENDBRANCH   3   4
ENDBRANCH   2   3
ENDBRANCH   1   2
BRANCH   1  11
ATOM     11  C   UNL     1      15.405  16.859   8.122  1.00  0.00     0.000 C 
BRANCH  11  12
ATOM     12  C   UNL     1      16.794  17.461   8.398  1.00  0.00    -0.000 C 
BRANCH  12  13
ATOM     13  C   UNL     1      16.835  18.308   9.679  1.00  0.00    -0.000 C 
BRANCH  13  14
ATOM     14  C   UNL     1      16.369  19.744   9.401  1.00  0.00    -0.000 C 
BRANCH  14  15
ATOM     15  C   UNL     1      15.814  20.441  10.654  1.00  0.00    -0.000 C 
BRANCH  15  16
ATOM     16  C   UNL     1      14.647  19.671  11.291  1.00  0.00    -0.000 C 
BRANCH  16  17
ATOM     17  C   UNL     1      13.457  20.600  11.555  1.00  0.00    -0.003 C 
ATOM     18  C   UNL     1      13.918  22.038  11.776  1.00  0.00     0.004 C 
ENDBRANCH  16  17
ENDBRANCH  15  16
ENDBRANCH  14  15
ENDBRANCH  13  14
ENDBRANCH  12  13
ENDBRANCH  11  12
ENDBRANCH   1  11
TORSDOF 14
ENDMDL
MODEL 5
REMARK VINA RESULT:    -3.194      3.253      6.973
REMARK INTER + INTRA:          -6.652
REMARK INTER:                  -5.826
REMARK INTRA:                  -0.826
REMARK UNBOUND:                -0.843
REMARK SMILES CCCCCCCCCCCCCCCC(=O)[O-]
REMARK SMILES IDX 9 1 10 2 11 3 12 4 13 5 14 6 15 7 16 8 17 9 18 10 8 11 7 12
REMARK SMILES IDX 6 13 5 14 4 15 3 16 2 17 1 18
REMARK H PARENT
REMARK Flexibility Score: inf
ROOT
ATOM      1  C   UNL     1      15.606  14.998   7.220  1.00  0.00     0.000 C 
ENDROOT
BRANCH   1   2
ATOM      2  C   UNL     1      15.306  13.490   7.136  1.00  0.00     0.000 C 
BRANCH   2   3
ATOM      3  C   UNL     1      14.217  13.043   8.125  1.00  0.00     0.000 C 
BRANCH   3   4
ATOM      4  C   UNL     1      14.598  13.322   9.588  1.00  0.00     0.000 C 
BRANCH   4   5
ATOM      5  C   UNL     1      14.086  12.235  10.549  1.00  0.00     0.000 C 
BRANCH   5   6
ATOM      6  C   UNL     1      13.891  12.758  11.982  1.00  0.00     0.006 C 
BRANCH   6   7
ATOM      7  C   UNL     1      14.664  11.937  13.023  1.00  0.00     0.053 C 
BRANCH   7   8
ATOM      8  C   UNL     1      16.038  11.622  12.520  1.00  0.00     0.041 C 
ATOM      9  O   UNL     1      16.910  12.528  12.448  1.00  0.00    -0.550 OA
ATOM     10  O   UNL     1      16.341  10.339  12.085  1.00  0.00    -0.550 OA
ENDBRANCH   7   8
ENDBRANCH   6   7
ENDBRANCH   5   6
ENDBRANCH   4   5
ENDBRANCH   3   4
ENDBRANCH   2   3
ENDBRANCH   1   2
BRANCH   1  11
ATOM     11  C   UNL     1      17.024  15.360   7.707  1.00  0.00     0.000 C 
BRANCH  11  12
ATOM     12  C   UNL     1      17.080  16.402   8.838  1.00  0.00    -0.000 C 
BRANCH  12  13
ATOM     13  C   UNL     1      15.782  17.213   8.968  1.00  0.00    -0.000 C 
BRANCH  13  14
ATOM     14  C   UNL     1      16.078  18.656   9.399  1.00  0.00    -0.000 C 
BRANCH  14  15
ATOM     15  C   UNL     1      15.093  19.173  10.460  1.00  0.00    -0.000 C 
BRANCH  15  16
ATOM     16  C   UNL     1      15.585  20.455  11.150  1.00  0.00    -0.000 C 
BRANCH  16  17
ATOM     17  C   UNL     1      14.806  20.713  12.445  1.00  0.00    -0.003 C 
ATOM     18  C   UNL     1      13.646  19.732  12.595  1.00  0.00     0.004 C 
ENDBRANCH  16  17
ENDBRANCH  15  16
ENDBRANCH  14  15
ENDBRANCH  13  14
ENDBRANCH  12  13
ENDBRANCH  11  12
ENDBRANCH   1  11
TORSDOF 14
ENDMDL
MODEL 6
REMARK VINA RESULT:    -3.055      1.350      1.593
REMARK INTER + INTRA:          -6.398
REMARK INTER:                  -4.866
REMARK INTRA:                  -1.532
REMARK UNBOUND:                -0.843
REMARK SMILES CCCCCCCCCCCCCCCC(=O)[O-]
REMARK SMILES IDX 9 1 10 2 11 3 12 4 13 5 14 6 15 7 16 8 17 9 18 10 8 11 7 12
REMARK SMILES IDX 6 13 5 14 4 15 3 16 2 17 1 18
REMARK H PARENT
REMARK Flexibility Score: inf
ROOT
ATOM      1  C   UNL     1      15.451  15.819   8.991  1.00  0.00     0.000 C 
ENDROOT
BRANCH   1   2
ATOM      2  C   UNL     1      15.258  17.171   8.281  1.00  0.00     0.000 C 
BRANCH   2   3
ATOM      3  C   UNL     1      15.901  18.342   9.043  1.00  0.00     0.000 C 
BRANCH   3   4
ATOM      4  C   UNL     1      16.538  17.902  10.372  1.00  0.00     0.000 C 
BRANCH   4   5
ATOM      5  C   UNL     1      16.544  19.026  11.423  1.00  0.00     0.000 C 
BRANCH   5   6
ATOM      6  C   UNL     1      16.030  20.362  10.862  1.00  0.00     0.006 C 
BRANCH   6   7
ATOM      7  C   UNL     1      15.261  21.185  11.904  1.00  0.00     0.053 C 
BRANCH   7   8
ATOM      8  C   UNL     1      13.787  20.980  11.745  1.00  0.00     0.041 C 
ATOM      9  O   UNL     1      13.020  21.969  11.607  1.00  0.00    -0.550 OA
ATOM     10  O   UNL     1      13.255  19.698  11.797  1.00  0.00    -0.550 OA
ENDBRANCH   7   8
ENDBRANCH   6   7
ENDBRANCH   5   6
ENDBRANCH   4   5
ENDBRANCH   3   4
ENDBRANCH   2   3
ENDBRANCH   1   2
BRANCH   1  11
ATOM     11  C   UNL     1      15.872  14.650   8.077  1.00  0.00     0.000 C 
BRANCH  11  12
ATOM     12  C   UNL     1      15.784  13.255   8.719  1.00  0.00    -0.000 C 
BRANCH  12  13
ATOM     13  C   UNL     1      14.338  12.805   8.977  1.00  0.00    -0.000 C 
BRANCH  13  14
ATOM     14  C   UNL     1      14.051  12.722  10.483  1.00  0.00    -0.000 C 
BRANCH  14  15
ATOM     15  C   UNL     1      15.017  11.781  11.221  1.00  0.00    -0.000 C 
BRANCH  15  16
ATOM     16  C   UNL     1      15.614  12.418  12.486  1.00  0.00    -0.000 C 
BRANCH  16  17
ATOM     17  C   UNL     1      15.585  13.948  12.394  1.00  0.00    -0.003 C 
ATOM     18  C   UNL     1      16.973  14.508  12.095  1.00  0.00     0.004 C 
ENDBRANCH  16  17
ENDBRANCH  15  16
ENDBRANCH  14  15
ENDBRANCH  13  14
ENDBRANCH  12  13
ENDBRANCH  11  12
ENDBRANCH   1  11
TORSDOF 14
ENDMDL
MODEL 7
REMARK VINA RESULT:    -3.027      1.598      2.391
REMARK INTER + INTRA:          -6.347
REMARK INTER:                  -4.734
REMARK INTRA:                  -1.613
REMARK UNBOUND:                -0.843
REMARK SMILES CCCCCCCCCCCCCCCC(=O)[O-]
REMARK SMILES IDX 9 1 10 2 11 3 12 4 13 5 14 6 15 7 16 8 17 9 18 10 8 11 7 12
REMARK SMILES IDX 6 13 5 14 4 15 3 16 2 17 1 18
REMARK H PARENT
REMARK Flexibility Score: inf
ROOT
ATOM      1  C   UNL     1      14.919  14.692   8.616  1.00  0.00     0.000 C 
ENDROOT
BRANCH   1   2
ATOM      2  C   UNL     1      15.636  15.862   7.919  1.00  0.00     0.000 C 
BRANCH   2   3
ATOM      3  C   UNL     1      15.225  17.234   8.480  1.00  0.00     0.000 C 
BRANCH   3   4
ATOM      4  C   UNL     1      16.416  18.016   9.057  1.00  0.00     0.000 C 
BRANCH   4   5
ATOM      5  C   UNL     1      16.122  19.521   9.194  1.00  0.00     0.000 C 
BRANCH   5   6
ATOM      6  C   UNL     1      16.117  19.990  10.659  1.00  0.00     0.006 C 
BRANCH   6   7
ATOM      7  C   UNL     1      14.734  20.468  11.123  1.00  0.00     0.053 C 
BRANCH   7   8
ATOM      8  C   UNL     1      14.164  19.514  12.125  1.00  0.00     0.041 C 
ATOM      9  O   UNL     1      13.019  19.714  12.610  1.00  0.00    -0.550 OA
ATOM     10  O   UNL     1      14.916  18.431  12.560  1.00  0.00    -0.550 OA
ENDBRANCH   7   8
ENDBRANCH   6   7
ENDBRANCH   5   6
ENDBRANCH   4   5
ENDBRANCH   3   4
ENDBRANCH   2   3
ENDBRANCH   1   2
BRANCH   1  11
ATOM     11  C   UNL     1      15.834  13.751   9.428  1.00  0.00     0.000 C 
BRANCH  11  12
ATOM     12  C   UNL     1      16.857  14.458  10.334  1.00  0.00    -0.000 C 
BRANCH  12  13
ATOM     13  C   UNL     1      16.208  15.154  11.540  1.00  0.00    -0.000 C 
BRANCH  13  14
ATOM     14  C   UNL     1      16.030  14.173  12.708  1.00  0.00    -0.000 C 
BRANCH  14  15
ATOM     15  C   UNL     1      14.570  13.727  12.890  1.00  0.00    -0.000 C 
BRANCH  15  16
ATOM     16  C   UNL     1      14.357  12.245  12.545  1.00  0.00    -0.000 C 
BRANCH  16  17
ATOM     17  C   UNL     1      15.621  11.428  12.835  1.00  0.00    -0.003 C 
ATOM     18  C   UNL     1      16.152  10.765  11.567  1.00  0.00     0.004 C 
ENDBRANCH  16  17
ENDBRANCH  15  16
ENDBRANCH  14  15
ENDBRANCH  13  14
ENDBRANCH  12  13
ENDBRANCH  11  12
ENDBRANCH   1  11
TORSDOF 14
ENDMDL
MODEL 8
REMARK VINA RESULT:    -2.112      2.020      4.069
REMARK INTER + INTRA:          -4.684
REMARK INTER:                  -3.369
REMARK INTRA:                  -1.315
REMARK UNBOUND:                -0.843
REMARK SMILES CCCCCCCCCCCCCCCC(=O)[O-]
REMARK SMILES IDX 9 1 10 2 11 3 12 4 13 5 14 6 15 7 16 8 17 9 18 10 8 11 7 12
REMARK SMILES IDX 6 13 5 14 4 15 3 16 2 17 1 18
REMARK H PARENT
REMARK Flexibility Score: inf
ROOT
ATOM      1  C   UNL     1      13.884  12.780   7.898  1.00  0.00     0.000 C 
ENDROOT
BRANCH   1   2
ATOM      2  C   UNL     1      14.769  13.411   6.808  1.00  0.00     0.000 C 
BRANCH   2   3
ATOM      3  C   UNL     1      16.265  13.115   7.009  1.00  0.00     0.000 C 
BRANCH   3   4
ATOM      4  C   UNL     1      17.125  14.389   7.003  1.00  0.00     0.000 C 
BRANCH   4   5
ATOM      5  C   UNL     1      16.871  15.278   8.234  1.00  0.00     0.000 C 
BRANCH   5   6
ATOM      6  C   UNL     1      16.497  16.720   7.854  1.00  0.00     0.006 C 
BRANCH   6   7
ATOM      7  C   UNL     1      15.298  17.250   8.652  1.00  0.00     0.053 C 
BRANCH   7   8
ATOM      8  C   UNL     1      15.687  18.472   9.424  1.00  0.00     0.041 C 
ATOM      9  O   UNL     1      15.254  18.646  10.594  1.00  0.00    -0.550 OA
ATOM     10  O   UNL     1      16.489  19.440   8.835  1.00  0.00    -0.550 OA
ENDBRANCH   7   8
ENDBRANCH   6   7
ENDBRANCH   5   6
ENDBRANCH   4   5
ENDBRANCH   3   4
ENDBRANCH   2   3
ENDBRANCH   1   2
BRANCH   1  11
ATOM     11  C   UNL     1      14.347  13.031   9.348  1.00  0.00     0.000 C 
BRANCH  11  12
ATOM     12  C   UNL     1      13.775  12.057  10.394  1.00  0.00    -0.000 C 
BRANCH  12  13
ATOM     13  C   UNL     1      13.878  12.593  11.830  1.00  0.00    -0.000 C 
BRANCH  13  14
ATOM     14  C   UNL     1      15.099  13.511  11.985  1.00  0.00    -0.000 C 
BRANCH  14  15
ATOM     15  C   UNL     1      16.032  13.069  13.125  1.00  0.00    -0.000 C 
BRANCH  15  16
ATOM     16  C   UNL     1      17.101  12.069  12.661  1.00  0.00    -0.000 C 
BRANCH  16  17
ATOM     17  C   UNL     1      16.545  10.640  12.648  1.00  0.00    -0.003 C 
ATOM     18  C   UNL     1      16.929   9.910  11.365  1.00  0.00     0.004 C 
ENDBRANCH  16  17
ENDBRANCH  15  16
ENDBRANCH  14  15
ENDBRANCH  13  14
ENDBRANCH  12  13
ENDBRANCH  11  12
ENDBRANCH   1  11
TORSDOF 14
ENDMDL
