MODEL 1
REMARK VINA RESULT:    -4.858      0.000      0.000
REMARK INTER + INTRA:          -6.107
REMARK INTER:                  -5.852
REMARK INTRA:                  -0.255
REMARK UNBOUND:                -0.255
REMARK SMILES O=c1c(O)c(-c2ccc(O)cc2O)oc2cc(O)cc(O)c12
REMARK SMILES IDX 5 1 3 2 2 3 1 4 22 5 20 6 19 7 17 8 16 9 15 10 14 11 6 12
REMARK SMILES IDX 8 13 7 14 9 15 11 16 12 17 10 18 13 20 4 22 21 24 18 26
REMARK H PARENT 10 19 13 21 4 23 21 25 18 27
REMARK Flexibility Score: inf
ROOT
ATOM      1  C   UNL     1       3.631   9.184  -0.189  1.00  0.00     0.184 A 
ATOM      2  C   UNL     1       4.911   9.083  -0.753  1.00  0.00     0.208 A 
ATOM      3  C   UNL     1       5.060   9.252  -2.139  1.00  0.00     0.238 A 
ATOM      4  O   UNL     1       6.201   9.099  -2.647  1.00  0.00    -0.285 OA
ATOM      5  C   UNL     1       3.927   9.546  -2.938  1.00  0.00     0.111 A 
ATOM      6  C   UNL     1       3.965   9.775  -4.346  1.00  0.00     0.134 A 
ATOM      7  C   UNL     1       2.767   9.937  -5.052  1.00  0.00     0.093 A 
ATOM      8  C   UNL     1       1.539   9.944  -4.394  1.00  0.00     0.123 A 
ATOM      9  C   UNL     1       1.493   9.779  -3.009  1.00  0.00     0.094 A 
ATOM     10  C   UNL     1       2.668   9.578  -2.282  1.00  0.00     0.146 A 
ATOM     11  O   UNL     1       2.580   9.411  -0.968  1.00  0.00    -0.451 OA
ENDROOT
BRANCH   1  12
ATOM     12  C   UNL     1       3.417   9.041   1.267  1.00  0.00     0.063 A 
ATOM     13  C   UNL     1       2.629   9.996   3.362  1.00  0.00     0.047 A 
ATOM     14  C   UNL     1       2.891  10.122   1.996  1.00  0.00     0.020 A 
ATOM     15  C   UNL     1       2.879   8.789   4.018  1.00  0.00     0.119 A 
ATOM     16  C   UNL     1       3.402   7.705   3.302  1.00  0.00     0.093 A 
ATOM     17  C   UNL     1       3.680   7.821   1.934  1.00  0.00     0.130 A 
BRANCH  15  18
ATOM     18  O   UNL     1       2.607   8.676   5.379  1.00  0.00    -0.508 OA
ATOM     19  H   UNL     1       2.364   7.787   5.799  1.00  0.00     0.293 HD
ENDBRANCH  15  18
BRANCH  17  20
ATOM     20  O   UNL     1       4.235   6.720   1.278  1.00  0.00    -0.507 OA
ATOM     21  H   UNL     1       3.678   5.964   0.901  1.00  0.00     0.293 HD
ENDBRANCH  17  20
ENDBRANCH   1  12
BRANCH   2  22
ATOM     22  O   UNL     1       6.011   8.796   0.059  1.00  0.00    -0.502 OA
ATOM     23  H   UNL     1       5.915   8.362   0.970  1.00  0.00     0.293 HD
ENDBRANCH   2  22
BRANCH   6  24
ATOM     24  O   UNL     1       5.145   9.878  -5.089  1.00  0.00    -0.507 OA
ATOM     25  H   UNL     1       5.615  10.744  -5.308  1.00  0.00     0.293 HD
ENDBRANCH   6  24
BRANCH   8  26
ATOM     26  O   UNL     1       0.367  10.125  -5.127  1.00  0.00    -0.508 OA
ATOM     27  H   UNL     1      -0.536   9.843  -4.761  1.00  0.00     0.293 HD
ENDBRANCH   8  26
TORSDOF 6
ENDMDL
MODEL 2
REMARK VINA RESULT:    -4.440      1.215      2.839
REMARK INTER + INTRA:          -5.604
REMARK INTER:                  -5.330
REMARK INTRA:                  -0.274
REMARK UNBOUND:                -0.255
REMARK SMILES O=c1c(O)c(-c2ccc(O)cc2O)oc2cc(O)cc(O)c12
REMARK SMILES IDX 5 1 3 2 2 3 1 4 22 5 20 6 19 7 17 8 16 9 15 10 14 11 6 12
REMARK SMILES IDX 8 13 7 14 9 15 11 16 12 17 10 18 13 20 4 22 21 24 18 26
REMARK H PARENT 10 19 13 21 4 23 21 25 18 27
REMARK Flexibility Score: inf
ROOT
ATOM      1  C   UNL     1       3.000   9.438  -0.575  1.00  0.00     0.184 A 
ATOM      2  C   UNL     1       1.731   9.649  -1.135  1.00  0.00     0.208 A 
ATOM      3  C   UNL     1       1.626   9.875  -2.517  1.00  0.00     0.238 A 
ATOM      4  O   UNL     1       0.492  10.124  -3.004  1.00  0.00    -0.285 OA
ATOM      5  C   UNL     1       2.790   9.860  -3.324  1.00  0.00     0.111 A 
ATOM      6  C   UNL     1       2.799  10.037  -4.740  1.00  0.00     0.134 A 
ATOM      7  C   UNL     1       4.021  10.125  -5.418  1.00  0.00     0.093 A 
ATOM      8  C   UNL     1       5.231   9.975  -4.743  1.00  0.00     0.123 A 
ATOM      9  C   UNL     1       5.233   9.743  -3.367  1.00  0.00     0.094 A 
ATOM     10  C   UNL     1       4.032   9.688  -2.657  1.00  0.00     0.146 A 
ATOM     11  O   UNL     1       4.079   9.479  -1.347  1.00  0.00    -0.451 OA
ENDROOT
BRANCH   1  12
ATOM     12  C   UNL     1       3.170   9.171   0.869  1.00  0.00     0.063 A 
ATOM     13  C   UNL     1       2.801   9.862   3.174  1.00  0.00     0.047 A 
ATOM     14  C   UNL     1       2.703  10.113   1.804  1.00  0.00     0.020 A 
ATOM     15  C   UNL     1       3.358   8.665   3.631  1.00  0.00     0.119 A 
ATOM     16  C   UNL     1       3.826   7.720   2.710  1.00  0.00     0.093 A 
ATOM     17  C   UNL     1       3.743   7.964   1.333  1.00  0.00     0.130 A 
BRANCH  15  18
ATOM     18  O   UNL     1       3.444   8.426   5.000  1.00  0.00    -0.508 OA
ATOM     19  H   UNL     1       2.618   8.256   5.561  1.00  0.00     0.293 HD
ENDBRANCH  15  18
BRANCH  17  20
ATOM     20  O   UNL     1       4.257   7.003   0.460  1.00  0.00    -0.507 OA
ATOM     21  H   UNL     1       4.337   7.149  -0.538  1.00  0.00     0.293 HD
ENDBRANCH  17  20
ENDBRANCH   1  12
BRANCH   2  22
ATOM     22  O   UNL     1       0.599   9.655  -0.316  1.00  0.00    -0.502 OA
ATOM     23  H   UNL     1      -0.341   9.713  -0.690  1.00  0.00     0.293 HD
ENDBRANCH   2  22
BRANCH   6  24
ATOM     24  O   UNL     1       1.644  10.107  -5.525  1.00  0.00    -0.507 OA
ATOM     25  H   UNL     1       0.875   9.456  -5.478  1.00  0.00     0.293 HD
ENDBRANCH   6  24
BRANCH   8  26
ATOM     26  O   UNL     1       6.427  10.051  -5.453  1.00  0.00    -0.508 OA
ATOM     27  H   UNL     1       7.323  10.088  -4.980  1.00  0.00     0.293 HD
ENDBRANCH   8  26
TORSDOF 6
ENDMDL
MODEL 3
REMARK VINA RESULT:    -4.277      1.705      6.987
REMARK INTER + INTRA:          -5.407
REMARK INTER:                  -5.695
REMARK INTRA:                   0.288
REMARK UNBOUND:                -0.255
REMARK SMILES O=c1c(O)c(-c2ccc(O)cc2O)oc2cc(O)cc(O)c12
REMARK SMILES IDX 5 1 3 2 2 3 1 4 22 5 20 6 19 7 17 8 16 9 15 10 14 11 6 12
REMARK SMILES IDX 8 13 7 14 9 15 11 16 12 17 10 18 13 20 4 22 21 24 18 26
REMARK H PARENT 10 19 13 21 4 23 21 25 18 27
REMARK Flexibility Score: inf
ROOT
ATOM      1  C   UNL     1       3.647   8.915  -1.777  1.00  0.00     0.184 A 
ATOM      2  C   UNL     1       2.464   9.407  -1.207  1.00  0.00     0.208 A 
ATOM      3  C   UNL     1       2.201   9.145   0.147  1.00  0.00     0.238 A 
ATOM      4  O   UNL     1       1.109   9.535   0.637  1.00  0.00    -0.285 OA
ATOM      5  C   UNL     1       3.140   8.417   0.919  1.00  0.00     0.111 A 
ATOM      6  C   UNL     1       2.997   8.126   2.309  1.00  0.00     0.134 A 
ATOM      7  C   UNL     1       3.929   7.294   2.940  1.00  0.00     0.093 A 
ATOM      8  C   UNL     1       5.034   6.797   2.251  1.00  0.00     0.123 A 
ATOM      9  C   UNL     1       5.216   7.122   0.906  1.00  0.00     0.094 A 
ATOM     10  C   UNL     1       4.282   7.919   0.239  1.00  0.00     0.146 A 
ATOM     11  O   UNL     1       4.486   8.193  -1.044  1.00  0.00    -0.451 OA
ENDROOT
BRANCH   1  12
ATOM     12  C   UNL     1       3.988   9.181  -3.191  1.00  0.00     0.063 A 
ATOM     13  C   UNL     1       3.259   9.781  -5.434  1.00  0.00     0.047 A 
ATOM     14  C   UNL     1       2.960   9.473  -4.105  1.00  0.00     0.020 A 
ATOM     15  C   UNL     1       4.586   9.810  -5.868  1.00  0.00     0.119 A 
ATOM     16  C   UNL     1       5.618   9.522  -4.967  1.00  0.00     0.093 A 
ATOM     17  C   UNL     1       5.332   9.201  -3.634  1.00  0.00     0.130 A 
BRANCH  15  18
ATOM     18  O   UNL     1       4.869  10.125  -7.195  1.00  0.00    -0.508 OA
ATOM     19  H   UNL     1       4.325  10.810  -7.704  1.00  0.00     0.293 HD
ENDBRANCH  15  18
BRANCH  17  20
ATOM     20  O   UNL     1       6.397   8.886  -2.788  1.00  0.00    -0.507 OA
ATOM     21  H   UNL     1       6.506   9.285  -1.864  1.00  0.00     0.293 HD
ENDBRANCH  17  20
ENDBRANCH   1  12
BRANCH   2  22
ATOM     22  O   UNL     1       1.557  10.125  -1.991  1.00  0.00    -0.502 OA
ATOM     23  H   UNL     1       0.755   9.689  -2.432  1.00  0.00     0.293 HD
ENDBRANCH   2  22
BRANCH   6  24
ATOM     24  O   UNL     1       1.979   8.646   3.115  1.00  0.00    -0.507 OA
ATOM     25  H   UNL     1       2.065   9.469   3.692  1.00  0.00     0.293 HD
ENDBRANCH   6  24
BRANCH   8  26
ATOM     26  O   UNL     1       5.951   5.986   2.916  1.00  0.00    -0.508 OA
ATOM     27  H   UNL     1       6.058   6.023   3.924  1.00  0.00     0.293 HD
ENDBRANCH   8  26
TORSDOF 6
ENDMDL
MODEL 4
REMARK VINA RESULT:    -4.213      1.728      7.070
REMARK INTER + INTRA:          -5.330
REMARK INTER:                  -6.494
REMARK INTRA:                   1.164
REMARK UNBOUND:                -0.255
REMARK SMILES O=c1c(O)c(-c2ccc(O)cc2O)oc2cc(O)cc(O)c12
REMARK SMILES IDX 5 1 3 2 2 3 1 4 22 5 20 6 19 7 17 8 16 9 15 10 14 11 6 12
REMARK SMILES IDX 8 13 7 14 9 15 11 16 12 17 10 18 13 20 4 22 21 24 18 26
REMARK H PARENT 10 19 13 21 4 23 21 25 18 27
REMARK Flexibility Score: inf
ROOT
ATOM      1  C   UNL     1       3.822   9.046  -2.029  1.00  0.00     0.184 A 
ATOM      2  C   UNL     1       2.576   9.447  -1.526  1.00  0.00     0.208 A 
ATOM      3  C   UNL     1       2.246   9.135  -0.198  1.00  0.00     0.238 A 
ATOM      4  O   UNL     1       1.103   9.443   0.229  1.00  0.00    -0.285 OA
ATOM      5  C   UNL     1       3.180   8.450   0.618  1.00  0.00     0.111 A 
ATOM      6  C   UNL     1       2.969   8.117   1.989  1.00  0.00     0.134 A 
ATOM      7  C   UNL     1       3.912   7.330   2.662  1.00  0.00     0.093 A 
ATOM      8  C   UNL     1       5.088   6.922   2.035  1.00  0.00     0.123 A 
ATOM      9  C   UNL     1       5.333   7.291   0.712  1.00  0.00     0.094 A 
ATOM     10  C   UNL     1       4.393   8.042   0.003  1.00  0.00     0.146 A 
ATOM     11  O   UNL     1       4.659   8.361  -1.259  1.00  0.00    -0.451 OA
ENDROOT
BRANCH   1  12
ATOM     12  C   UNL     1       4.234   9.368  -3.412  1.00  0.00     0.063 A 
ATOM     13  C   UNL     1       6.006   9.943  -4.979  1.00  0.00     0.047 A 
ATOM     14  C   UNL     1       5.578   9.689  -3.675  1.00  0.00     0.020 A 
ATOM     15  C   UNL     1       5.102   9.874  -6.042  1.00  0.00     0.119 A 
ATOM     16  C   UNL     1       3.762   9.554  -5.793  1.00  0.00     0.093 A 
ATOM     17  C   UNL     1       3.317   9.307  -4.488  1.00  0.00     0.130 A 
BRANCH  15  18
ATOM     18  O   UNL     1       5.544  10.125  -7.338  1.00  0.00    -0.508 OA
ATOM     19  H   UNL     1       5.247  10.948  -7.849  1.00  0.00     0.293 HD
ENDBRANCH  15  18
BRANCH  17  20
ATOM     20  O   UNL     1       1.963   9.028  -4.294  1.00  0.00    -0.507 OA
ATOM     21  H   UNL     1       1.323   9.677  -3.853  1.00  0.00     0.293 HD
ENDBRANCH  17  20
ENDBRANCH   1  12
BRANCH   2  22
ATOM     22  O   UNL     1       1.676  10.125  -2.352  1.00  0.00    -0.502 OA
ATOM     23  H   UNL     1       1.270   9.700  -3.178  1.00  0.00     0.293 HD
ENDBRANCH   2  22
BRANCH   6  24
ATOM     24  O   UNL     1       1.871   8.550   2.738  1.00  0.00    -0.507 OA
ATOM     25  H   UNL     1       0.977   8.084   2.773  1.00  0.00     0.293 HD
ENDBRANCH   6  24
BRANCH   8  26
ATOM     26  O   UNL     1       6.012   6.155   2.741  1.00  0.00    -0.508 OA
ATOM     27  H   UNL     1       6.977   6.450   2.846  1.00  0.00     0.293 HD
ENDBRANCH   8  26
TORSDOF 6
ENDMDL
MODEL 5
REMARK VINA RESULT:    -3.664      1.628      6.550
REMARK INTER + INTRA:          -4.669
REMARK INTER:                  -4.960
REMARK INTRA:                   0.291
REMARK UNBOUND:                -0.255
REMARK SMILES O=c1c(O)c(-c2ccc(O)cc2O)oc2cc(O)cc(O)c12
REMARK SMILES IDX 5 1 3 2 2 3 1 4 22 5 20 6 19 7 17 8 16 9 15 10 14 11 6 12
REMARK SMILES IDX 8 13 7 14 9 15 11 16 12 17 10 18 13 20 4 22 21 24 18 26
REMARK H PARENT 10 19 13 21 4 23 21 25 18 27
REMARK Flexibility Score: inf
ROOT
ATOM      1  C   UNL     1       4.285   9.526  -1.950  1.00  0.00     0.184 A 
ATOM      2  C   UNL     1       5.605   9.701  -1.507  1.00  0.00     0.208 A 
ATOM      3  C   UNL     1       5.905   9.471  -0.155  1.00  0.00     0.238 A 
ATOM      4  O   UNL     1       7.076   9.688   0.250  1.00  0.00    -0.285 OA
ATOM      5  C   UNL     1       4.885   9.042   0.730  1.00  0.00     0.111 A 
ATOM      6  C   UNL     1       5.082   8.740   2.111  1.00  0.00     0.134 A 
ATOM      7  C   UNL     1       3.977   8.443   2.918  1.00  0.00     0.093 A 
ATOM      8  C   UNL     1       2.693   8.371   2.382  1.00  0.00     0.123 A 
ATOM      9  C   UNL     1       2.495   8.607   1.021  1.00  0.00     0.094 A 
ATOM     10  C   UNL     1       3.572   8.943   0.198  1.00  0.00     0.146 A 
ATOM     11  O   UNL     1       3.339   9.173  -1.089  1.00  0.00    -0.451 OA
ENDROOT
BRANCH   1  12
ATOM     12  C   UNL     1       3.915   9.731  -3.367  1.00  0.00     0.063 A 
ATOM     13  C   UNL     1       4.575   9.761  -5.709  1.00  0.00     0.047 A 
ATOM     14  C   UNL     1       4.906   9.626  -4.360  1.00  0.00     0.020 A 
ATOM     15  C   UNL     1       3.250   9.993  -6.089  1.00  0.00     0.119 A 
ATOM     16  C   UNL     1       2.256  10.097  -5.109  1.00  0.00     0.093 A 
ATOM     17  C   UNL     1       2.576   9.975  -3.751  1.00  0.00     0.130 A 
BRANCH  15  18
ATOM     18  O   UNL     1       2.934  10.118  -7.439  1.00  0.00    -0.508 OA
ATOM     19  H   UNL     1       2.599  10.993  -7.825  1.00  0.00     0.293 HD
ENDBRANCH  15  18
BRANCH  17  20
ATOM     20  O   UNL     1       1.550  10.125  -2.815  1.00  0.00    -0.507 OA
ATOM     21  H   UNL     1       0.668   9.633  -2.879  1.00  0.00     0.293 HD
ENDBRANCH  17  20
ENDBRANCH   1  12
BRANCH   2  22
ATOM     22  O   UNL     1       6.592  10.121  -2.402  1.00  0.00    -0.502 OA
ATOM     23  H   UNL     1       6.821  11.099  -2.539  1.00  0.00     0.293 HD
ENDBRANCH   2  22
BRANCH   6  24
ATOM     24  O   UNL     1       6.336   8.695   2.729  1.00  0.00    -0.507 OA
ATOM     25  H   UNL     1       6.859   7.851   2.908  1.00  0.00     0.293 HD
ENDBRANCH   6  24
BRANCH   8  26
ATOM     26  O   UNL     1       1.619   8.056   3.212  1.00  0.00    -0.508 OA
ATOM     27  H   UNL     1       1.439   7.103   3.507  1.00  0.00     0.293 HD
ENDBRANCH   8  26
TORSDOF 6
ENDMDL
MODEL 6
REMARK VINA RESULT:    -2.566      1.716      3.530
REMARK INTER + INTRA:          -3.346
REMARK INTER:                  -3.478
REMARK INTRA:                   0.132
REMARK UNBOUND:                -0.255
REMARK SMILES O=c1c(O)c(-c2ccc(O)cc2O)oc2cc(O)cc(O)c12
REMARK SMILES IDX 5 1 3 2 2 3 1 4 22 5 20 6 19 7 17 8 16 9 15 10 14 11 6 12
REMARK SMILES IDX 8 13 7 14 9 15 11 16 12 17 10 18 13 20 4 22 21 24 18 26
REMARK H PARENT 10 19 13 21 4 23 21 25 18 27
REMARK Flexibility Score: inf
ROOT
ATOM      1  C   UNL     1       3.850   9.038  -1.935  1.00  0.00     0.184 A 
ATOM      2  C   UNL     1       2.560   9.415  -2.339  1.00  0.00     0.208 A 
ATOM      3  C   UNL     1       2.333   9.728  -3.688  1.00  0.00     0.238 A 
ATOM      4  O   UNL     1       1.190  10.124  -4.033  1.00  0.00    -0.285 OA
ATOM      5  C   UNL     1       3.395   9.633  -4.621  1.00  0.00     0.111 A 
ATOM      6  C   UNL     1       3.272   9.888  -6.020  1.00  0.00     0.134 A 
ATOM      7  C   UNL     1       4.416   9.881  -6.827  1.00  0.00     0.093 A 
ATOM      8  C   UNL     1       5.667   9.565  -6.301  1.00  0.00     0.123 A 
ATOM      9  C   UNL     1       5.791   9.257  -4.945  1.00  0.00     0.094 A 
ATOM     10  C   UNL     1       4.674   9.292  -4.107  1.00  0.00     0.146 A 
ATOM     11  O   UNL     1       4.838   9.006  -2.821  1.00  0.00    -0.451 OA
ENDROOT
BRANCH   1  12
ATOM     12  C   UNL     1       4.142   8.674  -0.533  1.00  0.00     0.063 A 
ATOM     13  C   UNL     1       3.400   7.675   1.560  1.00  0.00     0.047 A 
ATOM     14  C   UNL     1       3.136   8.079   0.249  1.00  0.00     0.020 A 
ATOM     15  C   UNL     1       4.674   7.852   2.106  1.00  0.00     0.119 A 
ATOM     16  C   UNL     1       5.684   8.442   1.337  1.00  0.00     0.093 A 
ATOM     17  C   UNL     1       5.429   8.861   0.025  1.00  0.00     0.130 A 
BRANCH  15  18
ATOM     18  O   UNL     1       4.925   7.439   3.412  1.00  0.00    -0.508 OA
ATOM     19  H   UNL     1       4.351   7.752   4.186  1.00  0.00     0.293 HD
ENDBRANCH  15  18
BRANCH  17  20
ATOM     20  O   UNL     1       6.463   9.477  -0.684  1.00  0.00    -0.507 OA
ATOM     21  H   UNL     1       7.412   9.532  -0.339  1.00  0.00     0.293 HD
ENDBRANCH  17  20
ENDBRANCH   1  12
BRANCH   2  22
ATOM     22  O   UNL     1       1.531   9.497  -1.398  1.00  0.00    -0.502 OA
ATOM     23  H   UNL     1       0.891  10.282  -1.359  1.00  0.00     0.293 HD
ENDBRANCH   2  22
BRANCH   6  24
ATOM     24  O   UNL     1       2.054  10.125  -6.666  1.00  0.00    -0.507 OA
ATOM     25  H   UNL     1       1.956  10.579  -7.562  1.00  0.00     0.293 HD
ENDBRANCH   6  24
BRANCH   8  26
ATOM     26  O   UNL     1       6.781   9.552  -7.137  1.00  0.00    -0.508 OA
ATOM     27  H   UNL     1       7.643   9.093  -6.865  1.00  0.00     0.293 HD
ENDBRANCH   8  26
TORSDOF 6
ENDMDL
