MODEL 1
REMARK VINA RESULT:    -3.376      0.000      0.000
REMARK INTER + INTRA:          -3.722
REMARK INTER:                  -3.673
REMARK INTRA:                  -0.049
REMARK UNBOUND:                -0.049
REMARK SMILES COc1cc2ccc(=O)oc2cc1O
REMARK SMILES IDX 3 1 13 2 12 3 11 4 5 5 4 6 6 7 7 8 8 9 9 10 10 11 2 12 1 13
REMARK SMILES IDX 14 14
REMARK H PARENT 14 15
REMARK Flexibility Score: inf
ROOT
ATOM      1  C   UNL     1     -10.085   3.224  -6.434  1.00  0.00     0.161 A 
ATOM      2  C   UNL     1     -10.100   4.389  -7.217  1.00  0.00     0.161 A 
ATOM      3  C   UNL     1     -10.111   5.652  -6.607  1.00  0.00     0.098 A 
ATOM      4  C   UNL     1     -10.107   5.763  -5.215  1.00  0.00     0.142 A 
ATOM      5  C   UNL     1     -10.092   4.597  -4.420  1.00  0.00     0.022 A 
ATOM      6  C   UNL     1     -10.080   3.335  -5.028  1.00  0.00     0.062 A 
ATOM      7  C   UNL     1     -10.087   4.740  -3.029  1.00  0.00     0.019 A 
ATOM      8  C   UNL     1     -10.099   6.019  -2.472  1.00  0.00     0.094 A 
ATOM      9  C   UNL     1     -10.114   7.129  -3.322  1.00  0.00     0.336 A 
ATOM     10  O   UNL     1     -10.125   8.291  -2.839  1.00  0.00    -0.246 OA
ATOM     11  O   UNL     1     -10.118   6.965  -4.643  1.00  0.00    -0.423 OA
ENDROOT
BRANCH   1  12
ATOM     12  O   UNL     1     -10.074   1.981  -7.085  1.00  0.00    -0.493 OA
ATOM     13  C   UNL     1      -9.368   0.834  -6.624  1.00  0.00     0.278 C 
ENDBRANCH   1  12
BRANCH   2  14
ATOM     14  O   UNL     1     -10.105   4.282  -8.606  1.00  0.00    -0.504 OA
ATOM     15  H   UNL     1     -10.948   4.439  -9.148  1.00  0.00     0.293 HD
ENDBRANCH   2  14
TORSDOF 2
ENDMDL
MODEL 2
REMARK VINA RESULT:    -3.371      2.175      4.524
REMARK INTER + INTRA:          -3.716
REMARK INTER:                  -3.651
REMARK INTRA:                  -0.065
REMARK UNBOUND:                -0.049
REMARK SMILES COc1cc2ccc(=O)oc2cc1O
REMARK SMILES IDX 3 1 13 2 12 3 11 4 5 5 4 6 6 7 7 8 8 9 9 10 10 11 2 12 1 13
REMARK SMILES IDX 14 14
REMARK H PARENT 14 15
REMARK Flexibility Score: inf
ROOT
ATOM      1  C   UNL     1     -10.118   5.339  -7.020  1.00  0.00     0.161 A 
ATOM      2  C   UNL     1     -10.110   4.424  -8.084  1.00  0.00     0.161 A 
ATOM      3  C   UNL     1     -10.108   3.044  -7.831  1.00  0.00     0.098 A 
ATOM      4  C   UNL     1     -10.112   2.568  -6.518  1.00  0.00     0.142 A 
ATOM      5  C   UNL     1     -10.120   3.482  -5.443  1.00  0.00     0.022 A 
ATOM      6  C   UNL     1     -10.123   4.860  -5.694  1.00  0.00     0.062 A 
ATOM      7  C   UNL     1     -10.125   2.975  -4.139  1.00  0.00     0.019 A 
ATOM      8  C   UNL     1     -10.122   1.594  -3.941  1.00  0.00     0.094 A 
ATOM      9  C   UNL     1     -10.114   0.749  -5.055  1.00  0.00     0.336 A 
ATOM     10  O   UNL     1     -10.111  -0.500  -4.898  1.00  0.00    -0.246 OA
ATOM     11  O   UNL     1     -10.110   1.258  -6.285  1.00  0.00    -0.423 OA
ENDROOT
BRANCH   1  12
ATOM     12  O   UNL     1     -10.120   6.711  -7.319  1.00  0.00    -0.493 OA
ATOM     13  C   UNL     1      -8.983   7.560  -7.219  1.00  0.00     0.278 C 
ENDBRANCH   1  12
BRANCH   2  14
ATOM     14  O   UNL     1     -10.105   4.896  -9.395  1.00  0.00    -0.504 OA
ATOM     15  H   UNL     1      -9.239   5.088  -9.887  1.00  0.00     0.293 HD
ENDBRANCH   2  14
TORSDOF 2
ENDMDL
MODEL 3
REMARK VINA RESULT:    -3.257      2.426      5.621
REMARK INTER + INTRA:          -3.592
REMARK INTER:                  -3.533
REMARK INTRA:                  -0.059
REMARK UNBOUND:                -0.049
REMARK SMILES COc1cc2ccc(=O)oc2cc1O
REMARK SMILES IDX 3 1 13 2 12 3 11 4 5 5 4 6 6 7 7 8 8 9 9 10 10 11 2 12 1 13
REMARK SMILES IDX 14 14
REMARK H PARENT 14 15
REMARK Flexibility Score: inf
ROOT
ATOM      1  C   UNL     1      -9.718   4.739  -7.394  1.00  0.00     0.161 A 
ATOM      2  C   UNL     1      -9.055   4.556  -8.618  1.00  0.00     0.161 A 
ATOM      3  C   UNL     1      -8.632   3.278  -9.011  1.00  0.00     0.098 A 
ATOM      4  C   UNL     1      -8.867   2.174  -8.188  1.00  0.00     0.142 A 
ATOM      5  C   UNL     1      -9.532   2.349  -6.956  1.00  0.00     0.022 A 
ATOM      6  C   UNL     1      -9.956   3.625  -6.563  1.00  0.00     0.062 A 
ATOM      7  C   UNL     1      -9.753   1.224  -6.154  1.00  0.00     0.019 A 
ATOM      8  C   UNL     1      -9.313  -0.025  -6.589  1.00  0.00     0.094 A 
ATOM      9  C   UNL     1      -8.660  -0.122  -7.822  1.00  0.00     0.336 A 
ATOM     10  O   UNL     1      -8.255  -1.241  -8.233  1.00  0.00    -0.246 OA
ATOM     11  O   UNL     1      -8.463   0.964  -8.566  1.00  0.00    -0.423 OA
ENDROOT
BRANCH   1  12
ATOM     12  O   UNL     1     -10.124   6.035  -7.041  1.00  0.00    -0.493 OA
ATOM     13  C   UNL     1      -9.720   6.712  -5.857  1.00  0.00     0.278 C 
ENDBRANCH   1  12
BRANCH   2  14
ATOM     14  O   UNL     1      -8.819   5.656  -9.441  1.00  0.00    -0.504 OA
ATOM     15  H   UNL     1      -8.012   6.254  -9.309  1.00  0.00     0.293 HD
ENDBRANCH   2  14
TORSDOF 2
ENDMDL
MODEL 4
REMARK VINA RESULT:    -3.252     22.238     23.252
REMARK INTER + INTRA:          -3.587
REMARK INTER:                  -3.539
REMARK INTRA:                  -0.048
REMARK UNBOUND:                -0.049
REMARK SMILES COc1cc2ccc(=O)oc2cc1O
REMARK SMILES IDX 3 1 13 2 12 3 11 4 5 5 4 6 6 7 7 8 8 9 9 10 10 11 2 12 1 13
REMARK SMILES IDX 14 14
REMARK H PARENT 14 15
REMARK Flexibility Score: inf
ROOT
ATOM      1  C   UNL     1       7.706  -9.716  -4.507  1.00  0.00     0.161 A 
ATOM      2  C   UNL     1       8.987  -9.150  -4.409  1.00  0.00     0.161 A 
ATOM      3  C   UNL     1       9.514  -8.802  -3.156  1.00  0.00     0.098 A 
ATOM      4  C   UNL     1       8.768  -9.016  -1.995  1.00  0.00     0.142 A 
ATOM      5  C   UNL     1       7.480  -9.585  -2.085  1.00  0.00     0.022 A 
ATOM      6  C   UNL     1       6.953  -9.933  -3.335  1.00  0.00     0.062 A 
ATOM      7  C   UNL     1       6.758  -9.788  -0.903  1.00  0.00     0.019 A 
ATOM      8  C   UNL     1       7.326  -9.426   0.318  1.00  0.00     0.094 A 
ATOM      9  C   UNL     1       8.608  -8.867   0.329  1.00  0.00     0.336 A 
ATOM     10  O   UNL     1       9.139  -8.532   1.421  1.00  0.00    -0.246 OA
ATOM     11  O   UNL     1       9.274  -8.684  -0.809  1.00  0.00    -0.423 OA
ENDROOT
BRANCH   1  12
ATOM     12  O   UNL     1       7.219 -10.049  -5.781  1.00  0.00    -0.493 OA
ATOM     13  C   UNL     1       5.841 -10.073  -6.136  1.00  0.00     0.278 C 
ENDBRANCH   1  12
BRANCH   2  14
ATOM     14  O   UNL     1       9.733  -8.934  -5.566  1.00  0.00    -0.504 OA
ATOM     15  H   UNL     1       9.562  -9.462  -6.414  1.00  0.00     0.293 HD
ENDBRANCH   2  14
TORSDOF 2
ENDMDL
MODEL 5
REMARK VINA RESULT:    -3.223     16.965     18.930
REMARK INTER + INTRA:          -3.555
REMARK INTER:                  -3.490
REMARK INTRA:                  -0.065
REMARK UNBOUND:                -0.049
REMARK SMILES COc1cc2ccc(=O)oc2cc1O
REMARK SMILES IDX 3 1 13 2 12 3 11 4 5 5 4 6 6 7 7 8 8 9 9 10 10 11 2 12 1 13
REMARK SMILES IDX 14 14
REMARK H PARENT 14 15
REMARK Flexibility Score: inf
ROOT
ATOM      1  C   UNL     1      -8.307  -8.420   8.343  1.00  0.00     0.161 A 
ATOM      2  C   UNL     1      -7.478  -9.554   8.341  1.00  0.00     0.161 A 
ATOM      3  C   UNL     1      -7.043 -10.111   7.129  1.00  0.00     0.098 A 
ATOM      4  C   UNL     1      -7.431  -9.543   5.914  1.00  0.00     0.142 A 
ATOM      5  C   UNL     1      -8.263  -8.403   5.907  1.00  0.00     0.022 A 
ATOM      6  C   UNL     1      -8.698  -7.846   7.117  1.00  0.00     0.062 A 
ATOM      7  C   UNL     1      -8.633  -7.857   4.673  1.00  0.00     0.019 A 
ATOM      8  C   UNL     1      -8.174  -8.448   3.497  1.00  0.00     0.094 A 
ATOM      9  C   UNL     1      -7.352  -9.576   3.581  1.00  0.00     0.336 A 
ATOM     10  O   UNL     1      -6.927 -10.125   2.530  1.00  0.00    -0.246 OA
ATOM     11  O   UNL     1      -7.014 -10.076   4.767  1.00  0.00    -0.423 OA
ENDROOT
BRANCH   1  12
ATOM     12  O   UNL     1      -8.718  -7.896   9.579  1.00  0.00    -0.493 OA
ATOM     13  C   UNL     1     -10.039  -7.998  10.098  1.00  0.00     0.278 C 
ENDBRANCH   1  12
BRANCH   2  14
ATOM     14  O   UNL     1      -7.091 -10.123   9.552  1.00  0.00    -0.504 OA
ATOM     15  H   UNL     1      -6.320  -9.748  10.093  1.00  0.00     0.293 HD
ENDBRANCH   2  14
TORSDOF 2
ENDMDL
MODEL 6
REMARK VINA RESULT:    -3.218     22.531     23.799
REMARK INTER + INTRA:          -3.550
REMARK INTER:                  -3.489
REMARK INTRA:                  -0.061
REMARK UNBOUND:                -0.049
REMARK SMILES COc1cc2ccc(=O)oc2cc1O
REMARK SMILES IDX 3 1 13 2 12 3 11 4 5 5 4 6 6 7 7 8 8 9 9 10 10 11 2 12 1 13
REMARK SMILES IDX 14 14
REMARK H PARENT 14 15
REMARK Flexibility Score: inf
ROOT
ATOM      1  C   UNL     1       9.864   4.495   6.642  1.00  0.00     0.161 A 
ATOM      2  C   UNL     1       9.329   4.485   7.939  1.00  0.00     0.161 A 
ATOM      3  C   UNL     1       9.055   3.268   8.583  1.00  0.00     0.098 A 
ATOM      4  C   UNL     1       9.312   2.057   7.938  1.00  0.00     0.142 A 
ATOM      5  C   UNL     1       9.850   2.058   6.633  1.00  0.00     0.022 A 
ATOM      6  C   UNL     1      10.125   3.272   5.990  1.00  0.00     0.062 A 
ATOM      7  C   UNL     1      10.098   0.828   6.014  1.00  0.00     0.019 A 
ATOM      8  C   UNL     1       9.808  -0.353   6.697  1.00  0.00     0.094 A 
ATOM      9  C   UNL     1       9.276  -0.277   7.988  1.00  0.00     0.336 A 
ATOM     10  O   UNL     1       9.008  -1.331   8.620  1.00  0.00    -0.246 OA
ATOM     11  O   UNL     1       9.050   0.906   8.554  1.00  0.00    -0.423 OA
ENDROOT
BRANCH   1  12
ATOM     12  O   UNL     1      10.123   5.735   6.036  1.00  0.00    -0.493 OA
ATOM     13  C   UNL     1       9.491   6.199   4.848  1.00  0.00     0.278 C 
ENDBRANCH   1  12
BRANCH   2  14
ATOM     14  O   UNL     1       9.070   5.692   8.585  1.00  0.00    -0.504 OA
ATOM     15  H   UNL     1       9.364   6.578   8.190  1.00  0.00     0.293 HD
ENDBRANCH   2  14
TORSDOF 2
ENDMDL
MODEL 7
REMARK VINA RESULT:    -3.177      1.208      4.799
REMARK INTER + INTRA:          -3.505
REMARK INTER:                  -3.455
REMARK INTRA:                  -0.050
REMARK UNBOUND:                -0.049
REMARK SMILES COc1cc2ccc(=O)oc2cc1O
REMARK SMILES IDX 3 1 13 2 12 3 11 4 5 5 4 6 6 7 7 8 8 9 9 10 10 11 2 12 1 13
REMARK SMILES IDX 14 14
REMARK H PARENT 14 15
REMARK Flexibility Score: inf
ROOT
ATOM      1  C   UNL     1      -9.949   6.013  -3.029  1.00  0.00     0.161 A 
ATOM      2  C   UNL     1      -9.860   7.097  -3.916  1.00  0.00     0.161 A 
ATOM      3  C   UNL     1      -9.858   6.880  -5.302  1.00  0.00     0.098 A 
ATOM      4  C   UNL     1      -9.943   5.583  -5.812  1.00  0.00     0.142 A 
ATOM      5  C   UNL     1     -10.033   4.487  -4.927  1.00  0.00     0.022 A 
ATOM      6  C   UNL     1     -10.036   4.703  -3.542  1.00  0.00     0.062 A 
ATOM      7  C   UNL     1     -10.119   3.200  -5.468  1.00  0.00     0.019 A 
ATOM      8  C   UNL     1     -10.113   3.037  -6.853  1.00  0.00     0.094 A 
ATOM      9  C   UNL     1     -10.021   4.170  -7.668  1.00  0.00     0.336 A 
ATOM     10  O   UNL     1     -10.014   4.044  -8.921  1.00  0.00    -0.246 OA
ATOM     11  O   UNL     1      -9.941   5.383  -7.128  1.00  0.00    -0.423 OA
ENDROOT
BRANCH   1  12
ATOM     12  O   UNL     1      -9.948   6.277  -1.650  1.00  0.00    -0.493 OA
ATOM     13  C   UNL     1      -9.299   5.469  -0.675  1.00  0.00     0.278 C 
ENDBRANCH   1  12
BRANCH   2  14
ATOM     14  O   UNL     1      -9.773   8.393  -3.410  1.00  0.00    -0.504 OA
ATOM     15  H   UNL     1      -9.453   9.166  -3.983  1.00  0.00     0.293 HD
ENDBRANCH   2  14
TORSDOF 2
ENDMDL
MODEL 8
REMARK VINA RESULT:    -0.549      9.862     10.433
REMARK INTER + INTRA:          -0.647
REMARK INTER:                  -0.586
REMARK INTRA:                  -0.061
REMARK UNBOUND:                -0.049
REMARK SMILES COc1cc2ccc(=O)oc2cc1O
REMARK SMILES IDX 3 1 13 2 12 3 11 4 5 5 4 6 6 7 7 8 8 9 9 10 10 11 2 12 1 13
REMARK SMILES IDX 14 14
REMARK H PARENT 14 15
REMARK Flexibility Score: inf
ROOT
ATOM      1  C   UNL     1       0.967   6.192  -3.299  1.00  0.00     0.161 A 
ATOM      2  C   UNL     1       1.401   7.518  -3.448  1.00  0.00     0.161 A 
ATOM      3  C   UNL     1       0.473   8.571  -3.455  1.00  0.00     0.098 A 
ATOM      4  C   UNL     1      -0.892   8.308  -3.313  1.00  0.00     0.142 A 
ATOM      5  C   UNL     1      -1.336   6.977  -3.162  1.00  0.00     0.022 A 
ATOM      6  C   UNL     1      -0.410   5.926  -3.155  1.00  0.00     0.062 A 
ATOM      7  C   UNL     1      -2.709   6.746  -3.022  1.00  0.00     0.019 A 
ATOM      8  C   UNL     1      -3.590   7.827  -3.035  1.00  0.00     0.094 A 
ATOM      9  C   UNL     1      -3.077   9.118  -3.189  1.00  0.00     0.336 A 
ATOM     10  O   UNL     1      -3.856  10.107  -3.203  1.00  0.00    -0.246 OA
ATOM     11  O   UNL     1      -1.767   9.311  -3.320  1.00  0.00    -0.423 OA
ENDROOT
BRANCH   1  12
ATOM     12  O   UNL     1       1.929   5.170  -3.297  1.00  0.00    -0.493 OA
ATOM     13  C   UNL     1       2.171   4.291  -2.204  1.00  0.00     0.278 C 
ENDBRANCH   1  12
BRANCH   2  14
ATOM     14  O   UNL     1       2.761   7.784  -3.591  1.00  0.00    -0.504 OA
ATOM     15  H   UNL     1       3.138   8.714  -3.449  1.00  0.00     0.293 HD
ENDBRANCH   2  14
TORSDOF 2
ENDMDL
