MODEL 1
REMARK VINA RESULT:    -1.117      0.000      0.000
REMARK INTER + INTRA:          -1.117
REMARK INTER:                  -1.117
REMARK INTRA:                   0.000
REMARK UNBOUND:                 0.000
REMARK SMILES CC(=O)[O-]
REMARK SMILES IDX 1 1 2 2 3 3 4 4
REMARK H PARENT
REMARK Flexibility Score: inf
ROOT
ATOM      1  C   UNL     1     -13.413 -21.745  84.262  1.00  0.00     0.063 C 
ATOM      2  C   UNL     1     -14.044 -22.549  85.346  1.00  0.00     0.038 C 
ATOM      3  O   UNL     1     -15.204 -22.267  85.748  1.00  0.00    -0.550 OA
ATOM      4  O   UNL     1     -13.335 -23.577  85.955  1.00  0.00    -0.550 OA
ENDROOT
TORSDOF 0
ENDMDL
MODEL 2
REMARK VINA RESULT:    -1.095      0.111      1.621
REMARK INTER + INTRA:          -1.095
REMARK INTER:                  -1.095
REMARK INTRA:                   0.000
REMARK UNBOUND:                 0.000
REMARK SMILES CC(=O)[O-]
REMARK SMILES IDX 1 1 2 2 3 3 4 4
REMARK H PARENT
REMARK Flexibility Score: inf
ROOT
ATOM      1  C   UNL     1     -13.377 -21.727  84.190  1.00  0.00     0.063 C 
ATOM      2  C   UNL     1     -13.972 -22.521  85.302  1.00  0.00     0.038 C 
ATOM      3  O   UNL     1     -13.321 -23.465  85.822  1.00  0.00    -0.550 OA
ATOM      4  O   UNL     1     -15.266 -22.257  85.733  1.00  0.00    -0.550 OA
ENDROOT
TORSDOF 0
ENDMDL
MODEL 3
REMARK VINA RESULT:    -1.095      1.440      2.235
REMARK INTER + INTRA:          -1.095
REMARK INTER:                  -1.095
REMARK INTRA:                   0.000
REMARK UNBOUND:                 0.000
REMARK SMILES CC(=O)[O-]
REMARK SMILES IDX 1 1 2 2 3 3 4 4
REMARK H PARENT
REMARK Flexibility Score: inf
ROOT
ATOM      1  C   UNL     1     -15.097 -22.451  85.742  1.00  0.00     0.063 C 
ATOM      2  C   UNL     1     -13.755 -22.423  85.095  1.00  0.00     0.038 C 
ATOM      3  O   UNL     1     -12.878 -23.264  85.426  1.00  0.00    -0.550 OA
ATOM      4  O   UNL     1     -13.449 -21.438  84.166  1.00  0.00    -0.550 OA
ENDROOT
TORSDOF 0
ENDMDL
MODEL 4
REMARK VINA RESULT:    -0.892      1.889      2.069
REMARK INTER + INTRA:          -0.892
REMARK INTER:                  -0.892
REMARK INTRA:                   0.000
REMARK UNBOUND:                 0.000
REMARK SMILES CC(=O)[O-]
REMARK SMILES IDX 1 1 2 2 3 3 4 4
REMARK H PARENT
REMARK Flexibility Score: inf
ROOT
ATOM      1  C   UNL     1     -13.667 -23.112  83.234  1.00  0.00     0.063 C 
ATOM      2  C   UNL     1     -13.658 -22.014  84.242  1.00  0.00     0.038 C 
ATOM      3  O   UNL     1     -14.325 -22.127  85.304  1.00  0.00    -0.550 OA
ATOM      4  O   UNL     1     -12.958 -20.842  83.989  1.00  0.00    -0.550 OA
ENDROOT
TORSDOF 0
ENDMDL
MODEL 5
REMARK VINA RESULT:    -0.793      2.786      3.182
REMARK INTER + INTRA:          -0.793
REMARK INTER:                  -0.793
REMARK INTRA:                   0.000
REMARK UNBOUND:                 0.000
REMARK SMILES CC(=O)[O-]
REMARK SMILES IDX 1 1 2 2 3 3 4 4
REMARK H PARENT
REMARK Flexibility Score: inf
ROOT
ATOM      1  C   UNL     1     -13.689 -22.002  84.658  1.00  0.00     0.063 C 
ATOM      2  C   UNL     1     -13.388 -21.766  83.218  1.00  0.00     0.038 C 
ATOM      3  O   UNL     1     -13.331 -22.736  82.417  1.00  0.00    -0.550 OA
ATOM      4  O   UNL     1     -13.117 -20.481  82.764  1.00  0.00    -0.550 OA
ENDROOT
TORSDOF 0
ENDMDL
MODEL 6
REMARK VINA RESULT:    -0.767      7.969      8.289
REMARK INTER + INTRA:          -0.767
REMARK INTER:                  -0.767
REMARK INTRA:                   0.000
REMARK UNBOUND:                 0.000
REMARK SMILES CC(=O)[O-]
REMARK SMILES IDX 1 1 2 2 3 3 4 4
REMARK H PARENT
REMARK Flexibility Score: inf
ROOT
ATOM      1  C   UNL     1     -15.066 -14.216  84.175  1.00  0.00     0.063 C 
ATOM      2  C   UNL     1     -13.634 -14.510  84.460  1.00  0.00     0.038 C 
ATOM      3  O   UNL     1     -12.949 -15.173  83.637  1.00  0.00    -0.550 OA
ATOM      4  O   UNL     1     -13.063 -14.101  85.658  1.00  0.00    -0.550 OA
ENDROOT
TORSDOF 0
ENDMDL
MODEL 7
REMARK VINA RESULT:    -0.743      8.098      8.634
REMARK INTER + INTRA:          -0.743
REMARK INTER:                  -0.743
REMARK INTRA:                   0.000
REMARK UNBOUND:                 0.000
REMARK SMILES CC(=O)[O-]
REMARK SMILES IDX 1 1 2 2 3 3 4 4
REMARK H PARENT
REMARK Flexibility Score: inf
ROOT
ATOM      1  C   UNL     1     -13.686 -14.211  86.115  1.00  0.00     0.063 C 
ATOM      2  C   UNL     1     -13.900 -14.261  84.641  1.00  0.00     0.038 C 
ATOM      3  O   UNL     1     -13.208 -15.035  83.929  1.00  0.00    -0.550 OA
ATOM      4  O   UNL     1     -14.826 -13.417  84.043  1.00  0.00    -0.550 OA
ENDROOT
TORSDOF 0
ENDMDL
