MODEL 1
REMARK VINA RESULT:    -4.170      0.000      0.000
REMARK INTER + INTRA:          -5.980
REMARK INTER:                  -5.632
REMARK INTRA:                  -0.348
REMARK UNBOUND:                -0.348
REMARK SMILES CCCCCCCC(=O)[O-]
REMARK SMILES IDX 5 1 6 2 7 3 8 4 9 5 10 6 4 7 3 8 2 9 1 10
REMARK H PARENT
REMARK Flexibility Score: inf
ROOT
ATOM      1  C   UNL     1    -120.090 -37.030 -56.268  1.00  0.00     0.000 C 
ENDROOT
BRANCH   1   2
ATOM      2  C   UNL     1    -121.217 -36.311 -57.020  1.00  0.00     0.006 C 
BRANCH   2   3
ATOM      3  C   UNL     1    -120.906 -34.820 -57.181  1.00  0.00     0.053 C 
BRANCH   3   4
ATOM      4  C   UNL     1    -121.721 -34.009 -56.224  1.00  0.00     0.041 C 
ATOM      5  O   UNL     1    -121.362 -33.896 -55.023  1.00  0.00    -0.550 OA
ATOM      6  O   UNL     1    -122.852 -33.336 -56.671  1.00  0.00    -0.550 OA
ENDBRANCH   3   4
ENDBRANCH   2   3
ENDBRANCH   1   2
BRANCH   1   7
ATOM      7  C   UNL     1    -118.806 -36.192 -56.270  1.00  0.00     0.000 C 
BRANCH   7   8
ATOM      8  C   UNL     1    -117.565 -37.088 -56.174  1.00  0.00    -0.000 C 
BRANCH   8   9
ATOM      9  C   UNL     1    -116.320 -36.360 -56.694  1.00  0.00    -0.003 C 
ATOM     10  C   UNL     1    -116.653 -34.931 -57.115  1.00  0.00     0.004 C 
ENDBRANCH   8   9
ENDBRANCH   7   8
ENDBRANCH   1   7
TORSDOF 6
ENDMDL
MODEL 2
REMARK VINA RESULT:    -4.126      1.989      2.516
REMARK INTER + INTRA:          -5.921
REMARK INTER:                  -5.686
REMARK INTRA:                  -0.235
REMARK UNBOUND:                -0.348
REMARK SMILES CCCCCCCC(=O)[O-]
REMARK SMILES IDX 5 1 6 2 7 3 8 4 9 5 10 6 4 7 3 8 2 9 1 10
REMARK H PARENT
REMARK Flexibility Score: inf
ROOT
ATOM      1  C   UNL     1    -118.763 -36.922 -55.972  1.00  0.00     0.000 C 
ENDROOT
BRANCH   1   2
ATOM      2  C   UNL     1    -119.393 -35.624 -56.492  1.00  0.00     0.006 C 
BRANCH   2   3
ATOM      3  C   UNL     1    -120.833 -35.473 -55.992  1.00  0.00     0.053 C 
BRANCH   3   4
ATOM      4  C   UNL     1    -121.640 -36.682 -56.345  1.00  0.00     0.041 C 
ATOM      5  O   UNL     1    -121.885 -36.950 -57.549  1.00  0.00    -0.550 OA
ATOM      6  O   UNL     1    -122.081 -37.539 -55.345  1.00  0.00    -0.550 OA
ENDBRANCH   3   4
ENDBRANCH   2   3
ENDBRANCH   1   2
BRANCH   1   7
ATOM      7  C   UNL     1    -117.275 -36.994 -56.334  1.00  0.00     0.000 C 
BRANCH   7   8
ATOM      8  C   UNL     1    -116.730 -35.608 -56.701  1.00  0.00    -0.000 C 
BRANCH   8   9
ATOM      9  C   UNL     1    -115.218 -35.660 -56.949  1.00  0.00    -0.003 C 
ATOM     10  C   UNL     1    -114.829 -34.819 -58.161  1.00  0.00     0.004 C 
ENDBRANCH   8   9
ENDBRANCH   7   8
ENDBRANCH   1   7
TORSDOF 6
ENDMDL
MODEL 3
REMARK VINA RESULT:    -4.087      3.483      5.323
REMARK INTER + INTRA:          -5.869
REMARK INTER:                  -5.591
REMARK INTRA:                  -0.277
REMARK UNBOUND:                -0.348
REMARK SMILES CCCCCCCC(=O)[O-]
REMARK SMILES IDX 5 1 6 2 7 3 8 4 9 5 10 6 4 7 3 8 2 9 1 10
REMARK H PARENT
REMARK Flexibility Score: inf
ROOT
ATOM      1  C   UNL     1    -119.144 -36.459 -55.993  1.00  0.00     0.000 C 
ENDROOT
BRANCH   1   2
ATOM      2  C   UNL     1    -117.663 -36.619 -56.356  1.00  0.00     0.006 C 
BRANCH   2   3
ATOM      3  C   UNL     1    -117.080 -35.301 -56.877  1.00  0.00     0.053 C 
BRANCH   3   4
ATOM      4  C   UNL     1    -115.665 -35.494 -57.321  1.00  0.00     0.041 C 
ATOM      5  O   UNL     1    -115.327 -35.217 -58.501  1.00  0.00    -0.550 OA
ATOM      6  O   UNL     1    -114.707 -35.934 -56.416  1.00  0.00    -0.550 OA
ENDBRANCH   3   4
ENDBRANCH   2   3
ENDBRANCH   1   2
BRANCH   1   7
ATOM      7  C   UNL     1    -119.761 -35.255 -56.715  1.00  0.00     0.000 C 
BRANCH   7   8
ATOM      8  C   UNL     1    -121.279 -35.415 -56.854  1.00  0.00    -0.000 C 
BRANCH   8   9
ATOM      9  C   UNL     1    -121.689 -36.889 -56.744  1.00  0.00    -0.003 C 
ATOM     10  C   UNL     1    -122.680 -37.268 -57.840  1.00  0.00     0.004 C 
ENDBRANCH   8   9
ENDBRANCH   7   8
ENDBRANCH   1   7
TORSDOF 6
ENDMDL
MODEL 4
REMARK VINA RESULT:    -4.021      2.769      4.925
REMARK INTER + INTRA:          -5.780
REMARK INTER:                  -5.424
REMARK INTRA:                  -0.356
REMARK UNBOUND:                -0.348
REMARK SMILES CCCCCCCC(=O)[O-]
REMARK SMILES IDX 5 1 6 2 7 3 8 4 9 5 10 6 4 7 3 8 2 9 1 10
REMARK H PARENT
REMARK Flexibility Score: inf
ROOT
ATOM      1  C   UNL     1    -119.975 -37.085 -56.403  1.00  0.00     0.000 C 
ENDROOT
BRANCH   1   2
ATOM      2  C   UNL     1    -118.781 -36.224 -55.974  1.00  0.00     0.006 C 
BRANCH   2   3
ATOM      3  C   UNL     1    -117.456 -36.918 -56.302  1.00  0.00     0.053 C 
BRANCH   3   4
ATOM      4  C   UNL     1    -116.438 -35.920 -56.753  1.00  0.00     0.041 C 
ATOM      5  O   UNL     1    -116.801 -34.851 -57.310  1.00  0.00    -0.550 OA
ATOM      6  O   UNL     1    -115.088 -36.147 -56.515  1.00  0.00    -0.550 OA
ENDBRANCH   3   4
ENDBRANCH   2   3
ENDBRANCH   1   2
BRANCH   1   7
ATOM      7  C   UNL     1    -121.076 -36.224 -57.032  1.00  0.00     0.000 C 
BRANCH   7   8
ATOM      8  C   UNL     1    -120.783 -34.731 -56.842  1.00  0.00    -0.000 C 
BRANCH   8   9
ATOM      9  C   UNL     1    -121.952 -34.026 -56.143  1.00  0.00    -0.003 C 
ATOM     10  C   UNL     1    -121.597 -33.665 -54.704  1.00  0.00     0.004 C 
ENDBRANCH   8   9
ENDBRANCH   7   8
ENDBRANCH   1   7
TORSDOF 6
ENDMDL
MODEL 5
REMARK VINA RESULT:    -3.637     13.494     14.440
REMARK INTER + INTRA:          -5.260
REMARK INTER:                  -4.952
REMARK INTRA:                  -0.308
REMARK UNBOUND:                -0.348
REMARK SMILES CCCCCCCC(=O)[O-]
REMARK SMILES IDX 5 1 6 2 7 3 8 4 9 5 10 6 4 7 3 8 2 9 1 10
REMARK H PARENT
REMARK Flexibility Score: inf
ROOT
ATOM      1  C   UNL     1    -113.544 -41.142 -65.379  1.00  0.00     0.000 C 
ENDROOT
BRANCH   1   2
ATOM      2  C   UNL     1    -114.161 -41.573 -66.715  1.00  0.00     0.006 C 
BRANCH   2   3
ATOM      3  C   UNL     1    -113.249 -41.201 -67.887  1.00  0.00     0.053 C 
BRANCH   3   4
ATOM      4  C   UNL     1    -112.825 -42.427 -68.632  1.00  0.00     0.041 C 
ATOM      5  O   UNL     1    -111.626 -42.806 -68.598  1.00  0.00    -0.550 OA
ATOM      6  O   UNL     1    -113.766 -43.179 -69.324  1.00  0.00    -0.550 OA
ENDBRANCH   3   4
ENDBRANCH   2   3
ENDBRANCH   1   2
BRANCH   1   7
ATOM      7  C   UNL     1    -113.007 -42.353 -64.606  1.00  0.00     0.000 C 
BRANCH   7   8
ATOM      8  C   UNL     1    -111.560 -42.662 -65.007  1.00  0.00    -0.000 C 
BRANCH   8   9
ATOM      9  C   UNL     1    -110.873 -43.539 -63.953  1.00  0.00    -0.003 C 
ATOM     10  C   UNL     1    -111.808 -43.829 -62.783  1.00  0.00     0.004 C 
ENDBRANCH   8   9
ENDBRANCH   7   8
ENDBRANCH   1   7
TORSDOF 6
ENDMDL
MODEL 6
REMARK VINA RESULT:    -3.607     13.173     14.331
REMARK INTER + INTRA:          -5.219
REMARK INTER:                  -4.567
REMARK INTRA:                  -0.653
REMARK UNBOUND:                -0.348
REMARK SMILES CCCCCCCC(=O)[O-]
REMARK SMILES IDX 5 1 6 2 7 3 8 4 9 5 10 6 4 7 3 8 2 9 1 10
REMARK H PARENT
REMARK Flexibility Score: inf
ROOT
ATOM      1  C   UNL     1    -112.628 -42.625 -64.487  1.00  0.00     0.000 C 
ENDROOT
BRANCH   1   2
ATOM      2  C   UNL     1    -113.328 -41.443 -65.169  1.00  0.00     0.006 C 
BRANCH   2   3
ATOM      3  C   UNL     1    -114.409 -41.929 -66.138  1.00  0.00     0.053 C 
BRANCH   3   4
ATOM      4  C   UNL     1    -113.912 -41.876 -67.548  1.00  0.00     0.041 C 
ATOM      5  O   UNL     1    -113.521 -40.787 -68.042  1.00  0.00    -0.550 OA
ATOM      6  O   UNL     1    -113.834 -43.041 -68.301  1.00  0.00    -0.550 OA
ENDBRANCH   3   4
ENDBRANCH   2   3
ENDBRANCH   1   2
BRANCH   1   7
ATOM      7  C   UNL     1    -111.197 -42.793 -65.011  1.00  0.00     0.000 C 
BRANCH   7   8
ATOM      8  C   UNL     1    -110.731 -41.534 -65.751  1.00  0.00    -0.000 C 
BRANCH   8   9
ATOM      9  C   UNL     1    -110.094 -41.893 -67.099  1.00  0.00    -0.003 C 
ATOM     10  C   UNL     1    -110.417 -43.331 -67.496  1.00  0.00     0.004 C 
ENDBRANCH   8   9
ENDBRANCH   7   8
ENDBRANCH   1   7
TORSDOF 6
ENDMDL
MODEL 7
REMARK VINA RESULT:    -3.601     12.990     13.916
REMARK INTER + INTRA:          -5.212
REMARK INTER:                  -4.906
REMARK INTRA:                  -0.306
REMARK UNBOUND:                -0.348
REMARK SMILES CCCCCCCC(=O)[O-]
REMARK SMILES IDX 5 1 6 2 7 3 8 4 9 5 10 6 4 7 3 8 2 9 1 10
REMARK H PARENT
REMARK Flexibility Score: inf
ROOT
ATOM      1  C   UNL     1    -112.445 -41.939 -64.989  1.00  0.00     0.000 C 
ENDROOT
BRANCH   1   2
ATOM      2  C   UNL     1    -113.748 -41.244 -65.400  1.00  0.00     0.006 C 
BRANCH   2   3
ATOM      3  C   UNL     1    -114.532 -42.094 -66.405  1.00  0.00     0.053 C 
BRANCH   3   4
ATOM      4  C   UNL     1    -113.885 -42.043 -67.752  1.00  0.00     0.041 C 
ATOM      5  O   UNL     1    -113.801 -43.083 -68.455  1.00  0.00    -0.550 OA
ATOM      6  O   UNL     1    -113.416 -40.834 -68.252  1.00  0.00    -0.550 OA
ENDBRANCH   3   4
ENDBRANCH   2   3
ENDBRANCH   1   2
BRANCH   1   7
ATOM      7  C   UNL     1    -112.652 -42.799 -63.736  1.00  0.00     0.000 C 
BRANCH   7   8
ATOM      8  C   UNL     1    -111.415 -43.657 -63.447  1.00  0.00    -0.000 C 
BRANCH   8   9
ATOM      9  C   UNL     1    -110.325 -43.423 -64.500  1.00  0.00    -0.003 C 
ATOM     10  C   UNL     1    -108.985 -43.102 -63.845  1.00  0.00     0.004 C 
ENDBRANCH   8   9
ENDBRANCH   7   8
ENDBRANCH   1   7
TORSDOF 6
ENDMDL
MODEL 8
REMARK VINA RESULT:    -3.513     13.606     14.948
REMARK INTER + INTRA:          -5.093
REMARK INTER:                  -4.474
REMARK INTRA:                  -0.620
REMARK UNBOUND:                -0.348
REMARK SMILES CCCCCCCC(=O)[O-]
REMARK SMILES IDX 5 1 6 2 7 3 8 4 9 5 10 6 4 7 3 8 2 9 1 10
REMARK H PARENT
REMARK Flexibility Score: inf
ROOT
ATOM      1  C   UNL     1    -112.950 -42.279 -64.520  1.00  0.00     0.000 C 
ENDROOT
BRANCH   1   2
ATOM      2  C   UNL     1    -111.547 -42.662 -65.006  1.00  0.00     0.006 C 
BRANCH   2   3
ATOM      3  C   UNL     1    -110.854 -41.471 -65.676  1.00  0.00     0.053 C 
BRANCH   3   4
ATOM      4  C   UNL     1    -110.264 -41.879 -66.989  1.00  0.00     0.041 C 
ATOM      5  O   UNL     1    -110.021 -41.014 -67.871  1.00  0.00    -0.550 OA
ATOM      6  O   UNL     1    -109.937 -43.209 -67.221  1.00  0.00    -0.550 OA
ENDBRANCH   3   4
ENDBRANCH   2   3
ENDBRANCH   1   2
BRANCH   1   7
ATOM      7  C   UNL     1    -113.592 -41.245 -65.453  1.00  0.00     0.000 C 
BRANCH   7   8
ATOM      8  C   UNL     1    -114.496 -41.925 -66.489  1.00  0.00    -0.000 C 
BRANCH   8   9
ATOM      9  C   UNL     1    -113.867 -41.871 -67.886  1.00  0.00    -0.003 C 
ATOM     10  C   UNL     1    -113.437 -43.259 -68.351  1.00  0.00     0.004 C 
ENDBRANCH   8   9
ENDBRANCH   7   8
ENDBRANCH   1   7
TORSDOF 6
ENDMDL
MODEL 9
REMARK VINA RESULT:    -3.471     13.927     15.262
REMARK INTER + INTRA:          -5.036
REMARK INTER:                  -4.486
REMARK INTRA:                  -0.550
REMARK UNBOUND:                -0.348
REMARK SMILES CCCCCCCC(=O)[O-]
REMARK SMILES IDX 5 1 6 2 7 3 8 4 9 5 10 6 4 7 3 8 2 9 1 10
REMARK H PARENT
REMARK Flexibility Score: inf
ROOT
ATOM      1  C   UNL     1    -110.570 -41.100 -67.215  1.00  0.00     0.000 C 
ENDROOT
BRANCH   1   2
ATOM      2  C   UNL     1    -111.043 -42.385 -67.904  1.00  0.00     0.006 C 
BRANCH   2   3
ATOM      3  C   UNL     1    -111.930 -42.068 -69.112  1.00  0.00     0.053 C 
BRANCH   3   4
ATOM      4  C   UNL     1    -113.093 -43.006 -69.170  1.00  0.00     0.041 C 
ATOM      5  O   UNL     1    -113.515 -43.425 -70.279  1.00  0.00    -0.550 OA
ATOM      6  O   UNL     1    -113.681 -43.458 -67.994  1.00  0.00    -0.550 OA
ENDBRANCH   3   4
ENDBRANCH   2   3
ENDBRANCH   1   2
BRANCH   1   7
ATOM      7  C   UNL     1    -111.055 -41.044 -65.761  1.00  0.00     0.000 C 
BRANCH   7   8
ATOM      8  C   UNL     1    -111.591 -42.407 -65.308  1.00  0.00    -0.000 C 
BRANCH   8   9
ATOM      9  C   UNL     1    -112.972 -42.266 -64.655  1.00  0.00    -0.003 C 
ATOM     10  C   UNL     1    -113.788 -41.166 -65.326  1.00  0.00     0.004 C 
ENDBRANCH   8   9
ENDBRANCH   7   8
ENDBRANCH   1   7
TORSDOF 6
ENDMDL
