MODEL 1
REMARK VINA RESULT:    -3.299      0.000      0.000
REMARK INTER + INTRA:          -4.284
REMARK INTER:                  -4.070
REMARK INTRA:                  -0.214
REMARK UNBOUND:                -0.214
REMARK SMILES CCCCCC(=O)[O-]
REMARK SMILES IDX 4 1 5 2 6 3 7 4 8 5 3 6 2 7 1 8
REMARK H PARENT
REMARK Flexibility Score: inf
ROOT
ATOM      1  C   UNL     1     162.205 178.663 181.135  1.00  0.00     0.006 C 
ENDROOT
BRANCH   1   2
ATOM      2  C   UNL     1     161.759 179.815 180.230  1.00  0.00     0.053 C 
BRANCH   2   3
ATOM      3  C   UNL     1     161.852 179.417 178.792  1.00  0.00     0.041 C 
ATOM      4  O   UNL     1     162.626 180.032 178.011  1.00  0.00    -0.550 OA
ATOM      5  O   UNL     1     161.047 178.399 178.298  1.00  0.00    -0.550 OA
ENDBRANCH   2   3
ENDBRANCH   1   2
BRANCH   1   6
ATOM      6  C   UNL     1     163.526 179.002 181.844  1.00  0.00     0.000 C 
BRANCH   6   7
ATOM      7  C   UNL     1     164.759 178.576 181.033  1.00  0.00    -0.003 C 
ATOM      8  C   UNL     1     165.507 179.763 180.427  1.00  0.00     0.004 C 
ENDBRANCH   6   7
ENDBRANCH   1   6
TORSDOF 4
ENDMDL
MODEL 2
REMARK VINA RESULT:    -3.265     10.512     12.242
REMARK INTER + INTRA:          -4.243
REMARK INTER:                  -4.008
REMARK INTRA:                  -0.235
REMARK UNBOUND:                -0.214
REMARK SMILES CCCCCC(=O)[O-]
REMARK SMILES IDX 4 1 5 2 6 3 7 4 8 5 3 6 2 7 1 8
REMARK H PARENT
REMARK Flexibility Score: inf
ROOT
ATOM      1  C   UNL     1     175.535 178.077 180.807  1.00  0.00     0.006 C 
ENDROOT
BRANCH   1   2
ATOM      2  C   UNL     1     174.049 178.256 181.133  1.00  0.00     0.053 C 
BRANCH   2   3
ATOM      3  C   UNL     1     173.450 179.326 180.278  1.00  0.00     0.041 C 
ATOM      4  O   UNL     1     173.910 179.550 179.126  1.00  0.00    -0.550 OA
ATOM      5  O   UNL     1     172.416 180.111 180.769  1.00  0.00    -0.550 OA
ENDBRANCH   2   3
ENDBRANCH   1   2
BRANCH   1   6
ATOM      6  C   UNL     1     176.413 178.862 181.794  1.00  0.00     0.000 C 
BRANCH   6   7
ATOM      7  C   UNL     1     177.144 180.037 181.128  1.00  0.00    -0.003 C 
ATOM      8  C   UNL     1     177.354 179.830 179.628  1.00  0.00     0.004 C 
ENDBRANCH   6   7
ENDBRANCH   1   6
TORSDOF 4
ENDMDL
MODEL 3
REMARK VINA RESULT:    -3.236      2.115      3.070
REMARK INTER + INTRA:          -4.207
REMARK INTER:                  -3.977
REMARK INTRA:                  -0.230
REMARK UNBOUND:                -0.214
REMARK SMILES CCCCCC(=O)[O-]
REMARK SMILES IDX 4 1 5 2 6 3 7 4 8 5 3 6 2 7 1 8
REMARK H PARENT
REMARK Flexibility Score: inf
ROOT
ATOM      1  C   UNL     1     163.424 177.428 180.613  1.00  0.00     0.006 C 
ENDROOT
BRANCH   1   2
ATOM      2  C   UNL     1     162.467 176.337 181.101  1.00  0.00     0.053 C 
BRANCH   2   3
ATOM      3  C   UNL     1     161.303 176.206 180.171  1.00  0.00     0.041 C 
ATOM      4  O   UNL     1     161.264 176.877 179.105  1.00  0.00    -0.550 OA
ATOM      5  O   UNL     1     160.236 175.382 180.503  1.00  0.00    -0.550 OA
ENDBRANCH   2   3
ENDBRANCH   1   2
BRANCH   1   6
ATOM      6  C   UNL     1     163.615 178.512 181.685  1.00  0.00     0.000 C 
BRANCH   6   7
ATOM      7  C   UNL     1     162.458 179.523 181.714  1.00  0.00    -0.003 C 
ATOM      8  C   UNL     1     162.105 180.059 180.327  1.00  0.00     0.004 C 
ENDBRANCH   6   7
ENDBRANCH   1   6
TORSDOF 4
ENDMDL
MODEL 4
REMARK VINA RESULT:    -3.195     13.195     14.085
REMARK INTER + INTRA:          -4.157
REMARK INTER:                  -3.958
REMARK INTRA:                  -0.198
REMARK UNBOUND:                -0.214
REMARK SMILES CCCCCC(=O)[O-]
REMARK SMILES IDX 4 1 5 2 6 3 7 4 8 5 3 6 2 7 1 8
REMARK H PARENT
REMARK Flexibility Score: inf
ROOT
ATOM      1  C   UNL     1     177.259 179.900 180.658  1.00  0.00     0.006 C 
ENDROOT
BRANCH   1   2
ATOM      2  C   UNL     1     176.458 179.842 179.354  1.00  0.00     0.053 C 
BRANCH   2   3
ATOM      3  C   UNL     1     177.239 179.139 178.290  1.00  0.00     0.041 C 
ATOM      4  O   UNL     1     177.641 179.770 177.276  1.00  0.00    -0.550 OA
ATOM      5  O   UNL     1     177.483 177.776 178.391  1.00  0.00    -0.550 OA
ENDBRANCH   2   3
ENDBRANCH   1   2
BRANCH   1   6
ATOM      6  C   UNL     1     176.479 179.250 181.811  1.00  0.00     0.000 C 
BRANCH   6   7
ATOM      7  C   UNL     1     176.510 177.715 181.754  1.00  0.00    -0.003 C 
ATOM      8  C   UNL     1     175.140 177.107 181.452  1.00  0.00     0.004 C 
ENDBRANCH   6   7
ENDBRANCH   1   6
TORSDOF 4
ENDMDL
MODEL 5
REMARK VINA RESULT:    -3.193     13.242     13.953
REMARK INTER + INTRA:          -4.154
REMARK INTER:                  -3.963
REMARK INTRA:                  -0.191
REMARK UNBOUND:                -0.214
REMARK SMILES CCCCCC(=O)[O-]
REMARK SMILES IDX 4 1 5 2 6 3 7 4 8 5 3 6 2 7 1 8
REMARK H PARENT
REMARK Flexibility Score: inf
ROOT
ATOM      1  C   UNL     1     176.318 179.720 181.132  1.00  0.00     0.006 C 
ENDROOT
BRANCH   1   2
ATOM      2  C   UNL     1     177.362 180.112 180.083  1.00  0.00     0.053 C 
BRANCH   2   3
ATOM      3  C   UNL     1     176.793 179.991 178.705  1.00  0.00     0.041 C 
ATOM      4  O   UNL     1     175.546 180.033 178.528  1.00  0.00    -0.550 OA
ATOM      5  O   UNL     1     177.634 179.782 177.620  1.00  0.00    -0.550 OA
ENDBRANCH   2   3
ENDBRANCH   1   2
BRANCH   1   6
ATOM      6  C   UNL     1     176.737 178.442 181.874  1.00  0.00     0.000 C 
BRANCH   6   7
ATOM      7  C   UNL     1     176.020 177.190 181.347  1.00  0.00    -0.003 C 
ATOM      8  C   UNL     1     176.906 176.342 180.435  1.00  0.00     0.004 C 
ENDBRANCH   6   7
ENDBRANCH   1   6
TORSDOF 4
ENDMDL
MODEL 6
REMARK VINA RESULT:    -3.169     11.818     13.139
REMARK INTER + INTRA:          -4.123
REMARK INTER:                  -3.879
REMARK INTRA:                  -0.245
REMARK UNBOUND:                -0.214
REMARK SMILES CCCCCC(=O)[O-]
REMARK SMILES IDX 4 1 5 2 6 3 7 4 8 5 3 6 2 7 1 8
REMARK H PARENT
REMARK Flexibility Score: inf
ROOT
ATOM      1  C   UNL     1     177.160 179.433 179.376  1.00  0.00     0.006 C 
ENDROOT
BRANCH   1   2
ATOM      2  C   UNL     1     175.992 179.935 178.522  1.00  0.00     0.053 C 
BRANCH   2   3
ATOM      3  C   UNL     1     174.754 179.148 178.813  1.00  0.00     0.041 C 
ATOM      4  O   UNL     1     173.712 179.731 179.218  1.00  0.00    -0.550 OA
ATOM      5  O   UNL     1     174.761 177.766 178.685  1.00  0.00    -0.550 OA
ENDBRANCH   2   3
ENDBRANCH   1   2
BRANCH   1   6
ATOM      6  C   UNL     1     177.171 180.123 180.749  1.00  0.00     0.000 C 
BRANCH   6   7
ATOM      7  C   UNL     1     176.760 179.178 181.889  1.00  0.00    -0.003 C 
ATOM      8  C   UNL     1     176.888 177.703 181.509  1.00  0.00     0.004 C 
ENDBRANCH   6   7
ENDBRANCH   1   6
TORSDOF 4
ENDMDL
MODEL 7
REMARK VINA RESULT:    -3.145      1.407      2.102
REMARK INTER + INTRA:          -4.094
REMARK INTER:                  -3.862
REMARK INTRA:                  -0.232
REMARK UNBOUND:                -0.214
REMARK SMILES CCCCCC(=O)[O-]
REMARK SMILES IDX 4 1 5 2 6 3 7 4 8 5 3 6 2 7 1 8
REMARK H PARENT
REMARK Flexibility Score: inf
ROOT
ATOM      1  C   UNL     1     162.284 180.101 179.423  1.00  0.00     0.006 C 
ENDROOT
BRANCH   1   2
ATOM      2  C   UNL     1     161.429 179.231 178.497  1.00  0.00     0.053 C 
BRANCH   2   3
ATOM      3  C   UNL     1     161.972 177.839 178.437  1.00  0.00     0.041 C 
ATOM      4  O   UNL     1     163.158 177.636 178.063  1.00  0.00    -0.550 OA
ATOM      5  O   UNL     1     161.155 176.760 178.747  1.00  0.00    -0.550 OA
ENDBRANCH   2   3
ENDBRANCH   1   2
BRANCH   1   6
ATOM      6  C   UNL     1     161.704 180.125 180.846  1.00  0.00     0.000 C 
BRANCH   6   7
ATOM      7  C   UNL     1     162.528 179.287 181.834  1.00  0.00    -0.003 C 
ATOM      8  C   UNL     1     163.993 179.155 181.419  1.00  0.00     0.004 C 
ENDBRANCH   6   7
ENDBRANCH   1   6
TORSDOF 4
ENDMDL
MODEL 8
REMARK VINA RESULT:    -3.084      1.956      3.607
REMARK INTER + INTRA:          -4.019
REMARK INTER:                  -3.792
REMARK INTRA:                  -0.226
REMARK UNBOUND:                -0.214
REMARK SMILES CCCCCC(=O)[O-]
REMARK SMILES IDX 4 1 5 2 6 3 7 4 8 5 3 6 2 7 1 8
REMARK H PARENT
REMARK Flexibility Score: inf
ROOT
ATOM      1  C   UNL     1     163.815 178.995 181.885  1.00  0.00     0.006 C 
ENDROOT
BRANCH   1   2
ATOM      2  C   UNL     1     164.769 178.241 180.954  1.00  0.00     0.053 C 
BRANCH   2   3
ATOM      3  C   UNL     1     165.446 179.190 180.017  1.00  0.00     0.041 C 
ATOM      4  O   UNL     1     164.938 179.442 178.892  1.00  0.00    -0.550 OA
ATOM      5  O   UNL     1     166.664 179.760 180.363  1.00  0.00    -0.550 OA
ENDBRANCH   2   3
ENDBRANCH   1   2
BRANCH   1   6
ATOM      6  C   UNL     1     162.356 178.818 181.436  1.00  0.00     0.000 C 
BRANCH   6   7
ATOM      7  C   UNL     1     161.735 180.125 180.920  1.00  0.00    -0.003 C 
ATOM      8  C   UNL     1     161.525 180.123 179.406  1.00  0.00     0.004 C 
ENDBRANCH   6   7
ENDBRANCH   1   6
TORSDOF 4
ENDMDL
