MODEL 1
REMARK VINA RESULT:    -4.668      0.000      0.000
REMARK INTER + INTRA:          -4.804
REMARK INTER:                  -4.804
REMARK INTRA:                   0.000
REMARK UNBOUND:                 0.000
REMARK SMILES Oc1ccc2[nH]ccc2c1
REMARK SMILES IDX 3 1 4 2 5 3 9 4 8 5 7 6 6 7 10 8 2 9 1 11
REMARK H PARENT 6 10 1 12
REMARK Flexibility Score: inf
ROOT
ATOM      1  C   UNL     1      88.838  26.729  17.698  1.00  0.00     0.048 A 
ATOM      2  C   UNL     1      89.982  27.449  17.309  1.00  0.00     0.030 A 
ATOM      3  C   UNL     1      90.336  27.432  15.961  1.00  0.00     0.046 A 
ATOM      4  C   UNL     1      89.602  26.741  15.033  1.00  0.00     0.003 A 
ATOM      5  C   UNL     1      90.208  26.924  13.810  1.00  0.00     0.028 A 
ATOM      6  C   UNL     1      91.306  27.738  14.067  1.00  0.00     0.083 A 
ATOM      7  N   UNL     1      91.380  28.045  15.382  1.00  0.00    -0.361 N 
ATOM      8  C   UNL     1      88.464  26.018  15.384  1.00  0.00     0.056 A 
ATOM      9  C   UNL     1      88.079  26.015  16.742  1.00  0.00     0.116 A 
ATOM     10  H   UNL     1      92.102  28.639  15.848  1.00  0.00     0.166 HD
ENDROOT
BRANCH   9  11
ATOM     11  O   UNL     1      86.950  25.309  17.153  1.00  0.00    -0.508 OA
ATOM     12  H   UNL     1      87.013  24.348  17.466  1.00  0.00     0.293 HD
ENDBRANCH   9  11
TORSDOF 1
ENDMDL
MODEL 2
REMARK VINA RESULT:    -4.605     18.896     20.011
REMARK INTER + INTRA:          -4.739
REMARK INTER:                  -4.739
REMARK INTRA:                   0.000
REMARK UNBOUND:                 0.000
REMARK SMILES Oc1ccc2[nH]ccc2c1
REMARK SMILES IDX 3 1 4 2 5 3 9 4 8 5 7 6 6 7 10 8 2 9 1 11
REMARK H PARENT 6 10 1 12
REMARK Flexibility Score: inf
ROOT
ATOM      1  C   UNL     1      78.833  18.168   1.022  1.00  0.00     0.048 A 
ATOM      2  C   UNL     1      77.929  17.146   1.366  1.00  0.00     0.030 A 
ATOM      3  C   UNL     1      78.241  16.342   2.461  1.00  0.00     0.046 A 
ATOM      4  C   UNL     1      79.385  16.530   3.189  1.00  0.00     0.003 A 
ATOM      5  C   UNL     1      79.396  15.585   4.190  1.00  0.00     0.028 A 
ATOM      6  C   UNL     1      78.225  14.854   4.012  1.00  0.00     0.083 A 
ATOM      7  N   UNL     1      77.524  15.320   2.955  1.00  0.00    -0.361 N 
ATOM      8  C   UNL     1      80.301  17.532   2.876  1.00  0.00     0.056 A 
ATOM      9  C   UNL     1      80.016  18.364   1.773  1.00  0.00     0.116 A 
ATOM     10  H   UNL     1      76.611  14.958   2.599  1.00  0.00     0.166 HD
ENDROOT
BRANCH   9  11
ATOM     11  O   UNL     1      80.894  19.383   1.411  1.00  0.00    -0.508 OA
ATOM     12  H   UNL     1      81.790  19.495   1.870  1.00  0.00     0.293 HD
ENDBRANCH   9  11
TORSDOF 1
ENDMDL
MODEL 3
REMARK VINA RESULT:    -4.600     19.272     20.375
REMARK INTER + INTRA:          -4.735
REMARK INTER:                  -4.735
REMARK INTRA:                   0.000
REMARK UNBOUND:                 0.000
REMARK SMILES Oc1ccc2[nH]ccc2c1
REMARK SMILES IDX 3 1 4 2 5 3 9 4 8 5 7 6 6 7 10 8 2 9 1 11
REMARK H PARENT 6 10 1 12
REMARK Flexibility Score: inf
ROOT
ATOM      1  C   UNL     1      80.036  17.636   3.355  1.00  0.00     0.048 A 
ATOM      2  C   UNL     1      79.402  16.553   3.990  1.00  0.00     0.030 A 
ATOM      3  C   UNL     1      78.600  15.720   3.212  1.00  0.00     0.046 A 
ATOM      4  C   UNL     1      78.425  15.937   1.871  1.00  0.00     0.003 A 
ATOM      5  C   UNL     1      77.587  14.951   1.400  1.00  0.00     0.028 A 
ATOM      6  C   UNL     1      77.290  14.166   2.511  1.00  0.00     0.083 A 
ATOM      7  N   UNL     1      77.910  14.641   3.615  1.00  0.00    -0.361 N 
ATOM      8  C   UNL     1      79.038  17.000   1.211  1.00  0.00     0.056 A 
ATOM      9  C   UNL     1      79.858  17.862   1.970  1.00  0.00     0.116 A 
ATOM     10  H   UNL     1      77.862  14.245   4.580  1.00  0.00     0.166 HD
ENDROOT
BRANCH   9  11
ATOM     11  O   UNL     1      80.496  18.942   1.365  1.00  0.00    -0.508 OA
ATOM     12  H   UNL     1      79.988  19.780   1.109  1.00  0.00     0.293 HD
ENDBRANCH   9  11
TORSDOF 1
ENDMDL
MODEL 4
REMARK VINA RESULT:    -4.429     18.802     19.848
REMARK INTER + INTRA:          -4.558
REMARK INTER:                  -4.558
REMARK INTRA:                   0.000
REMARK UNBOUND:                 0.000
REMARK SMILES Oc1ccc2[nH]ccc2c1
REMARK SMILES IDX 3 1 4 2 5 3 9 4 8 5 7 6 6 7 10 8 2 9 1 11
REMARK H PARENT 6 10 1 12
REMARK Flexibility Score: inf
ROOT
ATOM      1  C   UNL     1      77.857  15.320   1.901  1.00  0.00     0.048 A 
ATOM      2  C   UNL     1      78.260  16.421   1.123  1.00  0.00     0.030 A 
ATOM      3  C   UNL     1      79.169  17.316   1.684  1.00  0.00     0.046 A 
ATOM      4  C   UNL     1      79.661  17.143   2.950  1.00  0.00     0.003 A 
ATOM      5  C   UNL     1      80.524  18.186   3.202  1.00  0.00     0.028 A 
ATOM      6  C   UNL     1      80.509  18.958   2.044  1.00  0.00     0.083 A 
ATOM      7  N   UNL     1      79.680  18.422   1.121  1.00  0.00    -0.361 N 
ATOM      8  C   UNL     1      79.283  16.065   3.748  1.00  0.00     0.056 A 
ATOM      9  C   UNL     1      78.364  15.139   3.209  1.00  0.00     0.116 A 
ATOM     10  H   UNL     1      79.481  18.795   0.165  1.00  0.00     0.166 HD
ENDROOT
BRANCH   9  11
ATOM     11  O   UNL     1      77.948  14.041   3.958  1.00  0.00    -0.508 OA
ATOM     12  H   UNL     1      78.556  13.607   4.642  1.00  0.00     0.293 HD
ENDBRANCH   9  11
TORSDOF 1
ENDMDL
MODEL 5
REMARK VINA RESULT:    -4.264      1.174      2.067
REMARK INTER + INTRA:          -4.389
REMARK INTER:                  -4.389
REMARK INTRA:                   0.000
REMARK UNBOUND:                 0.000
REMARK SMILES Oc1ccc2[nH]ccc2c1
REMARK SMILES IDX 3 1 4 2 5 3 9 4 8 5 7 6 6 7 10 8 2 9 1 11
REMARK H PARENT 6 10 1 12
REMARK Flexibility Score: inf
ROOT
ATOM      1  C   UNL     1      88.158  26.233  15.446  1.00  0.00     0.048 A 
ATOM      2  C   UNL     1      88.838  26.481  14.239  1.00  0.00     0.030 A 
ATOM      3  C   UNL     1      90.141  26.970  14.314  1.00  0.00     0.046 A 
ATOM      4  C   UNL     1      90.753  27.207  15.516  1.00  0.00     0.003 A 
ATOM      5  C   UNL     1      92.017  27.680  15.248  1.00  0.00     0.028 A 
ATOM      6  C   UNL     1      92.109  27.706  13.859  1.00  0.00     0.083 A 
ATOM      7  N   UNL     1      90.960  27.272  13.294  1.00  0.00    -0.361 N 
ATOM      8  C   UNL     1      90.109  26.973  16.729  1.00  0.00     0.056 A 
ATOM      9  C   UNL     1      88.788  26.477  16.688  1.00  0.00     0.116 A 
ATOM     10  H   UNL     1      90.756  27.188  12.273  1.00  0.00     0.166 HD
ENDROOT
BRANCH   9  11
ATOM     11  O   UNL     1      88.093  26.224  17.869  1.00  0.00    -0.508 OA
ATOM     12  H   UNL     1      88.244  25.374  18.399  1.00  0.00     0.293 HD
ENDBRANCH   9  11
TORSDOF 1
ENDMDL
MODEL 6
REMARK VINA RESULT:    -4.236     18.637     19.544
REMARK INTER + INTRA:          -4.360
REMARK INTER:                  -4.360
REMARK INTRA:                   0.000
REMARK UNBOUND:                 0.000
REMARK SMILES Oc1ccc2[nH]ccc2c1
REMARK SMILES IDX 3 1 4 2 5 3 9 4 8 5 7 6 6 7 10 8 2 9 1 11
REMARK H PARENT 6 10 1 12
REMARK Flexibility Score: inf
ROOT
ATOM      1  C   UNL     1      78.501  15.370   4.295  1.00  0.00     0.048 A 
ATOM      2  C   UNL     1      79.465  16.380   4.473  1.00  0.00     0.030 A 
ATOM      3  C   UNL     1      79.709  17.243   3.406  1.00  0.00     0.046 A 
ATOM      4  C   UNL     1      79.040  17.124   2.217  1.00  0.00     0.003 A 
ATOM      5  C   UNL     1      79.505  18.115   1.382  1.00  0.00     0.028 A 
ATOM      6  C   UNL     1      80.458  18.802   2.129  1.00  0.00     0.083 A 
ATOM      7  N   UNL     1      80.579  18.264   3.364  1.00  0.00    -0.361 N 
ATOM      8  C   UNL     1      78.080  16.136   2.007  1.00  0.00     0.056 A 
ATOM      9  C   UNL     1      77.809  15.246   3.068  1.00  0.00     0.116 A 
ATOM     10  H   UNL     1      81.218  18.583   4.126  1.00  0.00     0.166 HD
ENDROOT
BRANCH   9  11
ATOM     11  O   UNL     1      76.860  14.237   2.917  1.00  0.00    -0.508 OA
ATOM     12  H   UNL     1      76.127  14.094   3.603  1.00  0.00     0.293 HD
ENDBRANCH   9  11
TORSDOF 1
ENDMDL
MODEL 7
REMARK VINA RESULT:    -4.132     18.899     19.929
REMARK INTER + INTRA:          -4.253
REMARK INTER:                  -4.253
REMARK INTRA:                   0.000
REMARK UNBOUND:                 0.000
REMARK SMILES Oc1ccc2[nH]ccc2c1
REMARK SMILES IDX 3 1 4 2 5 3 9 4 8 5 7 6 6 7 10 8 2 9 1 11
REMARK H PARENT 6 10 1 12
REMARK Flexibility Score: inf
ROOT
ATOM      1  C   UNL     1      79.481  15.560   5.165  1.00  0.00     0.048 A 
ATOM      2  C   UNL     1      78.596  16.359   4.419  1.00  0.00     0.030 A 
ATOM      3  C   UNL     1      78.610  16.226   3.032  1.00  0.00     0.046 A 
ATOM      4  C   UNL     1      79.453  15.350   2.401  1.00  0.00     0.003 A 
ATOM      5  C   UNL     1      79.224  15.458   1.048  1.00  0.00     0.028 A 
ATOM      6  C   UNL     1      78.226  16.420   0.925  1.00  0.00     0.083 A 
ATOM      7  N   UNL     1      77.855  16.886   2.139  1.00  0.00    -0.361 N 
ATOM      8  C   UNL     1      80.343  14.544   3.110  1.00  0.00     0.056 A 
ATOM      9  C   UNL     1      80.353  14.654   4.517  1.00  0.00     0.116 A 
ATOM     10  H   UNL     1      77.129  17.610   2.338  1.00  0.00     0.166 HD
ENDROOT
BRANCH   9  11
ATOM     11  O   UNL     1      81.220  13.875   5.279  1.00  0.00    -0.508 OA
ATOM     12  H   UNL     1      81.581  12.993   4.933  1.00  0.00     0.293 HD
ENDBRANCH   9  11
TORSDOF 1
ENDMDL
MODEL 8
REMARK VINA RESULT:    -4.078     19.565     20.597
REMARK INTER + INTRA:          -4.197
REMARK INTER:                  -4.197
REMARK INTRA:                   0.000
REMARK UNBOUND:                 0.000
REMARK SMILES Oc1ccc2[nH]ccc2c1
REMARK SMILES IDX 3 1 4 2 5 3 9 4 8 5 7 6 6 7 10 8 2 9 1 11
REMARK H PARENT 6 10 1 12
REMARK Flexibility Score: inf
ROOT
ATOM      1  C   UNL     1      80.042  15.132   4.204  1.00  0.00     0.048 A 
ATOM      2  C   UNL     1      80.372  14.413   3.040  1.00  0.00     0.030 A 
ATOM      3  C   UNL     1      79.644  14.677   1.882  1.00  0.00     0.046 A 
ATOM      4  C   UNL     1      78.637  15.604   1.862  1.00  0.00     0.003 A 
ATOM      5  C   UNL     1      78.123  15.627   0.584  1.00  0.00     0.028 A 
ATOM      6  C   UNL     1      78.867  14.686  -0.122  1.00  0.00     0.083 A 
ATOM      7  N   UNL     1      79.794  14.109   0.675  1.00  0.00    -0.361 N 
ATOM      8  C   UNL     1      78.283  16.333   2.995  1.00  0.00     0.056 A 
ATOM      9  C   UNL     1      79.002  16.090   4.185  1.00  0.00     0.116 A 
ATOM     10  H   UNL     1      80.484  13.374   0.404  1.00  0.00     0.166 HD
ENDROOT
BRANCH   9  11
ATOM     11  O   UNL     1      78.694  16.788   5.351  1.00  0.00    -0.508 OA
ATOM     12  H   UNL     1      79.295  16.747   6.166  1.00  0.00     0.293 HD
ENDBRANCH   9  11
TORSDOF 1
ENDMDL
MODEL 9
REMARK VINA RESULT:    -3.961     19.280     20.384
REMARK INTER + INTRA:          -4.076
REMARK INTER:                  -4.076
REMARK INTRA:                   0.000
REMARK UNBOUND:                 0.000
REMARK SMILES Oc1ccc2[nH]ccc2c1
REMARK SMILES IDX 3 1 4 2 5 3 9 4 8 5 7 6 6 7 10 8 2 9 1 11
REMARK H PARENT 6 10 1 12
REMARK Flexibility Score: inf
ROOT
ATOM      1  C   UNL     1      78.212  16.074   1.888  1.00  0.00     0.048 A 
ATOM      2  C   UNL     1      77.967  16.200   3.268  1.00  0.00     0.030 A 
ATOM      3  C   UNL     1      78.722  15.416   4.137  1.00  0.00     0.046 A 
ATOM      4  C   UNL     1      79.675  14.546   3.679  1.00  0.00     0.003 A 
ATOM      5  C   UNL     1      80.233  13.930   4.777  1.00  0.00     0.028 A 
ATOM      6  C   UNL     1      79.571  14.474   5.874  1.00  0.00     0.083 A 
ATOM      7  N   UNL     1      78.649  15.380   5.477  1.00  0.00    -0.361 N 
ATOM      8  C   UNL     1      79.943  14.396   2.320  1.00  0.00     0.056 A 
ATOM      9  C   UNL     1      79.196  15.177   1.412  1.00  0.00     0.116 A 
ATOM     10  H   UNL     1      78.014  15.937   6.091  1.00  0.00     0.166 HD
ENDROOT
BRANCH   9  11
ATOM     11  O   UNL     1      79.419  15.071   0.041  1.00  0.00    -0.508 OA
ATOM     12  H   UNL     1      78.932  14.383  -0.522  1.00  0.00     0.293 HD
ENDBRANCH   9  11
TORSDOF 1
ENDMDL
