MODEL 1
REMARK VINA RESULT:    -7.875      0.000      0.000
REMARK INTER + INTRA:         -10.101
REMARK INTER:                  -9.717
REMARK INTRA:                  -0.384
REMARK UNBOUND:                -0.384
REMARK SMILES Oc1cc(O)c2cc(O)c(-c3cc(O)c(O)c(O)c3)[o+]c2c1
REMARK SMILES IDX 10 1 20 2 21 3 22 4 2 5 3 6 4 7 6 8 7 9 8 10 11 11 12 12
REMARK SMILES IDX 13 13 19 14 15 15 17 16 14 17 16 19 18 21 9 23 1 25 5 27
REMARK H PARENT 14 18 16 20 18 22 9 24 1 26 5 28
REMARK Flexibility Score: inf
ROOT
ATOM      1  C   UNL     1     -25.222 -19.239 -13.391  1.00  0.00     0.402 A 
ATOM      2  O   UNL     1     -24.898 -20.245 -14.200  1.00  0.00    -0.202 OA
ATOM      3  C   UNL     1     -25.314 -21.494 -14.014  1.00  0.00     0.368 A 
ATOM      4  C   UNL     1     -24.917 -22.484 -14.916  1.00  0.00     0.162 A 
ATOM      5  C   UNL     1     -25.336 -23.804 -14.745  1.00  0.00     0.128 A 
ATOM      6  C   UNL     1     -26.156 -24.139 -13.662  1.00  0.00     0.093 A 
ATOM      7  C   UNL     1     -26.567 -23.165 -12.743  1.00  0.00     0.136 A 
ATOM      8  C   UNL     1     -26.145 -21.821 -12.916  1.00  0.00     0.125 A 
ATOM      9  C   UNL     1     -26.518 -20.778 -12.053  1.00  0.00     0.078 A 
ATOM     10  C   UNL     1     -26.067 -19.477 -12.291  1.00  0.00     0.223 A 
ENDROOT
BRANCH   1  11
ATOM     11  C   UNL     1     -24.688 -17.894 -13.699  1.00  0.00     0.091 A 
ATOM     12  C   UNL     1     -23.458 -17.457 -13.177  1.00  0.00     0.068 A 
ATOM     13  C   UNL     1     -22.958 -16.187 -13.498  1.00  0.00     0.162 A 
ATOM     14  C   UNL     1     -25.393 -17.056 -14.577  1.00  0.00     0.068 A 
ATOM     15  C   UNL     1     -23.683 -15.346 -14.360  1.00  0.00     0.200 A 
ATOM     16  C   UNL     1     -24.898 -15.785 -14.901  1.00  0.00     0.162 A 
BRANCH  13  17
ATOM     17  O   UNL     1     -21.741 -15.760 -12.969  1.00  0.00    -0.504 OA
ATOM     18  H   UNL     1     -21.206 -15.015 -13.402  1.00  0.00     0.293 HD
ENDBRANCH  13  17
BRANCH  15  19
ATOM     19  O   UNL     1     -23.208 -14.077 -14.691  1.00  0.00    -0.502 OA
ATOM     20  H   UNL     1     -22.298 -13.748 -14.391  1.00  0.00     0.293 HD
ENDBRANCH  15  19
BRANCH  16  21
ATOM     21  O   UNL     1     -25.610 -14.951 -15.761  1.00  0.00    -0.504 OA
ATOM     22  H   UNL     1     -26.141 -15.321 -16.541  1.00  0.00     0.293 HD
ENDBRANCH  16  21
ENDBRANCH   1  11
BRANCH  10  23
ATOM     23  O   UNL     1     -26.477 -18.431 -11.463  1.00  0.00    -0.500 OA
ATOM     24  H   UNL     1     -26.646 -17.501 -11.825  1.00  0.00     0.294 HD
ENDBRANCH  10  23
BRANCH   5  25
ATOM     25  O   UNL     1     -24.930 -24.777 -15.656  1.00  0.00    -0.507 OA
ATOM     26  H   UNL     1     -24.491 -25.639 -15.351  1.00  0.00     0.293 HD
ENDBRANCH   5  25
BRANCH   7  27
ATOM     27  O   UNL     1     -27.383 -23.581 -11.686  1.00  0.00    -0.507 OA
ATOM     28  H   UNL     1     -27.145 -24.317 -11.038  1.00  0.00     0.293 HD
ENDBRANCH   7  27
TORSDOF 7
ENDMDL
MODEL 2
REMARK VINA RESULT:    -7.778      0.340      1.783
REMARK INTER + INTRA:          -9.980
REMARK INTER:                  -9.690
REMARK INTRA:                  -0.290
REMARK UNBOUND:                -0.384
REMARK SMILES Oc1cc(O)c2cc(O)c(-c3cc(O)c(O)c(O)c3)[o+]c2c1
REMARK SMILES IDX 10 1 20 2 21 3 22 4 2 5 3 6 4 7 6 8 7 9 8 10 11 11 12 12
REMARK SMILES IDX 13 13 19 14 15 15 17 16 14 17 16 19 18 21 9 23 1 25 5 27
REMARK H PARENT 14 18 16 20 18 22 9 24 1 26 5 28
REMARK Flexibility Score: inf
ROOT
ATOM      1  C   UNL     1     -25.168 -19.347 -13.614  1.00  0.00     0.402 A 
ATOM      2  O   UNL     1     -24.823 -20.371 -14.390  1.00  0.00    -0.202 OA
ATOM      3  C   UNL     1     -25.242 -21.616 -14.185  1.00  0.00     0.368 A 
ATOM      4  C   UNL     1     -24.823 -22.626 -15.054  1.00  0.00     0.162 A 
ATOM      5  C   UNL     1     -25.244 -23.943 -14.860  1.00  0.00     0.128 A 
ATOM      6  C   UNL     1     -26.089 -24.253 -13.790  1.00  0.00     0.093 A 
ATOM      7  C   UNL     1     -26.523 -23.258 -12.905  1.00  0.00     0.136 A 
ATOM      8  C   UNL     1     -26.099 -21.918 -13.099  1.00  0.00     0.125 A 
ATOM      9  C   UNL     1     -26.494 -20.856 -12.271  1.00  0.00     0.078 A 
ATOM     10  C   UNL     1     -26.038 -19.560 -12.529  1.00  0.00     0.223 A 
ENDROOT
BRANCH   1  11
ATOM     11  C   UNL     1     -24.628 -18.008 -13.941  1.00  0.00     0.091 A 
ATOM     12  C   UNL     1     -25.447 -16.999 -14.477  1.00  0.00     0.068 A 
ATOM     13  C   UNL     1     -24.923 -15.730 -14.759  1.00  0.00     0.162 A 
ATOM     14  C   UNL     1     -23.284 -17.718 -13.658  1.00  0.00     0.068 A 
ATOM     15  C   UNL     1     -23.570 -15.456 -14.493  1.00  0.00     0.200 A 
ATOM     16  C   UNL     1     -22.754 -16.451 -13.939  1.00  0.00     0.162 A 
BRANCH  13  17
ATOM     17  O   UNL     1     -25.742 -14.739 -15.297  1.00  0.00    -0.504 OA
ATOM     18  H   UNL     1     -25.472 -14.219 -16.125  1.00  0.00     0.293 HD
ENDBRANCH  13  17
BRANCH  15  19
ATOM     19  O   UNL     1     -23.024 -14.202 -14.769  1.00  0.00    -0.502 OA
ATOM     20  H   UNL     1     -22.704 -13.947 -15.696  1.00  0.00     0.293 HD
ENDBRANCH  15  19
BRANCH  16  21
ATOM     21  O   UNL     1     -21.415 -16.172 -13.670  1.00  0.00    -0.504 OA
ATOM     22  H   UNL     1     -20.855 -16.778 -13.080  1.00  0.00     0.293 HD
ENDBRANCH  16  21
ENDBRANCH   1  11
BRANCH  10  23
ATOM     23  O   UNL     1     -26.470 -18.495 -11.736  1.00  0.00    -0.500 OA
ATOM     24  H   UNL     1     -26.515 -18.567 -10.727  1.00  0.00     0.294 HD
ENDBRANCH  10  23
BRANCH   5  25
ATOM     25  O   UNL     1     -24.815 -24.936 -15.739  1.00  0.00    -0.507 OA
ATOM     26  H   UNL     1     -24.131 -24.743 -16.463  1.00  0.00     0.293 HD
ENDBRANCH   5  25
BRANCH   7  27
ATOM     27  O   UNL     1     -27.364 -23.650 -11.859  1.00  0.00    -0.507 OA
ATOM     28  H   UNL     1     -28.372 -23.618 -11.894  1.00  0.00     0.293 HD
ENDBRANCH   7  27
TORSDOF 7
ENDMDL
MODEL 3
REMARK VINA RESULT:    -7.149      1.468      2.461
REMARK INTER + INTRA:          -9.205
REMARK INTER:                  -9.313
REMARK INTRA:                   0.108
REMARK UNBOUND:                -0.384
REMARK SMILES Oc1cc(O)c2cc(O)c(-c3cc(O)c(O)c(O)c3)[o+]c2c1
REMARK SMILES IDX 10 1 20 2 21 3 22 4 2 5 3 6 4 7 6 8 7 9 8 10 11 11 12 12
REMARK SMILES IDX 13 13 19 14 15 15 17 16 14 17 16 19 18 21 9 23 1 25 5 27
REMARK H PARENT 14 18 16 20 18 22 9 24 1 26 5 28
REMARK Flexibility Score: inf
ROOT
ATOM      1  C   UNL     1     -24.080 -19.425 -13.470  1.00  0.00     0.402 A 
ATOM      2  O   UNL     1     -25.293 -19.868 -13.147  1.00  0.00    -0.202 OA
ATOM      3  C   UNL     1     -25.554 -21.140 -12.861  1.00  0.00     0.368 A 
ATOM      4  C   UNL     1     -26.862 -21.508 -12.537  1.00  0.00     0.162 A 
ATOM      5  C   UNL     1     -27.166 -22.837 -12.236  1.00  0.00     0.128 A 
ATOM      6  C   UNL     1     -26.156 -23.805 -12.260  1.00  0.00     0.093 A 
ATOM      7  C   UNL     1     -24.838 -23.460 -12.583  1.00  0.00     0.136 A 
ATOM      8  C   UNL     1     -24.524 -22.110 -12.887  1.00  0.00     0.125 A 
ATOM      9  C   UNL     1     -23.229 -21.672 -13.209  1.00  0.00     0.078 A 
ATOM     10  C   UNL     1     -22.997 -20.323 -13.492  1.00  0.00     0.223 A 
ENDROOT
BRANCH   1  11
ATOM     11  C   UNL     1     -23.919 -17.986 -13.776  1.00  0.00     0.091 A 
ATOM     12  C   UNL     1     -22.780 -17.273 -13.362  1.00  0.00     0.068 A 
ATOM     13  C   UNL     1     -22.634 -15.916 -13.682  1.00  0.00     0.162 A 
ATOM     14  C   UNL     1     -24.892 -17.331 -14.545  1.00  0.00     0.068 A 
ATOM     15  C   UNL     1     -23.626 -15.263 -14.433  1.00  0.00     0.200 A 
ATOM     16  C   UNL     1     -24.752 -15.974 -14.867  1.00  0.00     0.162 A 
BRANCH  13  17
ATOM     17  O   UNL     1     -21.505 -15.215 -13.260  1.00  0.00    -0.504 OA
ATOM     18  H   UNL     1     -20.701 -15.692 -12.868  1.00  0.00     0.293 HD
ENDBRANCH  13  17
BRANCH  15  19
ATOM     19  O   UNL     1     -23.506 -13.912 -14.760  1.00  0.00    -0.502 OA
ATOM     20  H   UNL     1     -23.633 -13.574 -15.707  1.00  0.00     0.293 HD
ENDBRANCH  15  19
BRANCH  16  21
ATOM     21  O   UNL     1     -25.730 -15.324 -15.619  1.00  0.00    -0.504 OA
ATOM     22  H   UNL     1     -25.710 -14.319 -15.759  1.00  0.00     0.293 HD
ENDBRANCH  16  21
ENDBRANCH   1  11
BRANCH  10  23
ATOM     23  O   UNL     1     -21.702 -19.878 -13.763  1.00  0.00    -0.500 OA
ATOM     24  H   UNL     1     -20.957 -19.963 -13.082  1.00  0.00     0.294 HD
ENDBRANCH  10  23
BRANCH   5  25
ATOM     25  O   UNL     1     -28.476 -23.185 -11.914  1.00  0.00    -0.507 OA
ATOM     26  H   UNL     1     -28.843 -23.055 -10.977  1.00  0.00     0.293 HD
ENDBRANCH   5  25
BRANCH   7  27
ATOM     27  O   UNL     1     -23.888 -24.486 -12.589  1.00  0.00    -0.507 OA
ATOM     28  H   UNL     1     -23.026 -24.463 -13.115  1.00  0.00     0.293 HD
ENDBRANCH   7  27
TORSDOF 7
ENDMDL
MODEL 4
REMARK VINA RESULT:    -7.118      1.921      2.487
REMARK INTER + INTRA:          -9.167
REMARK INTER:                  -9.534
REMARK INTRA:                   0.366
REMARK UNBOUND:                -0.384
REMARK SMILES Oc1cc(O)c2cc(O)c(-c3cc(O)c(O)c(O)c3)[o+]c2c1
REMARK SMILES IDX 10 1 20 2 21 3 22 4 2 5 3 6 4 7 6 8 7 9 8 10 11 11 12 12
REMARK SMILES IDX 13 13 19 14 15 15 17 16 14 17 16 19 18 21 9 23 1 25 5 27
REMARK H PARENT 14 18 16 20 18 22 9 24 1 26 5 28
REMARK Flexibility Score: inf
ROOT
ATOM      1  C   UNL     1     -24.111 -20.544 -13.985  1.00  0.00     0.402 A 
ATOM      2  O   UNL     1     -25.198 -21.208 -14.371  1.00  0.00    -0.202 OA
ATOM      3  C   UNL     1     -25.287 -22.534 -14.354  1.00  0.00     0.368 A 
ATOM      4  C   UNL     1     -26.470 -23.141 -14.782  1.00  0.00     0.162 A 
ATOM      5  C   UNL     1     -26.591 -24.531 -14.779  1.00  0.00     0.128 A 
ATOM      6  C   UNL     1     -25.522 -25.322 -14.346  1.00  0.00     0.093 A 
ATOM      7  C   UNL     1     -24.325 -24.738 -13.913  1.00  0.00     0.136 A 
ATOM      8  C   UNL     1     -24.199 -23.325 -13.912  1.00  0.00     0.125 A 
ATOM      9  C   UNL     1     -23.043 -22.653 -13.483  1.00  0.00     0.078 A 
ATOM     10  C   UNL     1     -22.995 -21.256 -13.507  1.00  0.00     0.223 A 
ENDROOT
BRANCH   1  11
ATOM     11  C   UNL     1     -24.131 -19.066 -14.059  1.00  0.00     0.091 A 
ATOM     12  C   UNL     1     -22.972 -18.306 -13.824  1.00  0.00     0.068 A 
ATOM     13  C   UNL     1     -23.005 -16.907 -13.921  1.00  0.00     0.162 A 
ATOM     14  C   UNL     1     -25.315 -18.409 -14.427  1.00  0.00     0.068 A 
ATOM     15  C   UNL     1     -24.202 -16.257 -14.268  1.00  0.00     0.200 A 
ATOM     16  C   UNL     1     -25.355 -17.011 -14.524  1.00  0.00     0.162 A 
BRANCH  13  17
ATOM     17  O   UNL     1     -21.852 -16.162 -13.678  1.00  0.00    -0.504 OA
ATOM     18  H   UNL     1     -21.896 -15.238 -13.264  1.00  0.00     0.293 HD
ENDBRANCH  13  17
BRANCH  15  19
ATOM     19  O   UNL     1     -24.261 -14.867 -14.366  1.00  0.00    -0.502 OA
ATOM     20  H   UNL     1     -24.729 -14.402 -15.135  1.00  0.00     0.293 HD
ENDBRANCH  15  19
BRANCH  16  21
ATOM     21  O   UNL     1     -26.537 -16.363 -14.876  1.00  0.00    -0.504 OA
ATOM     22  H   UNL     1     -27.254 -16.157 -14.189  1.00  0.00     0.293 HD
ENDBRANCH  16  21
ENDBRANCH   1  11
BRANCH  10  23
ATOM     23  O   UNL     1     -21.866 -20.586 -13.034  1.00  0.00    -0.500 OA
ATOM     24  H   UNL     1     -21.907 -19.620 -12.735  1.00  0.00     0.294 HD
ENDBRANCH  10  23
BRANCH   5  25
ATOM     25  O   UNL     1     -27.780 -25.117 -15.209  1.00  0.00    -0.507 OA
ATOM     26  H   UNL     1     -28.340 -25.694 -14.591  1.00  0.00     0.293 HD
ENDBRANCH   5  25
BRANCH   7  27
ATOM     27  O   UNL     1     -23.303 -25.597 -13.499  1.00  0.00    -0.507 OA
ATOM     28  H   UNL     1     -23.450 -26.531 -13.144  1.00  0.00     0.293 HD
ENDBRANCH   7  27
TORSDOF 7
ENDMDL
MODEL 5
REMARK VINA RESULT:    -7.040      1.854      7.315
REMARK INTER + INTRA:          -9.071
REMARK INTER:                  -9.262
REMARK INTRA:                   0.192
REMARK UNBOUND:                -0.384
REMARK SMILES Oc1cc(O)c2cc(O)c(-c3cc(O)c(O)c(O)c3)[o+]c2c1
REMARK SMILES IDX 10 1 20 2 21 3 22 4 2 5 3 6 4 7 6 8 7 9 8 10 11 11 12 12
REMARK SMILES IDX 13 13 19 14 15 15 17 16 14 17 16 19 18 21 9 23 1 25 5 27
REMARK H PARENT 14 18 16 20 18 22 9 24 1 26 5 28
REMARK Flexibility Score: inf
ROOT
ATOM      1  C   UNL     1     -24.329 -18.688 -13.703  1.00  0.00     0.402 A 
ATOM      2  O   UNL     1     -23.192 -18.034 -13.480  1.00  0.00    -0.202 OA
ATOM      3  C   UNL     1     -23.000 -16.764 -13.825  1.00  0.00     0.368 A 
ATOM      4  C   UNL     1     -21.769 -16.165 -13.552  1.00  0.00     0.162 A 
ATOM      5  C   UNL     1     -21.538 -14.834 -13.906  1.00  0.00     0.128 A 
ATOM      6  C   UNL     1     -22.545 -14.098 -14.539  1.00  0.00     0.093 A 
ATOM      7  C   UNL     1     -23.788 -14.677 -14.824  1.00  0.00     0.136 A 
ATOM      8  C   UNL     1     -24.028 -16.028 -14.463  1.00  0.00     0.125 A 
ATOM      9  C   UNL     1     -25.246 -16.686 -14.697  1.00  0.00     0.078 A 
ATOM     10  C   UNL     1     -25.408 -18.019 -14.309  1.00  0.00     0.223 A 
ENDROOT
BRANCH   1  11
ATOM     11  C   UNL     1     -24.416 -20.104 -13.280  1.00  0.00     0.091 A 
ATOM     12  C   UNL     1     -25.633 -20.667 -12.856  1.00  0.00     0.068 A 
ATOM     13  C   UNL     1     -25.700 -22.017 -12.482  1.00  0.00     0.162 A 
ATOM     14  C   UNL     1     -23.276 -20.919 -13.357  1.00  0.00     0.068 A 
ATOM     15  C   UNL     1     -24.548 -22.819 -12.540  1.00  0.00     0.200 A 
ATOM     16  C   UNL     1     -23.338 -22.268 -12.982  1.00  0.00     0.162 A 
BRANCH  13  17
ATOM     17  O   UNL     1     -26.909 -22.565 -12.056  1.00  0.00    -0.504 OA
ATOM     18  H   UNL     1     -27.168 -22.584 -11.076  1.00  0.00     0.293 HD
ENDBRANCH  13  17
BRANCH  15  19
ATOM     19  O   UNL     1     -24.589 -24.163 -12.169  1.00  0.00    -0.502 OA
ATOM     20  H   UNL     1     -24.169 -24.891 -12.734  1.00  0.00     0.293 HD
ENDBRANCH  15  19
BRANCH  16  21
ATOM     21  O   UNL     1     -22.199 -23.069 -13.046  1.00  0.00    -0.504 OA
ATOM     22  H   UNL     1     -22.200 -24.021 -12.695  1.00  0.00     0.293 HD
ENDBRANCH  16  21
ENDBRANCH   1  11
BRANCH  10  23
ATOM     23  O   UNL     1     -26.634 -18.658 -14.496  1.00  0.00    -0.500 OA
ATOM     24  H   UNL     1     -27.500 -18.137 -14.567  1.00  0.00     0.294 HD
ENDBRANCH  10  23
BRANCH   5  25
ATOM     25  O   UNL     1     -20.303 -14.254 -13.625  1.00  0.00    -0.507 OA
ATOM     26  H   UNL     1     -20.176 -13.247 -13.635  1.00  0.00     0.293 HD
ENDBRANCH   5  25
BRANCH   7  27
ATOM     27  O   UNL     1     -24.741 -13.875 -15.461  1.00  0.00    -0.507 OA
ATOM     28  H   UNL     1     -24.520 -13.114 -16.086  1.00  0.00     0.293 HD
ENDBRANCH   7  27
TORSDOF 7
ENDMDL
MODEL 6
REMARK VINA RESULT:    -7.012      1.277      7.272
REMARK INTER + INTRA:          -9.036
REMARK INTER:                  -8.870
REMARK INTRA:                  -0.166
REMARK UNBOUND:                -0.384
REMARK SMILES Oc1cc(O)c2cc(O)c(-c3cc(O)c(O)c(O)c3)[o+]c2c1
REMARK SMILES IDX 10 1 20 2 21 3 22 4 2 5 3 6 4 7 6 8 7 9 8 10 11 11 12 12
REMARK SMILES IDX 13 13 19 14 15 15 17 16 14 17 16 19 18 21 9 23 1 25 5 27
REMARK H PARENT 14 18 16 20 18 22 9 24 1 26 5 28
REMARK Flexibility Score: inf
ROOT
ATOM      1  C   UNL     1     -24.499 -19.921 -14.065  1.00  0.00     0.402 A 
ATOM      2  O   UNL     1     -25.232 -18.864 -14.404  1.00  0.00    -0.202 OA
ATOM      3  C   UNL     1     -24.774 -17.616 -14.371  1.00  0.00     0.368 A 
ATOM      4  C   UNL     1     -25.622 -16.571 -14.743  1.00  0.00     0.162 A 
ATOM      5  C   UNL     1     -25.169 -15.251 -14.714  1.00  0.00     0.128 A 
ATOM      6  C   UNL     1     -23.859 -14.973 -14.309  1.00  0.00     0.093 A 
ATOM      7  C   UNL     1     -22.990 -16.004 -13.931  1.00  0.00     0.136 A 
ATOM      8  C   UNL     1     -23.446 -17.347 -13.962  1.00  0.00     0.125 A 
ATOM      9  C   UNL     1     -22.641 -18.444 -13.612  1.00  0.00     0.078 A 
ATOM     10  C   UNL     1     -23.160 -19.740 -13.672  1.00  0.00     0.223 A 
ENDROOT
BRANCH   1  11
ATOM     11  C   UNL     1     -25.126 -21.260 -14.135  1.00  0.00     0.091 A 
ATOM     12  C   UNL     1     -26.269 -21.573 -13.379  1.00  0.00     0.068 A 
ATOM     13  C   UNL     1     -26.863 -22.840 -13.477  1.00  0.00     0.162 A 
ATOM     14  C   UNL     1     -24.606 -22.220 -15.016  1.00  0.00     0.068 A 
ATOM     15  C   UNL     1     -26.321 -23.803 -14.345  1.00  0.00     0.200 A 
ATOM     16  C   UNL     1     -25.194 -23.488 -15.117  1.00  0.00     0.162 A 
BRANCH  13  17
ATOM     17  O   UNL     1     -27.992 -23.144 -12.718  1.00  0.00    -0.504 OA
ATOM     18  H   UNL     1     -28.331 -22.517 -11.996  1.00  0.00     0.293 HD
ENDBRANCH  13  17
BRANCH  15  19
ATOM     19  O   UNL     1     -26.890 -25.071 -14.456  1.00  0.00    -0.502 OA
ATOM     20  H   UNL     1     -27.882 -25.229 -14.319  1.00  0.00     0.293 HD
ENDBRANCH  15  19
BRANCH  16  21
ATOM     21  O   UNL     1     -24.665 -24.444 -15.982  1.00  0.00    -0.504 OA
ATOM     22  H   UNL     1     -25.260 -25.097 -16.480  1.00  0.00     0.293 HD
ENDBRANCH  16  21
ENDBRANCH   1  11
BRANCH  10  23
ATOM     23  O   UNL     1     -22.346 -20.834 -13.373  1.00  0.00    -0.500 OA
ATOM     24  H   UNL     1     -22.281 -21.633 -13.991  1.00  0.00     0.294 HD
ENDBRANCH  10  23
BRANCH   5  25
ATOM     25  O   UNL     1     -26.031 -14.222 -15.090  1.00  0.00    -0.507 OA
ATOM     26  H   UNL     1     -25.718 -13.258 -15.129  1.00  0.00     0.293 HD
ENDBRANCH   5  25
BRANCH   7  27
ATOM     27  O   UNL     1     -21.698 -15.643 -13.536  1.00  0.00    -0.507 OA
ATOM     28  H   UNL     1     -21.098 -16.214 -12.959  1.00  0.00     0.293 HD
ENDBRANCH   7  27
TORSDOF 7
ENDMDL
MODEL 7
REMARK VINA RESULT:    -6.940      1.881      7.166
REMARK INTER + INTRA:          -8.948
REMARK INTER:                  -9.164
REMARK INTRA:                   0.216
REMARK UNBOUND:                -0.384
REMARK SMILES Oc1cc(O)c2cc(O)c(-c3cc(O)c(O)c(O)c3)[o+]c2c1
REMARK SMILES IDX 10 1 20 2 21 3 22 4 2 5 3 6 4 7 6 8 7 9 8 10 11 11 12 12
REMARK SMILES IDX 13 13 19 14 15 15 17 16 14 17 16 19 18 21 9 23 1 25 5 27
REMARK H PARENT 14 18 16 20 18 22 9 24 1 26 5 28
REMARK Flexibility Score: inf
ROOT
ATOM      1  C   UNL     1     -24.287 -18.724 -13.768  1.00  0.00     0.402 A 
ATOM      2  O   UNL     1     -23.163 -18.046 -13.550  1.00  0.00    -0.202 OA
ATOM      3  C   UNL     1     -23.013 -16.762 -13.862  1.00  0.00     0.368 A 
ATOM      4  C   UNL     1     -21.793 -16.137 -13.597  1.00  0.00     0.162 A 
ATOM      5  C   UNL     1     -21.605 -14.791 -13.917  1.00  0.00     0.128 A 
ATOM      6  C   UNL     1     -22.645 -14.065 -14.507  1.00  0.00     0.093 A 
ATOM      7  C   UNL     1     -23.878 -14.669 -14.782  1.00  0.00     0.136 A 
ATOM      8  C   UNL     1     -24.073 -16.036 -14.457  1.00  0.00     0.125 A 
ATOM      9  C   UNL     1     -25.278 -16.720 -14.685  1.00  0.00     0.078 A 
ATOM     10  C   UNL     1     -25.397 -18.067 -14.333  1.00  0.00     0.223 A 
ENDROOT
BRANCH   1  11
ATOM     11  C   UNL     1     -24.328 -20.153 -13.385  1.00  0.00     0.091 A 
ATOM     12  C   UNL     1     -23.176 -20.957 -13.433  1.00  0.00     0.068 A 
ATOM     13  C   UNL     1     -23.230 -22.303 -13.045  1.00  0.00     0.162 A 
ATOM     14  C   UNL     1     -25.527 -20.706 -12.909  1.00  0.00     0.068 A 
ATOM     15  C   UNL     1     -24.440 -22.854 -12.591  1.00  0.00     0.200 A 
ATOM     16  C   UNL     1     -25.587 -22.051 -12.521  1.00  0.00     0.162 A 
BRANCH  13  17
ATOM     17  O   UNL     1     -22.083 -23.094 -13.103  1.00  0.00    -0.504 OA
ATOM     18  H   UNL     1     -21.652 -23.340 -13.987  1.00  0.00     0.293 HD
ENDBRANCH  13  17
BRANCH  15  19
ATOM     19  O   UNL     1     -24.520 -24.191 -12.203  1.00  0.00    -0.502 OA
ATOM     20  H   UNL     1     -25.119 -24.497 -11.445  1.00  0.00     0.293 HD
ENDBRANCH  15  19
BRANCH  16  21
ATOM     21  O   UNL     1     -26.784 -22.600 -12.063  1.00  0.00    -0.504 OA
ATOM     22  H   UNL     1     -27.447 -23.031 -12.698  1.00  0.00     0.293 HD
ENDBRANCH  16  21
ENDBRANCH   1  11
BRANCH  10  23
ATOM     23  O   UNL     1     -26.609 -18.733 -14.513  1.00  0.00    -0.500 OA
ATOM     24  H   UNL     1     -26.704 -19.725 -14.328  1.00  0.00     0.294 HD
ENDBRANCH  10  23
BRANCH   5  25
ATOM     25  O   UNL     1     -20.380 -14.186 -13.644  1.00  0.00    -0.507 OA
ATOM     26  H   UNL     1     -19.508 -14.697 -13.723  1.00  0.00     0.293 HD
ENDBRANCH   5  25
BRANCH   7  27
ATOM     27  O   UNL     1     -24.864 -13.876 -15.377  1.00  0.00    -0.507 OA
ATOM     28  H   UNL     1     -25.084 -13.881 -16.362  1.00  0.00     0.293 HD
ENDBRANCH   7  27
TORSDOF 7
ENDMDL
MODEL 8
REMARK VINA RESULT:    -6.895      1.305      7.221
REMARK INTER + INTRA:          -8.892
REMARK INTER:                  -8.710
REMARK INTRA:                  -0.182
REMARK UNBOUND:                -0.384
REMARK SMILES Oc1cc(O)c2cc(O)c(-c3cc(O)c(O)c(O)c3)[o+]c2c1
REMARK SMILES IDX 10 1 20 2 21 3 22 4 2 5 3 6 4 7 6 8 7 9 8 10 11 11 12 12
REMARK SMILES IDX 13 13 19 14 15 15 17 16 14 17 16 19 18 21 9 23 1 25 5 27
REMARK H PARENT 14 18 16 20 18 22 9 24 1 26 5 28
REMARK Flexibility Score: inf
ROOT
ATOM      1  C   UNL     1     -24.509 -19.964 -14.096  1.00  0.00     0.402 A 
ATOM      2  O   UNL     1     -25.218 -18.894 -14.445  1.00  0.00    -0.202 OA
ATOM      3  C   UNL     1     -24.755 -17.650 -14.353  1.00  0.00     0.368 A 
ATOM      4  C   UNL     1     -25.576 -16.589 -14.741  1.00  0.00     0.162 A 
ATOM      5  C   UNL     1     -25.118 -15.274 -14.652  1.00  0.00     0.128 A 
ATOM      6  C   UNL     1     -23.830 -15.016 -14.171  1.00  0.00     0.093 A 
ATOM      7  C   UNL     1     -22.988 -16.063 -13.776  1.00  0.00     0.136 A 
ATOM      8  C   UNL     1     -23.449 -17.402 -13.867  1.00  0.00     0.125 A 
ATOM      9  C   UNL     1     -22.670 -18.513 -13.506  1.00  0.00     0.078 A 
ATOM     10  C   UNL     1     -23.192 -19.804 -13.628  1.00  0.00     0.223 A 
ENDROOT
BRANCH   1  11
ATOM     11  C   UNL     1     -25.139 -21.296 -14.236  1.00  0.00     0.091 A 
ATOM     12  C   UNL     1     -24.599 -22.276 -15.087  1.00  0.00     0.068 A 
ATOM     13  C   UNL     1     -25.197 -23.540 -15.189  1.00  0.00     0.162 A 
ATOM     14  C   UNL     1     -26.266 -21.612 -13.462  1.00  0.00     0.068 A 
ATOM     15  C   UNL     1     -26.339 -23.838 -14.427  1.00  0.00     0.200 A 
ATOM     16  C   UNL     1     -26.869 -22.873 -13.561  1.00  0.00     0.162 A 
BRANCH  13  17
ATOM     17  O   UNL     1     -24.657 -24.503 -16.042  1.00  0.00    -0.504 OA
ATOM     18  H   UNL     1     -24.633 -25.484 -15.787  1.00  0.00     0.293 HD
ENDBRANCH  13  17
BRANCH  15  19
ATOM     19  O   UNL     1     -26.954 -25.087 -14.514  1.00  0.00    -0.502 OA
ATOM     20  H   UNL     1     -27.131 -25.539 -15.404  1.00  0.00     0.293 HD
ENDBRANCH  15  19
BRANCH  16  21
ATOM     21  O   UNL     1     -27.997 -23.176 -12.800  1.00  0.00    -0.504 OA
ATOM     22  H   UNL     1     -27.982 -23.905 -12.095  1.00  0.00     0.293 HD
ENDBRANCH  16  21
ENDBRANCH   1  11
BRANCH  10  23
ATOM     23  O   UNL     1     -22.401 -20.910 -13.317  1.00  0.00    -0.500 OA
ATOM     24  H   UNL     1     -22.721 -21.631 -12.681  1.00  0.00     0.294 HD
ENDBRANCH  10  23
BRANCH   5  25
ATOM     25  O   UNL     1     -25.953 -14.229 -15.045  1.00  0.00    -0.507 OA
ATOM     26  H   UNL     1     -26.958 -14.349 -15.106  1.00  0.00     0.293 HD
ENDBRANCH   5  25
BRANCH   7  27
ATOM     27  O   UNL     1     -21.717 -15.722 -13.303  1.00  0.00    -0.507 OA
ATOM     28  H   UNL     1     -21.205 -14.899 -13.584  1.00  0.00     0.293 HD
ENDBRANCH   7  27
TORSDOF 7
ENDMDL
MODEL 9
REMARK VINA RESULT:    -6.095      1.831      7.420
REMARK INTER + INTRA:          -7.904
REMARK INTER:                  -8.319
REMARK INTRA:                   0.414
REMARK UNBOUND:                -0.384
REMARK SMILES Oc1cc(O)c2cc(O)c(-c3cc(O)c(O)c(O)c3)[o+]c2c1
REMARK SMILES IDX 10 1 20 2 21 3 22 4 2 5 3 6 4 7 6 8 7 9 8 10 11 11 12 12
REMARK SMILES IDX 13 13 19 14 15 15 17 16 14 17 16 19 18 21 9 23 1 25 5 27
REMARK H PARENT 14 18 16 20 18 22 9 24 1 26 5 28
REMARK Flexibility Score: inf
ROOT
ATOM      1  C   UNL     1     -24.182 -20.554 -14.070  1.00  0.00     0.402 A 
ATOM      2  O   UNL     1     -25.007 -19.564 -14.399  1.00  0.00    -0.202 OA
ATOM      3  C   UNL     1     -24.667 -18.280 -14.341  1.00  0.00     0.368 A 
ATOM      4  C   UNL     1     -25.605 -17.312 -14.705  1.00  0.00     0.162 A 
ATOM      5  C   UNL     1     -25.277 -15.956 -14.651  1.00  0.00     0.128 A 
ATOM      6  C   UNL     1     -24.002 -15.565 -14.229  1.00  0.00     0.093 A 
ATOM      7  C   UNL     1     -23.044 -16.517 -13.858  1.00  0.00     0.136 A 
ATOM      8  C   UNL     1     -23.373 -17.896 -13.914  1.00  0.00     0.125 A 
ATOM      9  C   UNL     1     -22.473 -18.919 -13.574  1.00  0.00     0.078 A 
ATOM     10  C   UNL     1     -22.868 -20.256 -13.659  1.00  0.00     0.223 A 
ENDROOT
BRANCH   1  11
ATOM     11  C   UNL     1     -24.681 -21.944 -14.168  1.00  0.00     0.091 A 
ATOM     12  C   UNL     1     -25.853 -22.252 -14.880  1.00  0.00     0.068 A 
ATOM     13  C   UNL     1     -26.297 -23.578 -14.981  1.00  0.00     0.162 A 
ATOM     14  C   UNL     1     -23.941 -22.986 -13.588  1.00  0.00     0.068 A 
ATOM     15  C   UNL     1     -25.562 -24.612 -14.377  1.00  0.00     0.200 A 
ATOM     16  C   UNL     1     -24.381 -24.313 -13.684  1.00  0.00     0.162 A 
BRANCH  13  17
ATOM     17  O   UNL     1     -27.465 -23.873 -15.683  1.00  0.00    -0.504 OA
ATOM     18  H   UNL     1     -28.381 -23.669 -15.299  1.00  0.00     0.293 HD
ENDBRANCH  13  17
BRANCH  15  19
ATOM     19  O   UNL     1     -25.986 -25.938 -14.460  1.00  0.00    -0.502 OA
ATOM     20  H   UNL     1     -26.273 -26.463 -13.642  1.00  0.00     0.293 HD
ENDBRANCH  15  19
BRANCH  16  21
ATOM     21  O   UNL     1     -23.650 -25.342 -13.094  1.00  0.00    -0.504 OA
ATOM     22  H   UNL     1     -23.106 -25.191 -12.251  1.00  0.00     0.293 HD
ENDBRANCH  16  21
ENDBRANCH   1  11
BRANCH  10  23
ATOM     23  O   UNL     1     -21.959 -21.275 -13.370  1.00  0.00    -0.500 OA
ATOM     24  H   UNL     1     -21.258 -21.173 -12.647  1.00  0.00     0.294 HD
ENDBRANCH  10  23
BRANCH   5  25
ATOM     25  O   UNL     1     -26.227 -15.005 -15.019  1.00  0.00    -0.507 OA
ATOM     26  H   UNL     1     -26.084 -14.017 -14.840  1.00  0.00     0.293 HD
ENDBRANCH   5  25
BRANCH   7  27
ATOM     27  O   UNL     1     -21.795 -16.044 -13.443  1.00  0.00    -0.507 OA
ATOM     28  H   UNL     1     -21.463 -16.070 -12.491  1.00  0.00     0.293 HD
ENDBRANCH   7  27
TORSDOF 7
ENDMDL
