MODEL 1
REMARK VINA RESULT:    -3.667      0.000      0.000
REMARK INTER + INTRA:          -7.437
REMARK INTER:                  -5.810
REMARK INTRA:                  -1.626
REMARK UNBOUND:                -1.626
REMARK SMILES CCCCCCCCCCCC(=O)[O-]
REMARK SMILES IDX 7 1 8 2 9 3 10 4 11 5 12 6 13 7 14 8 6 9 5 10 4 11 3 12 2 13
REMARK SMILES IDX 1 14
REMARK H PARENT
REMARK Flexibility Score: inf
ROOT
ATOM      1  C   UNL     1      -1.266   1.323 -11.395  1.00  0.00     0.000 C 
ENDROOT
BRANCH   1   2
ATOM      2  C   UNL     1      -1.741   2.671 -11.969  1.00  0.00     0.000 C 
BRANCH   2   3
ATOM      3  C   UNL     1      -3.074   3.141 -11.369  1.00  0.00     0.000 C 
BRANCH   3   4
ATOM      4  C   UNL     1      -3.739   2.016 -10.561  1.00  0.00     0.006 C 
BRANCH   4   5
ATOM      5  C   UNL     1      -4.331   2.522  -9.239  1.00  0.00     0.053 C 
BRANCH   5   6
ATOM      6  C   UNL     1      -5.802   2.256  -9.150  1.00  0.00     0.041 C 
ATOM      7  O   UNL     1      -6.482   2.764  -8.219  1.00  0.00    -0.550 OA
ATOM      8  O   UNL     1      -6.429   1.476 -10.113  1.00  0.00    -0.550 OA
ENDBRANCH   5   6
ENDBRANCH   4   5
ENDBRANCH   3   4
ENDBRANCH   2   3
ENDBRANCH   1   2
BRANCH   1   9
ATOM      9  C   UNL     1       0.226   1.266 -11.017  1.00  0.00     0.000 C 
BRANCH   9  10
ATOM     10  C   UNL     1       0.599   2.253  -9.901  1.00  0.00    -0.000 C 
BRANCH  10  11
ATOM     11  C   UNL     1      -0.106   1.886  -8.586  1.00  0.00    -0.000 C 
BRANCH  11  12
ATOM     12  C   UNL     1      -0.852   3.075  -7.962  1.00  0.00    -0.000 C 
BRANCH  12  13
ATOM     13  C   UNL     1      -0.742   4.352  -8.808  1.00  0.00    -0.003 C 
ATOM     14  C   UNL     1      -1.902   5.301  -8.523  1.00  0.00     0.004 C 
ENDBRANCH  12  13
ENDBRANCH  11  12
ENDBRANCH  10  11
ENDBRANCH   9  10
ENDBRANCH   1   9
TORSDOF 10
ENDMDL
MODEL 2
REMARK VINA RESULT:    -3.641      1.043      3.184
REMARK INTER + INTRA:          -7.396
REMARK INTER:                  -6.150
REMARK INTRA:                  -1.246
REMARK UNBOUND:                -1.626
REMARK SMILES CCCCCCCCCCCC(=O)[O-]
REMARK SMILES IDX 7 1 8 2 9 3 10 4 11 5 12 6 13 7 14 8 6 9 5 10 4 11 3 12 2 13
REMARK SMILES IDX 1 14
REMARK H PARENT
REMARK Flexibility Score: inf
ROOT
ATOM      1  C   UNL     1      -2.603   6.216  -9.211  1.00  0.00     0.000 C 
ENDROOT
BRANCH   1   2
ATOM      2  C   UNL     1      -3.849   5.312  -9.167  1.00  0.00     0.000 C 
BRANCH   2   3
ATOM      3  C   UNL     1      -4.188   4.694 -10.531  1.00  0.00     0.000 C 
BRANCH   3   4
ATOM      4  C   UNL     1      -3.840   3.197 -10.557  1.00  0.00     0.006 C 
BRANCH   4   5
ATOM      5  C   UNL     1      -4.221   2.490  -9.250  1.00  0.00     0.053 C 
BRANCH   5   6
ATOM      6  C   UNL     1      -5.691   2.215  -9.174  1.00  0.00     0.041 C 
ATOM      7  O   UNL     1      -6.241   1.466 -10.023  1.00  0.00    -0.550 OA
ATOM      8  O   UNL     1      -6.449   2.759  -8.145  1.00  0.00    -0.550 OA
ENDBRANCH   5   6
ENDBRANCH   4   5
ENDBRANCH   3   4
ENDBRANCH   2   3
ENDBRANCH   1   2
BRANCH   1   9
ATOM      9  C   UNL     1      -1.426   5.744  -8.337  1.00  0.00     0.000 C 
BRANCH   9  10
ATOM     10  C   UNL     1      -0.691   4.531  -8.925  1.00  0.00    -0.000 C 
BRANCH  10  11
ATOM     11  C   UNL     1      -0.839   3.304  -8.013  1.00  0.00    -0.000 C 
BRANCH  11  12
ATOM     12  C   UNL     1      -0.232   2.033  -8.626  1.00  0.00    -0.000 C 
BRANCH  12  13
ATOM     13  C   UNL     1      -0.117   2.111 -10.155  1.00  0.00    -0.003 C 
ATOM     14  C   UNL     1       1.333   1.952 -10.605  1.00  0.00     0.004 C 
ENDBRANCH  12  13
ENDBRANCH  11  12
ENDBRANCH  10  11
ENDBRANCH   9  10
ENDBRANCH   1   9
TORSDOF 10
ENDMDL
MODEL 3
REMARK VINA RESULT:    -3.609      1.149      2.978
REMARK INTER + INTRA:          -7.346
REMARK INTER:                  -6.149
REMARK INTRA:                  -1.196
REMARK UNBOUND:                -1.626
REMARK SMILES CCCCCCCCCCCC(=O)[O-]
REMARK SMILES IDX 7 1 8 2 9 3 10 4 11 5 12 6 13 7 14 8 6 9 5 10 4 11 3 12 2 13
REMARK SMILES IDX 1 14
REMARK H PARENT
REMARK Flexibility Score: inf
ROOT
ATOM      1  C   UNL     1      -0.713   4.196  -8.504  1.00  0.00     0.000 C 
ENDROOT
BRANCH   1   2
ATOM      2  C   UNL     1      -2.037   4.974  -8.622  1.00  0.00     0.000 C 
BRANCH   2   3
ATOM      3  C   UNL     1      -3.244   4.064  -8.890  1.00  0.00     0.000 C 
BRANCH   3   4
ATOM      4  C   UNL     1      -4.472   4.889  -9.306  1.00  0.00     0.006 C 
BRANCH   4   5
ATOM      5  C   UNL     1      -5.611   4.009  -9.835  1.00  0.00     0.053 C 
BRANCH   5   6
ATOM      6  C   UNL     1      -6.033   2.981  -8.831  1.00  0.00     0.041 C 
ATOM      7  O   UNL     1      -6.658   3.327  -7.793  1.00  0.00    -0.550 OA
ATOM      8  O   UNL     1      -5.767   1.637  -9.056  1.00  0.00    -0.550 OA
ENDBRANCH   5   6
ENDBRANCH   4   5
ENDBRANCH   3   4
ENDBRANCH   2   3
ENDBRANCH   1   2
BRANCH   1   9
ATOM      9  C   UNL     1      -0.837   2.793  -7.882  1.00  0.00     0.000 C 
BRANCH   9  10
ATOM     10  C   UNL     1       0.142   1.779  -8.492  1.00  0.00    -0.000 C 
BRANCH  10  11
ATOM     11  C   UNL     1       0.500   2.163  -9.937  1.00  0.00    -0.000 C 
BRANCH  11  12
ATOM     12  C   UNL     1      -0.290   1.355 -10.977  1.00  0.00    -0.000 C 
BRANCH  12  13
ATOM     13  C   UNL     1      -1.352   2.197 -11.698  1.00  0.00    -0.003 C 
ATOM     14  C   UNL     1      -2.754   1.655 -11.436  1.00  0.00     0.004 C 
ENDBRANCH  12  13
ENDBRANCH  11  12
ENDBRANCH  10  11
ENDBRANCH   9  10
ENDBRANCH   1   9
TORSDOF 10
ENDMDL
MODEL 4
REMARK VINA RESULT:    -3.546      1.039      2.952
REMARK INTER + INTRA:          -7.246
REMARK INTER:                  -5.984
REMARK INTRA:                  -1.262
REMARK UNBOUND:                -1.626
REMARK SMILES CCCCCCCCCCCC(=O)[O-]
REMARK SMILES IDX 7 1 8 2 9 3 10 4 11 5 12 6 13 7 14 8 6 9 5 10 4 11 3 12 2 13
REMARK SMILES IDX 1 14
REMARK H PARENT
REMARK Flexibility Score: inf
ROOT
ATOM      1  C   UNL     1      -3.272   4.917  -8.924  1.00  0.00     0.000 C 
ENDROOT
BRANCH   1   2
ATOM      2  C   UNL     1      -3.512   4.793 -10.441  1.00  0.00     0.000 C 
BRANCH   2   3
ATOM      3  C   UNL     1      -3.948   3.383 -10.864  1.00  0.00     0.000 C 
BRANCH   3   4
ATOM      4  C   UNL     1      -4.174   2.487  -9.637  1.00  0.00     0.006 C 
BRANCH   4   5
ATOM      5  C   UNL     1      -5.589   1.895  -9.602  1.00  0.00     0.053 C 
BRANCH   5   6
ATOM      6  C   UNL     1      -6.604   2.905  -9.164  1.00  0.00     0.041 C 
ATOM      7  O   UNL     1      -7.590   3.174  -9.900  1.00  0.00    -0.550 OA
ATOM      8  O   UNL     1      -6.481   3.526  -7.927  1.00  0.00    -0.550 OA
ENDBRANCH   5   6
ENDBRANCH   4   5
ENDBRANCH   3   4
ENDBRANCH   2   3
ENDBRANCH   1   2
BRANCH   1   9
ATOM      9  C   UNL     1      -1.936   5.572  -8.529  1.00  0.00     0.000 C 
BRANCH   9  10
ATOM     10  C   UNL     1      -0.750   4.598  -8.588  1.00  0.00    -0.000 C 
BRANCH  10  11
ATOM     11  C   UNL     1      -1.137   3.228  -8.008  1.00  0.00    -0.000 C 
BRANCH  11  12
ATOM     12  C   UNL     1      -0.063   2.157  -8.254  1.00  0.00    -0.000 C 
BRANCH  12  13
ATOM     13  C   UNL     1       0.401   2.109  -9.717  1.00  0.00    -0.003 C 
ATOM     14  C   UNL     1      -0.692   1.551 -10.623  1.00  0.00     0.004 C 
ENDBRANCH  12  13
ENDBRANCH  11  12
ENDBRANCH  10  11
ENDBRANCH   9  10
ENDBRANCH   1   9
TORSDOF 10
ENDMDL
MODEL 5
REMARK VINA RESULT:    -3.491      2.752      5.086
REMARK INTER + INTRA:          -7.158
REMARK INTER:                  -5.890
REMARK INTRA:                  -1.267
REMARK UNBOUND:                -1.626
REMARK SMILES CCCCCCCCCCCC(=O)[O-]
REMARK SMILES IDX 7 1 8 2 9 3 10 4 11 5 12 6 13 7 14 8 6 9 5 10 4 11 3 12 2 13
REMARK SMILES IDX 1 14
REMARK H PARENT
REMARK Flexibility Score: inf
ROOT
ATOM      1  C   UNL     1      -3.520   5.015 -10.340  1.00  0.00     0.000 C 
ENDROOT
BRANCH   1   2
ATOM      2  C   UNL     1      -3.160   4.867  -8.850  1.00  0.00     0.000 C 
BRANCH   2   3
ATOM      3  C   UNL     1      -1.833   5.546  -8.484  1.00  0.00     0.000 C 
BRANCH   3   4
ATOM      4  C   UNL     1      -0.657   4.567  -8.631  1.00  0.00     0.006 C 
BRANCH   4   5
ATOM      5  C   UNL     1      -0.990   3.173  -8.086  1.00  0.00     0.053 C 
BRANCH   5   6
ATOM      6  C   UNL     1      -0.160   2.109  -8.734  1.00  0.00     0.041 C 
ATOM      7  O   UNL     1       0.524   1.320  -8.030  1.00  0.00    -0.550 OA
ATOM      8  O   UNL     1      -0.168   1.964 -10.116  1.00  0.00    -0.550 OA
ENDBRANCH   5   6
ENDBRANCH   4   5
ENDBRANCH   3   4
ENDBRANCH   2   3
ENDBRANCH   1   2
BRANCH   1   9
ATOM      9  C   UNL     1      -3.159   3.804 -11.220  1.00  0.00     0.000 C 
BRANCH   9  10
ATOM     10  C   UNL     1      -3.596   2.466 -10.605  1.00  0.00    -0.000 C 
BRANCH  10  11
ATOM     11  C   UNL     1      -4.854   1.925 -11.303  1.00  0.00    -0.000 C 
BRANCH  11  12
ATOM     12  C   UNL     1      -6.035   1.743 -10.337  1.00  0.00    -0.000 C 
BRANCH  12  13
ATOM     13  C   UNL     1      -5.663   2.062  -8.882  1.00  0.00    -0.003 C 
ATOM     14  C   UNL     1      -6.460   3.254  -8.360  1.00  0.00     0.004 C 
ENDBRANCH  12  13
ENDBRANCH  11  12
ENDBRANCH  10  11
ENDBRANCH   9  10
ENDBRANCH   1   9
TORSDOF 10
ENDMDL
MODEL 6
REMARK VINA RESULT:    -3.424      3.209      5.539
REMARK INTER + INTRA:          -7.052
REMARK INTER:                  -5.844
REMARK INTRA:                  -1.207
REMARK UNBOUND:                -1.626
REMARK SMILES CCCCCCCCCCCC(=O)[O-]
REMARK SMILES IDX 7 1 8 2 9 3 10 4 11 5 12 6 13 7 14 8 6 9 5 10 4 11 3 12 2 13
REMARK SMILES IDX 1 14
REMARK H PARENT
REMARK Flexibility Score: inf
ROOT
ATOM      1  C   UNL     1      -2.933   6.049  -9.000  1.00  0.00     0.000 C 
ENDROOT
BRANCH   1   2
ATOM      2  C   UNL     1      -1.576   5.516  -9.493  1.00  0.00     0.000 C 
BRANCH   2   3
ATOM      3  C   UNL     1      -0.866   4.633  -8.457  1.00  0.00     0.000 C 
BRANCH   3   4
ATOM      4  C   UNL     1      -1.475   3.222  -8.430  1.00  0.00     0.006 C 
BRANCH   4   5
ATOM      5  C   UNL     1      -0.924   2.330  -9.550  1.00  0.00     0.053 C 
BRANCH   5   6
ATOM      6  C   UNL     1       0.404   1.739  -9.188  1.00  0.00     0.041 C 
ATOM      7  O   UNL     1       1.410   1.945  -9.917  1.00  0.00    -0.550 OA
ATOM      8  O   UNL     1       0.540   0.990  -8.026  1.00  0.00    -0.550 OA
ENDBRANCH   5   6
ENDBRANCH   4   5
ENDBRANCH   3   4
ENDBRANCH   2   3
ENDBRANCH   1   2
BRANCH   1   9
ATOM      9  C   UNL     1      -4.018   6.172 -10.085  1.00  0.00     0.000 C 
BRANCH   9  10
ATOM     10  C   UNL     1      -4.817   4.875 -10.282  1.00  0.00    -0.000 C 
BRANCH  10  11
ATOM     11  C   UNL     1      -4.956   4.109  -8.957  1.00  0.00    -0.000 C 
BRANCH  11  12
ATOM     12  C   UNL     1      -5.142   2.598  -9.163  1.00  0.00    -0.000 C 
BRANCH  12  13
ATOM     13  C   UNL     1      -4.616   2.117 -10.523  1.00  0.00    -0.003 C 
ATOM     14  C   UNL     1      -5.727   1.466 -11.342  1.00  0.00     0.004 C 
ENDBRANCH  12  13
ENDBRANCH  11  12
ENDBRANCH  10  11
ENDBRANCH   9  10
ENDBRANCH   1   9
TORSDOF 10
ENDMDL
MODEL 7
REMARK VINA RESULT:    -3.408      2.109      4.261
REMARK INTER + INTRA:          -7.027
REMARK INTER:                  -5.644
REMARK INTRA:                  -1.383
REMARK UNBOUND:                -1.626
REMARK SMILES CCCCCCCCCCCC(=O)[O-]
REMARK SMILES IDX 7 1 8 2 9 3 10 4 11 5 12 6 13 7 14 8 6 9 5 10 4 11 3 12 2 13
REMARK SMILES IDX 1 14
REMARK H PARENT
REMARK Flexibility Score: inf
ROOT
ATOM      1  C   UNL     1       0.616   2.300  -9.899  1.00  0.00     0.000 C 
ENDROOT
BRANCH   1   2
ATOM      2  C   UNL     1      -0.070   2.038  -8.545  1.00  0.00     0.000 C 
BRANCH   2   3
ATOM      3  C   UNL     1      -0.849   3.254  -8.023  1.00  0.00     0.000 C 
BRANCH   3   4
ATOM      4  C   UNL     1      -0.558   4.499  -8.876  1.00  0.00     0.006 C 
BRANCH   4   5
ATOM      5  C   UNL     1      -0.983   5.795  -8.174  1.00  0.00     0.053 C 
BRANCH   5   6
ATOM      6  C   UNL     1      -2.282   6.316  -8.708  1.00  0.00     0.041 C 
ATOM      7  O   UNL     1      -2.323   7.426  -9.302  1.00  0.00    -0.550 OA
ATOM      8  O   UNL     1      -3.441   5.561  -8.581  1.00  0.00    -0.550 OA
ENDBRANCH   5   6
ENDBRANCH   4   5
ENDBRANCH   3   4
ENDBRANCH   2   3
ENDBRANCH   1   2
BRANCH   1   9
ATOM      9  C   UNL     1       0.169   1.373 -11.045  1.00  0.00     0.000 C 
BRANCH   9  10
ATOM     10  C   UNL     1      -1.357   1.315 -11.208  1.00  0.00    -0.000 C 
BRANCH  10  11
ATOM     11  C   UNL     1      -1.878   2.566 -11.934  1.00  0.00    -0.000 C 
BRANCH  11  12
ATOM     12  C   UNL     1      -3.088   3.198 -11.229  1.00  0.00    -0.000 C 
BRANCH  12  13
ATOM     13  C   UNL     1      -3.665   2.300 -10.125  1.00  0.00    -0.003 C 
ATOM     14  C   UNL     1      -5.101   1.894 -10.442  1.00  0.00     0.004 C 
ENDBRANCH  12  13
ENDBRANCH  11  12
ENDBRANCH  10  11
ENDBRANCH   9  10
ENDBRANCH   1   9
TORSDOF 10
ENDMDL
MODEL 8
REMARK VINA RESULT:    -3.399      2.947      5.169
REMARK INTER + INTRA:          -7.012
REMARK INTER:                  -5.578
REMARK INTRA:                  -1.434
REMARK UNBOUND:                -1.626
REMARK SMILES CCCCCCCCCCCC(=O)[O-]
REMARK SMILES IDX 7 1 8 2 9 3 10 4 11 5 12 6 13 7 14 8 6 9 5 10 4 11 3 12 2 13
REMARK SMILES IDX 1 14
REMARK H PARENT
REMARK Flexibility Score: inf
ROOT
ATOM      1  C   UNL     1      -3.922   6.127  -9.924  1.00  0.00     0.000 C 
ENDROOT
BRANCH   1   2
ATOM      2  C   UNL     1      -2.409   5.849  -9.870  1.00  0.00     0.000 C 
BRANCH   2   3
ATOM      3  C   UNL     1      -1.923   5.448  -8.469  1.00  0.00     0.000 C 
BRANCH   3   4
ATOM      4  C   UNL     1      -0.793   4.411  -8.556  1.00  0.00     0.006 C 
BRANCH   4   5
ATOM      5  C   UNL     1      -1.247   3.016  -8.106  1.00  0.00     0.053 C 
BRANCH   5   6
ATOM      6  C   UNL     1      -0.084   2.114  -7.832  1.00  0.00     0.041 C 
ATOM      7  O   UNL     1       0.189   1.773  -6.650  1.00  0.00    -0.550 OA
ATOM      8  O   UNL     1       0.678   1.620  -8.883  1.00  0.00    -0.550 OA
ENDBRANCH   5   6
ENDBRANCH   4   5
ENDBRANCH   3   4
ENDBRANCH   2   3
ENDBRANCH   1   2
BRANCH   1   9
ATOM      9  C   UNL     1      -4.795   4.910 -10.281  1.00  0.00     0.000 C 
BRANCH   9  10
ATOM     10  C   UNL     1      -5.024   3.968  -9.090  1.00  0.00    -0.000 C 
BRANCH  10  11
ATOM     11  C   UNL     1      -4.528   2.549  -9.409  1.00  0.00    -0.000 C 
BRANCH  11  12
ATOM     12  C   UNL     1      -4.194   2.359 -10.896  1.00  0.00    -0.000 C 
BRANCH  12  13
ATOM     13  C   UNL     1      -2.732   1.952 -11.128  1.00  0.00    -0.003 C 
ATOM     14  C   UNL     1      -2.007   2.975 -11.997  1.00  0.00     0.004 C 
ENDBRANCH  12  13
ENDBRANCH  11  12
ENDBRANCH  10  11
ENDBRANCH   9  10
ENDBRANCH   1   9
TORSDOF 10
ENDMDL
MODEL 9
REMARK VINA RESULT:    -3.363      0.992      2.841
REMARK INTER + INTRA:          -6.955
REMARK INTER:                  -5.314
REMARK INTRA:                  -1.641
REMARK UNBOUND:                -1.626
REMARK SMILES CCCCCCCCCCCC(=O)[O-]
REMARK SMILES IDX 7 1 8 2 9 3 10 4 11 5 12 6 13 7 14 8 6 9 5 10 4 11 3 12 2 13
REMARK SMILES IDX 1 14
REMARK H PARENT
REMARK Flexibility Score: inf
ROOT
ATOM      1  C   UNL     1      -0.853   2.720  -7.883  1.00  0.00     0.000 C 
ENDROOT
BRANCH   1   2
ATOM      2  C   UNL     1      -1.137   4.074  -8.559  1.00  0.00     0.000 C 
BRANCH   2   3
ATOM      3  C   UNL     1      -2.594   4.218  -9.023  1.00  0.00     0.000 C 
BRANCH   3   4
ATOM      4  C   UNL     1      -3.344   2.882  -8.898  1.00  0.00     0.006 C 
BRANCH   4   5
ATOM      5  C   UNL     1      -4.185   2.570 -10.143  1.00  0.00     0.053 C 
BRANCH   5   6
ATOM      6  C   UNL     1      -5.460   1.868  -9.791  1.00  0.00     0.041 C 
ATOM      7  O   UNL     1      -6.173   1.357 -10.695  1.00  0.00    -0.550 OA
ATOM      8  O   UNL     1      -5.844   1.745  -8.462  1.00  0.00    -0.550 OA
ENDBRANCH   5   6
ENDBRANCH   4   5
ENDBRANCH   3   4
ENDBRANCH   2   3
ENDBRANCH   1   2
BRANCH   1   9
ATOM      9  C   UNL     1       0.235   1.869  -8.564  1.00  0.00     0.000 C 
BRANCH   9  10
ATOM     10  C   UNL     1       0.371   2.161 -10.065  1.00  0.00    -0.000 C 
BRANCH  10  11
ATOM     11  C   UNL     1      -0.602   1.296 -10.883  1.00  0.00    -0.000 C 
BRANCH  11  12
ATOM     12  C   UNL     1      -1.085   1.997 -12.162  1.00  0.00    -0.000 C 
BRANCH  12  13
ATOM     13  C   UNL     1      -0.672   3.475 -12.219  1.00  0.00    -0.003 C 
ATOM     14  C   UNL     1      -1.854   4.361 -12.601  1.00  0.00     0.004 C 
ENDBRANCH  12  13
ENDBRANCH  11  12
ENDBRANCH  10  11
ENDBRANCH   9  10
ENDBRANCH   1   9
TORSDOF 10
ENDMDL
