MODEL 1
REMARK VINA RESULT:    -3.217      0.000      0.000
REMARK INTER + INTRA:          -5.754
REMARK INTER:                  -4.909
REMARK INTRA:                  -0.845
REMARK UNBOUND:                -0.845
REMARK SMILES CC(=O)CCC=C(C)CCC=C(C)CCC=C(C)C
REMARK SMILES IDX 10 1 11 2 12 3 13 4 14 5 15 6 16 7 18 8 17 9 19 10 9 11 7 12
REMARK SMILES IDX 6 13 8 14 5 15 4 16 2 17 3 18 1 19
REMARK H PARENT
REMARK Flexibility Score: inf
ROOT
ATOM      1  C   UNL     1       8.147  24.573  25.619  1.00  0.00     0.032 C 
ENDROOT
BRANCH   1   2
ATOM      2  C   UNL     1       9.435  24.054  25.032  1.00  0.00    -0.028 C 
ATOM      3  C   UNL     1       9.672  22.754  24.741  1.00  0.00    -0.077 C 
ATOM      4  C   UNL     1       8.683  21.668  25.093  1.00  0.00     0.039 C 
BRANCH   3   5
ATOM      5  C   UNL     1      10.981  22.376  24.077  1.00  0.00     0.034 C 
BRANCH   5   6
ATOM      6  C   UNL     1      10.868  21.061  23.291  1.00  0.00     0.032 C 
BRANCH   6   7
ATOM      7  C   UNL     1      11.125  21.254  21.814  1.00  0.00    -0.028 C 
ATOM      8  C   UNL     1       8.913  22.363  21.482  1.00  0.00     0.039 C 
ATOM      9  C   UNL     1      10.241  21.846  20.983  1.00  0.00    -0.080 C 
ATOM     10  C   UNL     1      10.597  21.984  19.525  1.00  0.00     0.039 C 
ENDBRANCH   6   7
ENDBRANCH   5   6
ENDBRANCH   3   5
ENDBRANCH   1   2
BRANCH   1  11
ATOM     11  C   UNL     1       7.880  26.007  25.150  1.00  0.00     0.034 C 
BRANCH  11  12
ATOM     12  C   UNL     1       7.614  26.043  23.662  1.00  0.00    -0.077 C 
ATOM     13  C   UNL     1       6.334  26.016  23.222  1.00  0.00    -0.028 C 
ATOM     14  C   UNL     1       8.783  26.124  22.709  1.00  0.00     0.039 C 
BRANCH  13  15
ATOM     15  C   UNL     1       5.934  26.000  21.769  1.00  0.00     0.035 C 
BRANCH  15  16
ATOM     16  C   UNL     1       4.503  25.477  21.607  1.00  0.00     0.079 C 
BRANCH  16  17
ATOM     17  C   UNL     1       4.366  24.694  20.328  1.00  0.00     0.130 C 
ATOM     18  O   UNL     1       3.820  23.601  20.347  1.00  0.00    -0.300 OA
ATOM     19  C   UNL     1       4.892  25.224  19.027  1.00  0.00     0.087 C 
ENDBRANCH  16  17
ENDBRANCH  15  16
ENDBRANCH  13  15
ENDBRANCH  11  12
ENDBRANCH   1  11
TORSDOF 9
ENDMDL
MODEL 2
REMARK VINA RESULT:    -3.085      2.486      6.268
REMARK INTER + INTRA:          -5.553
REMARK INTER:                  -5.082
REMARK INTRA:                  -0.471
REMARK UNBOUND:                -0.845
REMARK SMILES CC(=O)CCC=C(C)CCC=C(C)CCC=C(C)C
REMARK SMILES IDX 10 1 11 2 12 3 13 4 14 5 15 6 16 7 18 8 17 9 19 10 9 11 7 12
REMARK SMILES IDX 6 13 8 14 5 15 4 16 2 17 3 18 1 19
REMARK H PARENT
REMARK Flexibility Score: inf
ROOT
ATOM      1  C   UNL     1       8.783  22.361  21.126  1.00  0.00     0.032 C 
ENDROOT
BRANCH   1   2
ATOM      2  C   UNL     1       8.326  23.670  21.720  1.00  0.00    -0.028 C 
ATOM      3  C   UNL     1       8.609  24.885  21.198  1.00  0.00    -0.077 C 
ATOM      4  C   UNL     1       9.525  25.044  20.006  1.00  0.00     0.039 C 
BRANCH   3   5
ATOM      5  C   UNL     1       8.020  26.121  21.848  1.00  0.00     0.034 C 
BRANCH   5   6
ATOM      6  C   UNL     1       6.498  26.009  22.022  1.00  0.00     0.032 C 
BRANCH   6   7
ATOM      7  C   UNL     1       5.863  25.148  20.954  1.00  0.00    -0.028 C 
ATOM      8  C   UNL     1       3.561  25.711  21.739  1.00  0.00     0.039 C 
ATOM      9  C   UNL     1       4.527  25.006  20.818  1.00  0.00    -0.080 C 
ATOM     10  C   UNL     1       4.002  24.119  19.719  1.00  0.00     0.039 C 
ENDBRANCH   6   7
ENDBRANCH   5   6
ENDBRANCH   3   5
ENDBRANCH   1   2
BRANCH   1  11
ATOM     11  C   UNL     1      10.248  22.088  21.483  1.00  0.00     0.034 C 
BRANCH  11  12
ATOM     12  C   UNL     1      10.538  22.503  22.907  1.00  0.00    -0.077 C 
ATOM     13  C   UNL     1      10.279  21.633  23.912  1.00  0.00    -0.028 C 
ATOM     14  C   UNL     1      11.125  23.870  23.168  1.00  0.00     0.039 C 
BRANCH  13  15
ATOM     15  C   UNL     1      10.478  21.938  25.375  1.00  0.00     0.035 C 
BRANCH  15  16
ATOM     16  C   UNL     1       9.237  22.620  25.959  1.00  0.00     0.079 C 
BRANCH  16  17
ATOM     17  C   UNL     1       9.481  24.093  26.151  1.00  0.00     0.130 C 
ATOM     18  O   UNL     1      10.497  24.465  26.719  1.00  0.00    -0.300 OA
ATOM     19  C   UNL     1       8.500  25.118  25.666  1.00  0.00     0.087 C 
ENDBRANCH  16  17
ENDBRANCH  15  16
ENDBRANCH  13  15
ENDBRANCH  11  12
ENDBRANCH   1  11
TORSDOF 9
ENDMDL
MODEL 3
REMARK VINA RESULT:    -3.010      1.731      3.800
REMARK INTER + INTRA:          -5.438
REMARK INTER:                  -4.241
REMARK INTRA:                  -1.197
REMARK UNBOUND:                -0.845
REMARK SMILES CC(=O)CCC=C(C)CCC=C(C)CCC=C(C)C
REMARK SMILES IDX 10 1 11 2 12 3 13 4 14 5 15 6 16 7 18 8 17 9 19 10 9 11 7 12
REMARK SMILES IDX 6 13 8 14 5 15 4 16 2 17 3 18 1 19
REMARK H PARENT
REMARK Flexibility Score: inf
ROOT
ATOM      1  C   UNL     1       9.551  21.850  22.476  1.00  0.00     0.032 C 
ENDROOT
BRANCH   1   2
ATOM      2  C   UNL     1      10.283  22.019  23.783  1.00  0.00    -0.028 C 
ATOM      3  C   UNL     1       9.707  21.902  25.001  1.00  0.00    -0.077 C 
ATOM      4  C   UNL     1       8.218  21.697  25.160  1.00  0.00     0.039 C 
BRANCH   3   5
ATOM      5  C   UNL     1      10.575  22.015  26.239  1.00  0.00     0.034 C 
BRANCH   5   6
ATOM      6  C   UNL     1      10.776  23.476  26.669  1.00  0.00     0.032 C 
BRANCH   6   7
ATOM      7  C   UNL     1      11.123  24.371  25.502  1.00  0.00    -0.028 C 
ATOM      8  C   UNL     1       8.805  25.294  25.403  1.00  0.00     0.039 C 
ATOM      9  C   UNL     1      10.233  25.202  24.919  1.00  0.00    -0.080 C 
ATOM     10  C   UNL     1      10.685  26.049  23.758  1.00  0.00     0.039 C 
ENDBRANCH   6   7
ENDBRANCH   5   6
ENDBRANCH   3   5
ENDBRANCH   1   2
BRANCH   1  11
ATOM     11  C   UNL     1      10.435  22.286  21.302  1.00  0.00     0.034 C 
BRANCH  11  12
ATOM     12  C   UNL     1      10.021  23.650  20.798  1.00  0.00    -0.077 C 
ATOM     13  C   UNL     1       8.915  24.235  21.316  1.00  0.00    -0.028 C 
ATOM     14  C   UNL     1      10.861  24.328  19.743  1.00  0.00     0.039 C 
BRANCH  13  15
ATOM     15  C   UNL     1       8.369  25.567  20.869  1.00  0.00     0.035 C 
BRANCH  15  16
ATOM     16  C   UNL     1       7.139  25.376  19.976  1.00  0.00     0.079 C 
BRANCH  16  17
ATOM     17  C   UNL     1       5.902  25.181  20.812  1.00  0.00     0.130 C 
ATOM     18  O   UNL     1       5.889  25.575  21.968  1.00  0.00    -0.300 OA
ATOM     19  C   UNL     1       4.683  24.504  20.258  1.00  0.00     0.087 C 
ENDBRANCH  16  17
ENDBRANCH  15  16
ENDBRANCH  13  15
ENDBRANCH  11  12
ENDBRANCH   1  11
TORSDOF 9
ENDMDL
MODEL 4
REMARK VINA RESULT:    -2.274      1.669      3.737
REMARK INTER + INTRA:          -4.315
REMARK INTER:                  -4.407
REMARK INTRA:                   0.092
REMARK UNBOUND:                -0.845
REMARK SMILES CC(=O)CCC=C(C)CCC=C(C)CCC=C(C)C
REMARK SMILES IDX 10 1 11 2 12 3 13 4 14 5 15 6 16 7 18 8 17 9 19 10 9 11 7 12
REMARK SMILES IDX 6 13 8 14 5 15 4 16 2 17 3 18 1 19
REMARK H PARENT
REMARK Flexibility Score: inf
ROOT
ATOM      1  C   UNL     1       8.219  23.197  21.329  1.00  0.00     0.032 C 
ENDROOT
BRANCH   1   2
ATOM      2  C   UNL     1       8.910  22.438  22.434  1.00  0.00    -0.028 C 
ATOM      3  C   UNL     1      10.229  22.138  22.446  1.00  0.00    -0.077 C 
ATOM      4  C   UNL     1      11.125  22.449  21.270  1.00  0.00     0.039 C 
BRANCH   3   5
ATOM      5  C   UNL     1      10.814  21.441  23.658  1.00  0.00     0.034 C 
BRANCH   5   6
ATOM      6  C   UNL     1      11.000  22.403  24.841  1.00  0.00     0.032 C 
BRANCH   6   7
ATOM      7  C   UNL     1      10.613  23.821  24.491  1.00  0.00    -0.028 C 
ATOM      8  C   UNL     1      10.229  24.406  26.887  1.00  0.00     0.039 C 
ATOM      9  C   UNL     1      10.260  24.740  25.415  1.00  0.00    -0.080 C 
ATOM     10  C   UNL     1       9.888  26.125  24.954  1.00  0.00     0.039 C 
ENDBRANCH   6   7
ENDBRANCH   5   6
ENDBRANCH   3   5
ENDBRANCH   1   2
BRANCH   1  11
ATOM     11  C   UNL     1       8.793  24.613  21.208  1.00  0.00     0.034 C 
BRANCH  11  12
ATOM     12  C   UNL     1       8.091  25.383  20.113  1.00  0.00    -0.077 C 
ATOM     13  C   UNL     1       6.738  25.401  20.084  1.00  0.00    -0.028 C 
ATOM     14  C   UNL     1       8.919  26.125  19.090  1.00  0.00     0.039 C 
BRANCH  13  15
ATOM     15  C   UNL     1       5.917  26.090  19.024  1.00  0.00     0.035 C 
BRANCH  15  16
ATOM     16  C   UNL     1       4.421  25.915  19.299  1.00  0.00     0.079 C 
BRANCH  16  17
ATOM     17  C   UNL     1       4.202  25.165  20.586  1.00  0.00     0.130 C 
ATOM     18  O   UNL     1       4.450  23.969  20.635  1.00  0.00    -0.300 OA
ATOM     19  C   UNL     1       3.678  25.851  21.813  1.00  0.00     0.087 C 
ENDBRANCH  16  17
ENDBRANCH  15  16
ENDBRANCH  13  15
ENDBRANCH  11  12
ENDBRANCH   1  11
TORSDOF 9
ENDMDL
MODEL 5
REMARK VINA RESULT:    -2.006      2.319      4.408
REMARK INTER + INTRA:          -3.907
REMARK INTER:                  -3.242
REMARK INTRA:                  -0.665
REMARK UNBOUND:                -0.845
REMARK SMILES CC(=O)CCC=C(C)CCC=C(C)CCC=C(C)C
REMARK SMILES IDX 10 1 11 2 12 3 13 4 14 5 15 6 16 7 18 8 17 9 19 10 9 11 7 12
REMARK SMILES IDX 6 13 8 14 5 15 4 16 2 17 3 18 1 19
REMARK H PARENT
REMARK Flexibility Score: inf
ROOT
ATOM      1  C   UNL     1       7.180  24.337  21.035  1.00  0.00     0.032 C 
ENDROOT
BRANCH   1   2
ATOM      2  C   UNL     1       8.475  24.897  21.569  1.00  0.00    -0.028 C 
ATOM      3  C   UNL     1       9.650  24.227  21.578  1.00  0.00    -0.077 C 
ATOM      4  C   UNL     1       9.744  22.782  21.145  1.00  0.00     0.039 C 
BRANCH   3   5
ATOM      5  C   UNL     1      10.897  24.935  22.068  1.00  0.00     0.034 C 
BRANCH   5   6
ATOM      6  C   UNL     1      11.121  24.728  23.574  1.00  0.00     0.032 C 
BRANCH   6   7
ATOM      7  C   UNL     1       9.917  24.114  24.251  1.00  0.00    -0.028 C 
ATOM      8  C   UNL     1      11.086  21.928  24.551  1.00  0.00     0.039 C 
ATOM      9  C   UNL     1       9.892  22.841  24.699  1.00  0.00    -0.080 C 
ATOM     10  C   UNL     1       8.637  22.329  25.357  1.00  0.00     0.039 C 
ENDBRANCH   6   7
ENDBRANCH   5   6
ENDBRANCH   3   5
ENDBRANCH   1   2
BRANCH   1  11
ATOM     11  C   UNL     1       6.540  25.313  20.040  1.00  0.00     0.034 C 
BRANCH  11  12
ATOM     12  C   UNL     1       5.084  25.541  20.375  1.00  0.00    -0.077 C 
ATOM     13  C   UNL     1       4.655  25.305  21.637  1.00  0.00    -0.028 C 
ATOM     14  C   UNL     1       4.152  26.039  19.296  1.00  0.00     0.039 C 
BRANCH  13  15
ATOM     15  C   UNL     1       3.224  25.448  22.090  1.00  0.00     0.035 C 
BRANCH  15  16
ATOM     16  C   UNL     1       3.156  26.125  23.462  1.00  0.00     0.079 C 
BRANCH  16  17
ATOM     17  C   UNL     1       1.945  25.657  24.225  1.00  0.00     0.130 C 
ATOM     18  O   UNL     1       0.844  26.101  23.938  1.00  0.00    -0.300 OA
ATOM     19  C   UNL     1       2.060  24.659  25.340  1.00  0.00     0.087 C 
ENDBRANCH  16  17
ENDBRANCH  15  16
ENDBRANCH  13  15
ENDBRANCH  11  12
ENDBRANCH   1  11
TORSDOF 9
ENDMDL
MODEL 6
REMARK VINA RESULT:    -1.481      2.650      6.888
REMARK INTER + INTRA:          -3.104
REMARK INTER:                  -1.852
REMARK INTRA:                  -1.252
REMARK UNBOUND:                -0.845
REMARK SMILES CC(=O)CCC=C(C)CCC=C(C)CCC=C(C)C
REMARK SMILES IDX 10 1 11 2 12 3 13 4 14 5 15 6 16 7 18 8 17 9 19 10 9 11 7 12
REMARK SMILES IDX 6 13 8 14 5 15 4 16 2 17 3 18 1 19
REMARK H PARENT
REMARK Flexibility Score: inf
ROOT
ATOM      1  C   UNL     1       7.558  23.572  21.030  1.00  0.00     0.032 C 
ENDROOT
BRANCH   1   2
ATOM      2  C   UNL     1       6.656  24.750  20.760  1.00  0.00    -0.028 C 
ATOM      3  C   UNL     1       5.313  24.666  20.622  1.00  0.00    -0.077 C 
ATOM      4  C   UNL     1       4.596  23.336  20.616  1.00  0.00     0.039 C 
BRANCH   3   5
ATOM      5  C   UNL     1       4.512  25.939  20.434  1.00  0.00     0.034 C 
BRANCH   5   6
ATOM      6  C   UNL     1       3.459  26.125  21.536  1.00  0.00     0.032 C 
BRANCH   6   7
ATOM      7  C   UNL     1       4.072  26.122  22.918  1.00  0.00    -0.028 C 
ATOM      8  C   UNL     1       1.829  26.108  24.013  1.00  0.00     0.039 C 
ATOM      9  C   UNL     1       3.338  26.115  24.051  1.00  0.00    -0.080 C 
ATOM     10  C   UNL     1       4.054  26.116  25.377  1.00  0.00     0.039 C 
ENDBRANCH   6   7
ENDBRANCH   5   6
ENDBRANCH   3   5
ENDBRANCH   1   2
BRANCH   1  11
ATOM     11  C   UNL     1       9.025  23.952  20.797  1.00  0.00     0.034 C 
BRANCH  11  12
ATOM     12  C   UNL     1       9.799  23.925  22.095  1.00  0.00    -0.077 C 
ATOM     13  C   UNL     1       9.559  22.931  22.983  1.00  0.00    -0.028 C 
ATOM     14  C   UNL     1      10.828  24.998  22.358  1.00  0.00     0.039 C 
BRANCH  13  15
ATOM     15  C   UNL     1      10.226  22.814  24.330  1.00  0.00     0.035 C 
BRANCH  15  16
ATOM     16  C   UNL     1       9.272  23.252  25.445  1.00  0.00     0.079 C 
BRANCH  16  17
ATOM     17  C   UNL     1       9.125  24.751  25.459  1.00  0.00     0.130 C 
ATOM     18  O   UNL     1      10.124  25.453  25.511  1.00  0.00    -0.300 OA
ATOM     19  C   UNL     1       7.776  25.404  25.417  1.00  0.00     0.087 C 
ENDBRANCH  16  17
ENDBRANCH  15  16
ENDBRANCH  13  15
ENDBRANCH  11  12
ENDBRANCH   1  11
TORSDOF 9
ENDMDL
MODEL 7
REMARK VINA RESULT:    -1.169      2.144      5.358
REMARK INTER + INTRA:          -2.628
REMARK INTER:                  -1.180
REMARK INTRA:                  -1.448
REMARK UNBOUND:                -0.845
REMARK SMILES CC(=O)CCC=C(C)CCC=C(C)CCC=C(C)C
REMARK SMILES IDX 10 1 11 2 12 3 13 4 14 5 15 6 16 7 18 8 17 9 19 10 9 11 7 12
REMARK SMILES IDX 6 13 8 14 5 15 4 16 2 17 3 18 1 19
REMARK H PARENT
REMARK Flexibility Score: inf
ROOT
ATOM      1  C   UNL     1       8.389  22.594  25.599  1.00  0.00     0.032 C 
ENDROOT
BRANCH   1   2
ATOM      2  C   UNL     1       7.741  23.845  25.062  1.00  0.00    -0.028 C 
ATOM      3  C   UNL     1       8.416  24.963  24.710  1.00  0.00    -0.077 C 
ATOM      4  C   UNL     1       9.904  25.098  24.936  1.00  0.00     0.039 C 
BRANCH   3   5
ATOM      5  C   UNL     1       7.651  26.125  24.106  1.00  0.00     0.034 C 
BRANCH   5   6
ATOM      6  C   UNL     1       6.361  25.665  23.410  1.00  0.00     0.032 C 
BRANCH   6   7
ATOM      7  C   UNL     1       6.543  25.507  21.918  1.00  0.00    -0.028 C 
ATOM      8  C   UNL     1       4.080  25.593  21.517  1.00  0.00     0.039 C 
ATOM      9  C   UNL     1       5.511  25.473  21.049  1.00  0.00    -0.080 C 
ATOM     10  C   UNL     1       5.806  25.308  19.580  1.00  0.00     0.039 C 
ENDBRANCH   6   7
ENDBRANCH   5   6
ENDBRANCH   3   5
ENDBRANCH   1   2
BRANCH   1  11
ATOM     11  C   UNL     1       8.528  21.542  24.492  1.00  0.00     0.034 C 
BRANCH  11  12
ATOM     12  C   UNL     1       9.856  21.680  23.785  1.00  0.00    -0.077 C 
ATOM     13  C   UNL     1       9.875  22.109  22.500  1.00  0.00    -0.028 C 
ATOM     14  C   UNL     1      11.125  21.353  24.534  1.00  0.00     0.039 C 
BRANCH  13  15
ATOM     15  C   UNL     1      11.124  22.246  21.668  1.00  0.00     0.035 C 
BRANCH  15  16
ATOM     16  C   UNL     1      10.867  23.141  20.451  1.00  0.00     0.079 C 
BRANCH  16  17
ATOM     17  C   UNL     1      10.506  24.537  20.885  1.00  0.00     0.130 C 
ATOM     18  O   UNL     1      10.949  24.972  21.938  1.00  0.00    -0.300 OA
ATOM     19  C   UNL     1       9.607  25.406  20.057  1.00  0.00     0.087 C 
ENDBRANCH  16  17
ENDBRANCH  15  16
ENDBRANCH  13  15
ENDBRANCH  11  12
ENDBRANCH   1  11
TORSDOF 9
ENDMDL
MODEL 8
REMARK VINA RESULT:    -0.596     18.244     20.040
REMARK INTER + INTRA:          -1.753
REMARK INTER:                  -1.415
REMARK INTRA:                  -0.338
REMARK UNBOUND:                -0.845
REMARK SMILES CC(=O)CCC=C(C)CCC=C(C)CCC=C(C)C
REMARK SMILES IDX 10 1 11 2 12 3 13 4 14 5 15 6 16 7 18 8 17 9 19 10 9 11 7 12
REMARK SMILES IDX 6 13 8 14 5 15 4 16 2 17 3 18 1 19
REMARK H PARENT
REMARK Flexibility Score: inf
ROOT
ATOM      1  C   UNL     1      -5.298  24.911  10.772  1.00  0.00     0.032 C 
ENDROOT
BRANCH   1   2
ATOM      2  C   UNL     1      -4.927  24.088   9.564  1.00  0.00    -0.028 C 
ATOM      3  C   UNL     1      -4.081  24.498   8.592  1.00  0.00    -0.077 C 
ATOM      4  C   UNL     1      -3.507  25.896   8.575  1.00  0.00     0.039 C 
BRANCH   3   5
ATOM      5  C   UNL     1      -3.728  23.539   7.471  1.00  0.00     0.034 C 
BRANCH   5   6
ATOM      6  C   UNL     1      -4.974  22.863   6.879  1.00  0.00     0.032 C 
BRANCH   6   7
ATOM      7  C   UNL     1      -6.199  23.743   6.971  1.00  0.00    -0.028 C 
ATOM      8  C   UNL     1      -7.728  21.769   6.975  1.00  0.00     0.039 C 
ATOM      9  C   UNL     1      -7.457  23.254   7.015  1.00  0.00    -0.080 C 
ATOM     10  C   UNL     1      -8.607  24.223   7.102  1.00  0.00     0.039 C 
ENDBRANCH   6   7
ENDBRANCH   5   6
ENDBRANCH   3   5
ENDBRANCH   1   2
BRANCH   1  11
ATOM     11  C   UNL     1      -6.139  26.124  10.360  1.00  0.00     0.034 C 
BRANCH  11  12
ATOM     12  C   UNL     1      -7.545  26.010  10.903  1.00  0.00    -0.077 C 
ATOM     13  C   UNL     1      -7.725  25.850  12.235  1.00  0.00    -0.028 C 
ATOM     14  C   UNL     1      -8.711  26.095   9.946  1.00  0.00     0.039 C 
BRANCH  13  15
ATOM     15  C   UNL     1      -9.068  25.678  12.899  1.00  0.00     0.035 C 
BRANCH  15  16
ATOM     16  C   UNL     1      -9.008  24.576  13.961  1.00  0.00     0.079 C 
BRANCH  16  17
ATOM     17  C   UNL     1      -8.934  23.218  13.314  1.00  0.00     0.130 C 
ATOM     18  O   UNL     1      -8.711  22.235  14.004  1.00  0.00    -0.300 OA
ATOM     19  C   UNL     1      -9.122  23.045  11.836  1.00  0.00     0.087 C 
ENDBRANCH  16  17
ENDBRANCH  15  16
ENDBRANCH  13  15
ENDBRANCH  11  12
ENDBRANCH   1  11
TORSDOF 9
ENDMDL
MODEL 9
REMARK VINA RESULT:    -0.586      2.023      5.882
REMARK INTER + INTRA:          -1.740
REMARK INTER:                  -0.598
REMARK INTRA:                  -1.142
REMARK UNBOUND:                -0.845
REMARK SMILES CC(=O)CCC=C(C)CCC=C(C)CCC=C(C)C
REMARK SMILES IDX 10 1 11 2 12 3 13 4 14 5 15 6 16 7 18 8 17 9 19 10 9 11 7 12
REMARK SMILES IDX 6 13 8 14 5 15 4 16 2 17 3 18 1 19
REMARK H PARENT
REMARK Flexibility Score: inf
ROOT
ATOM      1  C   UNL     1       9.586  24.147  25.679  1.00  0.00     0.032 C 
ENDROOT
BRANCH   1   2
ATOM      2  C   UNL     1       8.296  24.858  25.354  1.00  0.00    -0.028 C 
ATOM      3  C   UNL     1       8.060  25.522  24.200  1.00  0.00    -0.077 C 
ATOM      4  C   UNL     1       9.137  25.710  23.157  1.00  0.00     0.039 C 
BRANCH   3   5
ATOM      5  C   UNL     1       6.689  26.125  23.964  1.00  0.00     0.034 C 
BRANCH   5   6
ATOM      6  C   UNL     1       5.818  25.238  23.061  1.00  0.00     0.032 C 
BRANCH   6   7
ATOM      7  C   UNL     1       5.446  25.930  21.770  1.00  0.00    -0.028 C 
ATOM      8  C   UNL     1       4.218  23.921  20.941  1.00  0.00     0.039 C 
ATOM      9  C   UNL     1       4.718  25.339  20.799  1.00  0.00    -0.080 C 
ATOM     10  C   UNL     1       4.408  26.120  19.549  1.00  0.00     0.039 C 
ENDBRANCH   6   7
ENDBRANCH   5   6
ENDBRANCH   3   5
ENDBRANCH   1   2
BRANCH   1  11
ATOM     11  C   UNL     1       9.344  22.643  25.851  1.00  0.00     0.034 C 
BRANCH  11  12
ATOM     12  C   UNL     1       9.530  21.917  24.539  1.00  0.00    -0.077 C 
ATOM     13  C   UNL     1      10.786  21.692  24.084  1.00  0.00    -0.028 C 
ATOM     14  C   UNL     1       8.312  21.449  23.780  1.00  0.00     0.039 C 
BRANCH  13  15
ATOM     15  C   UNL     1      11.108  21.023  22.772  1.00  0.00     0.035 C 
BRANCH  15  16
ATOM     16  C   UNL     1      10.798  21.956  21.598  1.00  0.00     0.079 C 
BRANCH  16  17
ATOM     17  C   UNL     1      10.925  21.222  20.289  1.00  0.00     0.130 C 
ATOM     18  O   UNL     1      10.872  20.002  20.276  1.00  0.00    -0.300 OA
ATOM     19  C   UNL     1      11.123  21.957  18.996  1.00  0.00     0.087 C 
ENDBRANCH  16  17
ENDBRANCH  15  16
ENDBRANCH  13  15
ENDBRANCH  11  12
ENDBRANCH   1  11
TORSDOF 9
ENDMDL
