MODEL 1
REMARK VINA RESULT:    -6.955      0.000      0.000
REMARK INTER + INTRA:          -8.704
REMARK INTER:                  -8.378
REMARK INTRA:                  -0.326
REMARK UNBOUND:                -0.326
REMARK SMILES O=c1c(O)c(-c2ccc(O)c(O)c2)oc2cc(O)cc(O)c12
REMARK SMILES IDX 5 1 3 2 2 3 1 4 22 5 20 6 19 7 17 8 16 9 15 10 14 11 6 12
REMARK SMILES IDX 7 13 8 14 9 15 13 16 11 17 10 18 12 20 4 22 21 24 18 26
REMARK H PARENT 10 19 12 21 4 23 21 25 18 27
REMARK Flexibility Score: inf
ROOT
ATOM      1  C   UNL     1     130.554 125.258 125.161  1.00  0.00     0.180 A 
ATOM      2  C   UNL     1     131.856 125.763 125.342  1.00  0.00     0.208 A 
ATOM      3  C   UNL     1     132.447 126.502 124.305  1.00  0.00     0.238 A 
ATOM      4  O   UNL     1     133.609 126.969 124.461  1.00  0.00    -0.285 OA
ATOM      5  C   UNL     1     131.741 126.705 123.103  1.00  0.00     0.111 A 
ATOM      6  C   UNL     1     132.267 127.434 122.008  1.00  0.00     0.134 A 
ATOM      7  C   UNL     1     131.503 127.584 120.842  1.00  0.00     0.093 A 
ATOM      8  C   UNL     1     130.225 127.020 120.748  1.00  0.00     0.123 A 
ATOM      9  C   UNL     1     129.702 126.301 121.824  1.00  0.00     0.094 A 
ATOM     10  C   UNL     1     130.447 126.142 122.997  1.00  0.00     0.146 A 
ATOM     11  O   UNL     1     129.923 125.457 124.007  1.00  0.00    -0.452 OA
ENDROOT
BRANCH   1  12
ATOM     12  C   UNL     1     129.856 124.487 126.214  1.00  0.00     0.025 A 
ATOM     13  C   UNL     1     129.163 125.129 127.255  1.00  0.00     0.016 A 
ATOM     14  C   UNL     1     128.492 124.380 128.225  1.00  0.00     0.051 A 
ATOM     15  C   UNL     1     128.489 122.980 128.160  1.00  0.00     0.157 A 
ATOM     16  C   UNL     1     129.834 123.084 126.143  1.00  0.00     0.062 A 
ATOM     17  C   UNL     1     129.162 122.330 127.113  1.00  0.00     0.158 A 
BRANCH  15  18
ATOM     18  O   UNL     1     127.820 122.235 129.131  1.00  0.00    -0.504 OA
ATOM     19  H   UNL     1     128.283 121.932 129.979  1.00  0.00     0.293 HD
ENDBRANCH  15  18
BRANCH  17  20
ATOM     20  O   UNL     1     129.173 120.939 127.017  1.00  0.00    -0.504 OA
ATOM     21  H   UNL     1     129.566 120.353 127.744  1.00  0.00     0.293 HD
ENDBRANCH  17  20
ENDBRANCH   1  12
BRANCH   2  22
ATOM     22  O   UNL     1     132.555 125.506 126.525  1.00  0.00    -0.502 OA
ATOM     23  H   UNL     1     132.634 126.189 127.268  1.00  0.00     0.293 HD
ENDBRANCH   2  22
BRANCH   6  24
ATOM     24  O   UNL     1     133.537 128.007 122.071  1.00  0.00    -0.507 OA
ATOM     25  H   UNL     1     133.702 128.890 122.539  1.00  0.00     0.293 HD
ENDBRANCH   6  24
BRANCH   8  26
ATOM     26  O   UNL     1     129.468 127.167 119.588  1.00  0.00    -0.508 OA
ATOM     27  H   UNL     1     129.880 127.061 118.669  1.00  0.00     0.293 HD
ENDBRANCH   8  26
TORSDOF 6
ENDMDL
MODEL 2
REMARK VINA RESULT:    -6.545      4.821      7.533
REMARK INTER + INTRA:          -8.210
REMARK INTER:                  -8.130
REMARK INTRA:                  -0.080
REMARK UNBOUND:                -0.326
REMARK SMILES O=c1c(O)c(-c2ccc(O)c(O)c2)oc2cc(O)cc(O)c12
REMARK SMILES IDX 5 1 3 2 2 3 1 4 22 5 20 6 19 7 17 8 16 9 15 10 14 11 6 12
REMARK SMILES IDX 7 13 8 14 9 15 13 16 11 17 10 18 12 20 4 22 21 24 18 26
REMARK H PARENT 10 19 12 21 4 23 21 25 18 27
REMARK Flexibility Score: inf
ROOT
ATOM      1  C   UNL     1     133.457 129.870 123.748  1.00  0.00     0.180 A 
ATOM      2  C   UNL     1     134.809 129.520 123.928  1.00  0.00     0.208 A 
ATOM      3  C   UNL     1     135.640 130.381 124.662  1.00  0.00     0.238 A 
ATOM      4  O   UNL     1     136.851 130.072 124.839  1.00  0.00    -0.285 OA
ATOM      5  C   UNL     1     135.116 131.581 125.182  1.00  0.00     0.111 A 
ATOM      6  C   UNL     1     135.888 132.504 125.929  1.00  0.00     0.134 A 
ATOM      7  C   UNL     1     135.293 133.681 126.406  1.00  0.00     0.093 A 
ATOM      8  C   UNL     1     133.944 133.954 126.151  1.00  0.00     0.123 A 
ATOM      9  C   UNL     1     133.179 133.046 125.416  1.00  0.00     0.094 A 
ATOM     10  C   UNL     1     133.753 131.866 124.934  1.00  0.00     0.146 A 
ATOM     11  O   UNL     1     133.000 131.018 124.242  1.00  0.00    -0.452 OA
ENDROOT
BRANCH   1  12
ATOM     12  C   UNL     1     132.513 129.006 123.004  1.00  0.00     0.025 A 
ATOM     13  C   UNL     1     131.330 128.531 123.598  1.00  0.00     0.016 A 
ATOM     14  C   UNL     1     130.442 127.737 122.868  1.00  0.00     0.051 A 
ATOM     15  C   UNL     1     130.715 127.417 121.532  1.00  0.00     0.157 A 
ATOM     16  C   UNL     1     132.771 128.699 121.659  1.00  0.00     0.062 A 
ATOM     17  C   UNL     1     131.884 127.903 120.924  1.00  0.00     0.158 A 
BRANCH  15  18
ATOM     18  O   UNL     1     129.828 126.621 120.807  1.00  0.00    -0.504 OA
ATOM     19  H   UNL     1     128.825 126.721 120.905  1.00  0.00     0.293 HD
ENDBRANCH  15  18
BRANCH  17  20
ATOM     20  O   UNL     1     132.181 127.608 119.594  1.00  0.00    -0.504 OA
ATOM     21  H   UNL     1     132.460 128.323 118.933  1.00  0.00     0.293 HD
ENDBRANCH  17  20
ENDBRANCH   1  12
BRANCH   2  22
ATOM     22  O   UNL     1     135.317 128.348 123.360  1.00  0.00    -0.502 OA
ATOM     23  H   UNL     1     136.246 128.298 122.960  1.00  0.00     0.293 HD
ENDBRANCH   2  22
BRANCH   6  24
ATOM     24  O   UNL     1     137.235 132.262 126.198  1.00  0.00    -0.507 OA
ATOM     25  H   UNL     1     137.540 131.428 126.687  1.00  0.00     0.293 HD
ENDBRANCH   6  24
BRANCH   8  26
ATOM     26  O   UNL     1     133.355 135.124 126.623  1.00  0.00    -0.508 OA
ATOM     27  H   UNL     1     132.468 135.454 126.260  1.00  0.00     0.293 HD
ENDBRANCH   8  26
TORSDOF 6
ENDMDL
MODEL 3
REMARK VINA RESULT:    -6.474      2.009      3.142
REMARK INTER + INTRA:          -8.124
REMARK INTER:                  -7.914
REMARK INTRA:                  -0.210
REMARK UNBOUND:                -0.326
REMARK SMILES O=c1c(O)c(-c2ccc(O)c(O)c2)oc2cc(O)cc(O)c12
REMARK SMILES IDX 5 1 3 2 2 3 1 4 22 5 20 6 19 7 17 8 16 9 15 10 14 11 6 12
REMARK SMILES IDX 7 13 8 14 9 15 13 16 11 17 10 18 12 20 4 22 21 24 18 26
REMARK H PARENT 10 19 12 21 4 23 21 25 18 27
REMARK Flexibility Score: inf
ROOT
ATOM      1  C   UNL     1     129.016 125.992 125.558  1.00  0.00     0.180 A 
ATOM      2  C   UNL     1     128.168 126.941 124.955  1.00  0.00     0.208 A 
ATOM      3  C   UNL     1     128.373 127.273 123.607  1.00  0.00     0.238 A 
ATOM      4  O   UNL     1     127.613 128.114 123.053  1.00  0.00    -0.285 OA
ATOM      5  C   UNL     1     129.429 126.672 122.893  1.00  0.00     0.111 A 
ATOM      6  C   UNL     1     129.706 126.956 121.533  1.00  0.00     0.134 A 
ATOM      7  C   UNL     1     130.782 126.321 120.896  1.00  0.00     0.093 A 
ATOM      8  C   UNL     1     131.586 125.410 121.590  1.00  0.00     0.123 A 
ATOM      9  C   UNL     1     131.317 125.127 122.931  1.00  0.00     0.094 A 
ATOM     10  C   UNL     1     130.248 125.747 123.583  1.00  0.00     0.146 A 
ATOM     11  O   UNL     1     130.011 125.456 124.858  1.00  0.00    -0.452 OA
ENDROOT
BRANCH   1  12
ATOM     12  C   UNL     1     128.852 125.575 126.969  1.00  0.00     0.025 A 
ATOM     13  C   UNL     1     129.119 126.458 128.030  1.00  0.00     0.016 A 
ATOM     14  C   UNL     1     128.933 126.048 129.353  1.00  0.00     0.051 A 
ATOM     15  C   UNL     1     128.464 124.758 129.635  1.00  0.00     0.157 A 
ATOM     16  C   UNL     1     128.363 124.290 127.256  1.00  0.00     0.062 A 
ATOM     17  C   UNL     1     128.176 123.877 128.581  1.00  0.00     0.158 A 
BRANCH  15  18
ATOM     18  O   UNL     1     128.283 124.352 130.956  1.00  0.00    -0.504 OA
ATOM     19  H   UNL     1     127.516 123.746 131.225  1.00  0.00     0.293 HD
ENDBRANCH  15  18
BRANCH  17  20
ATOM     20  O   UNL     1     127.702 122.589 128.828  1.00  0.00    -0.504 OA
ATOM     21  H   UNL     1     126.736 122.330 128.665  1.00  0.00     0.293 HD
ENDBRANCH  17  20
ENDBRANCH   1  12
BRANCH   2  22
ATOM     22  O   UNL     1     127.159 127.560 125.698  1.00  0.00    -0.502 OA
ATOM     23  H   UNL     1     127.194 128.540 125.950  1.00  0.00     0.293 HD
ENDBRANCH   2  22
BRANCH   6  24
ATOM     24  O   UNL     1     128.923 127.860 120.814  1.00  0.00    -0.507 OA
ATOM     25  H   UNL     1     128.121 127.559 120.273  1.00  0.00     0.293 HD
ENDBRANCH   6  24
BRANCH   8  26
ATOM     26  O   UNL     1     132.656 124.781 120.958  1.00  0.00    -0.508 OA
ATOM     27  H   UNL     1     133.415 124.369 121.486  1.00  0.00     0.293 HD
ENDBRANCH   8  26
TORSDOF 6
ENDMDL
MODEL 4
REMARK VINA RESULT:    -6.468      4.207      6.422
REMARK INTER + INTRA:          -8.117
REMARK INTER:                  -7.829
REMARK INTRA:                  -0.289
REMARK UNBOUND:                -0.326
REMARK SMILES O=c1c(O)c(-c2ccc(O)c(O)c2)oc2cc(O)cc(O)c12
REMARK SMILES IDX 5 1 3 2 2 3 1 4 22 5 20 6 19 7 17 8 16 9 15 10 14 11 6 12
REMARK SMILES IDX 7 13 8 14 9 15 13 16 11 17 10 18 12 20 4 22 21 24 18 26
REMARK H PARENT 10 19 12 21 4 23 21 25 18 27
REMARK Flexibility Score: inf
ROOT
ATOM      1  C   UNL     1     132.080 128.249 123.267  1.00  0.00     0.180 A 
ATOM      2  C   UNL     1     132.802 127.334 124.057  1.00  0.00     0.208 A 
ATOM      3  C   UNL     1     133.724 127.827 124.994  1.00  0.00     0.238 A 
ATOM      4  O   UNL     1     134.368 127.017 125.715  1.00  0.00    -0.285 OA
ATOM      5  C   UNL     1     133.924 129.217 125.110  1.00  0.00     0.111 A 
ATOM      6  C   UNL     1     134.837 129.795 126.026  1.00  0.00     0.134 A 
ATOM      7  C   UNL     1     134.985 131.189 126.074  1.00  0.00     0.093 A 
ATOM      8  C   UNL     1     134.239 132.016 125.226  1.00  0.00     0.123 A 
ATOM      9  C   UNL     1     133.337 131.451 124.322  1.00  0.00     0.094 A 
ATOM     10  C   UNL     1     133.174 130.063 124.260  1.00  0.00     0.146 A 
ATOM     11  O   UNL     1     132.306 129.553 123.394  1.00  0.00    -0.452 OA
ENDROOT
BRANCH   1  12
ATOM     12  C   UNL     1     131.077 127.808 122.272  1.00  0.00     0.025 A 
ATOM     13  C   UNL     1     131.462 127.305 121.016  1.00  0.00     0.016 A 
ATOM     14  C   UNL     1     130.497 126.872 120.103  1.00  0.00     0.051 A 
ATOM     15  C   UNL     1     129.136 126.922 120.434  1.00  0.00     0.157 A 
ATOM     16  C   UNL     1     129.713 127.836 122.607  1.00  0.00     0.062 A 
ATOM     17  C   UNL     1     128.744 127.404 121.693  1.00  0.00     0.158 A 
BRANCH  15  18
ATOM     18  O   UNL     1     128.176 126.492 119.519  1.00  0.00    -0.504 OA
ATOM     19  H   UNL     1     127.846 127.094 118.774  1.00  0.00     0.293 HD
ENDBRANCH  15  18
BRANCH  17  20
ATOM     20  O   UNL     1     127.399 127.460 122.056  1.00  0.00    -0.504 OA
ATOM     21  H   UNL     1     126.789 126.653 121.990  1.00  0.00     0.293 HD
ENDBRANCH  17  20
ENDBRANCH   1  12
BRANCH   2  22
ATOM     22  O   UNL     1     132.621 125.959 123.888  1.00  0.00    -0.502 OA
ATOM     23  H   UNL     1     131.704 125.538 123.799  1.00  0.00     0.293 HD
ENDBRANCH   2  22
BRANCH   6  24
ATOM     24  O   UNL     1     135.596 128.998 126.883  1.00  0.00    -0.507 OA
ATOM     25  H   UNL     1     136.343 128.406 126.540  1.00  0.00     0.293 HD
ENDBRANCH   6  24
BRANCH   8  26
ATOM     26  O   UNL     1     134.388 133.400 125.273  1.00  0.00    -0.508 OA
ATOM     27  H   UNL     1     134.096 133.936 126.081  1.00  0.00     0.293 HD
ENDBRANCH   8  26
TORSDOF 6
ENDMDL
MODEL 5
REMARK VINA RESULT:    -6.368     11.849     13.437
REMARK INTER + INTRA:          -7.996
REMARK INTER:                  -7.664
REMARK INTRA:                  -0.332
REMARK UNBOUND:                -0.326
REMARK SMILES O=c1c(O)c(-c2ccc(O)c(O)c2)oc2cc(O)cc(O)c12
REMARK SMILES IDX 5 1 3 2 2 3 1 4 22 5 20 6 19 7 17 8 16 9 15 10 14 11 6 12
REMARK SMILES IDX 7 13 8 14 9 15 13 16 11 17 10 18 12 20 4 22 21 24 18 26
REMARK H PARENT 10 19 12 21 4 23 21 25 18 27
REMARK Flexibility Score: inf
ROOT
ATOM      1  C   UNL     1     131.360 136.686 129.788  1.00  0.00     0.180 A 
ATOM      2  C   UNL     1     131.220 135.362 130.248  1.00  0.00     0.208 A 
ATOM      3  C   UNL     1     132.346 134.523 130.253  1.00  0.00     0.238 A 
ATOM      4  O   UNL     1     132.235 133.339 130.673  1.00  0.00    -0.285 OA
ATOM      5  C   UNL     1     133.581 135.010 129.780  1.00  0.00     0.111 A 
ATOM      6  C   UNL     1     134.761 134.228 129.747  1.00  0.00     0.134 A 
ATOM      7  C   UNL     1     135.950 134.785 129.253  1.00  0.00     0.093 A 
ATOM      8  C   UNL     1     135.982 136.106 128.792  1.00  0.00     0.123 A 
ATOM      9  C   UNL     1     134.821 136.881 128.823  1.00  0.00     0.094 A 
ATOM     10  C   UNL     1     133.626 136.345 129.313  1.00  0.00     0.146 A 
ATOM     11  O   UNL     1     132.538 137.107 129.335  1.00  0.00    -0.452 OA
ENDROOT
BRANCH   1  12
ATOM     12  C   UNL     1     130.226 137.636 129.770  1.00  0.00     0.025 A 
ATOM     13  C   UNL     1     129.898 138.407 130.901  1.00  0.00     0.016 A 
ATOM     14  C   UNL     1     128.837 139.315 130.853  1.00  0.00     0.051 A 
ATOM     15  C   UNL     1     128.099 139.479 129.673  1.00  0.00     0.157 A 
ATOM     16  C   UNL     1     129.496 137.820 128.585  1.00  0.00     0.062 A 
ATOM     17  C   UNL     1     128.433 138.729 128.533  1.00  0.00     0.158 A 
BRANCH  15  18
ATOM     18  O   UNL     1     127.040 140.385 129.629  1.00  0.00    -0.504 OA
ATOM     19  H   UNL     1     126.975 141.156 130.283  1.00  0.00     0.293 HD
ENDBRANCH  15  18
BRANCH  17  20
ATOM     20  O   UNL     1     127.722 138.874 127.342  1.00  0.00    -0.504 OA
ATOM     21  H   UNL     1     126.843 138.398 127.179  1.00  0.00     0.293 HD
ENDBRANCH  17  20
ENDBRANCH   1  12
BRANCH   2  22
ATOM     22  O   UNL     1     129.974 134.888 130.665  1.00  0.00    -0.502 OA
ATOM     23  H   UNL     1     129.169 135.494 130.770  1.00  0.00     0.293 HD
ENDBRANCH   2  22
BRANCH   6  24
ATOM     24  O   UNL     1     134.761 132.908 130.199  1.00  0.00    -0.507 OA
ATOM     25  H   UNL     1     134.103 132.583 130.897  1.00  0.00     0.293 HD
ENDBRANCH   6  24
BRANCH   8  26
ATOM     26  O   UNL     1     137.162 136.658 128.299  1.00  0.00    -0.508 OA
ATOM     27  H   UNL     1     137.153 137.409 127.621  1.00  0.00     0.293 HD
ENDBRANCH   8  26
TORSDOF 6
ENDMDL
MODEL 6
REMARK VINA RESULT:    -6.367      4.838      7.815
REMARK INTER + INTRA:          -7.996
REMARK INTER:                  -7.968
REMARK INTRA:                  -0.028
REMARK UNBOUND:                -0.326
REMARK SMILES O=c1c(O)c(-c2ccc(O)c(O)c2)oc2cc(O)cc(O)c12
REMARK SMILES IDX 5 1 3 2 2 3 1 4 22 5 20 6 19 7 17 8 16 9 15 10 14 11 6 12
REMARK SMILES IDX 7 13 8 14 9 15 13 16 11 17 10 18 12 20 4 22 21 24 18 26
REMARK H PARENT 10 19 12 21 4 23 21 25 18 27
REMARK Flexibility Score: inf
ROOT
ATOM      1  C   UNL     1     132.580 130.569 124.674  1.00  0.00     0.180 A 
ATOM      2  C   UNL     1     131.467 130.145 125.426  1.00  0.00     0.208 A 
ATOM      3  C   UNL     1     130.614 129.171 124.885  1.00  0.00     0.238 A 
ATOM      4  O   UNL     1     129.620 128.776 125.554  1.00  0.00    -0.285 OA
ATOM      5  C   UNL     1     130.873 128.653 123.600  1.00  0.00     0.111 A 
ATOM      6  C   UNL     1     130.060 127.672 122.981  1.00  0.00     0.134 A 
ATOM      7  C   UNL     1     130.381 127.213 121.696  1.00  0.00     0.093 A 
ATOM      8  C   UNL     1     131.496 127.717 121.016  1.00  0.00     0.123 A 
ATOM      9  C   UNL     1     132.301 128.684 121.622  1.00  0.00     0.094 A 
ATOM     10  C   UNL     1     132.000 129.152 122.904  1.00  0.00     0.146 A 
ATOM     11  O   UNL     1     132.785 130.068 123.459  1.00  0.00    -0.452 OA
ENDROOT
BRANCH   1  12
ATOM     12  C   UNL     1     133.536 131.578 125.183  1.00  0.00     0.025 A 
ATOM     13  C   UNL     1     134.920 131.328 125.211  1.00  0.00     0.016 A 
ATOM     14  C   UNL     1     135.804 132.305 125.675  1.00  0.00     0.051 A 
ATOM     15  C   UNL     1     135.323 133.550 126.102  1.00  0.00     0.157 A 
ATOM     16  C   UNL     1     133.061 132.834 125.593  1.00  0.00     0.062 A 
ATOM     17  C   UNL     1     133.945 133.815 126.058  1.00  0.00     0.158 A 
BRANCH  15  18
ATOM     18  O   UNL     1     136.209 134.521 126.565  1.00  0.00    -0.504 OA
ATOM     19  H   UNL     1     135.984 135.509 126.521  1.00  0.00     0.293 HD
ENDBRANCH  15  18
BRANCH  17  20
ATOM     20  O   UNL     1     133.435 135.046 126.469  1.00  0.00    -0.504 OA
ATOM     21  H   UNL     1     133.082 135.196 127.407  1.00  0.00     0.293 HD
ENDBRANCH  17  20
ENDBRANCH   1  12
BRANCH   2  22
ATOM     22  O   UNL     1     131.204 130.710 126.677  1.00  0.00    -0.502 OA
ATOM     23  H   UNL     1     130.488 131.413 126.815  1.00  0.00     0.293 HD
ENDBRANCH   2  22
BRANCH   6  24
ATOM     24  O   UNL     1     128.941 127.152 123.632  1.00  0.00    -0.507 OA
ATOM     25  H   UNL     1     128.006 127.492 123.441  1.00  0.00     0.293 HD
ENDBRANCH   6  24
BRANCH   8  26
ATOM     26  O   UNL     1     131.814 127.263 119.738  1.00  0.00    -0.508 OA
ATOM     27  H   UNL     1     131.094 127.042 119.061  1.00  0.00     0.293 HD
ENDBRANCH   8  26
TORSDOF 6
ENDMDL
MODEL 7
REMARK VINA RESULT:    -6.343      2.041      2.924
REMARK INTER + INTRA:          -7.967
REMARK INTER:                  -7.654
REMARK INTRA:                  -0.312
REMARK UNBOUND:                -0.326
REMARK SMILES O=c1c(O)c(-c2ccc(O)c(O)c2)oc2cc(O)cc(O)c12
REMARK SMILES IDX 5 1 3 2 2 3 1 4 22 5 20 6 19 7 17 8 16 9 15 10 14 11 6 12
REMARK SMILES IDX 7 13 8 14 9 15 13 16 11 17 10 18 12 20 4 22 21 24 18 26
REMARK H PARENT 10 19 12 21 4 23 21 25 18 27
REMARK Flexibility Score: inf
ROOT
ATOM      1  C   UNL     1     129.627 125.236 125.444  1.00  0.00     0.180 A 
ATOM      2  C   UNL     1     128.560 126.136 125.625  1.00  0.00     0.208 A 
ATOM      3  C   UNL     1     128.253 127.041 124.597  1.00  0.00     0.238 A 
ATOM      4  O   UNL     1     127.293 127.846 124.744  1.00  0.00    -0.285 OA
ATOM      5  C   UNL     1     129.027 127.046 123.419  1.00  0.00     0.111 A 
ATOM      6  C   UNL     1     128.787 127.928 122.337  1.00  0.00     0.134 A 
ATOM      7  C   UNL     1     129.608 127.875 121.201  1.00  0.00     0.093 A 
ATOM      8  C   UNL     1     130.664 126.960 121.126  1.00  0.00     0.123 A 
ATOM      9  C   UNL     1     130.904 126.088 122.190  1.00  0.00     0.094 A 
ATOM     10  C   UNL     1     130.096 126.123 123.330  1.00  0.00     0.146 A 
ATOM     11  O   UNL     1     130.344 125.279 124.324  1.00  0.00    -0.452 OA
ENDROOT
BRANCH   1  12
ATOM     12  C   UNL     1     129.999 124.239 126.473  1.00  0.00     0.025 A 
ATOM     13  C   UNL     1     131.004 124.505 127.421  1.00  0.00     0.016 A 
ATOM     14  C   UNL     1     131.321 123.557 128.398  1.00  0.00     0.051 A 
ATOM     15  C   UNL     1     130.630 122.340 128.453  1.00  0.00     0.157 A 
ATOM     16  C   UNL     1     129.296 123.026 126.546  1.00  0.00     0.062 A 
ATOM     17  C   UNL     1     129.611 122.075 127.523  1.00  0.00     0.158 A 
BRANCH  15  18
ATOM     18  O   UNL     1     130.951 121.396 129.427  1.00  0.00    -0.504 OA
ATOM     19  H   UNL     1     130.945 121.629 130.414  1.00  0.00     0.293 HD
ENDBRANCH  15  18
BRANCH  17  20
ATOM     20  O   UNL     1     128.901 120.875 127.555  1.00  0.00    -0.504 OA
ATOM     21  H   UNL     1     128.806 120.328 128.403  1.00  0.00     0.293 HD
ENDBRANCH  17  20
ENDBRANCH   1  12
BRANCH   2  22
ATOM     22  O   UNL     1     127.840 126.146 126.823  1.00  0.00    -0.502 OA
ATOM     23  H   UNL     1     127.657 125.302 127.353  1.00  0.00     0.293 HD
ENDBRANCH   2  22
BRANCH   6  24
ATOM     24  O   UNL     1     127.743 128.853 122.383  1.00  0.00    -0.507 OA
ATOM     25  H   UNL     1     127.146 129.024 121.582  1.00  0.00     0.293 HD
ENDBRANCH   6  24
BRANCH   8  26
ATOM     26  O   UNL     1     131.481 126.909 119.999  1.00  0.00    -0.508 OA
ATOM     27  H   UNL     1     132.120 126.140 119.843  1.00  0.00     0.293 HD
ENDBRANCH   8  26
TORSDOF 6
ENDMDL
MODEL 8
REMARK VINA RESULT:    -6.255      4.499      6.862
REMARK INTER + INTRA:          -7.860
REMARK INTER:                  -7.679
REMARK INTRA:                  -0.181
REMARK UNBOUND:                -0.326
REMARK SMILES O=c1c(O)c(-c2ccc(O)c(O)c2)oc2cc(O)cc(O)c12
REMARK SMILES IDX 5 1 3 2 2 3 1 4 22 5 20 6 19 7 17 8 16 9 15 10 14 11 6 12
REMARK SMILES IDX 7 13 8 14 9 15 13 16 11 17 10 18 12 20 4 22 21 24 18 26
REMARK H PARENT 10 19 12 21 4 23 21 25 18 27
REMARK Flexibility Score: inf
ROOT
ATOM      1  C   UNL     1     131.990 128.635 123.091  1.00  0.00     0.180 A 
ATOM      2  C   UNL     1     132.113 128.000 121.841  1.00  0.00     0.208 A 
ATOM      3  C   UNL     1     130.956 127.518 121.208  1.00  0.00     0.238 A 
ATOM      4  O   UNL     1     131.053 126.956 120.083  1.00  0.00    -0.285 OA
ATOM      5  C   UNL     1     129.705 127.658 121.841  1.00  0.00     0.111 A 
ATOM      6  C   UNL     1     128.492 127.196 121.274  1.00  0.00     0.134 A 
ATOM      7  C   UNL     1     127.288 127.367 121.972  1.00  0.00     0.093 A 
ATOM      8  C   UNL     1     127.272 127.989 123.226  1.00  0.00     0.123 A 
ATOM      9  C   UNL     1     128.465 128.447 123.789  1.00  0.00     0.094 A 
ATOM     10  C   UNL     1     129.676 128.288 123.108  1.00  0.00     0.146 A 
ATOM     11  O   UNL     1     130.794 128.737 123.665  1.00  0.00    -0.452 OA
ENDROOT
BRANCH   1  12
ATOM     12  C   UNL     1     133.159 129.187 123.811  1.00  0.00     0.025 A 
ATOM     13  C   UNL     1     134.176 128.351 124.307  1.00  0.00     0.016 A 
ATOM     14  C   UNL     1     135.282 128.897 124.963  1.00  0.00     0.051 A 
ATOM     15  C   UNL     1     135.397 130.285 125.120  1.00  0.00     0.157 A 
ATOM     16  C   UNL     1     133.290 130.578 123.953  1.00  0.00     0.062 A 
ATOM     17  C   UNL     1     134.397 131.128 124.609  1.00  0.00     0.158 A 
BRANCH  15  18
ATOM     18  O   UNL     1     136.501 130.826 125.776  1.00  0.00    -0.504 OA
ATOM     19  H   UNL     1     136.421 131.237 126.699  1.00  0.00     0.293 HD
ENDBRANCH  15  18
BRANCH  17  20
ATOM     20  O   UNL     1     134.485 132.514 124.743  1.00  0.00    -0.504 OA
ATOM     21  H   UNL     1     134.421 132.973 125.644  1.00  0.00     0.293 HD
ENDBRANCH  17  20
ENDBRANCH   1  12
BRANCH   2  22
ATOM     22  O   UNL     1     133.371 127.828 121.256  1.00  0.00    -0.502 OA
ATOM     23  H   UNL     1     134.223 128.147 121.700  1.00  0.00     0.293 HD
ENDBRANCH   2  22
BRANCH   6  24
ATOM     24  O   UNL     1     128.476 126.571 120.027  1.00  0.00    -0.507 OA
ATOM     25  H   UNL     1     128.626 127.088 119.168  1.00  0.00     0.293 HD
ENDBRANCH   6  24
BRANCH   8  26
ATOM     26  O   UNL     1     126.076 128.157 123.920  1.00  0.00    -0.508 OA
ATOM     27  H   UNL     1     125.520 128.997 123.820  1.00  0.00     0.293 HD
ENDBRANCH   8  26
TORSDOF 6
ENDMDL
MODEL 9
REMARK VINA RESULT:    -6.227      3.452      4.997
REMARK INTER + INTRA:          -7.827
REMARK INTER:                  -7.711
REMARK INTRA:                  -0.116
REMARK UNBOUND:                -0.326
REMARK SMILES O=c1c(O)c(-c2ccc(O)c(O)c2)oc2cc(O)cc(O)c12
REMARK SMILES IDX 5 1 3 2 2 3 1 4 22 5 20 6 19 7 17 8 16 9 15 10 14 11 6 12
REMARK SMILES IDX 7 13 8 14 9 15 13 16 11 17 10 18 12 20 4 22 21 24 18 26
REMARK H PARENT 10 19 12 21 4 23 21 25 18 27
REMARK Flexibility Score: inf
ROOT
ATOM      1  C   UNL     1     128.244 128.054 124.332  1.00  0.00     0.180 A 
ATOM      2  C   UNL     1     127.214 127.747 123.421  1.00  0.00     0.208 A 
ATOM      3  C   UNL     1     127.557 127.357 122.117  1.00  0.00     0.238 A 
ATOM      4  O   UNL     1     126.643 127.069 121.296  1.00  0.00    -0.285 OA
ATOM      5  C   UNL     1     128.913 127.300 121.739  1.00  0.00     0.111 A 
ATOM      6  C   UNL     1     129.342 126.921 120.444  1.00  0.00     0.134 A 
ATOM      7  C   UNL     1     130.712 126.898 120.144  1.00  0.00     0.093 A 
ATOM      8  C   UNL     1     131.660 127.248 121.112  1.00  0.00     0.123 A 
ATOM      9  C   UNL     1     131.242 127.622 122.391  1.00  0.00     0.094 A 
ATOM     10  C   UNL     1     129.881 127.649 122.710  1.00  0.00     0.146 A 
ATOM     11  O   UNL     1     129.512 128.004 123.935  1.00  0.00    -0.452 OA
ENDROOT
BRANCH   1  12
ATOM     12  C   UNL     1     127.964 128.454 125.729  1.00  0.00     0.025 A 
ATOM     13  C   UNL     1     127.202 129.599 126.025  1.00  0.00     0.016 A 
ATOM     14  C   UNL     1     126.932 129.943 127.352  1.00  0.00     0.051 A 
ATOM     15  C   UNL     1     127.404 129.142 128.401  1.00  0.00     0.157 A 
ATOM     16  C   UNL     1     128.418 127.645 126.783  1.00  0.00     0.062 A 
ATOM     17  C   UNL     1     128.148 127.987 128.114  1.00  0.00     0.158 A 
BRANCH  15  18
ATOM     18  O   UNL     1     127.134 129.490 129.724  1.00  0.00    -0.504 OA
ATOM     19  H   UNL     1     127.101 128.794 130.459  1.00  0.00     0.293 HD
ENDBRANCH  15  18
BRANCH  17  20
ATOM     20  O   UNL     1     128.627 127.166 129.134  1.00  0.00    -0.504 OA
ATOM     21  H   UNL     1     128.159 127.091 130.030  1.00  0.00     0.293 HD
ENDBRANCH  17  20
ENDBRANCH   1  12
BRANCH   2  22
ATOM     22  O   UNL     1     125.875 127.858 123.805  1.00  0.00    -0.502 OA
ATOM     23  H   UNL     1     125.125 127.968 123.133  1.00  0.00     0.293 HD
ENDBRANCH   2  22
BRANCH   6  24
ATOM     24  O   UNL     1     128.421 126.569 119.457  1.00  0.00    -0.507 OA
ATOM     25  H   UNL     1     128.613 126.710 118.472  1.00  0.00     0.293 HD
ENDBRANCH   6  24
BRANCH   8  26
ATOM     26  O   UNL     1     133.021 127.228 120.813  1.00  0.00    -0.508 OA
ATOM     27  H   UNL     1     133.558 128.082 120.735  1.00  0.00     0.293 HD
ENDBRANCH   8  26
TORSDOF 6
ENDMDL
