MODEL 1
REMARK VINA RESULT:    -3.507      0.000      0.000
REMARK INTER + INTRA:          -7.658
REMARK INTER:                  -6.172
REMARK INTRA:                  -1.486
REMARK UNBOUND:                -1.486
REMARK SMILES CCCCCCC=CCCCCCCCC(=O)[O-]
REMARK SMILES IDX 10 1 11 2 12 3 13 4 14 5 15 6 16 7 17 8 18 9 9 10 8 11 7 12
REMARK SMILES IDX 6 13 5 14 4 15 3 16 2 17 1 18
REMARK H PARENT
REMARK Flexibility Score: inf
ROOT
ATOM      1  C   UNL     1      -8.922  15.316 -12.924  1.00  0.00     0.004 C 
ENDROOT
BRANCH   1   2
ATOM      2  C   UNL     1      -7.786  14.507 -12.274  1.00  0.00     0.000 C 
BRANCH   2   3
ATOM      3  C   UNL     1      -7.427  13.247 -13.077  1.00  0.00     0.000 C 
BRANCH   3   4
ATOM      4  C   UNL     1      -6.311  13.499 -14.106  1.00  0.00     0.000 C 
BRANCH   4   5
ATOM      5  C   UNL     1      -6.823  13.459 -15.558  1.00  0.00     0.006 C 
BRANCH   5   6
ATOM      6  C   UNL     1      -8.027  12.529 -15.777  1.00  0.00     0.053 C 
BRANCH   6   7
ATOM      7  C   UNL     1      -9.298  13.294 -15.984  1.00  0.00     0.041 C 
ATOM      8  O   UNL     1     -10.404  12.693 -15.999  1.00  0.00    -0.550 OA
ATOM      9  O   UNL     1      -9.263  14.676 -16.125  1.00  0.00    -0.550 OA
ENDBRANCH   6   7
ENDBRANCH   5   6
ENDBRANCH   4   5
ENDBRANCH   3   4
ENDBRANCH   2   3
ENDBRANCH   1   2
BRANCH   1  10
ATOM     10  C   UNL     1      -8.773  16.825 -12.672  1.00  0.00     0.027 C 
BRANCH  10  11
ATOM     11  C   UNL     1      -8.582  17.601 -13.947  1.00  0.00    -0.031 C 
ATOM     12  C   UNL     1      -7.568  17.337 -14.787  1.00  0.00    -0.031 C 
BRANCH  12  13
ATOM     13  C   UNL     1      -7.372  18.119 -16.057  1.00  0.00     0.027 C 
BRANCH  13  14
ATOM     14  C   UNL     1      -8.212  19.405 -16.054  1.00  0.00     0.004 C 
BRANCH  14  15
ATOM     15  C   UNL     1      -7.348  20.664 -15.833  1.00  0.00     0.000 C 
BRANCH  15  16
ATOM     16  C   UNL     1      -5.980  20.367 -15.196  1.00  0.00    -0.000 C 
BRANCH  16  17
ATOM     17  C   UNL     1      -5.883  20.844 -13.740  1.00  0.00    -0.003 C 
ATOM     18  C   UNL     1      -7.265  20.956 -13.105  1.00  0.00     0.004 C 
ENDBRANCH  16  17
ENDBRANCH  15  16
ENDBRANCH  14  15
ENDBRANCH  13  14
ENDBRANCH  12  13
ENDBRANCH  10  11
ENDBRANCH   1  10
TORSDOF 13
ENDMDL
MODEL 2
REMARK VINA RESULT:    -3.195      2.821      6.477
REMARK INTER + INTRA:          -7.109
REMARK INTER:                  -5.437
REMARK INTRA:                  -1.672
REMARK UNBOUND:                -1.486
REMARK SMILES CCCCCCC=CCCCCCCCC(=O)[O-]
REMARK SMILES IDX 10 1 11 2 12 3 13 4 14 5 15 6 16 7 17 8 18 9 9 10 8 11 7 12
REMARK SMILES IDX 6 13 5 14 4 15 3 16 2 17 1 18
REMARK H PARENT
REMARK Flexibility Score: inf
ROOT
ATOM      1  C   UNL     1      -9.293  17.234 -13.314  1.00  0.00     0.004 C 
ENDROOT
BRANCH   1   2
ATOM      2  C   UNL     1      -8.883  16.822 -14.737  1.00  0.00     0.000 C 
BRANCH   2   3
ATOM      3  C   UNL     1      -8.450  18.020 -15.596  1.00  0.00     0.000 C 
BRANCH   3   4
ATOM      4  C   UNL     1      -6.966  17.957 -15.996  1.00  0.00     0.000 C 
BRANCH   4   5
ATOM      5  C   UNL     1      -6.144  19.122 -15.415  1.00  0.00     0.006 C 
BRANCH   5   6
ATOM      6  C   UNL     1      -6.029  19.110 -13.883  1.00  0.00     0.053 C 
BRANCH   6   7
ATOM      7  C   UNL     1      -6.683  20.306 -13.260  1.00  0.00     0.041 C 
ATOM      8  O   UNL     1      -6.214  20.806 -12.204  1.00  0.00    -0.550 OA
ATOM      9  O   UNL     1      -7.788  20.889 -13.867  1.00  0.00    -0.550 OA
ENDBRANCH   6   7
ENDBRANCH   5   6
ENDBRANCH   4   5
ENDBRANCH   3   4
ENDBRANCH   2   3
ENDBRANCH   1   2
BRANCH   1  10
ATOM     10  C   UNL     1      -8.898  16.178 -12.270  1.00  0.00     0.027 C 
BRANCH  10  11
ATOM     11  C   UNL     1      -7.739  15.331 -12.723  1.00  0.00    -0.031 C 
ATOM     12  C   UNL     1      -7.791  13.990 -12.686  1.00  0.00    -0.031 C 
BRANCH  12  13
ATOM     13  C   UNL     1      -6.630  13.144 -13.131  1.00  0.00     0.027 C 
BRANCH  13  14
ATOM     14  C   UNL     1      -6.173  13.527 -14.547  1.00  0.00     0.004 C 
BRANCH  14  15
ATOM     15  C   UNL     1      -6.120  12.307 -15.490  1.00  0.00     0.000 C 
BRANCH  15  16
ATOM     16  C   UNL     1      -7.477  11.957 -16.122  1.00  0.00    -0.000 C 
BRANCH  16  17
ATOM     17  C   UNL     1      -8.458  13.138 -16.121  1.00  0.00    -0.003 C 
ATOM     18  C   UNL     1      -9.759  12.772 -15.413  1.00  0.00     0.004 C 
ENDBRANCH  16  17
ENDBRANCH  15  16
ENDBRANCH  14  15
ENDBRANCH  13  14
ENDBRANCH  12  13
ENDBRANCH  10  11
ENDBRANCH   1  10
TORSDOF 13
ENDMDL
MODEL 3
REMARK VINA RESULT:    -2.529      1.652      6.034
REMARK INTER + INTRA:          -5.937
REMARK INTER:                  -4.912
REMARK INTRA:                  -1.025
REMARK UNBOUND:                -1.486
REMARK SMILES CCCCCCC=CCCCCCCCC(=O)[O-]
REMARK SMILES IDX 10 1 11 2 12 3 13 4 14 5 15 6 16 7 17 8 18 9 9 10 8 11 7 12
REMARK SMILES IDX 6 13 5 14 4 15 3 16 2 17 1 18
REMARK H PARENT
REMARK Flexibility Score: inf
ROOT
ATOM      1  C   UNL     1      -9.036  18.262 -12.907  1.00  0.00     0.004 C 
ENDROOT
BRANCH   1   2
ATOM      2  C   UNL     1      -8.059  19.315 -12.357  1.00  0.00     0.000 C 
BRANCH   2   3
ATOM      3  C   UNL     1      -7.798  20.454 -13.354  1.00  0.00     0.000 C 
BRANCH   3   4
ATOM      4  C   UNL     1      -6.332  20.509 -13.820  1.00  0.00     0.000 C 
BRANCH   4   5
ATOM      5  C   UNL     1      -5.957  19.332 -14.739  1.00  0.00     0.006 C 
BRANCH   5   6
ATOM      6  C   UNL     1      -6.912  19.129 -15.926  1.00  0.00     0.053 C 
BRANCH   6   7
ATOM      7  C   UNL     1      -7.492  17.748 -15.952  1.00  0.00     0.041 C 
ATOM      8  O   UNL     1      -8.739  17.584 -15.909  1.00  0.00    -0.550 OA
ATOM      9  O   UNL     1      -6.656  16.644 -16.059  1.00  0.00    -0.550 OA
ENDBRANCH   6   7
ENDBRANCH   5   6
ENDBRANCH   4   5
ENDBRANCH   3   4
ENDBRANCH   2   3
ENDBRANCH   1   2
BRANCH   1  10
ATOM     10  C   UNL     1      -9.070  16.995 -12.038  1.00  0.00     0.027 C 
BRANCH  10  11
ATOM     11  C   UNL     1      -8.690  15.760 -12.810  1.00  0.00    -0.031 C 
ATOM     12  C   UNL     1      -8.135  14.697 -12.207  1.00  0.00    -0.031 C 
BRANCH  12  13
ATOM     13  C   UNL     1      -7.748  13.466 -12.980  1.00  0.00     0.027 C 
BRANCH  13  14
ATOM     14  C   UNL     1      -6.504  13.721 -13.845  1.00  0.00     0.004 C 
BRANCH  14  15
ATOM     15  C   UNL     1      -6.457  12.797 -15.080  1.00  0.00     0.000 C 
BRANCH  15  16
ATOM     16  C   UNL     1      -7.543  13.108 -16.124  1.00  0.00    -0.000 C 
BRANCH  16  17
ATOM     17  C   UNL     1      -8.697  12.096 -16.103  1.00  0.00    -0.003 C 
ATOM     18  C   UNL     1      -9.981  12.735 -15.582  1.00  0.00     0.004 C 
ENDBRANCH  16  17
ENDBRANCH  15  16
ENDBRANCH  14  15
ENDBRANCH  13  14
ENDBRANCH  12  13
ENDBRANCH  10  11
ENDBRANCH   1  10
TORSDOF 13
ENDMDL
MODEL 4
REMARK VINA RESULT:    -2.343      1.685      3.129
REMARK INTER + INTRA:          -5.609
REMARK INTER:                  -6.026
REMARK INTRA:                   0.417
REMARK UNBOUND:                -1.486
REMARK SMILES CCCCCCC=CCCCCCCCC(=O)[O-]
REMARK SMILES IDX 10 1 11 2 12 3 13 4 14 5 15 6 16 7 17 8 18 9 9 10 8 11 7 12
REMARK SMILES IDX 6 13 5 14 4 15 3 16 2 17 1 18
REMARK H PARENT
REMARK Flexibility Score: inf
ROOT
ATOM      1  C   UNL     1      -8.744  13.244 -15.263  1.00  0.00     0.004 C 
ENDROOT
BRANCH   1   2
ATOM      2  C   UNL     1      -7.417  12.501 -15.494  1.00  0.00     0.000 C 
BRANCH   2   3
ATOM      3  C   UNL     1      -6.274  13.054 -14.630  1.00  0.00     0.000 C 
BRANCH   3   4
ATOM      4  C   UNL     1      -6.646  13.136 -13.139  1.00  0.00     0.000 C 
BRANCH   4   5
ATOM      5  C   UNL     1      -8.024  13.783 -12.905  1.00  0.00     0.006 C 
BRANCH   5   6
ATOM      6  C   UNL     1      -8.012  14.943 -11.897  1.00  0.00     0.053 C 
BRANCH   6   7
ATOM      7  C   UNL     1      -8.806  16.117 -12.380  1.00  0.00     0.041 C 
ATOM      8  O   UNL     1      -8.394  17.288 -12.176  1.00  0.00    -0.550 OA
ATOM      9  O   UNL     1      -9.984  15.915 -13.089  1.00  0.00    -0.550 OA
ENDBRANCH   6   7
ENDBRANCH   5   6
ENDBRANCH   4   5
ENDBRANCH   3   4
ENDBRANCH   2   3
ENDBRANCH   1   2
BRANCH   1  10
ATOM     10  C   UNL     1      -8.854  14.512 -16.125  1.00  0.00     0.027 C 
BRANCH  10  11
ATOM     11  C   UNL     1      -7.604  15.348 -16.075  1.00  0.00    -0.031 C 
ATOM     12  C   UNL     1      -7.633  16.636 -15.700  1.00  0.00    -0.031 C 
BRANCH  12  13
ATOM     13  C   UNL     1      -6.384  17.474 -15.658  1.00  0.00     0.027 C 
BRANCH  13  14
ATOM     14  C   UNL     1      -6.663  18.913 -16.118  1.00  0.00     0.004 C 
BRANCH  14  15
ATOM     15  C   UNL     1      -8.089  19.374 -15.750  1.00  0.00     0.000 C 
BRANCH  15  16
ATOM     16  C   UNL     1      -8.121  20.658 -14.904  1.00  0.00    -0.000 C 
BRANCH  16  17
ATOM     17  C   UNL     1      -7.677  20.429 -13.453  1.00  0.00    -0.003 C 
ATOM     18  C   UNL     1      -6.162  20.540 -13.317  1.00  0.00     0.004 C 
ENDBRANCH  16  17
ENDBRANCH  15  16
ENDBRANCH  14  15
ENDBRANCH  13  14
ENDBRANCH  12  13
ENDBRANCH  10  11
ENDBRANCH   1  10
TORSDOF 13
ENDMDL
MODEL 5
REMARK VINA RESULT:    -2.293      2.882      6.893
REMARK INTER + INTRA:          -5.521
REMARK INTER:                  -4.945
REMARK INTRA:                  -0.576
REMARK UNBOUND:                -1.486
REMARK SMILES CCCCCCC=CCCCCCCCC(=O)[O-]
REMARK SMILES IDX 10 1 11 2 12 3 13 4 14 5 15 6 16 7 17 8 18 9 9 10 8 11 7 12
REMARK SMILES IDX 6 13 5 14 4 15 3 16 2 17 1 18
REMARK H PARENT
REMARK Flexibility Score: inf
ROOT
ATOM      1  C   UNL     1      -7.149  17.254 -14.470  1.00  0.00     0.004 C 
ENDROOT
BRANCH   1   2
ATOM      2  C   UNL     1      -8.491  17.506 -15.178  1.00  0.00     0.000 C 
BRANCH   2   3
ATOM      3  C   UNL     1      -8.443  18.722 -16.116  1.00  0.00     0.000 C 
BRANCH   3   4
ATOM      4  C   UNL     1      -8.656  20.052 -15.373  1.00  0.00     0.000 C 
BRANCH   4   5
ATOM      5  C   UNL     1      -7.484  21.033 -15.563  1.00  0.00     0.006 C 
BRANCH   5   6
ATOM      6  C   UNL     1      -6.348  20.863 -14.542  1.00  0.00     0.053 C 
BRANCH   6   7
ATOM      7  C   UNL     1      -6.867  20.663 -13.151  1.00  0.00     0.041 C 
ATOM      8  O   UNL     1      -8.093  20.460 -12.956  1.00  0.00    -0.550 OA
ATOM      9  O   UNL     1      -5.989  20.666 -12.074  1.00  0.00    -0.550 OA
ENDBRANCH   6   7
ENDBRANCH   5   6
ENDBRANCH   4   5
ENDBRANCH   3   4
ENDBRANCH   2   3
ENDBRANCH   1   2
BRANCH   1  10
ATOM     10  C   UNL     1      -5.978  17.178 -15.461  1.00  0.00     0.027 C 
BRANCH  10  11
ATOM     11  C   UNL     1      -5.876  15.831 -16.125  1.00  0.00    -0.031 C 
ATOM     12  C   UNL     1      -6.039  14.692 -15.434  1.00  0.00    -0.031 C 
BRANCH  12  13
ATOM     13  C   UNL     1      -5.929  13.345 -16.096  1.00  0.00     0.027 C 
BRANCH  13  14
ATOM     14  C   UNL     1      -7.031  12.393 -15.607  1.00  0.00     0.004 C 
BRANCH  14  15
ATOM     15  C   UNL     1      -7.468  12.704 -14.161  1.00  0.00     0.000 C 
BRANCH  15  16
ATOM     16  C   UNL     1      -8.907  13.236 -14.053  1.00  0.00    -0.000 C 
BRANCH  16  17
ATOM     17  C   UNL     1      -9.509  13.611 -15.414  1.00  0.00    -0.003 C 
ATOM     18  C   UNL     1     -10.543  12.583 -15.861  1.00  0.00     0.004 C 
ENDBRANCH  16  17
ENDBRANCH  15  16
ENDBRANCH  14  15
ENDBRANCH  13  14
ENDBRANCH  12  13
ENDBRANCH  10  11
ENDBRANCH   1  10
TORSDOF 13
ENDMDL
MODEL 6
REMARK VINA RESULT:    -1.936      2.002      6.553
REMARK INTER + INTRA:          -4.893
REMARK INTER:                  -4.689
REMARK INTRA:                  -0.204
REMARK UNBOUND:                -1.486
REMARK SMILES CCCCCCC=CCCCCCCCC(=O)[O-]
REMARK SMILES IDX 10 1 11 2 12 3 13 4 14 5 15 6 16 7 17 8 18 9 9 10 8 11 7 12
REMARK SMILES IDX 6 13 5 14 4 15 3 16 2 17 1 18
REMARK H PARENT
REMARK Flexibility Score: inf
ROOT
ATOM      1  C   UNL     1      -6.728  17.965 -15.115  1.00  0.00     0.004 C 
ENDROOT
BRANCH   1   2
ATOM      2  C   UNL     1      -7.891  18.708 -15.794  1.00  0.00     0.000 C 
BRANCH   2   3
ATOM      3  C   UNL     1      -8.086  20.128 -15.240  1.00  0.00     0.000 C 
BRANCH   3   4
ATOM      4  C   UNL     1      -8.666  20.133 -13.815  1.00  0.00     0.000 C 
BRANCH   4   5
ATOM      5  C   UNL     1      -8.165  18.949 -12.966  1.00  0.00     0.006 C 
BRANCH   5   6
ATOM      6  C   UNL     1      -9.272  18.219 -12.189  1.00  0.00     0.053 C 
BRANCH   6   7
ATOM      7  C   UNL     1      -9.160  16.730 -12.315  1.00  0.00     0.041 C 
ATOM      8  O   UNL     1      -8.228  16.114 -11.737  1.00  0.00    -0.550 OA
ATOM      9  O   UNL     1     -10.108  16.021 -13.043  1.00  0.00    -0.550 OA
ENDBRANCH   6   7
ENDBRANCH   5   6
ENDBRANCH   4   5
ENDBRANCH   3   4
ENDBRANCH   2   3
ENDBRANCH   1   2
BRANCH   1  10
ATOM     10  C   UNL     1      -5.877  17.178 -16.125  1.00  0.00     0.027 C 
BRANCH  10  11
ATOM     11  C   UNL     1      -6.201  15.708 -16.122  1.00  0.00    -0.031 C 
ATOM     12  C   UNL     1      -5.986  14.942 -15.041  1.00  0.00    -0.031 C 
BRANCH  12  13
ATOM     13  C   UNL     1      -6.301  13.471 -15.042  1.00  0.00     0.027 C 
BRANCH  13  14
ATOM     14  C   UNL     1      -7.106  13.075 -13.795  1.00  0.00     0.004 C 
BRANCH  14  15
ATOM     15  C   UNL     1      -8.559  12.688 -14.141  1.00  0.00     0.000 C 
BRANCH  15  16
ATOM     16  C   UNL     1      -8.787  12.422 -15.638  1.00  0.00    -0.000 C 
BRANCH  16  17
ATOM     17  C   UNL     1     -10.272  12.411 -16.024  1.00  0.00    -0.003 C 
ATOM     18  C   UNL     1     -10.877  11.022 -15.847  1.00  0.00     0.004 C 
ENDBRANCH  16  17
ENDBRANCH  15  16
ENDBRANCH  14  15
ENDBRANCH  13  14
ENDBRANCH  12  13
ENDBRANCH  10  11
ENDBRANCH   1  10
TORSDOF 13
ENDMDL
MODEL 7
REMARK VINA RESULT:    -1.606      1.879      2.207
REMARK INTER + INTRA:          -4.313
REMARK INTER:                  -4.332
REMARK INTRA:                   0.020
REMARK UNBOUND:                -1.486
REMARK SMILES CCCCCCC=CCCCCCCCC(=O)[O-]
REMARK SMILES IDX 10 1 11 2 12 3 13 4 14 5 15 6 16 7 17 8 18 9 9 10 8 11 7 12
REMARK SMILES IDX 6 13 5 14 4 15 3 16 2 17 1 18
REMARK H PARENT
REMARK Flexibility Score: inf
ROOT
ATOM      1  C   UNL     1      -9.544  16.263 -12.877  1.00  0.00     0.004 C 
ENDROOT
BRANCH   1   2
ATOM      2  C   UNL     1      -8.169  15.738 -12.432  1.00  0.00     0.000 C 
BRANCH   2   3
ATOM      3  C   UNL     1      -7.715  14.513 -13.241  1.00  0.00     0.000 C 
BRANCH   3   4
ATOM      4  C   UNL     1      -8.850  13.909 -14.086  1.00  0.00     0.000 C 
BRANCH   4   5
ATOM      5  C   UNL     1      -8.395  13.531 -15.508  1.00  0.00     0.006 C 
BRANCH   5   6
ATOM      6  C   UNL     1      -6.871  13.543 -15.706  1.00  0.00     0.053 C 
BRANCH   6   7
ATOM      7  C   UNL     1      -6.235  12.263 -15.257  1.00  0.00     0.041 C 
ATOM      8  O   UNL     1      -5.877  11.403 -16.102  1.00  0.00    -0.550 OA
ATOM      9  O   UNL     1      -6.006  12.038 -13.905  1.00  0.00    -0.550 OA
ENDBRANCH   6   7
ENDBRANCH   5   6
ENDBRANCH   4   5
ENDBRANCH   3   4
ENDBRANCH   2   3
ENDBRANCH   1   2
BRANCH   1  10
ATOM     10  C   UNL     1      -9.474  16.994 -14.227  1.00  0.00     0.027 C 
BRANCH  10  11
ATOM     11  C   UNL     1      -8.080  17.458 -14.555  1.00  0.00    -0.031 C 
ATOM     12  C   UNL     1      -7.585  17.375 -15.800  1.00  0.00    -0.031 C 
BRANCH  12  13
ATOM     13  C   UNL     1      -6.189  17.832 -16.125  1.00  0.00     0.027 C 
BRANCH  13  14
ATOM     14  C   UNL     1      -6.042  19.349 -15.938  1.00  0.00     0.004 C 
BRANCH  14  15
ATOM     15  C   UNL     1      -7.367  20.012 -15.505  1.00  0.00     0.000 C 
BRANCH  15  16
ATOM     16  C   UNL     1      -7.185  21.125 -14.459  1.00  0.00    -0.000 C 
BRANCH  16  17
ATOM     17  C   UNL     1      -5.946  20.919 -13.577  1.00  0.00    -0.003 C 
ATOM     18  C   UNL     1      -6.307  20.984 -12.097  1.00  0.00     0.004 C 
ENDBRANCH  16  17
ENDBRANCH  15  16
ENDBRANCH  14  15
ENDBRANCH  13  14
ENDBRANCH  12  13
ENDBRANCH  10  11
ENDBRANCH   1  10
TORSDOF 13
ENDMDL
MODEL 8
REMARK VINA RESULT:    -1.601      2.606      6.489
REMARK INTER + INTRA:          -4.303
REMARK INTER:                  -3.746
REMARK INTRA:                  -0.557
REMARK UNBOUND:                -1.486
REMARK SMILES CCCCCCC=CCCCCCCCC(=O)[O-]
REMARK SMILES IDX 10 1 11 2 12 3 13 4 14 5 15 6 16 7 17 8 18 9 9 10 8 11 7 12
REMARK SMILES IDX 6 13 5 14 4 15 3 16 2 17 1 18
REMARK H PARENT
REMARK Flexibility Score: inf
ROOT
ATOM      1  C   UNL     1      -6.897  16.065 -13.271  1.00  0.00     0.004 C 
ENDROOT
BRANCH   1   2
ATOM      2  C   UNL     1      -6.209  17.003 -14.278  1.00  0.00     0.000 C 
BRANCH   2   3
ATOM      3  C   UNL     1      -7.209  17.706 -15.207  1.00  0.00     0.000 C 
BRANCH   3   4
ATOM      4  C   UNL     1      -6.545  18.777 -16.090  1.00  0.00     0.000 C 
BRANCH   4   5
ATOM      5  C   UNL     1      -6.168  20.046 -15.302  1.00  0.00     0.006 C 
BRANCH   5   6
ATOM      6  C   UNL     1      -7.357  20.741 -14.620  1.00  0.00     0.053 C 
BRANCH   6   7
ATOM      7  C   UNL     1      -7.476  20.364 -13.175  1.00  0.00     0.041 C 
ATOM      8  O   UNL     1      -6.572  20.684 -12.360  1.00  0.00    -0.550 OA
ATOM      9  O   UNL     1      -8.603  19.689 -12.723  1.00  0.00    -0.550 OA
ENDBRANCH   6   7
ENDBRANCH   5   6
ENDBRANCH   4   5
ENDBRANCH   3   4
ENDBRANCH   2   3
ENDBRANCH   1   2
BRANCH   1  10
ATOM     10  C   UNL     1      -8.429  16.132 -13.374  1.00  0.00     0.027 C 
BRANCH  10  11
ATOM     11  C   UNL     1      -9.007  14.940 -14.089  1.00  0.00    -0.031 C 
ATOM     12  C   UNL     1      -8.836  14.761 -15.408  1.00  0.00    -0.031 C 
BRANCH  12  13
ATOM     13  C   UNL     1      -9.421  13.574 -16.125  1.00  0.00     0.027 C 
BRANCH  13  14
ATOM     14  C   UNL     1      -8.479  12.363 -16.056  1.00  0.00     0.004 C 
BRANCH  14  15
ATOM     15  C   UNL     1      -7.004  12.783 -15.885  1.00  0.00     0.000 C 
BRANCH  15  16
ATOM     16  C   UNL     1      -6.108  11.667 -15.321  1.00  0.00    -0.000 C 
BRANCH  16  17
ATOM     17  C   UNL     1      -5.876  11.795 -13.809  1.00  0.00    -0.003 C 
ATOM     18  C   UNL     1      -6.970  12.632 -13.153  1.00  0.00     0.004 C 
ENDBRANCH  16  17
ENDBRANCH  15  16
ENDBRANCH  14  15
ENDBRANCH  13  14
ENDBRANCH  12  13
ENDBRANCH  10  11
ENDBRANCH   1  10
TORSDOF 13
ENDMDL
