MODEL 1
REMARK VINA RESULT:    -3.253      0.000      0.000
REMARK INTER + INTRA:          -4.761
REMARK INTER:                  -4.204
REMARK INTRA:                  -0.557
REMARK UNBOUND:                -0.557
REMARK SMILES CO[C@@]1(CO)O[C@@H](CO)[C@@H](O)[C@@H]1O
REMARK SMILES IDX 3 1 12 2 10 3 7 4 6 5 2 6 1 7 4 8 5 9 13 11 11 13 8 15 9 16
REMARK H PARENT 5 10 13 12 11 14 9 17
REMARK Flexibility Score: inf
ROOT
ATOM      1  C   UNL     1      16.902  -7.042   4.047  1.00  0.00     0.221 C 
ATOM      2  C   UNL     1      16.483  -5.574   4.386  1.00  0.00     0.207 C 
ATOM      3  C   UNL     1      14.982  -5.566   4.185  1.00  0.00     0.180 C 
ATOM      4  C   UNL     1      14.776  -6.762   3.267  1.00  0.00     0.179 C 
ATOM      5  O   UNL     1      15.742  -7.727   3.602  1.00  0.00    -0.337 OA
ENDROOT
BRANCH   1   6
ATOM      6  O   UNL     1      17.340  -7.717   5.225  1.00  0.00    -0.349 OA
ATOM      7  C   UNL     1      17.383  -9.129   5.095  1.00  0.00     0.198 C 
ENDBRANCH   1   6
BRANCH   1   8
ATOM      8  C   UNL     1      17.943  -7.149   2.894  1.00  0.00     0.224 C 
BRANCH   8   9
ATOM      9  O   UNL     1      19.094  -6.405   3.197  1.00  0.00    -0.391 OA
ATOM     10  H   UNL     1      19.873  -6.990   3.019  1.00  0.00     0.210 HD
ENDBRANCH   8   9
ENDBRANCH   1   8
BRANCH   2  11
ATOM     11  O   UNL     1      17.075  -4.635   3.520  1.00  0.00    -0.385 OA
ATOM     12  H   UNL     1      17.002  -3.751   3.964  1.00  0.00     0.211 HD
ENDBRANCH   2  11
BRANCH   3  13
ATOM     13  O   UNL     1      14.300  -5.701   5.411  1.00  0.00    -0.387 OA
ATOM     14  H   UNL     1      14.949  -5.552   6.148  1.00  0.00     0.211 HD
ENDBRANCH   3  13
BRANCH   4  15
ATOM     15  C   UNL     1      13.359  -7.361   3.305  1.00  0.00     0.191 C 
BRANCH  15  16
ATOM     16  O   UNL     1      13.226  -8.313   4.326  1.00  0.00    -0.394 OA
ATOM     17  H   UNL     1      13.476  -9.190   3.935  1.00  0.00     0.210 HD
ENDBRANCH  15  16
ENDBRANCH   4  15
TORSDOF 7
ENDMDL
MODEL 2
REMARK VINA RESULT:    -3.015      1.539      1.971
REMARK INTER + INTRA:          -4.454
REMARK INTER:                  -3.857
REMARK INTRA:                  -0.597
REMARK UNBOUND:                -0.557
REMARK SMILES CO[C@@]1(CO)O[C@@H](CO)[C@@H](O)[C@@H]1O
REMARK SMILES IDX 3 1 12 2 10 3 7 4 6 5 2 6 1 7 4 8 5 9 13 11 11 13 8 15 9 16
REMARK H PARENT 5 10 13 12 11 14 9 17
REMARK Flexibility Score: inf
ROOT
ATOM      1  C   UNL     1      16.489  -6.172   4.116  1.00  0.00     0.221 C 
ATOM      2  C   UNL     1      15.118  -5.449   3.907  1.00  0.00     0.207 C 
ATOM      3  C   UNL     1      14.173  -6.565   3.510  1.00  0.00     0.180 C 
ATOM      4  C   UNL     1      15.132  -7.631   3.003  1.00  0.00     0.179 C 
ATOM      5  O   UNL     1      16.314  -7.534   3.758  1.00  0.00    -0.337 OA
ENDROOT
BRANCH   1   6
ATOM      6  O   UNL     1      16.850  -6.162   5.496  1.00  0.00    -0.349 OA
ATOM      7  C   UNL     1      16.065  -5.285   6.287  1.00  0.00     0.198 C 
ENDBRANCH   1   6
BRANCH   1   8
ATOM      8  C   UNL     1      17.633  -5.625   3.211  1.00  0.00     0.224 C 
BRANCH   8   9
ATOM      9  O   UNL     1      18.109  -4.400   3.704  1.00  0.00    -0.391 OA
ATOM     10  H   UNL     1      17.655  -3.684   3.191  1.00  0.00     0.210 HD
ENDBRANCH   8   9
ENDBRANCH   1   8
BRANCH   2  11
ATOM     11  O   UNL     1      15.169  -4.492   2.877  1.00  0.00    -0.385 OA
ATOM     12  H   UNL     1      16.115  -4.440   2.581  1.00  0.00     0.211 HD
ENDBRANCH   2  11
BRANCH   3  13
ATOM     13  O   UNL     1      13.408  -7.003   4.609  1.00  0.00    -0.387 OA
ATOM     14  H   UNL     1      13.695  -7.925   4.843  1.00  0.00     0.211 HD
ENDBRANCH   3  13
BRANCH   4  15
ATOM     15  C   UNL     1      14.571  -9.064   3.036  1.00  0.00     0.191 C 
BRANCH  15  16
ATOM     16  O   UNL     1      14.702  -9.642   4.307  1.00  0.00    -0.394 OA
ATOM     17  H   UNL     1      15.341 -10.396   4.216  1.00  0.00     0.210 HD
ENDBRANCH  15  16
ENDBRANCH   4  15
TORSDOF 7
ENDMDL
MODEL 3
REMARK VINA RESULT:    -2.988      1.615      3.617
REMARK INTER + INTRA:          -4.419
REMARK INTER:                  -4.200
REMARK INTRA:                  -0.218
REMARK UNBOUND:                -0.557
REMARK SMILES CO[C@@]1(CO)O[C@@H](CO)[C@@H](O)[C@@H]1O
REMARK SMILES IDX 3 1 12 2 10 3 7 4 6 5 2 6 1 7 4 8 5 9 13 11 11 13 8 15 9 16
REMARK H PARENT 5 10 13 12 11 14 9 17
REMARK Flexibility Score: inf
ROOT
ATOM      1  C   UNL     1      16.432  -5.668   5.516  1.00  0.00     0.221 C 
ATOM      2  C   UNL     1      16.274  -6.048   4.007  1.00  0.00     0.207 C 
ATOM      3  C   UNL     1      16.652  -7.514   3.957  1.00  0.00     0.180 C 
ATOM      4  C   UNL     1      17.481  -7.673   5.222  1.00  0.00     0.179 C 
ATOM      5  O   UNL     1      16.952  -6.803   6.191  1.00  0.00    -0.337 OA
ENDROOT
BRANCH   1   6
ATOM      6  O   UNL     1      15.157  -5.403   6.098  1.00  0.00    -0.349 OA
ATOM      7  C   UNL     1      14.118  -5.230   5.148  1.00  0.00     0.198 C 
ENDBRANCH   1   6
BRANCH   1   8
ATOM      8  C   UNL     1      17.440  -4.508   5.771  1.00  0.00     0.224 C 
BRANCH   8   9
ATOM      9  O   UNL     1      17.528  -4.223   7.142  1.00  0.00    -0.391 OA
ATOM     10  H   UNL     1      18.236  -4.808   7.515  1.00  0.00     0.210 HD
ENDBRANCH   8   9
ENDBRANCH   1   8
BRANCH   2  11
ATOM     11  O   UNL     1      17.140  -5.313   3.177  1.00  0.00    -0.385 OA
ATOM     12  H   UNL     1      17.736  -5.970   2.732  1.00  0.00     0.211 HD
ENDBRANCH   2  11
BRANCH   3  13
ATOM     13  O   UNL     1      15.509  -8.338   3.951  1.00  0.00    -0.387 OA
ATOM     14  H   UNL     1      15.646  -9.059   3.281  1.00  0.00     0.211 HD
ENDBRANCH   3  13
BRANCH   4  15
ATOM     15  C   UNL     1      17.561  -9.114   5.757  1.00  0.00     0.191 C 
BRANCH  15  16
ATOM     16  O   UNL     1      17.258  -9.176   7.125  1.00  0.00    -0.394 OA
ATOM     17  H   UNL     1      17.671  -8.379   7.547  1.00  0.00     0.210 HD
ENDBRANCH  15  16
ENDBRANCH   4  15
TORSDOF 7
ENDMDL
MODEL 4
REMARK VINA RESULT:    -2.893      1.623      3.743
REMARK INTER + INTRA:          -4.296
REMARK INTER:                  -4.097
REMARK INTRA:                  -0.198
REMARK UNBOUND:                -0.557
REMARK SMILES CO[C@@]1(CO)O[C@@H](CO)[C@@H](O)[C@@H]1O
REMARK SMILES IDX 3 1 12 2 10 3 7 4 6 5 2 6 1 7 4 8 5 9 13 11 11 13 8 15 9 16
REMARK H PARENT 5 10 13 12 11 14 9 17
REMARK Flexibility Score: inf
ROOT
ATOM      1  C   UNL     1      15.464  -5.881   3.900  1.00  0.00     0.221 C 
ATOM      2  C   UNL     1      16.662  -5.965   4.902  1.00  0.00     0.207 C 
ATOM      3  C   UNL     1      17.247  -7.341   4.658  1.00  0.00     0.180 C 
ATOM      4  C   UNL     1      16.079  -8.076   4.018  1.00  0.00     0.179 C 
ATOM      5  O   UNL     1      15.354  -7.142   3.258  1.00  0.00    -0.337 OA
ENDROOT
BRANCH   1   6
ATOM      6  O   UNL     1      15.739  -4.929   2.875  1.00  0.00    -0.349 OA
ATOM      7  C   UNL     1      17.070  -4.439   2.890  1.00  0.00     0.198 C 
ENDBRANCH   1   6
BRANCH   1   8
ATOM      8  C   UNL     1      14.090  -5.618   4.585  1.00  0.00     0.224 C 
BRANCH   8   9
ATOM      9  O   UNL     1      13.469  -4.489   4.029  1.00  0.00    -0.391 OA
ATOM     10  H   UNL     1      12.520  -4.727   3.871  1.00  0.00     0.210 HD
ENDBRANCH   8   9
ENDBRANCH   1   8
BRANCH   2  11
ATOM     11  O   UNL     1      16.248  -5.864   6.243  1.00  0.00    -0.385 OA
ATOM     12  H   UNL     1      15.976  -6.775   6.528  1.00  0.00     0.211 HD
ENDBRANCH   2  11
BRANCH   3  13
ATOM     13  O   UNL     1      18.375  -7.277   3.815  1.00  0.00    -0.387 OA
ATOM     14  H   UNL     1      18.550  -6.323   3.599  1.00  0.00     0.211 HD
ENDBRANCH   3  13
BRANCH   4  15
ATOM     15  C   UNL     1      16.480  -9.292   3.163  1.00  0.00     0.191 C 
BRANCH  15  16
ATOM     16  O   UNL     1      17.496 -10.041   3.773  1.00  0.00    -0.394 OA
ATOM     17  H   UNL     1      17.542 -10.908   3.292  1.00  0.00     0.210 HD
ENDBRANCH  15  16
ENDBRANCH   4  15
TORSDOF 7
ENDMDL
MODEL 5
REMARK VINA RESULT:    -2.800      9.052     11.247
REMARK INTER + INTRA:          -4.175
REMARK INTER:                  -3.804
REMARK INTRA:                  -0.371
REMARK UNBOUND:                -0.557
REMARK SMILES CO[C@@]1(CO)O[C@@H](CO)[C@@H](O)[C@@H]1O
REMARK SMILES IDX 3 1 12 2 10 3 7 4 6 5 2 6 1 7 4 8 5 9 13 11 11 13 8 15 9 16
REMARK H PARENT 5 10 13 12 11 14 9 17
REMARK Flexibility Score: inf
ROOT
ATOM      1  C   UNL     1       5.641  -6.878   4.438  1.00  0.00     0.221 C 
ATOM      2  C   UNL     1       5.539  -8.164   3.554  1.00  0.00     0.207 C 
ATOM      3  C   UNL     1       4.817  -9.160   4.439  1.00  0.00     0.180 C 
ATOM      4  C   UNL     1       5.072  -8.596   5.829  1.00  0.00     0.179 C 
ATOM      5  O   UNL     1       5.116  -7.195   5.718  1.00  0.00    -0.337 OA
ENDROOT
BRANCH   1   6
ATOM      6  O   UNL     1       4.813  -5.844   3.908  1.00  0.00    -0.349 OA
ATOM      7  C   UNL     1       4.179  -5.053   4.899  1.00  0.00     0.198 C 
ENDBRANCH   1   6
BRANCH   1   8
ATOM      8  C   UNL     1       7.102  -6.391   4.673  1.00  0.00     0.224 C 
BRANCH   8   9
ATOM      9  O   UNL     1       7.630  -5.832   3.498  1.00  0.00    -0.391 OA
ATOM     10  H   UNL     1       6.876  -5.410   3.013  1.00  0.00     0.210 HD
ENDBRANCH   8   9
ENDBRANCH   1   8
BRANCH   2  11
ATOM     11  O   UNL     1       6.802  -8.678   3.208  1.00  0.00    -0.385 OA
ATOM     12  H   UNL     1       7.348  -7.910   2.897  1.00  0.00     0.211 HD
ENDBRANCH   2  11
BRANCH   3  13
ATOM     13  O   UNL     1       3.445  -9.225   4.124  1.00  0.00    -0.387 OA
ATOM     14  H   UNL     1       3.177  -8.360   3.714  1.00  0.00     0.211 HD
ENDBRANCH   3  13
BRANCH   4  15
ATOM     15  C   UNL     1       4.051  -9.033   6.894  1.00  0.00     0.191 C 
BRANCH  15  16
ATOM     16  O   UNL     1       4.610  -9.030   8.180  1.00  0.00    -0.394 OA
ATOM     17  H   UNL     1       5.595  -9.049   8.065  1.00  0.00     0.210 HD
ENDBRANCH  15  16
ENDBRANCH   4  15
TORSDOF 7
ENDMDL
MODEL 6
REMARK VINA RESULT:    -2.768      1.746      3.326
REMARK INTER + INTRA:          -4.134
REMARK INTER:                  -3.596
REMARK INTRA:                  -0.538
REMARK UNBOUND:                -0.557
REMARK SMILES CO[C@@]1(CO)O[C@@H](CO)[C@@H](O)[C@@H]1O
REMARK SMILES IDX 3 1 12 2 10 3 7 4 6 5 2 6 1 7 4 8 5 9 13 11 11 13 8 15 9 16
REMARK H PARENT 5 10 13 12 11 14 9 17
REMARK Flexibility Score: inf
ROOT
ATOM      1  C   UNL     1      16.796  -6.308   4.599  1.00  0.00     0.221 C 
ATOM      2  C   UNL     1      17.589  -7.596   4.996  1.00  0.00     0.207 C 
ATOM      3  C   UNL     1      16.858  -8.712   4.279  1.00  0.00     0.180 C 
ATOM      4  C   UNL     1      15.490  -8.092   4.035  1.00  0.00     0.179 C 
ATOM      5  O   UNL     1      15.678  -6.715   3.826  1.00  0.00    -0.337 OA
ENDROOT
BRANCH   1   6
ATOM      6  O   UNL     1      17.589  -5.477   3.754  1.00  0.00    -0.349 OA
ATOM      7  C   UNL     1      16.830  -4.663   2.875  1.00  0.00     0.198 C 
ENDBRANCH   1   6
BRANCH   1   8
ATOM      8  C   UNL     1      16.224  -5.522   5.816  1.00  0.00     0.224 C 
BRANCH   8   9
ATOM      9  O   UNL     1      17.217  -4.715   6.393  1.00  0.00    -0.391 OA
ATOM     10  H   UNL     1      17.961  -4.659   5.741  1.00  0.00     0.210 HD
ENDBRANCH   8   9
ENDBRANCH   1   8
BRANCH   2  11
ATOM     11  O   UNL     1      17.562  -7.836   6.383  1.00  0.00    -0.385 OA
ATOM     12  H   UNL     1      18.498  -7.759   6.705  1.00  0.00     0.211 HD
ENDBRANCH   2  11
BRANCH   3  13
ATOM     13  O   UNL     1      17.513  -9.067   3.082  1.00  0.00    -0.387 OA
ATOM     14  H   UNL     1      16.824  -9.259   2.393  1.00  0.00     0.211 HD
ENDBRANCH   3  13
BRANCH   4  15
ATOM     15  C   UNL     1      14.700  -8.725   2.876  1.00  0.00     0.191 C 
BRANCH  15  16
ATOM     16  O   UNL     1      14.648 -10.122   2.984  1.00  0.00    -0.394 OA
ATOM     17  H   UNL     1      14.688 -10.336   3.953  1.00  0.00     0.210 HD
ENDBRANCH  15  16
ENDBRANCH   4  15
TORSDOF 7
ENDMDL
MODEL 7
REMARK VINA RESULT:    -2.710      1.479      4.213
REMARK INTER + INTRA:          -4.059
REMARK INTER:                  -4.012
REMARK INTRA:                  -0.047
REMARK UNBOUND:                -0.557
REMARK SMILES CO[C@@]1(CO)O[C@@H](CO)[C@@H](O)[C@@H]1O
REMARK SMILES IDX 3 1 12 2 10 3 7 4 6 5 2 6 1 7 4 8 5 9 13 11 11 13 8 15 9 16
REMARK H PARENT 5 10 13 12 11 14 9 17
REMARK Flexibility Score: inf
ROOT
ATOM      1  C   UNL     1      15.481  -5.878   4.150  1.00  0.00     0.221 C 
ATOM      2  C   UNL     1      15.818  -7.392   3.941  1.00  0.00     0.207 C 
ATOM      3  C   UNL     1      17.256  -7.383   3.464  1.00  0.00     0.180 C 
ATOM      4  C   UNL     1      17.408  -5.967   2.930  1.00  0.00     0.179 C 
ATOM      5  O   UNL     1      16.605  -5.126   3.720  1.00  0.00    -0.337 OA
ENDROOT
BRANCH   1   6
ATOM      6  O   UNL     1      15.314  -5.595   5.538  1.00  0.00    -0.349 OA
ATOM      7  C   UNL     1      16.519  -5.252   6.203  1.00  0.00     0.198 C 
ENDBRANCH   1   6
BRANCH   1   8
ATOM      8  C   UNL     1      14.272  -5.381   3.305  1.00  0.00     0.224 C 
BRANCH   8   9
ATOM      9  O   UNL     1      13.481  -4.492   4.050  1.00  0.00    -0.391 OA
ATOM     10  H   UNL     1      13.678  -4.660   5.007  1.00  0.00     0.210 HD
ENDBRANCH   8   9
ENDBRANCH   1   8
BRANCH   2  11
ATOM     11  O   UNL     1      15.005  -7.991   2.961  1.00  0.00    -0.385 OA
ATOM     12  H   UNL     1      15.600  -8.550   2.397  1.00  0.00     0.211 HD
ENDBRANCH   2  11
BRANCH   3  13
ATOM     13  O   UNL     1      18.148  -7.663   4.519  1.00  0.00    -0.387 OA
ATOM     14  H   UNL     1      17.882  -8.527   4.932  1.00  0.00     0.211 HD
ENDBRANCH   3  13
BRANCH   4  15
ATOM     15  C   UNL     1      18.858  -5.455   2.877  1.00  0.00     0.191 C 
BRANCH  15  16
ATOM     16  O   UNL     1      18.949  -4.111   3.268  1.00  0.00    -0.394 OA
ATOM     17  H   UNL     1      18.507  -3.575   2.559  1.00  0.00     0.210 HD
ENDBRANCH  15  16
ENDBRANCH   4  15
TORSDOF 7
ENDMDL
MODEL 8
REMARK VINA RESULT:    -2.685      9.391     11.380
REMARK INTER + INTRA:          -4.026
REMARK INTER:                  -3.815
REMARK INTRA:                  -0.212
REMARK UNBOUND:                -0.557
REMARK SMILES CO[C@@]1(CO)O[C@@H](CO)[C@@H](O)[C@@H]1O
REMARK SMILES IDX 3 1 12 2 10 3 7 4 6 5 2 6 1 7 4 8 5 9 13 11 11 13 8 15 9 16
REMARK H PARENT 5 10 13 12 11 14 9 17
REMARK Flexibility Score: inf
ROOT
ATOM      1  C   UNL     1       5.248  -6.288   4.556  1.00  0.00     0.221 C 
ATOM      2  C   UNL     1       5.888  -6.738   5.911  1.00  0.00     0.207 C 
ATOM      3  C   UNL     1       5.365  -8.145   6.113  1.00  0.00     0.180 C 
ATOM      4  C   UNL     1       4.123  -8.154   5.236  1.00  0.00     0.179 C 
ATOM      5  O   UNL     1       4.376  -7.324   4.130  1.00  0.00    -0.337 OA
ENDROOT
BRANCH   1   6
ATOM      6  O   UNL     1       6.251  -6.166   3.549  1.00  0.00    -0.349 OA
ATOM      7  C   UNL     1       7.575  -6.164   4.057  1.00  0.00     0.198 C 
ENDBRANCH   1   6
BRANCH   1   8
ATOM      8  C   UNL     1       4.377  -5.002   4.668  1.00  0.00     0.224 C 
BRANCH   8   9
ATOM      9  O   UNL     1       4.707  -4.092   3.652  1.00  0.00    -0.391 OA
ATOM     10  H   UNL     1       5.685  -4.162   3.506  1.00  0.00     0.210 HD
ENDBRANCH   8   9
ENDBRANCH   1   8
BRANCH   2  11
ATOM     11  O   UNL     1       5.482  -5.929   6.988  1.00  0.00    -0.385 OA
ATOM     12  H   UNL     1       6.181  -5.234   7.103  1.00  0.00     0.211 HD
ENDBRANCH   2  11
BRANCH   3  13
ATOM     13  O   UNL     1       6.316  -9.107   5.716  1.00  0.00    -0.387 OA
ATOM     14  H   UNL     1       6.285  -9.862   6.361  1.00  0.00     0.211 HD
ENDBRANCH   3  13
BRANCH   4  15
ATOM     15  C   UNL     1       3.668  -9.553   4.784  1.00  0.00     0.191 C 
BRANCH  15  16
ATOM     16  O   UNL     1       2.664 -10.067   5.618  1.00  0.00    -0.394 OA
ATOM     17  H   UNL     1       2.122  -9.294   5.924  1.00  0.00     0.210 HD
ENDBRANCH  15  16
ENDBRANCH   4  15
TORSDOF 7
ENDMDL
