MODEL 1
REMARK VINA RESULT:    -3.869      0.000      0.000
REMARK INTER + INTRA:          -4.735
REMARK INTER:                  -4.661
REMARK INTRA:                  -0.074
REMARK UNBOUND:                -0.074
REMARK SMILES CC[C@H](C)[C@H]([NH3+])C(=O)[O-]
REMARK SMILES IDX 3 1 4 2 5 3 6 4 7 8 8 9 9 10 2 11 1 12
REMARK H PARENT 6 5 6 6 6 7
REMARK Flexibility Score: inf
ROOT
ATOM      1  C   UNL     1      39.205  33.599  -9.001  1.00  0.00     0.050 C 
ATOM      2  C   UNL     1      40.252  32.471  -8.991  1.00  0.00     0.014 C 
ENDROOT
BRANCH   1   3
ATOM      3  C   UNL     1      38.513  33.709 -10.395  1.00  0.00     0.230 C 
BRANCH   3   4
ATOM      4  N   UNL     1      38.749  35.005 -11.052  1.00  0.00    -0.350 N 
ATOM      5  H   UNL     1      38.665  34.908 -12.089  1.00  0.00     0.345 HD
ATOM      6  H   UNL     1      39.693  35.387 -10.816  1.00  0.00     0.345 HD
ATOM      7  H   UNL     1      38.025  35.692 -10.739  1.00  0.00     0.345 HD
ENDBRANCH   3   4
BRANCH   3   8
ATOM      8  C   UNL     1      37.036  33.413 -10.292  1.00  0.00     0.099 C 
ATOM      9  O   UNL     1      36.288  34.097  -9.542  1.00  0.00    -0.544 OA
ATOM     10  O   UNL     1      36.499  32.344 -10.997  1.00  0.00    -0.544 OA
ENDBRANCH   3   8
ENDBRANCH   1   3
BRANCH   1  11
ATOM     11  C   UNL     1      39.822  34.941  -8.528  1.00  0.00     0.006 C 
ATOM     12  C   UNL     1      40.934  34.748  -7.495  1.00  0.00     0.004 C 
ENDBRANCH   1  11
TORSDOF 4
ENDMDL
MODEL 2
REMARK VINA RESULT:    -3.830      1.150      1.701
REMARK INTER + INTRA:          -4.687
REMARK INTER:                  -4.621
REMARK INTRA:                  -0.065
REMARK UNBOUND:                -0.074
REMARK SMILES CC[C@H](C)[C@H]([NH3+])C(=O)[O-]
REMARK SMILES IDX 3 1 4 2 5 3 6 4 7 8 8 9 9 10 2 11 1 12
REMARK H PARENT 6 5 6 6 6 7
REMARK Flexibility Score: inf
ROOT
ATOM      1  C   UNL     1      38.434  33.044  -9.745  1.00  0.00     0.050 C 
ATOM      2  C   UNL     1      39.627  32.089  -9.932  1.00  0.00     0.014 C 
ENDROOT
BRANCH   1   3
ATOM      3  C   UNL     1      37.442  32.944 -10.946  1.00  0.00     0.230 C 
BRANCH   3   4
ATOM      4  N   UNL     1      37.495  34.119 -11.832  1.00  0.00    -0.350 N 
ATOM      5  H   UNL     1      37.578  34.996 -11.269  1.00  0.00     0.345 HD
ATOM      6  H   UNL     1      36.647  34.177 -12.440  1.00  0.00     0.345 HD
ATOM      7  H   UNL     1      38.340  34.056 -12.444  1.00  0.00     0.345 HD
ENDBRANCH   3   4
BRANCH   3   8
ATOM      8  C   UNL     1      36.034  32.686 -10.468  1.00  0.00     0.099 C 
ATOM      9  O   UNL     1      35.282  31.875 -11.073  1.00  0.00    -0.544 OA
ATOM     10  O   UNL     1      35.541  33.384  -9.373  1.00  0.00    -0.544 OA
ENDBRANCH   3   8
ENDBRANCH   1   3
BRANCH   1  11
ATOM     11  C   UNL     1      38.912  34.494  -9.478  1.00  0.00     0.006 C 
ATOM     12  C   UNL     1      39.976  34.573  -8.382  1.00  0.00     0.004 C 
ENDBRANCH   1  11
TORSDOF 4
ENDMDL
MODEL 3
REMARK VINA RESULT:    -3.483      1.471      1.691
REMARK INTER + INTRA:          -4.269
REMARK INTER:                  -4.325
REMARK INTRA:                   0.056
REMARK UNBOUND:                -0.074
REMARK SMILES CC[C@H](C)[C@H]([NH3+])C(=O)[O-]
REMARK SMILES IDX 3 1 4 2 5 3 6 4 7 8 8 9 9 10 2 11 1 12
REMARK H PARENT 6 5 6 6 6 7
REMARK Flexibility Score: inf
ROOT
ATOM      1  C   UNL     1      39.634  33.038  -8.955  1.00  0.00     0.050 C 
ATOM      2  C   UNL     1      39.652  31.875  -9.963  1.00  0.00     0.014 C 
ENDROOT
BRANCH   1   3
ATOM      3  C   UNL     1      38.899  34.282  -9.547  1.00  0.00     0.230 C 
BRANCH   3   4
ATOM      4  N   UNL     1      38.425  35.213  -8.511  1.00  0.00    -0.350 N 
ATOM      5  H   UNL     1      38.080  36.098  -8.947  1.00  0.00     0.345 HD
ATOM      6  H   UNL     1      39.179  35.437  -7.823  1.00  0.00     0.345 HD
ATOM      7  H   UNL     1      37.622  34.782  -7.996  1.00  0.00     0.345 HD
ENDBRANCH   3   4
BRANCH   3   8
ATOM      8  C   UNL     1      37.773  33.863 -10.460  1.00  0.00     0.099 C 
ATOM      9  O   UNL     1      37.861  34.010 -11.708  1.00  0.00    -0.544 OA
ATOM     10  O   UNL     1      36.602  33.350  -9.916  1.00  0.00    -0.544 OA
ENDBRANCH   3   8
ENDBRANCH   1   3
BRANCH   1  11
ATOM     11  C   UNL     1      41.063  33.367  -8.451  1.00  0.00     0.006 C 
ATOM     12  C   UNL     1      41.114  33.625  -6.944  1.00  0.00     0.004 C 
ENDBRANCH   1  11
TORSDOF 4
ENDMDL
MODEL 4
REMARK VINA RESULT:    -3.439      2.491      3.896
REMARK INTER + INTRA:          -4.216
REMARK INTER:                  -4.112
REMARK INTRA:                  -0.104
REMARK UNBOUND:                -0.074
REMARK SMILES CC[C@H](C)[C@H]([NH3+])C(=O)[O-]
REMARK SMILES IDX 3 1 4 2 5 3 6 4 7 8 8 9 9 10 2 11 1 12
REMARK H PARENT 6 5 6 6 6 7
REMARK Flexibility Score: inf
ROOT
ATOM      1  C   UNL     1      37.834  33.792 -10.355  1.00  0.00     0.050 C 
ATOM      2  C   UNL     1      37.976  34.170 -11.840  1.00  0.00     0.014 C 
ENDROOT
BRANCH   1   3
ATOM      3  C   UNL     1      39.197  33.307  -9.767  1.00  0.00     0.230 C 
BRANCH   3   4
ATOM      4  N   UNL     1      39.182  31.886  -9.384  1.00  0.00    -0.350 N 
ATOM      5  H   UNL     1      39.341  31.785  -8.355  1.00  0.00     0.345 HD
ATOM      6  H   UNL     1      39.909  31.343  -9.902  1.00  0.00     0.345 HD
ATOM      7  H   UNL     1      38.244  31.476  -9.600  1.00  0.00     0.345 HD
ENDBRANCH   3   4
BRANCH   3   8
ATOM      8  C   UNL     1      39.631  34.178  -8.613  1.00  0.00     0.099 C 
ATOM      9  O   UNL     1      39.331  35.402  -8.576  1.00  0.00    -0.544 OA
ATOM     10  O   UNL     1      40.410  33.637  -7.599  1.00  0.00    -0.544 OA
ENDBRANCH   3   8
ENDBRANCH   1   3
BRANCH   1  11
ATOM     11  C   UNL     1      36.689  32.768 -10.142  1.00  0.00     0.006 C 
ATOM     12  C   UNL     1      35.487  33.370  -9.412  1.00  0.00     0.004 C 
ENDBRANCH   1  11
TORSDOF 4
ENDMDL
MODEL 5
REMARK VINA RESULT:    -3.335      2.080      3.561
REMARK INTER + INTRA:          -4.091
REMARK INTER:                  -4.824
REMARK INTRA:                   0.733
REMARK UNBOUND:                -0.074
REMARK SMILES CC[C@H](C)[C@H]([NH3+])C(=O)[O-]
REMARK SMILES IDX 3 1 4 2 5 3 6 4 7 8 8 9 9 10 2 11 1 12
REMARK H PARENT 6 5 6 6 6 7
REMARK Flexibility Score: inf
ROOT
ATOM      1  C   UNL     1      37.462  34.180 -10.461  1.00  0.00     0.050 C 
ATOM      2  C   UNL     1      37.992  34.195 -11.906  1.00  0.00     0.014 C 
ENDROOT
BRANCH   1   3
ATOM      3  C   UNL     1      38.621  34.389  -9.437  1.00  0.00     0.230 C 
BRANCH   3   4
ATOM      4  N   UNL     1      39.488  35.529  -9.778  1.00  0.00    -0.350 N 
ATOM      5  H   UNL     1      39.611  36.153  -8.948  1.00  0.00     0.345 HD
ATOM      6  H   UNL     1      39.096  36.083 -10.572  1.00  0.00     0.345 HD
ATOM      7  H   UNL     1      40.434  35.178 -10.052  1.00  0.00     0.345 HD
ENDBRANCH   3   4
BRANCH   3   8
ATOM      8  C   UNL     1      39.428  33.125  -9.265  1.00  0.00     0.099 C 
ATOM      9  O   UNL     1      40.196  32.976  -8.277  1.00  0.00    -0.544 OA
ATOM     10  O   UNL     1      39.359  32.129 -10.230  1.00  0.00    -0.544 OA
ENDBRANCH   3   8
ENDBRANCH   1   3
BRANCH   1  11
ATOM     11  C   UNL     1      36.634  32.900 -10.180  1.00  0.00     0.006 C 
ATOM     12  C   UNL     1      35.346  33.187  -9.406  1.00  0.00     0.004 C 
ENDBRANCH   1  11
TORSDOF 4
ENDMDL
MODEL 6
REMARK VINA RESULT:    -3.275     15.752     16.793
REMARK INTER + INTRA:          -4.019
REMARK INTER:                  -4.125
REMARK INTRA:                   0.106
REMARK UNBOUND:                -0.074
REMARK SMILES CC[C@H](C)[C@H]([NH3+])C(=O)[O-]
REMARK SMILES IDX 3 1 4 2 5 3 6 4 7 8 8 9 9 10 2 11 1 12
REMARK H PARENT 6 5 6 6 6 7
REMARK Flexibility Score: inf
ROOT
ATOM      1  C   UNL     1      40.506  44.256   2.238  1.00  0.00     0.050 C 
ATOM      2  C   UNL     1      39.916  42.883   1.871  1.00  0.00     0.014 C 
ENDROOT
BRANCH   1   3
ATOM      3  C   UNL     1      40.237  44.601   3.736  1.00  0.00     0.230 C 
BRANCH   3   4
ATOM      4  N   UNL     1      41.125  43.876   4.659  1.00  0.00    -0.350 N 
ATOM      5  H   UNL     1      41.725  44.548   5.189  1.00  0.00     0.345 HD
ATOM      6  H   UNL     1      41.733  43.196   4.149  1.00  0.00     0.345 HD
ATOM      7  H   UNL     1      40.549  43.349   5.355  1.00  0.00     0.345 HD
ENDBRANCH   3   4
BRANCH   3   8
ATOM      8  C   UNL     1      38.786  44.380   4.091  1.00  0.00     0.099 C 
ATOM      9  O   UNL     1      38.415  43.329   4.678  1.00  0.00    -0.544 OA
ATOM     10  O   UNL     1      37.838  45.327   3.726  1.00  0.00    -0.544 OA
ENDBRANCH   3   8
ENDBRANCH   1   3
BRANCH   1  11
ATOM     11  C   UNL     1      40.008  45.358   1.267  1.00  0.00     0.006 C 
ATOM     12  C   UNL     1      41.119  46.325   0.851  1.00  0.00     0.004 C 
ENDBRANCH   1  11
TORSDOF 4
ENDMDL
MODEL 7
REMARK VINA RESULT:    -3.231      2.520      3.929
REMARK INTER + INTRA:          -3.966
REMARK INTER:                  -4.014
REMARK INTRA:                   0.048
REMARK UNBOUND:                -0.074
REMARK SMILES CC[C@H](C)[C@H]([NH3+])C(=O)[O-]
REMARK SMILES IDX 3 1 4 2 5 3 6 4 7 8 8 9 9 10 2 11 1 12
REMARK H PARENT 6 5 6 6 6 7
REMARK Flexibility Score: inf
ROOT
ATOM      1  C   UNL     1      38.072  33.560  -9.747  1.00  0.00     0.050 C 
ATOM      2  C   UNL     1      36.610  34.042  -9.702  1.00  0.00     0.014 C 
ENDROOT
BRANCH   1   3
ATOM      3  C   UNL     1      39.002  34.518  -8.939  1.00  0.00     0.230 C 
BRANCH   3   4
ATOM      4  N   UNL     1      39.571  35.595  -9.765  1.00  0.00    -0.350 N 
ATOM      5  H   UNL     1      38.858  36.339  -9.935  1.00  0.00     0.345 HD
ATOM      6  H   UNL     1      39.918  35.232 -10.681  1.00  0.00     0.345 HD
ATOM      7  H   UNL     1      40.373  36.036  -9.258  1.00  0.00     0.345 HD
ENDBRANCH   3   4
BRANCH   3   8
ATOM      8  C   UNL     1      40.087  33.747  -8.226  1.00  0.00     0.099 C 
ATOM      9  O   UNL     1      40.366  32.563  -8.558  1.00  0.00    -0.544 OA
ATOM     10  O   UNL     1      40.757  34.330  -7.160  1.00  0.00    -0.544 OA
ENDBRANCH   3   8
ENDBRANCH   1   3
BRANCH   1  11
ATOM     11  C   UNL     1      38.548  33.348 -11.207  1.00  0.00     0.006 C 
ATOM     12  C   UNL     1      37.682  34.092 -12.226  1.00  0.00     0.004 C 
ENDBRANCH   1  11
TORSDOF 4
ENDMDL
MODEL 8
REMARK VINA RESULT:    -3.207      1.597      2.215
REMARK INTER + INTRA:          -3.937
REMARK INTER:                  -3.901
REMARK INTRA:                  -0.036
REMARK UNBOUND:                -0.074
REMARK SMILES CC[C@H](C)[C@H]([NH3+])C(=O)[O-]
REMARK SMILES IDX 3 1 4 2 5 3 6 4 7 8 8 9 9 10 2 11 1 12
REMARK H PARENT 6 5 6 6 6 7
REMARK Flexibility Score: inf
ROOT
ATOM      1  C   UNL     1      40.093  34.306  -8.716  1.00  0.00     0.050 C 
ATOM      2  C   UNL     1      39.411  35.471  -7.975  1.00  0.00     0.014 C 
ENDROOT
BRANCH   1   3
ATOM      3  C   UNL     1      39.035  33.337  -9.331  1.00  0.00     0.230 C 
BRANCH   3   4
ATOM      4  N   UNL     1      39.644  32.206 -10.049  1.00  0.00    -0.350 N 
ATOM      5  H   UNL     1      38.905  31.627 -10.509  1.00  0.00     0.345 HD
ATOM      6  H   UNL     1      40.206  31.603  -9.406  1.00  0.00     0.345 HD
ATOM      7  H   UNL     1      40.275  32.569 -10.800  1.00  0.00     0.345 HD
ENDBRANCH   3   4
BRANCH   3   8
ATOM      8  C   UNL     1      38.064  34.083 -10.214  1.00  0.00     0.099 C 
ATOM      9  O   UNL     1      38.409  34.496 -11.353  1.00  0.00    -0.544 OA
ATOM     10  O   UNL     1      36.785  34.359  -9.748  1.00  0.00    -0.544 OA
ENDBRANCH   3   8
ENDBRANCH   1   3
BRANCH   1  11
ATOM     11  C   UNL     1      41.116  33.582  -7.804  1.00  0.00     0.006 C 
ATOM     12  C   UNL     1      41.125  34.130  -6.375  1.00  0.00     0.004 C 
ENDBRANCH   1  11
TORSDOF 4
ENDMDL
MODEL 9
REMARK VINA RESULT:    -2.947      2.483      3.806
REMARK INTER + INTRA:          -3.624
REMARK INTER:                  -3.924
REMARK INTRA:                   0.300
REMARK UNBOUND:                -0.074
REMARK SMILES CC[C@H](C)[C@H]([NH3+])C(=O)[O-]
REMARK SMILES IDX 3 1 4 2 5 3 6 4 7 8 8 9 9 10 2 11 1 12
REMARK H PARENT 6 5 6 6 6 7
REMARK Flexibility Score: inf
ROOT
ATOM      1  C   UNL     1      38.508  33.196 -10.804  1.00  0.00     0.050 C 
ATOM      2  C   UNL     1      39.296  31.875 -10.735  1.00  0.00     0.014 C 
ENDROOT
BRANCH   1   3
ATOM      3  C   UNL     1      38.276  33.786  -9.378  1.00  0.00     0.230 C 
BRANCH   3   4
ATOM      4  N   UNL     1      37.291  34.879  -9.363  1.00  0.00    -0.350 N 
ATOM      5  H   UNL     1      37.516  35.562  -8.605  1.00  0.00     0.345 HD
ATOM      6  H   UNL     1      36.320  34.517  -9.226  1.00  0.00     0.345 HD
ATOM      7  H   UNL     1      37.328  35.394 -10.273  1.00  0.00     0.345 HD
ENDBRANCH   3   4
BRANCH   3   8
ATOM      8  C   UNL     1      39.579  34.219  -8.751  1.00  0.00     0.099 C 
ATOM      9  O   UNL     1      40.344  33.381  -8.201  1.00  0.00    -0.544 OA
ATOM     10  O   UNL     1      39.921  35.564  -8.738  1.00  0.00    -0.544 OA
ENDBRANCH   3   8
ENDBRANCH   1   3
BRANCH   1  11
ATOM     11  C   UNL     1      37.192  33.023 -11.605  1.00  0.00     0.006 C 
ATOM     12  C   UNL     1      36.133  32.228 -10.839  1.00  0.00     0.004 C 
ENDBRANCH   1  11
TORSDOF 4
ENDMDL
