MODEL 1
REMARK VINA RESULT:    -3.623      0.000      0.000
REMARK INTER + INTRA:          -4.352
REMARK INTER:                  -4.258
REMARK INTRA:                  -0.094
REMARK UNBOUND:                -0.094
REMARK SMILES O=C([O-])CCC(=O)[O-]
REMARK SMILES IDX 4 1 2 2 1 3 3 4 5 5 6 6 7 7 8 8
REMARK H PARENT
REMARK Flexibility Score: inf
ROOT
ATOM      1  C   UNL     1      61.304  27.097  26.940  1.00  0.00     0.059 C 
ENDROOT
BRANCH   1   2
ATOM      2  C   UNL     1      60.543  27.288  25.666  1.00  0.00     0.042 C 
ATOM      3  O   UNL     1      59.494  26.627  25.450  1.00  0.00    -0.550 OA
ATOM      4  O   UNL     1      60.966  28.231  24.740  1.00  0.00    -0.550 OA
ENDBRANCH   1   2
BRANCH   1   5
ATOM      5  C   UNL     1      62.287  28.248  27.154  1.00  0.00     0.059 C 
BRANCH   5   6
ATOM      6  C   UNL     1      61.738  29.229  28.141  1.00  0.00     0.042 C 
ATOM      7  O   UNL     1      60.719  28.941  28.822  1.00  0.00    -0.550 OA
ATOM      8  O   UNL     1      62.381  30.444  28.346  1.00  0.00    -0.550 OA
ENDBRANCH   5   6
ENDBRANCH   1   5
TORSDOF 3
ENDMDL
MODEL 2
REMARK VINA RESULT:    -3.610     14.143     15.915
REMARK INTER + INTRA:          -4.337
REMARK INTER:                  -4.245
REMARK INTRA:                  -0.091
REMARK UNBOUND:                -0.094
REMARK SMILES O=C([O-])CCC(=O)[O-]
REMARK SMILES IDX 4 1 2 2 1 3 3 4 5 5 6 6 7 7 8 8
REMARK H PARENT
REMARK Flexibility Score: inf
ROOT
ATOM      1  C   UNL     1      59.628  29.078  11.206  1.00  0.00     0.059 C 
ENDROOT
BRANCH   1   2
ATOM      2  C   UNL     1      59.459  28.444  12.551  1.00  0.00     0.042 C 
ATOM      3  O   UNL     1      58.365  27.909  12.867  1.00  0.00    -0.550 OA
ATOM      4  O   UNL     1      60.527  28.404  13.438  1.00  0.00    -0.550 OA
ENDBRANCH   1   2
BRANCH   1   5
ATOM      5  C   UNL     1      61.054  29.603  11.037  1.00  0.00     0.059 C 
BRANCH   5   6
ATOM      6  C   UNL     1      61.827  28.728  10.102  1.00  0.00     0.042 C 
ATOM      7  O   UNL     1      61.226  27.908   9.359  1.00  0.00    -0.550 OA
ATOM      8  O   UNL     1      63.208  28.853  10.014  1.00  0.00    -0.550 OA
ENDBRANCH   5   6
ENDBRANCH   1   5
TORSDOF 3
ENDMDL
MODEL 3
REMARK VINA RESULT:    -3.604      0.088      3.613
REMARK INTER + INTRA:          -4.330
REMARK INTER:                  -4.237
REMARK INTRA:                  -0.093
REMARK UNBOUND:                -0.094
REMARK SMILES O=C([O-])CCC(=O)[O-]
REMARK SMILES IDX 4 1 2 2 1 3 3 4 5 5 6 6 7 7 8 8
REMARK H PARENT
REMARK Flexibility Score: inf
ROOT
ATOM      1  C   UNL     1      62.282  28.302  27.228  1.00  0.00     0.059 C 
ENDROOT
BRANCH   1   2
ATOM      2  C   UNL     1      61.735  29.265  28.235  1.00  0.00     0.042 C 
ATOM      3  O   UNL     1      60.710  28.968  28.904  1.00  0.00    -0.550 OA
ATOM      4  O   UNL     1      62.385  30.469  28.468  1.00  0.00    -0.550 OA
ENDBRANCH   1   2
BRANCH   1   5
ATOM      5  C   UNL     1      61.302  27.150  27.003  1.00  0.00     0.059 C 
BRANCH   5   6
ATOM      6  C   UNL     1      60.572  27.328  25.710  1.00  0.00     0.042 C 
ATOM      7  O   UNL     1      59.534  26.656  25.471  1.00  0.00    -0.550 OA
ATOM      8  O   UNL     1      61.009  28.272  24.789  1.00  0.00    -0.550 OA
ENDBRANCH   5   6
ENDBRANCH   1   5
TORSDOF 3
ENDMDL
MODEL 4
REMARK VINA RESULT:    -3.578     14.158     15.825
REMARK INTER + INTRA:          -4.299
REMARK INTER:                  -4.206
REMARK INTRA:                  -0.094
REMARK UNBOUND:                -0.094
REMARK SMILES O=C([O-])CCC(=O)[O-]
REMARK SMILES IDX 4 1 2 2 1 3 3 4 5 5 6 6 7 7 8 8
REMARK H PARENT
REMARK Flexibility Score: inf
ROOT
ATOM      1  C   UNL     1      61.082  29.533  10.988  1.00  0.00     0.059 C 
ENDROOT
BRANCH   1   2
ATOM      2  C   UNL     1      61.762  28.653   9.986  1.00  0.00     0.042 C 
ATOM      3  O   UNL     1      61.095  27.815   9.324  1.00  0.00    -0.550 OA
ATOM      4  O   UNL     1      63.123  28.791   9.751  1.00  0.00    -0.550 OA
ENDBRANCH   1   2
BRANCH   1   5
ATOM      5  C   UNL     1      59.651  29.055  11.236  1.00  0.00     0.059 C 
BRANCH   5   6
ATOM      6  C   UNL     1      59.551  28.367  12.561  1.00  0.00     0.042 C 
ATOM      7  O   UNL     1      58.466  27.838  12.920  1.00  0.00    -0.550 OA
ATOM      8  O   UNL     1      60.670  28.266  13.378  1.00  0.00    -0.550 OA
ENDBRANCH   5   6
ENDBRANCH   1   5
TORSDOF 3
ENDMDL
MODEL 5
REMARK VINA RESULT:    -3.553     13.395     15.352
REMARK INTER + INTRA:          -4.270
REMARK INTER:                  -4.155
REMARK INTRA:                  -0.115
REMARK UNBOUND:                -0.094
REMARK SMILES O=C([O-])CCC(=O)[O-]
REMARK SMILES IDX 4 1 2 2 1 3 3 4 5 5 6 6 7 7 8 8
REMARK H PARENT
REMARK Flexibility Score: inf
ROOT
ATOM      1  C   UNL     1      60.311  28.148  12.786  1.00  0.00     0.059 C 
ENDROOT
BRANCH   1   2
ATOM      2  C   UNL     1      61.409  28.852  13.520  1.00  0.00     0.042 C 
ATOM      3  O   UNL     1      61.150  29.529  14.549  1.00  0.00    -0.550 OA
ATOM      4  O   UNL     1      62.724  28.721  13.094  1.00  0.00    -0.550 OA
ENDBRANCH   1   2
BRANCH   1   5
ATOM      5  C   UNL     1      59.618  29.104  11.814  1.00  0.00     0.059 C 
BRANCH   5   6
ATOM      6  C   UNL     1      60.298  29.081  10.482  1.00  0.00     0.042 C 
ATOM      7  O   UNL     1      60.116  30.017   9.661  1.00  0.00    -0.550 OA
ATOM      8  O   UNL     1      61.173  28.049  10.166  1.00  0.00    -0.550 OA
ENDBRANCH   5   6
ENDBRANCH   1   5
TORSDOF 3
ENDMDL
MODEL 6
REMARK VINA RESULT:    -3.528     13.542     15.162
REMARK INTER + INTRA:          -4.240
REMARK INTER:                  -4.131
REMARK INTRA:                  -0.110
REMARK UNBOUND:                -0.094
REMARK SMILES O=C([O-])CCC(=O)[O-]
REMARK SMILES IDX 4 1 2 2 1 3 3 4 5 5 6 6 7 7 8 8
REMARK H PARENT
REMARK Flexibility Score: inf
ROOT
ATOM      1  C   UNL     1      59.744  29.395  11.663  1.00  0.00     0.059 C 
ENDROOT
BRANCH   1   2
ATOM      2  C   UNL     1      60.198  29.067  10.275  1.00  0.00     0.042 C 
ATOM      3  O   UNL     1      59.753  29.716   9.292  1.00  0.00    -0.550 OA
ATOM      4  O   UNL     1      61.148  28.075  10.072  1.00  0.00    -0.550 OA
ENDBRANCH   1   2
BRANCH   1   5
ATOM      5  C   UNL     1      60.242  28.341  12.652  1.00  0.00     0.059 C 
BRANCH   5   6
ATOM      6  C   UNL     1      61.380  28.877  13.461  1.00  0.00     0.042 C 
ATOM      7  O   UNL     1      61.158  29.501  14.532  1.00  0.00    -0.550 OA
ATOM      8  O   UNL     1      62.690  28.644  13.059  1.00  0.00    -0.550 OA
ENDBRANCH   5   6
ENDBRANCH   1   5
TORSDOF 3
ENDMDL
MODEL 7
REMARK VINA RESULT:    -3.526     15.216     16.274
REMARK INTER + INTRA:          -4.238
REMARK INTER:                  -4.151
REMARK INTRA:                  -0.088
REMARK UNBOUND:                -0.094
REMARK SMILES O=C([O-])CCC(=O)[O-]
REMARK SMILES IDX 4 1 2 2 1 3 3 4 5 5 6 6 7 7 8 8
REMARK H PARENT
REMARK Flexibility Score: inf
ROOT
ATOM      1  C   UNL     1      61.547  28.516  10.180  1.00  0.00     0.059 C 
ENDROOT
BRANCH   1   2
ATOM      2  C   UNL     1      62.974  28.954  10.287  1.00  0.00     0.042 C 
ATOM      3  O   UNL     1      63.415  29.417  11.372  1.00  0.00    -0.550 OA
ATOM      4  O   UNL     1      63.829  28.806   9.203  1.00  0.00    -0.550 OA
ENDBRANCH   1   2
BRANCH   1   5
ATOM      5  C   UNL     1      60.609  29.719  10.288  1.00  0.00     0.059 C 
BRANCH   5   6
ATOM      6  C   UNL     1      59.947  29.748  11.629  1.00  0.00     0.042 C 
ATOM      7  O   UNL     1      60.035  30.771  12.357  1.00  0.00    -0.550 OA
ATOM      8  O   UNL     1      59.190  28.663  12.054  1.00  0.00    -0.550 OA
ENDBRANCH   5   6
ENDBRANCH   1   5
TORSDOF 3
ENDMDL
MODEL 8
REMARK VINA RESULT:    -3.499     15.128     16.249
REMARK INTER + INTRA:          -4.206
REMARK INTER:                  -4.119
REMARK INTRA:                  -0.087
REMARK UNBOUND:                -0.094
REMARK SMILES O=C([O-])CCC(=O)[O-]
REMARK SMILES IDX 4 1 2 2 1 3 3 4 5 5 6 6 7 7 8 8
REMARK H PARENT
REMARK Flexibility Score: inf
ROOT
ATOM      1  C   UNL     1      60.548  29.734  10.377  1.00  0.00     0.059 C 
ENDROOT
BRANCH   1   2
ATOM      2  C   UNL     1      59.889  29.747  11.721  1.00  0.00     0.042 C 
ATOM      3  O   UNL     1      59.969  30.766  12.455  1.00  0.00    -0.550 OA
ATOM      4  O   UNL     1      59.147  28.652  12.141  1.00  0.00    -0.550 OA
ENDBRANCH   1   2
BRANCH   1   5
ATOM      5  C   UNL     1      61.485  28.532  10.253  1.00  0.00     0.059 C 
BRANCH   5   6
ATOM      6  C   UNL     1      62.912  28.967  10.363  1.00  0.00     0.042 C 
ATOM      7  O   UNL     1      63.356  29.412  11.455  1.00  0.00    -0.550 OA
ATOM      8  O   UNL     1      63.766  28.836   9.275  1.00  0.00    -0.550 OA
ENDBRANCH   5   6
ENDBRANCH   1   5
TORSDOF 3
ENDMDL
MODEL 9
REMARK VINA RESULT:    -3.400      1.499      3.615
REMARK INTER + INTRA:          -4.090
REMARK INTER:                  -4.004
REMARK INTRA:                  -0.086
REMARK UNBOUND:                -0.094
REMARK SMILES O=C([O-])CCC(=O)[O-]
REMARK SMILES IDX 4 1 2 2 1 3 3 4 5 5 6 6 7 7 8 8
REMARK H PARENT
REMARK Flexibility Score: inf
ROOT
ATOM      1  C   UNL     1      61.420  27.199  27.486  1.00  0.00     0.059 C 
ENDROOT
BRANCH   1   2
ATOM      2  C   UNL     1      61.190  28.539  28.110  1.00  0.00     0.042 C 
ATOM      3  O   UNL     1      60.451  28.647  29.124  1.00  0.00    -0.550 OA
ATOM      4  O   UNL     1      61.828  29.662  27.601  1.00  0.00    -0.550 OA
ENDBRANCH   1   2
BRANCH   1   5
ATOM      5  C   UNL     1      60.922  27.190  26.040  1.00  0.00     0.059 C 
BRANCH   5   6
ATOM      6  C   UNL     1      62.076  27.195  25.088  1.00  0.00     0.042 C 
ATOM      7  O   UNL     1      62.988  26.333  25.193  1.00  0.00    -0.550 OA
ATOM      8  O   UNL     1      62.121  28.122  24.054  1.00  0.00    -0.550 OA
ENDBRANCH   5   6
ENDBRANCH   1   5
TORSDOF 3
ENDMDL
