MODEL 1
REMARK VINA RESULT:    -4.229      0.000      0.000
REMARK INTER + INTRA:          -5.618
REMARK INTER:                  -5.465
REMARK INTRA:                  -0.153
REMARK UNBOUND:                -0.153
REMARK SMILES CCCCCCC(=O)[O-]
REMARK SMILES IDX 5 1 6 2 7 3 8 4 9 5 4 6 3 7 2 8 1 9
REMARK H PARENT
REMARK Flexibility Score: inf
ROOT
ATOM      1  C   UNL     1     -12.817   9.547   7.499  1.00  0.00     0.006 C 
ENDROOT
BRANCH   1   2
ATOM      2  C   UNL     1     -13.778   8.931   8.524  1.00  0.00     0.053 C 
BRANCH   2   3
ATOM      3  C   UNL     1     -14.380   7.673   7.983  1.00  0.00     0.041 C 
ATOM      4  O   UNL     1     -15.261   7.059   8.641  1.00  0.00    -0.550 OA
ATOM      5  O   UNL     1     -13.935   7.153   6.775  1.00  0.00    -0.550 OA
ENDBRANCH   2   3
ENDBRANCH   1   2
BRANCH   1   6
ATOM      6  C   UNL     1     -12.033  10.742   8.068  1.00  0.00     0.000 C 
BRANCH   6   7
ATOM      7  C   UNL     1     -11.288  11.533   6.979  1.00  0.00    -0.000 C 
BRANCH   7   8
ATOM      8  C   UNL     1     -11.604  11.027   5.563  1.00  0.00    -0.003 C 
ATOM      9  C   UNL     1     -10.733  11.684   4.493  1.00  0.00     0.004 C 
ENDBRANCH   7   8
ENDBRANCH   6   7
ENDBRANCH   1   6
TORSDOF 5
ENDMDL
MODEL 2
REMARK VINA RESULT:    -4.227      4.395      5.872
REMARK INTER + INTRA:          -5.616
REMARK INTER:                  -5.456
REMARK INTRA:                  -0.161
REMARK UNBOUND:                -0.153
REMARK SMILES CCCCCCC(=O)[O-]
REMARK SMILES IDX 5 1 6 2 7 3 8 4 9 5 4 6 3 7 2 8 1 9
REMARK H PARENT
REMARK Flexibility Score: inf
ROOT
ATOM      1  C   UNL     1     -11.220  11.464   5.464  1.00  0.00     0.006 C 
ENDROOT
BRANCH   1   2
ATOM      2  C   UNL     1     -10.829  11.365   3.984  1.00  0.00     0.053 C 
BRANCH   2   3
ATOM      3  C   UNL     1      -9.918  12.491   3.609  1.00  0.00     0.041 C 
ATOM      4  O   UNL     1      -9.751  12.794   2.398  1.00  0.00    -0.550 OA
ATOM      5  O   UNL     1      -9.215  13.173   4.593  1.00  0.00    -0.550 OA
ENDBRANCH   2   3
ENDBRANCH   1   2
BRANCH   1   6
ATOM      6  C   UNL     1     -12.113  10.298   5.918  1.00  0.00     0.000 C 
BRANCH   6   7
ATOM      7  C   UNL     1     -12.237  10.208   7.449  1.00  0.00    -0.000 C 
BRANCH   7   8
ATOM      8  C   UNL     1     -11.832  11.514   8.149  1.00  0.00    -0.003 C 
ATOM      9  C   UNL     1     -13.037  12.359   8.563  1.00  0.00     0.004 C 
ENDBRANCH   7   8
ENDBRANCH   6   7
ENDBRANCH   1   6
TORSDOF 5
ENDMDL
MODEL 3
REMARK VINA RESULT:    -4.213      3.069      3.840
REMARK INTER + INTRA:          -5.598
REMARK INTER:                  -5.450
REMARK INTRA:                  -0.148
REMARK UNBOUND:                -0.153
REMARK SMILES CCCCCCC(=O)[O-]
REMARK SMILES IDX 5 1 6 2 7 3 8 4 9 5 4 6 3 7 2 8 1 9
REMARK H PARENT
REMARK Flexibility Score: inf
ROOT
ATOM      1  C   UNL     1     -12.187  10.546   6.010  1.00  0.00     0.006 C 
ENDROOT
BRANCH   1   2
ATOM      2  C   UNL     1     -12.074  10.313   7.523  1.00  0.00     0.053 C 
BRANCH   2   3
ATOM      3  C   UNL     1     -12.143  11.614   8.257  1.00  0.00     0.041 C 
ATOM      4  O   UNL     1     -11.157  12.015   8.929  1.00  0.00    -0.550 OA
ATOM      5  O   UNL     1     -13.314  12.362   8.238  1.00  0.00    -0.550 OA
ENDBRANCH   2   3
ENDBRANCH   1   2
BRANCH   1   6
ATOM      6  C   UNL     1     -11.137  11.539   5.486  1.00  0.00     0.000 C 
BRANCH   6   7
ATOM      7  C   UNL     1     -10.780  11.298   4.009  1.00  0.00    -0.000 C 
BRANCH   7   8
ATOM      8  C   UNL     1     -10.095  12.512   3.364  1.00  0.00    -0.003 C 
ATOM      9  C   UNL     1      -9.151  13.237   4.323  1.00  0.00     0.004 C 
ENDBRANCH   7   8
ENDBRANCH   6   7
ENDBRANCH   1   6
TORSDOF 5
ENDMDL
MODEL 4
REMARK VINA RESULT:    -4.210      4.698      6.446
REMARK INTER + INTRA:          -5.594
REMARK INTER:                  -5.464
REMARK INTRA:                  -0.130
REMARK UNBOUND:                -0.153
REMARK SMILES CCCCCCC(=O)[O-]
REMARK SMILES IDX 5 1 6 2 7 3 8 4 9 5 4 6 3 7 2 8 1 9
REMARK H PARENT
REMARK Flexibility Score: inf
ROOT
ATOM      1  C   UNL     1     -10.606  11.230   4.004  1.00  0.00     0.006 C 
ENDROOT
BRANCH   1   2
ATOM      2  C   UNL     1     -10.837  12.351   2.983  1.00  0.00     0.053 C 
BRANCH   2   3
ATOM      3  C   UNL     1      -9.738  13.363   3.061  1.00  0.00     0.041 C 
ATOM      4  O   UNL     1      -9.827  14.446   2.425  1.00  0.00    -0.550 OA
ATOM      5  O   UNL     1      -8.593  13.090   3.799  1.00  0.00    -0.550 OA
ENDBRANCH   2   3
ENDBRANCH   1   2
BRANCH   1   6
ATOM      6  C   UNL     1     -11.250  11.531   5.367  1.00  0.00     0.000 C 
BRANCH   6   7
ATOM      7  C   UNL     1     -12.067  10.346   5.910  1.00  0.00    -0.000 C 
BRANCH   7   8
ATOM      8  C   UNL     1     -12.279  10.425   7.430  1.00  0.00    -0.003 C 
ATOM      9  C   UNL     1     -11.502  11.573   8.075  1.00  0.00     0.004 C 
ENDBRANCH   7   8
ENDBRANCH   6   7
ENDBRANCH   1   6
TORSDOF 5
ENDMDL
MODEL 5
REMARK VINA RESULT:    -4.191      1.268      2.333
REMARK INTER + INTRA:          -5.569
REMARK INTER:                  -5.482
REMARK INTRA:                  -0.088
REMARK UNBOUND:                -0.153
REMARK SMILES CCCCCCC(=O)[O-]
REMARK SMILES IDX 5 1 6 2 7 3 8 4 9 5 4 6 3 7 2 8 1 9
REMARK H PARENT
REMARK Flexibility Score: inf
ROOT
ATOM      1  C   UNL     1     -12.546  10.677   6.189  1.00  0.00     0.006 C 
ENDROOT
BRANCH   1   2
ATOM      2  C   UNL     1     -12.400   9.923   7.517  1.00  0.00     0.053 C 
BRANCH   2   3
ATOM      3  C   UNL     1     -13.484   8.900   7.657  1.00  0.00     0.041 C 
ATOM      4  O   UNL     1     -13.755   8.130   6.699  1.00  0.00    -0.550 OA
ATOM      5  O   UNL     1     -14.227   8.831   8.829  1.00  0.00    -0.550 OA
ENDBRANCH   2   3
ENDBRANCH   1   2
BRANCH   1   6
ATOM      6  C   UNL     1     -11.271  11.445   5.804  1.00  0.00     0.000 C 
BRANCH   6   7
ATOM      7  C   UNL     1     -10.853  11.204   4.343  1.00  0.00    -0.000 C 
BRANCH   7   8
ATOM      8  C   UNL     1     -10.418  12.497   3.635  1.00  0.00    -0.003 C 
ATOM      9  C   UNL     1      -9.150  13.102   4.238  1.00  0.00     0.004 C 
ENDBRANCH   7   8
ENDBRANCH   6   7
ENDBRANCH   1   6
TORSDOF 5
ENDMDL
MODEL 6
REMARK VINA RESULT:    -4.175      2.431      3.754
REMARK INTER + INTRA:          -5.549
REMARK INTER:                  -5.407
REMARK INTRA:                  -0.142
REMARK UNBOUND:                -0.153
REMARK SMILES CCCCCCC(=O)[O-]
REMARK SMILES IDX 5 1 6 2 7 3 8 4 9 5 4 6 3 7 2 8 1 9
REMARK H PARENT
REMARK Flexibility Score: inf
ROOT
ATOM      1  C   UNL     1     -11.249  11.468   5.580  1.00  0.00     0.006 C 
ENDROOT
BRANCH   1   2
ATOM      2  C   UNL     1     -12.129  10.320   6.090  1.00  0.00     0.053 C 
BRANCH   2   3
ATOM      3  C   UNL     1     -12.350  10.448   7.565  1.00  0.00     0.041 C 
ATOM      4  O   UNL     1     -11.555  11.127   8.267  1.00  0.00    -0.550 OA
ATOM      5  O   UNL     1     -13.405   9.777   8.171  1.00  0.00    -0.550 OA
ENDBRANCH   2   3
ENDBRANCH   1   2
BRANCH   1   6
ATOM      6  C   UNL     1     -10.829  11.283   4.113  1.00  0.00     0.000 C 
BRANCH   6   7
ATOM      7  C   UNL     1     -10.178  12.544   3.520  1.00  0.00    -0.000 C 
BRANCH   7   8
ATOM      8  C   UNL     1      -9.178  13.200   4.485  1.00  0.00    -0.003 C 
ATOM      9  C   UNL     1      -7.752  13.216   3.936  1.00  0.00     0.004 C 
ENDBRANCH   7   8
ENDBRANCH   6   7
ENDBRANCH   1   6
TORSDOF 5
ENDMDL
MODEL 7
REMARK VINA RESULT:    -4.137      1.342      2.207
REMARK INTER + INTRA:          -5.500
REMARK INTER:                  -5.364
REMARK INTRA:                  -0.136
REMARK UNBOUND:                -0.153
REMARK SMILES CCCCCCC(=O)[O-]
REMARK SMILES IDX 5 1 6 2 7 3 8 4 9 5 4 6 3 7 2 8 1 9
REMARK H PARENT
REMARK Flexibility Score: inf
ROOT
ATOM      1  C   UNL     1     -12.789   9.095   7.480  1.00  0.00     0.006 C 
ENDROOT
BRANCH   1   2
ATOM      2  C   UNL     1     -13.865   8.077   7.079  1.00  0.00     0.053 C 
BRANCH   2   3
ATOM      3  C   UNL     1     -14.633   7.629   8.283  1.00  0.00     0.041 C 
ATOM      4  O   UNL     1     -14.645   8.335   9.325  1.00  0.00    -0.550 OA
ATOM      5  O   UNL     1     -15.295   6.408   8.269  1.00  0.00    -0.550 OA
ENDBRANCH   2   3
ENDBRANCH   1   2
BRANCH   1   6
ATOM      6  C   UNL     1     -12.363   9.995   6.309  1.00  0.00     0.000 C 
BRANCH   6   7
ATOM      7  C   UNL     1     -11.586  11.240   6.771  1.00  0.00    -0.000 C 
BRANCH   7   8
ATOM      8  C   UNL     1     -11.763  11.521   8.271  1.00  0.00    -0.003 C 
ATOM      9  C   UNL     1     -12.923  12.474   8.559  1.00  0.00     0.004 C 
ENDBRANCH   7   8
ENDBRANCH   6   7
ENDBRANCH   1   6
TORSDOF 5
ENDMDL
MODEL 8
REMARK VINA RESULT:    -4.072      3.869      5.792
REMARK INTER + INTRA:          -5.415
REMARK INTER:                  -5.262
REMARK INTRA:                  -0.153
REMARK UNBOUND:                -0.153
REMARK SMILES CCCCCCC(=O)[O-]
REMARK SMILES IDX 5 1 6 2 7 3 8 4 9 5 4 6 3 7 2 8 1 9
REMARK H PARENT
REMARK Flexibility Score: inf
ROOT
ATOM      1  C   UNL     1     -10.416  12.195   4.360  1.00  0.00     0.006 C 
ENDROOT
BRANCH   1   2
ATOM      2  C   UNL     1     -10.810  12.437   2.897  1.00  0.00     0.053 C 
BRANCH   2   3
ATOM      3  C   UNL     1     -10.574  11.204   2.083  1.00  0.00     0.041 C 
ATOM      4  O   UNL     1     -11.537  10.629   1.511  1.00  0.00    -0.550 OA
ATOM      5  O   UNL     1      -9.297  10.663   1.995  1.00  0.00    -0.550 OA
ENDBRANCH   2   3
ENDBRANCH   1   2
BRANCH   1   6
ATOM      6  C   UNL     1     -11.273  11.108   5.030  1.00  0.00     0.000 C 
BRANCH   6   7
ATOM      7  C   UNL     1     -11.389  11.302   6.552  1.00  0.00    -0.000 C 
BRANCH   7   8
ATOM      8  C   UNL     1     -12.731  10.799   7.107  1.00  0.00    -0.003 C 
ATOM      9  C   UNL     1     -12.876   9.281   7.015  1.00  0.00     0.004 C 
ENDBRANCH   7   8
ENDBRANCH   6   7
ENDBRANCH   1   6
TORSDOF 5
ENDMDL
MODEL 9
REMARK VINA RESULT:    -3.980      1.579      2.110
REMARK INTER + INTRA:          -5.297
REMARK INTER:                  -5.230
REMARK INTRA:                  -0.066
REMARK UNBOUND:                -0.153
REMARK SMILES CCCCCCC(=O)[O-]
REMARK SMILES IDX 5 1 6 2 7 3 8 4 9 5 4 6 3 7 2 8 1 9
REMARK H PARENT
REMARK Flexibility Score: inf
ROOT
ATOM      1  C   UNL     1     -13.895   7.576   6.997  1.00  0.00     0.006 C 
ENDROOT
BRANCH   1   2
ATOM      2  C   UNL     1     -13.624   6.451   8.005  1.00  0.00     0.053 C 
BRANCH   2   3
ATOM      3  C   UNL     1     -14.817   5.556   8.120  1.00  0.00     0.041 C 
ATOM      4  O   UNL     1     -15.702   5.789   8.985  1.00  0.00    -0.550 OA
ATOM      5  O   UNL     1     -14.927   4.437   7.305  1.00  0.00    -0.550 OA
ENDBRANCH   2   3
ENDBRANCH   1   2
BRANCH   1   6
ATOM      6  C   UNL     1     -13.147   8.874   7.346  1.00  0.00     0.000 C 
BRANCH   6   7
ATOM      7  C   UNL     1     -12.759   9.686   6.099  1.00  0.00    -0.000 C 
BRANCH   7   8
ATOM      8  C   UNL     1     -11.750  10.802   6.414  1.00  0.00    -0.003 C 
ATOM      9  C   UNL     1     -11.151  11.428   5.155  1.00  0.00     0.004 C 
ENDBRANCH   7   8
ENDBRANCH   6   7
ENDBRANCH   1   6
TORSDOF 5
ENDMDL
