MODEL 1
REMARK VINA RESULT:   147.681      0.000      0.000
REMARK INTER + INTRA:         151.997
REMARK INTER:                 151.997
REMARK INTRA:                   0.000
REMARK UNBOUND:                 0.000
REMARK SMILES CC1(C)CC[C@]2(C)CC[C@]3(C)C(=CC[C@@H]4[C@]5(C)CC[C@H](O)C(C)(C)[C@H]5CC[C@]43C)[C@@H]2C1
REMARK SMILES IDX 1 1 2 2 4 3 5 4 6 5 8 6 9 7 10 8 12 9 13 10 14 11 15 12
REMARK SMILES IDX 28 13 27 14 26 15 25 16 16 17 18 18 19 19 20 20 22 21 23 22
REMARK SMILES IDX 24 23 17 24 29 25 30 26 31 27 11 28 7 29 3 30 21 31
REMARK H PARENT 21 32
REMARK Flexibility Score: inf
ROOT
ATOM      1  C   UNL     1     -33.189  20.875 -11.918  1.00  0.00     0.011 C 
ATOM      2  C   UNL     1     -32.012  21.849 -12.184  1.00  0.00    -0.035 C 
ATOM      3  C   UNL     1     -30.675  21.143 -11.782  1.00  0.00     0.007 C 
ATOM      4  C   UNL     1     -29.723  20.875 -12.948  1.00  0.00     0.008 C 
ATOM      5  C   UNL     1     -29.412  22.136 -13.795  1.00  0.00    -0.026 C 
ATOM      6  C   UNL     1     -28.701  23.211 -12.931  1.00  0.00     0.008 C 
ATOM      7  C   UNL     1     -28.427  24.513 -13.700  1.00  0.00     0.012 C 
ATOM      8  C   UNL     1     -29.720  25.204 -14.246  1.00  0.00    -0.006 C 
ATOM      9  C   UNL     1     -30.709  24.164 -14.846  1.00  0.00    -0.064 C 
ATOM     10  C   UNL     1     -31.588  24.530 -15.831  1.00  0.00    -0.027 C 
ATOM     11  C   UNL     1     -31.546  25.840 -16.599  1.00  0.00     0.032 C 
ATOM     12  C   UNL     1     -30.710  26.911 -15.874  1.00  0.00     0.006 C 
ATOM     13  C   UNL     1     -29.350  26.255 -15.405  1.00  0.00    -0.020 C 
ATOM     14  C   UNL     1     -28.379  27.378 -14.942  1.00  0.00     0.008 C 
ATOM     15  C   UNL     1     -28.068  28.419 -16.042  1.00  0.00     0.005 C 
ATOM     16  C   UNL     1     -29.220  28.697 -17.059  1.00  0.00     0.003 C 
ATOM     17  C   UNL     1     -30.648  28.403 -16.482  1.00  0.00    -0.025 C 
ATOM     18  C   UNL     1     -31.694  28.583 -17.632  1.00  0.00     0.010 C 
ATOM     19  C   UNL     1     -31.570  29.906 -18.405  1.00  0.00     0.033 C 
ATOM     20  C   UNL     1     -30.163  30.105 -18.993  1.00  0.00     0.120 C 
ATOM     21  C   UNL     1     -29.043  30.031 -17.897  1.00  0.00    -0.006 C 
ATOM     22  C   UNL     1     -27.660  29.995 -18.610  1.00  0.00     0.014 C 
ATOM     23  C   UNL     1     -29.060  31.344 -17.056  1.00  0.00     0.014 C 
ATOM     24  C   UNL     1     -31.009  29.408 -15.335  1.00  0.00     0.012 C 
ATOM     25  C   UNL     1     -28.625  25.478 -16.573  1.00  0.00     0.012 C 
ATOM     26  C   UNL     1     -30.737  22.685 -14.418  1.00  0.00     0.022 C 
ATOM     27  C   UNL     1     -32.068  22.287 -13.690  1.00  0.00     0.015 C 
ATOM     28  C   UNL     1     -30.444  25.880 -13.026  1.00  0.00     0.017 C 
ATOM     29  C   UNL     1     -28.447  21.681 -14.926  1.00  0.00     0.012 C 
ATOM     30  C   UNL     1     -32.244  23.079 -11.279  1.00  0.00     0.011 C 
ENDROOT
BRANCH  20  31
ATOM     31  O   UNL     1     -29.962  29.121 -19.980  1.00  0.00    -0.393 OA
ATOM     32  H   UNL     1     -29.346  28.441 -19.600  1.00  0.00     0.210 HD
ENDBRANCH  20  31
TORSDOF 1
ENDMDL
MODEL 2
REMARK VINA RESULT:   150.661      3.251      8.098
REMARK INTER + INTRA:         155.065
REMARK INTER:                 155.065
REMARK INTRA:                   0.000
REMARK UNBOUND:                 0.000
REMARK SMILES CC1(C)CC[C@]2(C)CC[C@]3(C)C(=CC[C@@H]4[C@]5(C)CC[C@H](O)C(C)(C)[C@H]5CC[C@]43C)[C@@H]2C1
REMARK SMILES IDX 1 1 2 2 4 3 5 4 6 5 8 6 9 7 10 8 12 9 13 10 14 11 15 12
REMARK SMILES IDX 28 13 27 14 26 15 25 16 16 17 18 18 19 19 20 20 22 21 23 22
REMARK SMILES IDX 24 23 17 24 29 25 30 26 31 27 11 28 7 29 3 30 21 31
REMARK H PARENT 21 32
REMARK Flexibility Score: inf
ROOT
ATOM      1  C   UNL     1     -38.312  29.911 -19.428  1.00  0.00     0.011 C 
ATOM      2  C   UNL     1     -36.781  30.153 -19.389  1.00  0.00    -0.035 C 
ATOM      3  C   UNL     1     -36.502  31.652 -19.740  1.00  0.00     0.007 C 
ATOM      4  C   UNL     1     -35.896  32.470 -18.599  1.00  0.00     0.008 C 
ATOM      5  C   UNL     1     -34.622  31.831 -17.989  1.00  0.00    -0.026 C 
ATOM      6  C   UNL     1     -33.499  31.730 -19.053  1.00  0.00     0.008 C 
ATOM      7  C   UNL     1     -32.231  31.042 -18.525  1.00  0.00     0.012 C 
ATOM      8  C   UNL     1     -32.470  29.578 -18.032  1.00  0.00    -0.006 C 
ATOM      9  C   UNL     1     -33.790  29.462 -17.217  1.00  0.00    -0.064 C 
ATOM     10  C   UNL     1     -33.933  28.491 -16.260  1.00  0.00    -0.027 C 
ATOM     11  C   UNL     1     -32.810  27.622 -15.721  1.00  0.00     0.032 C 
ATOM     12  C   UNL     1     -31.585  27.610 -16.656  1.00  0.00     0.006 C 
ATOM     13  C   UNL     1     -31.265  29.098 -17.082  1.00  0.00    -0.020 C 
ATOM     14  C   UNL     1     -29.873  29.138 -17.774  1.00  0.00     0.008 C 
ATOM     15  C   UNL     1     -28.721  28.625 -16.880  1.00  0.00     0.005 C 
ATOM     16  C   UNL     1     -29.101  27.502 -15.862  1.00  0.00     0.003 C 
ATOM     17  C   UNL     1     -30.339  26.649 -16.306  1.00  0.00    -0.025 C 
ATOM     18  C   UNL     1     -30.702  25.662 -15.147  1.00  0.00     0.010 C 
ATOM     19  C   UNL     1     -29.516  24.846 -14.609  1.00  0.00     0.033 C 
ATOM     20  C   UNL     1     -28.360  25.744 -14.139  1.00  0.00     0.120 C 
ATOM     21  C   UNL     1     -27.861  26.715 -15.265  1.00  0.00    -0.006 C 
ATOM     22  C   UNL     1     -26.876  27.739 -14.630  1.00  0.00     0.014 C 
ATOM     23  C   UNL     1     -27.031  25.907 -16.308  1.00  0.00     0.014 C 
ATOM     24  C   UNL     1     -30.010  25.800 -17.582  1.00  0.00     0.012 C 
ATOM     25  C   UNL     1     -31.185  30.074 -15.843  1.00  0.00     0.012 C 
ATOM     26  C   UNL     1     -34.976  30.428 -17.394  1.00  0.00     0.022 C 
ATOM     27  C   UNL     1     -36.253  29.726 -17.975  1.00  0.00     0.015 C 
ATOM     28  C   UNL     1     -32.632  28.672 -19.307  1.00  0.00     0.017 C 
ATOM     29  C   UNL     1     -34.153  32.781 -16.851  1.00  0.00     0.012 C 
ATOM     30  C   UNL     1     -36.162  29.241 -20.470  1.00  0.00     0.011 C 
ENDROOT
BRANCH  20  31
ATOM     31  O   UNL     1     -28.803  26.468 -13.015  1.00  0.00    -0.393 OA
ATOM     32  H   UNL     1     -28.799  25.844 -12.241  1.00  0.00     0.210 HD
ENDBRANCH  20  31
TORSDOF 1
ENDMDL
