MODEL 1
REMARK VINA RESULT:    -3.695      0.000      0.000
REMARK INTER + INTRA:          -5.534
REMARK INTER:                  -4.883
REMARK INTRA:                  -0.650
REMARK UNBOUND:                -0.650
REMARK SMILES C=C[C@@H](O)CCCCC
REMARK SMILES IDX 6 1 7 2 8 3 9 4 5 5 3 6 2 7 1 8 4 9
REMARK H PARENT 4 10
REMARK Flexibility Score: inf
ROOT
ATOM      1  C   UNL     1     122.293 133.167 129.503  1.00  0.00     0.003 C 
ENDROOT
BRANCH   1   2
ATOM      2  C   UNL     1     121.799 134.230 128.516  1.00  0.00    -0.000 C 
BRANCH   2   3
ATOM      3  C   UNL     1     120.284 134.429 128.633  1.00  0.00    -0.003 C 
ATOM      4  C   UNL     1     119.552 133.806 127.448  1.00  0.00     0.004 C 
ENDBRANCH   2   3
ENDBRANCH   1   2
BRANCH   1   5
ATOM      5  C   UNL     1     122.835 131.937 128.763  1.00  0.00     0.036 C 
BRANCH   5   6
ATOM      6  C   UNL     1     121.838 130.763 128.794  1.00  0.00     0.136 C 
BRANCH   6   7
ATOM      7  C   UNL     1     120.831 130.946 129.902  1.00  0.00    -0.004 C 
ATOM      8  C   UNL     1     119.535 130.656 129.745  1.00  0.00     0.007 C 
ENDBRANCH   6   7
BRANCH   6   9
ATOM      9  O   UNL     1     121.161 130.658 127.568  1.00  0.00    -0.389 OA
ATOM     10  H   UNL     1     121.119 129.692 127.338  1.00  0.00     0.211 HD
ENDBRANCH   6   9
ENDBRANCH   5   6
ENDBRANCH   1   5
TORSDOF 6
ENDMDL
MODEL 2
REMARK VINA RESULT:    -3.530      1.817      3.496
REMARK INTER + INTRA:          -5.315
REMARK INTER:                  -4.911
REMARK INTRA:                  -0.405
REMARK UNBOUND:                -0.650
REMARK SMILES C=C[C@@H](O)CCCCC
REMARK SMILES IDX 6 1 7 2 8 3 9 4 5 5 3 6 2 7 1 8 4 9
REMARK H PARENT 4 10
REMARK Flexibility Score: inf
ROOT
ATOM      1  C   UNL     1     121.813 130.524 128.804  1.00  0.00     0.003 C 
ENDROOT
BRANCH   1   2
ATOM      2  C   UNL     1     120.414 130.903 128.307  1.00  0.00    -0.000 C 
BRANCH   2   3
ATOM      3  C   UNL     1     119.377 130.774 129.428  1.00  0.00    -0.003 C 
ATOM      4  C   UNL     1     119.983 130.126 130.669  1.00  0.00     0.004 C 
ENDBRANCH   2   3
ENDBRANCH   1   2
BRANCH   1   5
ATOM      5  C   UNL     1     122.836 131.614 128.455  1.00  0.00     0.036 C 
BRANCH   5   6
ATOM      6  C   UNL     1     122.201 133.016 128.446  1.00  0.00     0.136 C 
BRANCH   6   7
ATOM      7  C   UNL     1     122.652 133.816 129.642  1.00  0.00    -0.004 C 
ATOM      8  C   UNL     1     121.850 134.687 130.264  1.00  0.00     0.007 C 
ENDBRANCH   6   7
BRANCH   6   9
ATOM      9  O   UNL     1     122.546 133.707 127.272  1.00  0.00    -0.389 OA
ATOM     10  H   UNL     1     121.867 133.476 126.585  1.00  0.00     0.211 HD
ENDBRANCH   6   9
ENDBRANCH   5   6
ENDBRANCH   1   5
TORSDOF 6
ENDMDL
MODEL 3
REMARK VINA RESULT:    -3.505     14.750     16.067
REMARK INTER + INTRA:          -5.282
REMARK INTER:                  -4.992
REMARK INTRA:                  -0.290
REMARK UNBOUND:                -0.650
REMARK SMILES C=C[C@@H](O)CCCCC
REMARK SMILES IDX 6 1 7 2 8 3 9 4 5 5 3 6 2 7 1 8 4 9
REMARK H PARENT 4 10
REMARK Flexibility Score: inf
ROOT
ATOM      1  C   UNL     1     124.579 120.070 118.865  1.00  0.00     0.003 C 
ENDROOT
BRANCH   1   2
ATOM      2  C   UNL     1     126.000 120.356 118.366  1.00  0.00    -0.000 C 
BRANCH   2   3
ATOM      3  C   UNL     1     126.926 120.736 119.527  1.00  0.00    -0.003 C 
ATOM      4  C   UNL     1     127.720 122.000 119.208  1.00  0.00     0.004 C 
ENDBRANCH   2   3
ENDBRANCH   1   2
BRANCH   1   5
ATOM      5  C   UNL     1     124.347 118.562 119.033  1.00  0.00     0.036 C 
BRANCH   5   6
ATOM      6  C   UNL     1     123.639 118.235 120.361  1.00  0.00     0.136 C 
BRANCH   6   7
ATOM      7  C   UNL     1     123.633 119.435 121.274  1.00  0.00    -0.004 C 
ATOM      8  C   UNL     1     122.669 119.641 122.177  1.00  0.00     0.007 C 
ENDBRANCH   6   7
BRANCH   6   9
ATOM      9  O   UNL     1     122.315 117.826 120.127  1.00  0.00    -0.389 OA
ATOM     10  H   UNL     1     122.357 116.951 119.658  1.00  0.00     0.211 HD
ENDBRANCH   6   9
ENDBRANCH   5   6
ENDBRANCH   1   5
TORSDOF 6
ENDMDL
MODEL 4
REMARK VINA RESULT:    -3.470     11.360     13.295
REMARK INTER + INTRA:          -5.236
REMARK INTER:                  -4.703
REMARK INTRA:                  -0.533
REMARK UNBOUND:                -0.650
REMARK SMILES C=C[C@@H](O)CCCCC
REMARK SMILES IDX 6 1 7 2 8 3 9 4 5 5 3 6 2 7 1 8 4 9
REMARK H PARENT 4 10
REMARK Flexibility Score: inf
ROOT
ATOM      1  C   UNL     1     115.011 120.060 132.952  1.00  0.00     0.003 C 
ENDROOT
BRANCH   1   2
ATOM      2  C   UNL     1     115.296 120.602 134.357  1.00  0.00    -0.000 C 
BRANCH   2   3
ATOM      3  C   UNL     1     116.413 119.805 135.039  1.00  0.00    -0.003 C 
ATOM      4  C   UNL     1     117.718 120.595 135.065  1.00  0.00     0.004 C 
ENDBRANCH   2   3
ENDBRANCH   1   2
BRANCH   1   5
ATOM      5  C   UNL     1     114.873 121.204 131.937  1.00  0.00     0.036 C 
BRANCH   5   6
ATOM      6  C   UNL     1     115.992 122.250 132.097  1.00  0.00     0.136 C 
BRANCH   6   7
ATOM      7  C   UNL     1     117.149 121.940 131.180  1.00  0.00    -0.004 C 
ATOM      8  C   UNL     1     118.403 121.819 131.628  1.00  0.00     0.007 C 
ENDBRANCH   6   7
BRANCH   6   9
ATOM      9  O   UNL     1     115.509 123.538 131.811  1.00  0.00    -0.389 OA
ATOM     10  H   UNL     1     114.696 123.428 131.251  1.00  0.00     0.211 HD
ENDBRANCH   6   9
ENDBRANCH   5   6
ENDBRANCH   1   5
TORSDOF 6
ENDMDL
MODEL 5
REMARK VINA RESULT:    -3.446      1.690      3.548
REMARK INTER + INTRA:          -5.205
REMARK INTER:                  -4.612
REMARK INTRA:                  -0.593
REMARK UNBOUND:                -0.650
REMARK SMILES C=C[C@@H](O)CCCCC
REMARK SMILES IDX 6 1 7 2 8 3 9 4 5 5 3 6 2 7 1 8 4 9
REMARK H PARENT 4 10
REMARK Flexibility Score: inf
ROOT
ATOM      1  C   UNL     1     122.414 131.549 128.681  1.00  0.00     0.003 C 
ENDROOT
BRANCH   1   2
ATOM      2  C   UNL     1     121.405 130.396 128.677  1.00  0.00    -0.000 C 
BRANCH   2   3
ATOM      3  C   UNL     1     120.475 130.472 129.893  1.00  0.00    -0.003 C 
ATOM      4  C   UNL     1     119.040 130.117 129.515  1.00  0.00     0.004 C 
ENDBRANCH   2   3
ENDBRANCH   1   2
BRANCH   1   5
ATOM      5  C   UNL     1     121.893 132.734 129.505  1.00  0.00     0.036 C 
BRANCH   5   6
ATOM      6  C   UNL     1     121.403 133.886 128.608  1.00  0.00     0.136 C 
BRANCH   6   7
ATOM      7  C   UNL     1     119.899 133.882 128.505  1.00  0.00    -0.004 C 
ATOM      8  C   UNL     1     119.258 133.457 127.410  1.00  0.00     0.007 C 
ENDBRANCH   6   7
BRANCH   6   9
ATOM      9  O   UNL     1     121.827 135.125 129.118  1.00  0.00    -0.389 OA
ATOM     10  H   UNL     1     121.490 135.188 130.050  1.00  0.00     0.211 HD
ENDBRANCH   6   9
ENDBRANCH   5   6
ENDBRANCH   1   5
TORSDOF 6
ENDMDL
MODEL 6
REMARK VINA RESULT:    -3.382      1.839      2.989
REMARK INTER + INTRA:          -5.119
REMARK INTER:                  -4.877
REMARK INTRA:                  -0.242
REMARK UNBOUND:                -0.650
REMARK SMILES C=C[C@@H](O)CCCCC
REMARK SMILES IDX 6 1 7 2 8 3 9 4 5 5 3 6 2 7 1 8 4 9
REMARK H PARENT 4 10
REMARK Flexibility Score: inf
ROOT
ATOM      1  C   UNL     1     118.928 132.646 128.115  1.00  0.00     0.003 C 
ENDROOT
BRANCH   1   2
ATOM      2  C   UNL     1     119.271 133.607 126.972  1.00  0.00    -0.000 C 
BRANCH   2   3
ATOM      3  C   UNL     1     118.035 133.912 126.119  1.00  0.00    -0.003 C 
ATOM      4  C   UNL     1     118.244 133.480 124.670  1.00  0.00     0.004 C 
ENDBRANCH   2   3
ENDBRANCH   1   2
BRANCH   1   5
ATOM      5  C   UNL     1     120.078 132.562 129.128  1.00  0.00     0.036 C 
BRANCH   5   6
ATOM      6  C   UNL     1     120.577 131.116 129.313  1.00  0.00     0.136 C 
BRANCH   6   7
ATOM      7  C   UNL     1     121.874 130.900 128.574  1.00  0.00    -0.004 C 
ATOM      8  C   UNL     1     122.740 131.893 128.344  1.00  0.00     0.007 C 
ENDBRANCH   6   7
BRANCH   6   9
ATOM      9  O   UNL     1     120.769 130.830 130.675  1.00  0.00    -0.389 OA
ATOM     10  H   UNL     1     120.906 131.697 131.140  1.00  0.00     0.211 HD
ENDBRANCH   6   9
ENDBRANCH   5   6
ENDBRANCH   1   5
TORSDOF 6
ENDMDL
MODEL 7
REMARK VINA RESULT:    -3.338      2.088      3.137
REMARK INTER + INTRA:          -5.061
REMARK INTER:                  -4.751
REMARK INTRA:                  -0.310
REMARK UNBOUND:                -0.650
REMARK SMILES C=C[C@@H](O)CCCCC
REMARK SMILES IDX 6 1 7 2 8 3 9 4 5 5 3 6 2 7 1 8 4 9
REMARK H PARENT 4 10
REMARK Flexibility Score: inf
ROOT
ATOM      1  C   UNL     1     119.609 133.852 128.792  1.00  0.00     0.003 C 
ENDROOT
BRANCH   1   2
ATOM      2  C   UNL     1     119.169 132.896 127.678  1.00  0.00    -0.000 C 
BRANCH   2   3
ATOM      3  C   UNL     1     118.613 133.669 126.477  1.00  0.00    -0.003 C 
ATOM      4  C   UNL     1     117.186 134.141 126.736  1.00  0.00     0.004 C 
ENDBRANCH   2   3
ENDBRANCH   1   2
BRANCH   1   5
ATOM      5  C   UNL     1     121.057 134.316 128.581  1.00  0.00     0.036 C 
BRANCH   5   6
ATOM      6  C   UNL     1     122.046 133.527 129.460  1.00  0.00     0.136 C 
BRANCH   6   7
ATOM      7  C   UNL     1     122.730 132.448 128.659  1.00  0.00    -0.004 C 
ATOM      8  C   UNL     1     122.297 131.182 128.649  1.00  0.00     0.007 C 
ENDBRANCH   6   7
BRANCH   6   9
ATOM      9  O   UNL     1     123.018 134.386 130.002  1.00  0.00    -0.389 OA
ATOM     10  H   UNL     1     123.348 133.964 130.838  1.00  0.00     0.211 HD
ENDBRANCH   6   9
ENDBRANCH   5   6
ENDBRANCH   1   5
TORSDOF 6
ENDMDL
MODEL 8
REMARK VINA RESULT:    -3.320      1.966      4.093
REMARK INTER + INTRA:          -5.038
REMARK INTER:                  -4.748
REMARK INTRA:                  -0.290
REMARK UNBOUND:                -0.650
REMARK SMILES C=C[C@@H](O)CCCCC
REMARK SMILES IDX 6 1 7 2 8 3 9 4 5 5 3 6 2 7 1 8 4 9
REMARK H PARENT 4 10
REMARK Flexibility Score: inf
ROOT
ATOM      1  C   UNL     1     120.232 131.967 129.160  1.00  0.00     0.003 C 
ENDROOT
BRANCH   1   2
ATOM      2  C   UNL     1     121.241 131.115 128.381  1.00  0.00    -0.000 C 
BRANCH   2   3
ATOM      3  C   UNL     1     122.652 131.705 128.479  1.00  0.00    -0.003 C 
ATOM      4  C   UNL     1     122.645 133.031 129.233  1.00  0.00     0.004 C 
ENDBRANCH   2   3
ENDBRANCH   1   2
BRANCH   1   5
ATOM      5  C   UNL     1     119.057 132.384 128.265  1.00  0.00     0.036 C 
BRANCH   5   6
ATOM      6  C   UNL     1     119.399 133.616 127.406  1.00  0.00     0.136 C 
BRANCH   6   7
ATOM      7  C   UNL     1     118.275 133.931 126.452  1.00  0.00    -0.004 C 
ATOM      8  C   UNL     1     118.313 133.581 125.161  1.00  0.00     0.007 C 
ENDBRANCH   6   7
BRANCH   6   9
ATOM      9  O   UNL     1     119.639 134.735 128.222  1.00  0.00    -0.389 OA
ATOM     10  H   UNL     1     119.142 135.499 127.826  1.00  0.00     0.211 HD
ENDBRANCH   6   9
ENDBRANCH   5   6
ENDBRANCH   1   5
TORSDOF 6
ENDMDL
MODEL 9
REMARK VINA RESULT:    -3.266     11.146     13.078
REMARK INTER + INTRA:          -4.967
REMARK INTER:                  -4.714
REMARK INTRA:                  -0.253
REMARK UNBOUND:                -0.650
REMARK SMILES C=C[C@@H](O)CCCCC
REMARK SMILES IDX 6 1 7 2 8 3 9 4 5 5 3 6 2 7 1 8 4 9
REMARK H PARENT 4 10
REMARK Flexibility Score: inf
ROOT
ATOM      1  C   UNL     1     115.123 120.469 132.409  1.00  0.00     0.003 C 
ENDROOT
BRANCH   1   2
ATOM      2  C   UNL     1     114.828 120.471 133.913  1.00  0.00    -0.000 C 
BRANCH   2   3
ATOM      3  C   UNL     1     116.062 120.049 134.718  1.00  0.00    -0.003 C 
ATOM      4  C   UNL     1     117.347 120.315 133.939  1.00  0.00     0.004 C 
ENDBRANCH   2   3
ENDBRANCH   1   2
BRANCH   1   5
ATOM      5  C   UNL     1     114.696 121.794 131.762  1.00  0.00     0.036 C 
BRANCH   5   6
ATOM      6  C   UNL     1     115.907 122.611 131.274  1.00  0.00     0.136 C 
BRANCH   6   7
ATOM      7  C   UNL     1     115.946 122.660 129.767  1.00  0.00    -0.004 C 
ATOM      8  C   UNL     1     114.878 122.374 129.015  1.00  0.00     0.007 C 
ENDBRANCH   6   7
BRANCH   6   9
ATOM      9  O   UNL     1     115.854 123.922 131.778  1.00  0.00    -0.389 OA
ATOM     10  H   UNL     1     115.855 124.536 130.997  1.00  0.00     0.211 HD
ENDBRANCH   6   9
ENDBRANCH   5   6
ENDBRANCH   1   5
TORSDOF 6
ENDMDL
