MODEL 1
REMARK VINA RESULT:    -2.918      0.000      0.000
REMARK INTER + INTRA:          -6.054
REMARK INTER:                  -4.623
REMARK INTRA:                  -1.431
REMARK UNBOUND:                -1.431
REMARK SMILES CCCCCCCCCCCC(=O)[O-]
REMARK SMILES IDX 7 1 8 2 9 3 10 4 11 5 12 6 13 7 14 8 6 9 5 10 4 11 3 12 2 13
REMARK SMILES IDX 1 14
REMARK H PARENT
REMARK Flexibility Score: inf
ROOT
ATOM      1  C   UNL     1     -25.834   3.897 -29.081  1.00  0.00     0.000 C 
ENDROOT
BRANCH   1   2
ATOM      2  C   UNL     1     -24.340   4.210 -28.902  1.00  0.00     0.000 C 
BRANCH   2   3
ATOM      3  C   UNL     1     -23.757   4.842 -30.176  1.00  0.00     0.000 C 
BRANCH   3   4
ATOM      4  C   UNL     1     -24.825   5.107 -31.249  1.00  0.00     0.006 C 
BRANCH   4   5
ATOM      5  C   UNL     1     -24.221   5.563 -32.583  1.00  0.00     0.053 C 
BRANCH   5   6
ATOM      6  C   UNL     1     -24.950   4.933 -33.727  1.00  0.00     0.041 C 
ATOM      7  O   UNL     1     -26.157   5.220 -33.944  1.00  0.00    -0.550 OA
ATOM      8  O   UNL     1     -24.313   3.993 -34.526  1.00  0.00    -0.550 OA
ENDBRANCH   5   6
ENDBRANCH   4   5
ENDBRANCH   3   4
ENDBRANCH   2   3
ENDBRANCH   1   2
BRANCH   1   9
ATOM      9  C   UNL     1     -26.729   4.718 -28.139  1.00  0.00     0.000 C 
BRANCH   9  10
ATOM     10  C   UNL     1     -27.400   5.908 -28.849  1.00  0.00    -0.000 C 
BRANCH  10  11
ATOM     11  C   UNL     1     -26.945   7.264 -28.285  1.00  0.00    -0.000 C 
BRANCH  11  12
ATOM     12  C   UNL     1     -25.966   7.995 -29.220  1.00  0.00    -0.000 C 
BRANCH  12  13
ATOM     13  C   UNL     1     -24.558   8.121 -28.616  1.00  0.00    -0.003 C 
ATOM     14  C   UNL     1     -24.494   7.664 -27.160  1.00  0.00     0.004 C 
ENDBRANCH  12  13
ENDBRANCH  11  12
ENDBRANCH  10  11
ENDBRANCH   9  10
ENDBRANCH   1   9
TORSDOF 10
ENDMDL
MODEL 2
REMARK VINA RESULT:    -2.853     13.038     14.812
REMARK INTER + INTRA:          -5.952
REMARK INTER:                  -4.859
REMARK INTRA:                  -1.093
REMARK UNBOUND:                -1.431
REMARK SMILES CCCCCCCCCCCC(=O)[O-]
REMARK SMILES IDX 7 1 8 2 9 3 10 4 11 5 12 6 13 7 14 8 6 9 5 10 4 11 3 12 2 13
REMARK SMILES IDX 1 14
REMARK H PARENT
REMARK Flexibility Score: inf
ROOT
ATOM      1  C   UNL     1     -35.569  -6.140 -30.920  1.00  0.00     0.000 C 
ENDROOT
BRANCH   1   2
ATOM      2  C   UNL     1     -34.876  -5.419 -29.754  1.00  0.00     0.000 C 
BRANCH   2   3
ATOM      3  C   UNL     1     -34.669  -3.931 -30.076  1.00  0.00     0.000 C 
BRANCH   3   4
ATOM      4  C   UNL     1     -33.344  -3.660 -30.806  1.00  0.00     0.006 C 
BRANCH   4   5
ATOM      5  C   UNL     1     -33.551  -3.062 -32.203  1.00  0.00     0.053 C 
BRANCH   5   6
ATOM      6  C   UNL     1     -33.387  -4.117 -33.251  1.00  0.00     0.041 C 
ATOM      7  O   UNL     1     -34.395  -4.574 -33.853  1.00  0.00    -0.550 OA
ATOM      8  O   UNL     1     -32.128  -4.632 -33.529  1.00  0.00    -0.550 OA
ENDBRANCH   5   6
ENDBRANCH   4   5
ENDBRANCH   3   4
ENDBRANCH   2   3
ENDBRANCH   1   2
BRANCH   1   9
ATOM      9  C   UNL     1     -34.694  -7.241 -31.542  1.00  0.00     0.000 C 
BRANCH   9  10
ATOM     10  C   UNL     1     -33.338  -7.391 -30.829  1.00  0.00    -0.000 C 
BRANCH  10  11
ATOM     11  C   UNL     1     -32.844  -8.847 -30.804  1.00  0.00    -0.000 C 
BRANCH  11  12
ATOM     12  C   UNL     1     -32.152  -9.214 -29.479  1.00  0.00    -0.000 C 
BRANCH  12  13
ATOM     13  C   UNL     1     -32.078  -8.027 -28.505  1.00  0.00    -0.003 C 
ATOM     14  C   UNL     1     -32.353  -8.430 -27.057  1.00  0.00     0.004 C 
ENDBRANCH  12  13
ENDBRANCH  11  12
ENDBRANCH  10  11
ENDBRANCH   9  10
ENDBRANCH   1   9
TORSDOF 10
ENDMDL
MODEL 3
REMARK VINA RESULT:    -2.819     12.699     14.259
REMARK INTER + INTRA:          -5.898
REMARK INTER:                  -5.172
REMARK INTRA:                  -0.726
REMARK UNBOUND:                -1.431
REMARK SMILES CCCCCCCCCCCC(=O)[O-]
REMARK SMILES IDX 7 1 8 2 9 3 10 4 11 5 12 6 13 7 14 8 6 9 5 10 4 11 3 12 2 13
REMARK SMILES IDX 1 14
REMARK H PARENT
REMARK Flexibility Score: inf
ROOT
ATOM      1  C   UNL     1     -33.333  -4.602 -33.388  1.00  0.00     0.000 C 
ENDROOT
BRANCH   1   2
ATOM      2  C   UNL     1     -34.674  -5.324 -33.189  1.00  0.00     0.000 C 
BRANCH   2   3
ATOM      3  C   UNL     1     -34.830  -5.801 -31.737  1.00  0.00     0.000 C 
BRANCH   3   4
ATOM      4  C   UNL     1     -34.497  -7.291 -31.563  1.00  0.00     0.006 C 
BRANCH   4   5
ATOM      5  C   UNL     1     -33.121  -7.518 -30.925  1.00  0.00     0.053 C 
BRANCH   5   6
ATOM      6  C   UNL     1     -32.899  -8.975 -30.671  1.00  0.00     0.041 C 
ATOM      7  O   UNL     1     -32.346  -9.355 -29.605  1.00  0.00    -0.550 OA
ATOM      8  O   UNL     1     -33.259  -9.912 -31.630  1.00  0.00    -0.550 OA
ENDBRANCH   5   6
ENDBRANCH   4   5
ENDBRANCH   3   4
ENDBRANCH   2   3
ENDBRANCH   1   2
BRANCH   1   9
ATOM      9  C   UNL     1     -32.994  -3.648 -32.230  1.00  0.00     0.000 C 
BRANCH   9  10
ATOM     10  C   UNL     1     -33.547  -2.229 -32.454  1.00  0.00    -0.000 C 
BRANCH  10  11
ATOM     11  C   UNL     1     -33.315  -1.725 -33.888  1.00  0.00    -0.000 C 
BRANCH  11  12
ATOM     12  C   UNL     1     -31.910  -1.130 -34.086  1.00  0.00    -0.000 C 
BRANCH  12  13
ATOM     13  C   UNL     1     -31.045  -1.966 -35.043  1.00  0.00    -0.003 C 
ATOM     14  C   UNL     1     -30.781  -1.262 -36.373  1.00  0.00     0.004 C 
ENDBRANCH  12  13
ENDBRANCH  11  12
ENDBRANCH  10  11
ENDBRANCH   9  10
ENDBRANCH   1   9
TORSDOF 10
ENDMDL
MODEL 4
REMARK VINA RESULT:    -2.803      9.077     11.226
REMARK INTER + INTRA:          -5.872
REMARK INTER:                  -4.314
REMARK INTRA:                  -1.558
REMARK UNBOUND:                -1.431
REMARK SMILES CCCCCCCCCCCC(=O)[O-]
REMARK SMILES IDX 7 1 8 2 9 3 10 4 11 5 12 6 13 7 14 8 6 9 5 10 4 11 3 12 2 13
REMARK SMILES IDX 1 14
REMARK H PARENT
REMARK Flexibility Score: inf
ROOT
ATOM      1  C   UNL     1     -32.802   1.563 -37.584  1.00  0.00     0.000 C 
ENDROOT
BRANCH   1   2
ATOM      2  C   UNL     1     -32.240   2.917 -38.041  1.00  0.00     0.000 C 
BRANCH   2   3
ATOM      3  C   UNL     1     -31.979   2.918 -39.555  1.00  0.00     0.000 C 
BRANCH   3   4
ATOM      4  C   UNL     1     -31.163   4.136 -40.016  1.00  0.00     0.006 C 
BRANCH   4   5
ATOM      5  C   UNL     1     -29.650   3.915 -39.894  1.00  0.00     0.053 C 
BRANCH   5   6
ATOM      6  C   UNL     1     -29.026   5.012 -39.091  1.00  0.00     0.041 C 
ATOM      7  O   UNL     1     -29.387   6.207 -39.264  1.00  0.00    -0.550 OA
ATOM      8  O   UNL     1     -28.013   4.724 -38.187  1.00  0.00    -0.550 OA
ENDBRANCH   5   6
ENDBRANCH   4   5
ENDBRANCH   3   4
ENDBRANCH   2   3
ENDBRANCH   1   2
BRANCH   1   9
ATOM      9  C   UNL     1     -32.835   0.521 -38.714  1.00  0.00     0.000 C 
BRANCH   9  10
ATOM     10  C   UNL     1     -31.837  -0.629 -38.488  1.00  0.00    -0.000 C 
BRANCH  10  11
ATOM     11  C   UNL     1     -30.704  -0.638 -39.527  1.00  0.00    -0.000 C 
BRANCH  11  12
ATOM     12  C   UNL     1     -29.506   0.229 -39.104  1.00  0.00    -0.000 C 
BRANCH  12  13
ATOM     13  C   UNL     1     -29.267   0.203 -37.585  1.00  0.00    -0.003 C 
ATOM     14  C   UNL     1     -28.921   1.578 -37.016  1.00  0.00     0.004 C 
ENDBRANCH  12  13
ENDBRANCH  11  12
ENDBRANCH  10  11
ENDBRANCH   9  10
ENDBRANCH   1   9
TORSDOF 10
ENDMDL
MODEL 5
REMARK VINA RESULT:    -2.787      7.885     10.889
REMARK INTER + INTRA:          -5.846
REMARK INTER:                  -4.579
REMARK INTRA:                  -1.267
REMARK UNBOUND:                -1.431
REMARK SMILES CCCCCCCCCCCC(=O)[O-]
REMARK SMILES IDX 7 1 8 2 9 3 10 4 11 5 12 6 13 7 14 8 6 9 5 10 4 11 3 12 2 13
REMARK SMILES IDX 1 14
REMARK H PARENT
REMARK Flexibility Score: inf
ROOT
ATOM      1  C   UNL     1     -29.492  -0.478 -39.870  1.00  0.00     0.000 C 
ENDROOT
BRANCH   1   2
ATOM      2  C   UNL     1     -29.380   1.041 -40.066  1.00  0.00     0.000 C 
BRANCH   2   3
ATOM      3  C   UNL     1     -28.264   1.626 -39.187  1.00  0.00     0.000 C 
BRANCH   3   4
ATOM      4  C   UNL     1     -28.445   3.128 -38.918  1.00  0.00     0.006 C 
BRANCH   4   5
ATOM      5  C   UNL     1     -28.334   3.479 -37.429  1.00  0.00     0.053 C 
BRANCH   5   6
ATOM      6  C   UNL     1     -27.153   4.366 -37.190  1.00  0.00     0.041 C 
ATOM      7  O   UNL     1     -26.032   3.866 -36.908  1.00  0.00    -0.550 OA
ATOM      8  O   UNL     1     -27.300   5.747 -37.230  1.00  0.00    -0.550 OA
ENDBRANCH   5   6
ENDBRANCH   4   5
ENDBRANCH   3   4
ENDBRANCH   2   3
ENDBRANCH   1   2
BRANCH   1   9
ATOM      9  C   UNL     1     -30.856  -0.906 -39.305  1.00  0.00     0.000 C 
BRANCH   9  10
ATOM     10  C   UNL     1     -30.986  -0.626 -37.797  1.00  0.00    -0.000 C 
BRANCH  10  11
ATOM     11  C   UNL     1     -32.116   0.367 -37.478  1.00  0.00    -0.000 C 
BRANCH  11  12
ATOM     12  C   UNL     1     -32.958   0.723 -38.715  1.00  0.00    -0.000 C 
BRANCH  12  13
ATOM     13  C   UNL     1     -32.797   2.193 -39.134  1.00  0.00    -0.003 C 
ATOM     14  C   UNL     1     -32.033   3.023 -38.103  1.00  0.00     0.004 C 
ENDBRANCH  12  13
ENDBRANCH  11  12
ENDBRANCH  10  11
ENDBRANCH   9  10
ENDBRANCH   1   9
TORSDOF 10
ENDMDL
MODEL 6
REMARK VINA RESULT:    -2.761      7.695     10.535
REMARK INTER + INTRA:          -5.806
REMARK INTER:                  -4.524
REMARK INTRA:                  -1.282
REMARK UNBOUND:                -1.431
REMARK SMILES CCCCCCCCCCCC(=O)[O-]
REMARK SMILES IDX 7 1 8 2 9 3 10 4 11 5 12 6 13 7 14 8 6 9 5 10 4 11 3 12 2 13
REMARK SMILES IDX 1 14
REMARK H PARENT
REMARK Flexibility Score: inf
ROOT
ATOM      1  C   UNL     1     -32.020   2.416 -37.026  1.00  0.00     0.000 C 
ENDROOT
BRANCH   1   2
ATOM      2  C   UNL     1     -30.917   3.440 -37.336  1.00  0.00     0.000 C 
BRANCH   2   3
ATOM      3  C   UNL     1     -30.145   3.045 -38.604  1.00  0.00     0.000 C 
BRANCH   3   4
ATOM      4  C   UNL     1     -28.630   3.264 -38.468  1.00  0.00     0.006 C 
BRANCH   4   5
ATOM      5  C   UNL     1     -28.270   4.720 -38.146  1.00  0.00     0.053 C 
BRANCH   5   6
ATOM      6  C   UNL     1     -27.141   4.773 -37.167  1.00  0.00     0.041 C 
ATOM      7  O   UNL     1     -26.779   5.876 -36.677  1.00  0.00    -0.550 OA
ATOM      8  O   UNL     1     -26.456   3.613 -36.830  1.00  0.00    -0.550 OA
ENDBRANCH   5   6
ENDBRANCH   4   5
ENDBRANCH   3   4
ENDBRANCH   2   3
ENDBRANCH   1   2
BRANCH   1   9
ATOM      9  C   UNL     1     -33.023   2.255 -38.180  1.00  0.00     0.000 C 
BRANCH   9  10
ATOM     10  C   UNL     1     -33.171   0.791 -38.633  1.00  0.00    -0.000 C 
BRANCH  10  11
ATOM     11  C   UNL     1     -32.086  -0.122 -38.039  1.00  0.00    -0.000 C 
BRANCH  11  12
ATOM     12  C   UNL     1     -31.094  -0.630 -39.100  1.00  0.00    -0.000 C 
BRANCH  12  13
ATOM     13  C   UNL     1     -29.650  -0.689 -38.576  1.00  0.00    -0.003 C 
ATOM     14  C   UNL     1     -29.545  -0.356 -37.088  1.00  0.00     0.004 C 
ENDBRANCH  12  13
ENDBRANCH  11  12
ENDBRANCH  10  11
ENDBRANCH   9  10
ENDBRANCH   1   9
TORSDOF 10
ENDMDL
MODEL 7
REMARK VINA RESULT:    -2.758      1.717      3.388
REMARK INTER + INTRA:          -5.801
REMARK INTER:                  -4.196
REMARK INTRA:                  -1.605
REMARK UNBOUND:                -1.431
REMARK SMILES CCCCCCCCCCCC(=O)[O-]
REMARK SMILES IDX 7 1 8 2 9 3 10 4 11 5 12 6 13 7 14 8 6 9 5 10 4 11 3 12 2 13
REMARK SMILES IDX 1 14
REMARK H PARENT
REMARK Flexibility Score: inf
ROOT
ATOM      1  C   UNL     1     -24.171   6.470 -26.370  1.00  0.00     0.000 C 
ENDROOT
BRANCH   1   2
ATOM      2  C   UNL     1     -25.311   5.440 -26.399  1.00  0.00     0.000 C 
BRANCH   2   3
ATOM      3  C   UNL     1     -24.790   4.059 -26.828  1.00  0.00     0.000 C 
BRANCH   3   4
ATOM      4  C   UNL     1     -24.317   4.031 -28.289  1.00  0.00     0.006 C 
BRANCH   4   5
ATOM      5  C   UNL     1     -25.448   4.332 -29.282  1.00  0.00     0.053 C 
BRANCH   5   6
ATOM      6  C   UNL     1     -24.887   4.853 -30.568  1.00  0.00     0.041 C 
ATOM      7  O   UNL     1     -25.630   4.983 -31.576  1.00  0.00    -0.550 OA
ATOM      8  O   UNL     1     -23.534   5.148 -30.668  1.00  0.00    -0.550 OA
ENDBRANCH   5   6
ENDBRANCH   4   5
ENDBRANCH   3   4
ENDBRANCH   2   3
ENDBRANCH   1   2
BRANCH   1   9
ATOM      9  C   UNL     1     -24.573   7.819 -26.987  1.00  0.00     0.000 C 
BRANCH   9  10
ATOM     10  C   UNL     1     -24.219   7.914 -28.483  1.00  0.00    -0.000 C 
BRANCH  10  11
ATOM     11  C   UNL     1     -25.458   8.124 -29.369  1.00  0.00    -0.000 C 
BRANCH  11  12
ATOM     12  C   UNL     1     -26.769   8.118 -28.563  1.00  0.00    -0.000 C 
BRANCH  12  13
ATOM     13  C   UNL     1     -27.793   7.111 -29.113  1.00  0.00    -0.003 C 
ATOM     14  C   UNL     1     -28.525   6.348 -28.010  1.00  0.00     0.004 C 
ENDBRANCH  12  13
ENDBRANCH  11  12
ENDBRANCH  10  11
ENDBRANCH   9  10
ENDBRANCH   1   9
TORSDOF 10
ENDMDL
MODEL 8
REMARK VINA RESULT:    -2.744      1.993      2.898
REMARK INTER + INTRA:          -5.779
REMARK INTER:                  -4.520
REMARK INTRA:                  -1.259
REMARK UNBOUND:                -1.431
REMARK SMILES CCCCCCCCCCCC(=O)[O-]
REMARK SMILES IDX 7 1 8 2 9 3 10 4 11 5 12 6 13 7 14 8 6 9 5 10 4 11 3 12 2 13
REMARK SMILES IDX 1 14
REMARK H PARENT
REMARK Flexibility Score: inf
ROOT
ATOM      1  C   UNL     1     -27.092   5.523 -29.360  1.00  0.00     0.000 C 
ENDROOT
BRANCH   1   2
ATOM      2  C   UNL     1     -27.243   5.212 -30.857  1.00  0.00     0.000 C 
BRANCH   2   3
ATOM      3  C   UNL     1     -26.015   4.456 -31.385  1.00  0.00     0.000 C 
BRANCH   3   4
ATOM      4  C   UNL     1     -24.794   5.369 -31.581  1.00  0.00     0.006 C 
BRANCH   4   5
ATOM      5  C   UNL     1     -23.714   5.147 -30.515  1.00  0.00     0.053 C 
BRANCH   5   6
ATOM      6  C   UNL     1     -23.412   3.689 -30.375  1.00  0.00     0.041 C 
ATOM      7  O   UNL     1     -22.884   3.057 -31.328  1.00  0.00    -0.550 OA
ATOM      8  O   UNL     1     -23.757   3.015 -29.210  1.00  0.00    -0.550 OA
ENDBRANCH   5   6
ENDBRANCH   4   5
ENDBRANCH   3   4
ENDBRANCH   2   3
ENDBRANCH   1   2
BRANCH   1   9
ATOM      9  C   UNL     1     -27.930   6.734 -28.917  1.00  0.00     0.000 C 
BRANCH   9  10
ATOM     10  C   UNL     1     -27.061   7.898 -28.406  1.00  0.00    -0.000 C 
BRANCH  10  11
ATOM     11  C   UNL     1     -25.812   8.125 -29.272  1.00  0.00    -0.000 C 
BRANCH  11  12
ATOM     12  C   UNL     1     -24.512   8.125 -28.447  1.00  0.00    -0.000 C 
BRANCH  12  13
ATOM     13  C   UNL     1     -24.686   7.454 -27.075  1.00  0.00    -0.003 C 
ATOM     14  C   UNL     1     -23.747   6.266 -26.872  1.00  0.00     0.004 C 
ENDBRANCH  12  13
ENDBRANCH  11  12
ENDBRANCH  10  11
ENDBRANCH   9  10
ENDBRANCH   1   9
TORSDOF 10
ENDMDL
MODEL 9
REMARK VINA RESULT:    -2.720      9.779     11.879
REMARK INTER + INTRA:          -5.741
REMARK INTER:                  -4.204
REMARK INTRA:                  -1.537
REMARK UNBOUND:                -1.431
REMARK SMILES CCCCCCCCCCCC(=O)[O-]
REMARK SMILES IDX 7 1 8 2 9 3 10 4 11 5 12 6 13 7 14 8 6 9 5 10 4 11 3 12 2 13
REMARK SMILES IDX 1 14
REMARK H PARENT
REMARK Flexibility Score: inf
ROOT
ATOM      1  C   UNL     1     -32.282  -0.060 -37.409  1.00  0.00     0.000 C 
ENDROOT
BRANCH   1   2
ATOM      2  C   UNL     1     -32.937   0.684 -38.582  1.00  0.00     0.000 C 
BRANCH   2   3
ATOM      3  C   UNL     1     -32.804   2.205 -38.408  1.00  0.00     0.000 C 
BRANCH   3   4
ATOM      4  C   UNL     1     -32.652   2.944 -39.747  1.00  0.00     0.006 C 
BRANCH   4   5
ATOM      5  C   UNL     1     -31.926   4.287 -39.600  1.00  0.00     0.053 C 
BRANCH   5   6
ATOM      6  C   UNL     1     -32.731   5.224 -38.756  1.00  0.00     0.041 C 
ATOM      7  O   UNL     1     -33.914   5.511 -39.080  1.00  0.00    -0.550 OA
ATOM      8  O   UNL     1     -32.160   5.820 -37.639  1.00  0.00    -0.550 OA
ENDBRANCH   5   6
ENDBRANCH   4   5
ENDBRANCH   3   4
ENDBRANCH   2   3
ENDBRANCH   1   2
BRANCH   1   9
ATOM      9  C   UNL     1     -31.029  -0.846 -37.829  1.00  0.00     0.000 C 
BRANCH   9  10
ATOM     10  C   UNL     1     -30.830  -0.869 -39.355  1.00  0.00    -0.000 C 
BRANCH  10  11
ATOM     11  C   UNL     1     -29.450  -0.338 -39.778  1.00  0.00    -0.000 C 
BRANCH  11  12
ATOM     12  C   UNL     1     -29.475   1.161 -40.125  1.00  0.00    -0.000 C 
BRANCH  12  13
ATOM     13  C   UNL     1     -28.526   1.986 -39.240  1.00  0.00    -0.003 C 
ATOM     14  C   UNL     1     -29.132   2.327 -37.879  1.00  0.00     0.004 C 
ENDBRANCH  12  13
ENDBRANCH  11  12
ENDBRANCH  10  11
ENDBRANCH   9  10
ENDBRANCH   1   9
TORSDOF 10
ENDMDL
