MODEL 1
REMARK VINA RESULT:    -3.027      0.000      0.000
REMARK INTER + INTRA:          -5.868
REMARK INTER:                  -4.620
REMARK INTRA:                  -1.247
REMARK UNBOUND:                -1.247
REMARK SMILES CCCCCCCCCCC(=O)[O-]
REMARK SMILES IDX 7 1 8 2 9 3 10 4 11 5 12 6 13 7 6 8 5 9 4 10 3 11 2 12 1 13
REMARK H PARENT
REMARK Flexibility Score: inf
ROOT
ATOM      1  C   UNL     1       7.511   0.894  -6.710  1.00  0.00     0.000 C 
ENDROOT
BRANCH   1   2
ATOM      2  C   UNL     1       7.012   2.127  -7.483  1.00  0.00     0.000 C 
BRANCH   2   3
ATOM      3  C   UNL     1       5.565   1.967  -7.978  1.00  0.00     0.006 C 
BRANCH   3   4
ATOM      4  C   UNL     1       4.710   3.213  -7.715  1.00  0.00     0.053 C 
BRANCH   4   5
ATOM      5  C   UNL     1       4.776   3.593  -6.269  1.00  0.00     0.041 C 
ATOM      6  O   UNL     1       4.160   2.914  -5.406  1.00  0.00    -0.550 OA
ATOM      7  O   UNL     1       5.479   4.727  -5.880  1.00  0.00    -0.550 OA
ENDBRANCH   4   5
ENDBRANCH   3   4
ENDBRANCH   2   3
ENDBRANCH   1   2
BRANCH   1   8
ATOM      8  C   UNL     1       6.370   0.094  -6.054  1.00  0.00     0.000 C 
BRANCH   8   9
ATOM      9  C   UNL     1       6.374  -1.419  -6.340  1.00  0.00    -0.000 C 
BRANCH   9  10
ATOM     10  C   UNL     1       5.220  -1.862  -7.254  1.00  0.00    -0.000 C 
BRANCH  10  11
ATOM     11  C   UNL     1       5.493  -1.584  -8.743  1.00  0.00    -0.000 C 
BRANCH  11  12
ATOM     12  C   UNL     1       6.916  -1.927  -9.221  1.00  0.00    -0.003 C 
ATOM     13  C   UNL     1       7.556  -0.813 -10.047  1.00  0.00     0.004 C 
ENDBRANCH  11  12
ENDBRANCH  10  11
ENDBRANCH   9  10
ENDBRANCH   8   9
ENDBRANCH   1   8
TORSDOF 9
ENDMDL
MODEL 2
REMARK VINA RESULT:    -3.002     18.562     20.089
REMARK INTER + INTRA:          -5.829
REMARK INTER:                  -5.202
REMARK INTRA:                  -0.626
REMARK UNBOUND:                -1.247
REMARK SMILES CCCCCCCCCCC(=O)[O-]
REMARK SMILES IDX 7 1 8 2 9 3 10 4 11 5 12 6 13 7 6 8 5 9 4 10 3 11 2 12 1 13
REMARK H PARENT
REMARK Flexibility Score: inf
ROOT
ATOM      1  C   UNL     1      -4.948  -4.855   7.373  1.00  0.00     0.000 C 
ENDROOT
BRANCH   1   2
ATOM      2  C   UNL     1      -4.338  -5.250   8.729  1.00  0.00     0.000 C 
BRANCH   2   3
ATOM      3  C   UNL     1      -3.495  -6.533   8.645  1.00  0.00     0.006 C 
BRANCH   3   4
ATOM      4  C   UNL     1      -3.818  -7.370   7.400  1.00  0.00     0.053 C 
BRANCH   4   5
ATOM      5  C   UNL     1      -2.629  -7.432   6.493  1.00  0.00     0.041 C 
ATOM      6  O   UNL     1      -1.537  -7.899   6.911  1.00  0.00    -0.550 OA
ATOM      7  O   UNL     1      -2.714  -6.929   5.201  1.00  0.00    -0.550 OA
ENDBRANCH   4   5
ENDBRANCH   3   4
ENDBRANCH   2   3
ENDBRANCH   1   2
BRANCH   1   8
ATOM      8  C   UNL     1      -5.873  -3.627   7.464  1.00  0.00     0.000 C 
BRANCH   8   9
ATOM      9  C   UNL     1      -7.316  -3.918   7.915  1.00  0.00    -0.000 C 
BRANCH   9  10
ATOM     10  C   UNL     1      -7.787  -5.335   7.547  1.00  0.00    -0.000 C 
BRANCH  10  11
ATOM     11  C   UNL     1      -9.174  -5.352   6.878  1.00  0.00    -0.000 C 
BRANCH  11  12
ATOM     12  C   UNL     1      -9.363  -4.332   5.741  1.00  0.00    -0.003 C 
ATOM     13  C   UNL     1      -8.799  -4.812   4.405  1.00  0.00     0.004 C 
ENDBRANCH  11  12
ENDBRANCH  10  11
ENDBRANCH   9  10
ENDBRANCH   8   9
ENDBRANCH   1   8
TORSDOF 9
ENDMDL
MODEL 3
REMARK VINA RESULT:    -3.002     18.860     20.387
REMARK INTER + INTRA:          -5.828
REMARK INTER:                  -4.599
REMARK INTRA:                  -1.230
REMARK UNBOUND:                -1.247
REMARK SMILES CCCCCCCCCCC(=O)[O-]
REMARK SMILES IDX 7 1 8 2 9 3 10 4 11 5 12 6 13 7 6 8 5 9 4 10 3 11 2 12 1 13
REMARK H PARENT
REMARK Flexibility Score: inf
ROOT
ATOM      1  C   UNL     1      -4.912  -4.319   9.362  1.00  0.00     0.000 C 
ENDROOT
BRANCH   1   2
ATOM      2  C   UNL     1      -4.196  -5.633   9.004  1.00  0.00     0.000 C 
BRANCH   2   3
ATOM      3  C   UNL     1      -4.215  -5.921   7.494  1.00  0.00     0.006 C 
BRANCH   3   4
ATOM      4  C   UNL     1      -3.902  -7.387   7.168  1.00  0.00     0.053 C 
BRANCH   4   5
ATOM      5  C   UNL     1      -2.661  -7.481   6.338  1.00  0.00     0.041 C 
ATOM      6  O   UNL     1      -2.694  -7.189   5.113  1.00  0.00    -0.550 OA
ATOM      7  O   UNL     1      -1.478  -7.939   6.905  1.00  0.00    -0.550 OA
ENDBRANCH   4   5
ENDBRANCH   3   4
ENDBRANCH   2   3
ENDBRANCH   1   2
BRANCH   1   8
ATOM      8  C   UNL     1      -5.601  -3.661   8.153  1.00  0.00     0.000 C 
BRANCH   8   9
ATOM      9  C   UNL     1      -7.046  -3.186   8.394  1.00  0.00    -0.000 C 
BRANCH   9  10
ATOM     10  C   UNL     1      -8.094  -4.271   8.093  1.00  0.00    -0.000 C 
BRANCH  10  11
ATOM     11  C   UNL     1      -7.737  -5.124   6.862  1.00  0.00    -0.000 C 
BRANCH  11  12
ATOM     12  C   UNL     1      -7.953  -6.639   7.033  1.00  0.00    -0.003 C 
ATOM     13  C   UNL     1      -7.696  -7.124   8.459  1.00  0.00     0.004 C 
ENDBRANCH  11  12
ENDBRANCH  10  11
ENDBRANCH   9  10
ENDBRANCH   8   9
ENDBRANCH   1   8
TORSDOF 9
ENDMDL
MODEL 4
REMARK VINA RESULT:    -2.999      0.735      1.434
REMARK INTER + INTRA:          -5.824
REMARK INTER:                  -4.792
REMARK INTRA:                  -1.032
REMARK UNBOUND:                -1.247
REMARK SMILES CCCCCCCCCCC(=O)[O-]
REMARK SMILES IDX 7 1 8 2 9 3 10 4 11 5 12 6 13 7 6 8 5 9 4 10 3 11 2 12 1 13
REMARK H PARENT
REMARK Flexibility Score: inf
ROOT
ATOM      1  C   UNL     1       7.514   1.254  -6.787  1.00  0.00     0.000 C 
ENDROOT
BRANCH   1   2
ATOM      2  C   UNL     1       6.919   2.281  -7.765  1.00  0.00     0.000 C 
BRANCH   2   3
ATOM      3  C   UNL     1       5.402   2.110  -7.949  1.00  0.00     0.006 C 
BRANCH   3   4
ATOM      4  C   UNL     1       4.621   3.391  -7.632  1.00  0.00     0.053 C 
BRANCH   4   5
ATOM      5  C   UNL     1       4.699   3.699  -6.170  1.00  0.00     0.041 C 
ATOM      6  O   UNL     1       4.058   3.001  -5.340  1.00  0.00    -0.550 OA
ATOM      7  O   UNL     1       5.441   4.787  -5.727  1.00  0.00    -0.550 OA
ENDBRANCH   4   5
ENDBRANCH   3   4
ENDBRANCH   2   3
ENDBRANCH   1   2
BRANCH   1   8
ATOM      8  C   UNL     1       6.445   0.361  -6.130  1.00  0.00     0.000 C 
BRANCH   8   9
ATOM      9  C   UNL     1       6.488  -1.126  -6.529  1.00  0.00    -0.000 C 
BRANCH   9  10
ATOM     10  C   UNL     1       7.352  -1.389  -7.774  1.00  0.00    -0.000 C 
BRANCH  10  11
ATOM     11  C   UNL     1       6.527  -1.836  -8.994  1.00  0.00    -0.000 C 
BRANCH  11  12
ATOM     12  C   UNL     1       5.052  -1.394  -8.982  1.00  0.00    -0.003 C 
ATOM     13  C   UNL     1       4.075  -2.562  -9.110  1.00  0.00     0.004 C 
ENDBRANCH  11  12
ENDBRANCH  10  11
ENDBRANCH   9  10
ENDBRANCH   8   9
ENDBRANCH   1   8
TORSDOF 9
ENDMDL
MODEL 5
REMARK VINA RESULT:    -2.892      1.263      2.600
REMARK INTER + INTRA:          -5.661
REMARK INTER:                  -4.456
REMARK INTRA:                  -1.206
REMARK UNBOUND:                -1.247
REMARK SMILES CCCCCCCCCCC(=O)[O-]
REMARK SMILES IDX 7 1 8 2 9 3 10 4 11 5 12 6 13 7 6 8 5 9 4 10 3 11 2 12 1 13
REMARK H PARENT
REMARK Flexibility Score: inf
ROOT
ATOM      1  C   UNL     1       5.254   0.078  -8.981  1.00  0.00     0.000 C 
ENDROOT
BRANCH   1   2
ATOM      2  C   UNL     1       6.374   1.081  -9.305  1.00  0.00     0.000 C 
BRANCH   2   3
ATOM      3  C   UNL     1       6.267   2.371  -8.475  1.00  0.00     0.006 C 
BRANCH   3   4
ATOM      4  C   UNL     1       5.525   2.160  -7.149  1.00  0.00     0.053 C 
BRANCH   4   5
ATOM      5  C   UNL     1       4.658   3.341  -6.845  1.00  0.00     0.041 C 
ATOM      6  O   UNL     1       4.815   4.422  -7.472  1.00  0.00    -0.550 OA
ATOM      7  O   UNL     1       3.707   3.263  -5.834  1.00  0.00    -0.550 OA
ENDBRANCH   4   5
ENDBRANCH   3   4
ENDBRANCH   2   3
ENDBRANCH   1   2
BRANCH   1   8
ATOM      8  C   UNL     1       5.787  -1.281  -8.489  1.00  0.00     0.000 C 
BRANCH   8   9
ATOM      9  C   UNL     1       5.571  -1.572  -6.993  1.00  0.00    -0.000 C 
BRANCH   9  10
ATOM     10  C   UNL     1       6.887  -1.664  -6.203  1.00  0.00    -0.000 C 
BRANCH  10  11
ATOM     11  C   UNL     1       7.291  -0.328  -5.552  1.00  0.00    -0.000 C 
BRANCH  11  12
ATOM     12  C   UNL     1       8.658   0.225  -5.994  1.00  0.00    -0.003 C 
ATOM     13  C   UNL     1       9.148  -0.368  -7.314  1.00  0.00     0.004 C 
ENDBRANCH  11  12
ENDBRANCH  10  11
ENDBRANCH   9  10
ENDBRANCH   8   9
ENDBRANCH   1   8
TORSDOF 9
ENDMDL
MODEL 6
REMARK VINA RESULT:    -2.849      0.970      2.528
REMARK INTER + INTRA:          -5.595
REMARK INTER:                  -4.354
REMARK INTRA:                  -1.241
REMARK UNBOUND:                -1.247
REMARK SMILES CCCCCCCCCCC(=O)[O-]
REMARK SMILES IDX 7 1 8 2 9 3 10 4 11 5 12 6 13 7 6 8 5 9 4 10 3 11 2 12 1 13
REMARK H PARENT
REMARK Flexibility Score: inf
ROOT
ATOM      1  C   UNL     1       8.688   0.760  -8.125  1.00  0.00     0.000 C 
ENDROOT
BRANCH   1   2
ATOM      2  C   UNL     1       7.757   1.921  -8.515  1.00  0.00     0.000 C 
BRANCH   2   3
ATOM      3  C   UNL     1       7.100   2.585  -7.294  1.00  0.00     0.006 C 
BRANCH   3   4
ATOM      4  C   UNL     1       5.580   2.378  -7.256  1.00  0.00     0.053 C 
BRANCH   4   5
ATOM      5  C   UNL     1       4.934   3.428  -6.408  1.00  0.00     0.041 C 
ATOM      6  O   UNL     1       5.510   4.531  -6.216  1.00  0.00    -0.550 OA
ATOM      7  O   UNL     1       3.717   3.170  -5.788  1.00  0.00    -0.550 OA
ENDBRANCH   4   5
ENDBRANCH   3   4
ENDBRANCH   2   3
ENDBRANCH   1   2
BRANCH   1   8
ATOM      8  C   UNL     1       8.401  -0.532  -8.912  1.00  0.00     0.000 C 
BRANCH   8   9
ATOM      9  C   UNL     1       6.955  -0.691  -9.418  1.00  0.00    -0.000 C 
BRANCH   9  10
ATOM     10  C   UNL     1       6.169  -1.774  -8.661  1.00  0.00    -0.000 C 
BRANCH  10  11
ATOM     11  C   UNL     1       5.654  -1.295  -7.291  1.00  0.00    -0.000 C 
BRANCH  11  12
ATOM     12  C   UNL     1       6.496  -1.746  -6.083  1.00  0.00    -0.003 C 
ATOM     13  C   UNL     1       6.904  -0.589  -5.172  1.00  0.00     0.004 C 
ENDBRANCH  11  12
ENDBRANCH  10  11
ENDBRANCH   9  10
ENDBRANCH   8   9
ENDBRANCH   1   8
TORSDOF 9
ENDMDL
MODEL 7
REMARK VINA RESULT:    -2.841      2.926      5.163
REMARK INTER + INTRA:          -5.584
REMARK INTER:                  -4.505
REMARK INTRA:                  -1.078
REMARK UNBOUND:                -1.247
REMARK SMILES CCCCCCCCCCC(=O)[O-]
REMARK SMILES IDX 7 1 8 2 9 3 10 4 11 5 12 6 13 7 6 8 5 9 4 10 3 11 2 12 1 13
REMARK H PARENT
REMARK Flexibility Score: inf
ROOT
ATOM      1  C   UNL     1       7.410   1.457  -8.224  1.00  0.00     0.000 C 
ENDROOT
BRANCH   1   2
ATOM      2  C   UNL     1       8.115   1.311  -6.865  1.00  0.00     0.000 C 
BRANCH   2   3
ATOM      3  C   UNL     1       8.349  -0.158  -6.478  1.00  0.00     0.006 C 
BRANCH   3   4
ATOM      4  C   UNL     1       7.545  -0.578  -5.240  1.00  0.00     0.053 C 
BRANCH   4   5
ATOM      5  C   UNL     1       6.590  -1.676  -5.589  1.00  0.00     0.041 C 
ATOM      6  O   UNL     1       6.434  -2.652  -4.809  1.00  0.00    -0.550 OA
ATOM      7  O   UNL     1       5.908  -1.646  -6.800  1.00  0.00    -0.550 OA
ENDBRANCH   4   5
ENDBRANCH   3   4
ENDBRANCH   2   3
ENDBRANCH   1   2
BRANCH   1   8
ATOM      8  C   UNL     1       5.899   1.724  -8.093  1.00  0.00     0.000 C 
BRANCH   8   9
ATOM      9  C   UNL     1       5.385   1.917  -6.654  1.00  0.00    -0.000 C 
BRANCH   9  10
ATOM     10  C   UNL     1       4.622   3.238  -6.460  1.00  0.00    -0.000 C 
BRANCH  10  11
ATOM     11  C   UNL     1       5.284   4.425  -7.182  1.00  0.00    -0.000 C 
BRANCH  11  12
ATOM     12  C   UNL     1       6.362   5.165  -6.370  1.00  0.00    -0.003 C 
ATOM     13  C   UNL     1       7.709   5.236  -7.086  1.00  0.00     0.004 C 
ENDBRANCH  11  12
ENDBRANCH  10  11
ENDBRANCH   9  10
ENDBRANCH   8   9
ENDBRANCH   1   8
TORSDOF 9
ENDMDL
MODEL 8
REMARK VINA RESULT:    -2.831      8.240     10.212
REMARK INTER + INTRA:          -5.568
REMARK INTER:                  -4.358
REMARK INTRA:                  -1.210
REMARK UNBOUND:                -1.247
REMARK SMILES CCCCCCCCCCC(=O)[O-]
REMARK SMILES IDX 7 1 8 2 9 3 10 4 11 5 12 6 13 7 6 8 5 9 4 10 3 11 2 12 1 13
REMARK H PARENT
REMARK Flexibility Score: inf
ROOT
ATOM      1  C   UNL     1       5.762   9.985  -1.699  1.00  0.00     0.000 C 
ENDROOT
BRANCH   1   2
ATOM      2  C   UNL     1       5.041   9.763  -0.359  1.00  0.00     0.000 C 
BRANCH   2   3
ATOM      3  C   UNL     1       6.003   9.337   0.763  1.00  0.00     0.006 C 
BRANCH   3   4
ATOM      4  C   UNL     1       7.436   9.121   0.262  1.00  0.00     0.053 C 
BRANCH   4   5
ATOM      5  C   UNL     1       7.869   7.711   0.516  1.00  0.00     0.041 C 
ATOM      6  O   UNL     1       9.087   7.399   0.445  1.00  0.00    -0.550 OA
ATOM      7  O   UNL     1       6.921   6.731   0.783  1.00  0.00    -0.550 OA
ENDBRANCH   4   5
ENDBRANCH   3   4
ENDBRANCH   2   3
ENDBRANCH   1   2
BRANCH   1   8
ATOM      8  C   UNL     1       4.975   9.434  -2.903  1.00  0.00     0.000 C 
BRANCH   8   9
ATOM      9  C   UNL     1       5.686   8.330  -3.708  1.00  0.00    -0.000 C 
BRANCH   9  10
ATOM     10  C   UNL     1       6.384   7.290  -2.816  1.00  0.00    -0.000 C 
BRANCH  10  11
ATOM     11  C   UNL     1       7.789   6.913  -3.320  1.00  0.00    -0.000 C 
BRANCH  11  12
ATOM     12  C   UNL     1       8.614   8.081  -3.889  1.00  0.00    -0.003 C 
ATOM     13  C   UNL     1       9.407   8.831  -2.820  1.00  0.00     0.004 C 
ENDBRANCH  11  12
ENDBRANCH  10  11
ENDBRANCH   9  10
ENDBRANCH   8   9
ENDBRANCH   1   8
TORSDOF 9
ENDMDL
MODEL 9
REMARK VINA RESULT:    -2.831      2.891      5.113
REMARK INTER + INTRA:          -5.568
REMARK INTER:                  -4.480
REMARK INTRA:                  -1.088
REMARK UNBOUND:                -1.247
REMARK SMILES CCCCCCCCCCC(=O)[O-]
REMARK SMILES IDX 7 1 8 2 9 3 10 4 11 5 12 6 13 7 6 8 5 9 4 10 3 11 2 12 1 13
REMARK H PARENT
REMARK Flexibility Score: inf
ROOT
ATOM      1  C   UNL     1       8.479   0.744  -7.202  1.00  0.00     0.000 C 
ENDROOT
BRANCH   1   2
ATOM      2  C   UNL     1       7.959  -0.104  -6.029  1.00  0.00     0.000 C 
BRANCH   2   3
ATOM      3  C   UNL     1       6.438   0.024  -5.838  1.00  0.00     0.006 C 
BRANCH   3   4
ATOM      4  C   UNL     1       5.669  -0.057  -7.163  1.00  0.00     0.053 C 
BRANCH   4   5
ATOM      5  C   UNL     1       5.598  -1.474  -7.637  1.00  0.00     0.041 C 
ATOM      6  O   UNL     1       6.249  -1.836  -8.652  1.00  0.00    -0.550 OA
ATOM      7  O   UNL     1       4.773  -2.384  -6.988  1.00  0.00    -0.550 OA
ENDBRANCH   4   5
ENDBRANCH   3   4
ENDBRANCH   2   3
ENDBRANCH   1   2
BRANCH   1   8
ATOM      8  C   UNL     1       9.243   2.000  -6.744  1.00  0.00     0.000 C 
BRANCH   8   9
ATOM      9  C   UNL     1       8.600   3.344  -7.133  1.00  0.00    -0.000 C 
BRANCH   9  10
ATOM     10  C   UNL     1       7.189   3.186  -7.725  1.00  0.00    -0.000 C 
BRANCH  10  11
ATOM     11  C   UNL     1       6.162   4.142  -7.091  1.00  0.00    -0.000 C 
BRANCH  11  12
ATOM     12  C   UNL     1       4.722   3.601  -7.022  1.00  0.00    -0.003 C 
ATOM     13  C   UNL     1       4.333   3.109  -5.629  1.00  0.00     0.004 C 
ENDBRANCH  11  12
ENDBRANCH  10  11
ENDBRANCH   9  10
ENDBRANCH   8   9
ENDBRANCH   1   8
TORSDOF 9
ENDMDL
