MODEL 1
REMARK VINA RESULT:     0.602      0.000      0.000
REMARK INTER + INTRA:           1.233
REMARK INTER:                   0.655
REMARK INTRA:                   0.578
REMARK UNBOUND:                 0.578
REMARK SMILES C[C@H]1[C@@H](C)CC[C@@]2(C(=O)[O-])CC[C@@]3(C)C(=CC[C@@H]4[C@@]5(C)CC[C@@H](O)C(C)(C)[C@H]5CC[C@@]43C)[C@@H]12
REMARK SMILES IDX 7 1 6 2 11 3 33 4 5 5 12 6 15 7 2 8 3 9 13 10 16 11 1 12
REMARK SMILES IDX 4 13 14 14 31 15 17 16 18 17 30 18 32 19 19 20 29 21 28 22
REMARK SMILES IDX 21 23 20 24 25 25 22 26 23 27 26 28 27 29 8 30 9 31 10 32
REMARK SMILES IDX 24 33
REMARK H PARENT 24 34
REMARK Flexibility Score: inf
ROOT
ATOM      1  C   UNL     1      11.693 -22.586  -9.996  1.00  0.00     0.017 C 
ATOM      2  C   UNL     1      13.078 -22.033 -10.461  1.00  0.00     0.014 C 
ATOM      3  C   UNL     1      11.899 -23.282  -8.615  1.00  0.00     0.014 C 
ATOM      4  C   UNL     1      10.622 -21.432  -9.907  1.00  0.00     0.030 C 
ATOM      5  C   UNL     1      13.009 -20.932 -11.531  1.00  0.00     0.004 C 
ATOM      6  C   UNL     1      10.594 -23.672  -7.879  1.00  0.00     0.013 C 
ATOM      7  C   UNL     1       9.423 -21.772  -8.981  1.00  0.00    -0.063 C 
ATOM      8  C   UNL     1      11.174 -19.968  -9.916  1.00  0.00    -0.003 C 
ATOM      9  C   UNL     1      12.023 -19.769 -11.218  1.00  0.00    -0.011 C 
ATOM     10  C   UNL     1       9.605 -22.487  -7.621  1.00  0.00    -0.006 C 
ATOM     11  C   UNL     1       8.264 -21.968  -9.630  1.00  0.00    -0.027 C 
ATOM     12  C   UNL     1      11.896 -19.510  -8.635  1.00  0.00     0.008 C 
ATOM     13  C   UNL     1      12.713 -18.397 -11.325  1.00  0.00     0.008 C 
ATOM     14  C   UNL     1      10.301 -21.513  -6.626  1.00  0.00     0.017 C 
ATOM     15  C   UNL     1       8.173 -22.998  -6.968  1.00  0.00    -0.020 C 
ATOM     16  C   UNL     1       7.602 -23.290  -9.491  1.00  0.00     0.032 C 
ATOM     17  C   UNL     1       7.132 -23.590  -8.043  1.00  0.00     0.006 C 
ATOM     18  C   UNL     1       7.442 -21.857  -6.167  1.00  0.00     0.008 C 
ATOM     19  C   UNL     1       8.485 -24.125  -5.925  1.00  0.00     0.012 C 
ATOM     20  C   UNL     1       5.573 -23.243  -7.831  1.00  0.00    -0.025 C 
ATOM     21  C   UNL     1       6.583 -20.946  -7.040  1.00  0.00     0.005 C 
ATOM     22  C   UNL     1       5.378 -21.664  -7.753  1.00  0.00     0.003 C 
ATOM     23  C   UNL     1       4.995 -23.962  -6.558  1.00  0.00     0.010 C 
ATOM     24  C   UNL     1       4.772 -23.862  -9.034  1.00  0.00     0.012 C 
ATOM     25  C   UNL     1       3.943 -21.186  -7.241  1.00  0.00    -0.006 C 
ATOM     26  C   UNL     1       3.602 -23.479  -6.126  1.00  0.00     0.033 C 
ATOM     27  C   UNL     1       3.538 -21.952  -5.946  1.00  0.00     0.120 C 
ATOM     28  C   UNL     1       2.861 -21.395  -8.343  1.00  0.00     0.014 C 
ATOM     29  C   UNL     1       3.897 -19.649  -6.962  1.00  0.00     0.014 C 
ENDROOT
BRANCH   1  30
ATOM     30  C   UNL     1      11.241 -23.629 -11.031  1.00  0.00     0.048 C 
ATOM     31  O   UNL     1      10.064 -24.087 -11.037  1.00  0.00    -0.550 OA
ATOM     32  O   UNL     1      12.141 -24.116 -11.973  1.00  0.00    -0.550 OA
ENDBRANCH   1  30
BRANCH  27  33
ATOM     33  O   UNL     1       4.367 -21.572  -4.875  1.00  0.00    -0.393 OA
ATOM     34  H   UNL     1       3.871 -20.890  -4.351  1.00  0.00     0.210 HD
ENDBRANCH  27  33
TORSDOF 2
ENDMDL
MODEL 2
REMARK VINA RESULT:     0.682      1.975      3.635
REMARK INTER + INTRA:           1.320
REMARK INTER:                   1.522
REMARK INTRA:                  -0.202
REMARK UNBOUND:                 0.578
REMARK SMILES C[C@H]1[C@@H](C)CC[C@@]2(C(=O)[O-])CC[C@@]3(C)C(=CC[C@@H]4[C@@]5(C)CC[C@@H](O)C(C)(C)[C@H]5CC[C@@]43C)[C@@H]12
REMARK SMILES IDX 7 1 6 2 11 3 33 4 5 5 12 6 15 7 2 8 3 9 13 10 16 11 1 12
REMARK SMILES IDX 4 13 14 14 31 15 17 16 18 17 30 18 32 19 19 20 29 21 28 22
REMARK SMILES IDX 21 23 20 24 25 25 22 26 23 27 26 28 27 29 8 30 9 31 10 32
REMARK SMILES IDX 24 33
REMARK H PARENT 24 34
REMARK Flexibility Score: inf
ROOT
ATOM      1  C   UNL     1      11.483 -20.809  -9.531  1.00  0.00     0.017 C 
ATOM      2  C   UNL     1      12.655 -20.929 -10.558  1.00  0.00     0.014 C 
ATOM      3  C   UNL     1      10.815 -19.415  -9.735  1.00  0.00     0.014 C 
ATOM      4  C   UNL     1      10.444 -21.980  -9.717  1.00  0.00     0.030 C 
ATOM      5  C   UNL     1      13.123 -22.366 -10.840  1.00  0.00     0.004 C 
ATOM      6  C   UNL     1       9.479 -19.214  -8.979  1.00  0.00     0.013 C 
ATOM      7  C   UNL     1       9.041 -21.659  -9.135  1.00  0.00    -0.063 C 
ATOM      8  C   UNL     1      10.538 -22.789 -11.053  1.00  0.00    -0.003 C 
ATOM      9  C   UNL     1      11.986 -23.376 -11.174  1.00  0.00    -0.011 C 
ATOM     10  C   UNL     1       8.374 -20.274  -9.304  1.00  0.00    -0.006 C 
ATOM     11  C   UNL     1       8.722 -22.367  -8.040  1.00  0.00    -0.027 C 
ATOM     12  C   UNL     1      10.064 -22.056 -12.321  1.00  0.00     0.008 C 
ATOM     13  C   UNL     1      12.262 -24.125 -12.490  1.00  0.00     0.008 C 
ATOM     14  C   UNL     1       7.974 -20.081 -10.796  1.00  0.00     0.017 C 
ATOM     15  C   UNL     1       7.031 -20.088  -8.354  1.00  0.00    -0.020 C 
ATOM     16  C   UNL     1       8.434 -21.623  -6.788  1.00  0.00     0.032 C 
ATOM     17  C   UNL     1       7.169 -20.730  -6.885  1.00  0.00     0.006 C 
ATOM     18  C   UNL     1       5.740 -20.690  -9.024  1.00  0.00     0.008 C 
ATOM     19  C   UNL     1       6.757 -18.554  -8.189  1.00  0.00     0.012 C 
ATOM     20  C   UNL     1       5.869 -21.456  -6.271  1.00  0.00    -0.025 C 
ATOM     21  C   UNL     1       5.561 -22.185  -8.780  1.00  0.00     0.005 C 
ATOM     22  C   UNL     1       5.360 -22.587  -7.272  1.00  0.00     0.003 C 
ATOM     23  C   UNL     1       4.735 -20.419  -5.943  1.00  0.00     0.010 C 
ATOM     24  C   UNL     1       6.267 -22.062  -4.875  1.00  0.00     0.012 C 
ATOM     25  C   UNL     1       3.913 -23.177  -6.944  1.00  0.00    -0.006 C 
ATOM     26  C   UNL     1       3.370 -21.044  -5.612  1.00  0.00     0.033 C 
ATOM     27  C   UNL     1       2.893 -22.025  -6.698  1.00  0.00     0.120 C 
ATOM     28  C   UNL     1       3.963 -24.117  -5.702  1.00  0.00     0.014 C 
ATOM     29  C   UNL     1       3.377 -24.098  -8.087  1.00  0.00     0.014 C 
ENDROOT
BRANCH   1  30
ATOM     30  C   UNL     1      12.094 -20.881  -8.122  1.00  0.00     0.048 C 
ATOM     31  O   UNL     1      12.824 -19.955  -7.670  1.00  0.00    -0.550 OA
ATOM     32  O   UNL     1      11.877 -21.998  -7.322  1.00  0.00    -0.550 OA
ENDBRANCH   1  30
BRANCH  27  33
ATOM     33  O   UNL     1       2.654 -21.321  -7.892  1.00  0.00    -0.393 OA
ATOM     34  H   UNL     1       3.524 -21.246  -8.364  1.00  0.00     0.210 HD
ENDBRANCH  27  33
TORSDOF 2
ENDMDL
MODEL 3
REMARK VINA RESULT:     1.868      2.131      3.747
REMARK INTER + INTRA:           2.610
REMARK INTER:                   2.081
REMARK INTRA:                   0.529
REMARK UNBOUND:                 0.578
REMARK SMILES C[C@H]1[C@@H](C)CC[C@@]2(C(=O)[O-])CC[C@@]3(C)C(=CC[C@@H]4[C@@]5(C)CC[C@@H](O)C(C)(C)[C@H]5CC[C@@]43C)[C@@H]12
REMARK SMILES IDX 7 1 6 2 11 3 33 4 5 5 12 6 15 7 2 8 3 9 13 10 16 11 1 12
REMARK SMILES IDX 4 13 14 14 31 15 17 16 18 17 30 18 32 19 19 20 29 21 28 22
REMARK SMILES IDX 21 23 20 24 25 25 22 26 23 27 26 28 27 29 8 30 9 31 10 32
REMARK SMILES IDX 24 33
REMARK H PARENT 24 34
REMARK Flexibility Score: inf
ROOT
ATOM      1  C   UNL     1      10.861 -21.200  -8.955  1.00  0.00     0.017 C 
ATOM      2  C   UNL     1      12.392 -21.479  -8.820  1.00  0.00     0.014 C 
ATOM      3  C   UNL     1      10.339 -22.002 -10.186  1.00  0.00     0.014 C 
ATOM      4  C   UNL     1      10.094 -21.601  -7.637  1.00  0.00     0.030 C 
ATOM      5  C   UNL     1      12.986 -21.178  -7.434  1.00  0.00     0.004 C 
ATOM      6  C   UNL     1       8.798 -22.048 -10.329  1.00  0.00     0.013 C 
ATOM      7  C   UNL     1       8.578 -21.855  -7.858  1.00  0.00    -0.063 C 
ATOM      8  C   UNL     1      10.870 -22.511  -6.629  1.00  0.00    -0.003 C 
ATOM      9  C   UNL     1      12.203 -21.787  -6.235  1.00  0.00    -0.011 C 
ATOM     10  C   UNL     1       8.039 -22.624  -9.088  1.00  0.00    -0.006 C 
ATOM     11  C   UNL     1       7.778 -20.925  -7.314  1.00  0.00    -0.027 C 
ATOM     12  C   UNL     1      11.071 -23.977  -7.057  1.00  0.00     0.008 C 
ATOM     13  C   UNL     1      13.125 -22.606  -5.314  1.00  0.00     0.008 C 
ATOM     14  C   UNL     1       8.434 -24.125  -8.960  1.00  0.00     0.017 C 
ATOM     15  C   UNL     1       6.397 -22.507  -9.249  1.00  0.00    -0.020 C 
ATOM     16  C   UNL     1       6.877 -20.165  -8.218  1.00  0.00     0.032 C 
ATOM     17  C   UNL     1       5.801 -21.054  -8.897  1.00  0.00     0.006 C 
ATOM     18  C   UNL     1       5.635 -23.566  -8.367  1.00  0.00     0.008 C 
ATOM     19  C   UNL     1       6.026 -22.836 -10.735  1.00  0.00     0.012 C 
ATOM     20  C   UNL     1       4.394 -21.000  -8.117  1.00  0.00    -0.025 C 
ATOM     21  C   UNL     1       5.407 -23.117  -6.927  1.00  0.00     0.005 C 
ATOM     22  C   UNL     1       4.492 -21.846  -6.770  1.00  0.00     0.003 C 
ATOM     23  C   UNL     1       3.214 -21.497  -9.029  1.00  0.00     0.010 C 
ATOM     24  C   UNL     1       4.060 -19.492  -7.824  1.00  0.00     0.012 C 
ATOM     25  C   UNL     1       3.095 -22.136  -6.053  1.00  0.00    -0.006 C 
ATOM     26  C   UNL     1       1.889 -21.737  -8.289  1.00  0.00     0.033 C 
ATOM     27  C   UNL     1       2.052 -22.672  -7.078  1.00  0.00     0.120 C 
ATOM     28  C   UNL     1       2.548 -20.853  -5.359  1.00  0.00     0.014 C 
ATOM     29  C   UNL     1       3.234 -23.162  -4.881  1.00  0.00     0.014 C 
ENDROOT
BRANCH   1  30
ATOM     30  C   UNL     1      10.687 -19.695  -9.213  1.00  0.00     0.048 C 
ATOM     31  O   UNL     1       9.594 -19.107  -8.981  1.00  0.00    -0.550 OA
ATOM     32  O   UNL     1      11.735 -18.950  -9.744  1.00  0.00    -0.550 OA
ENDBRANCH   1  30
BRANCH  27  33
ATOM     33  O   UNL     1       2.419 -23.955  -7.524  1.00  0.00    -0.393 OA
ATOM     34  H   UNL     1       2.331 -24.569  -6.747  1.00  0.00     0.210 HD
ENDBRANCH  27  33
TORSDOF 2
ENDMDL
MODEL 4
REMARK VINA RESULT:     2.936      1.571      7.635
REMARK INTER + INTRA:           3.772
REMARK INTER:                   3.965
REMARK INTRA:                  -0.193
REMARK UNBOUND:                 0.578
REMARK SMILES C[C@H]1[C@@H](C)CC[C@@]2(C(=O)[O-])CC[C@@]3(C)C(=CC[C@@H]4[C@@]5(C)CC[C@@H](O)C(C)(C)[C@H]5CC[C@@]43C)[C@@H]12
REMARK SMILES IDX 7 1 6 2 11 3 33 4 5 5 12 6 15 7 2 8 3 9 13 10 16 11 1 12
REMARK SMILES IDX 4 13 14 14 31 15 17 16 18 17 30 18 32 19 19 20 29 21 28 22
REMARK SMILES IDX 21 23 20 24 25 25 22 26 23 27 26 28 27 29 8 30 9 31 10 32
REMARK SMILES IDX 24 33
REMARK H PARENT 24 34
REMARK Flexibility Score: inf
ROOT
ATOM      1  C   UNL     1       4.840 -20.919  -6.205  1.00  0.00     0.017 C 
ATOM      2  C   UNL     1       3.375 -21.197  -5.737  1.00  0.00     0.014 C 
ATOM      3  C   UNL     1       5.796 -21.335  -5.046  1.00  0.00     0.014 C 
ATOM      4  C   UNL     1       5.168 -21.702  -7.534  1.00  0.00     0.030 C 
ATOM      5  C   UNL     1       2.342 -21.303  -6.871  1.00  0.00     0.004 C 
ATOM      6  C   UNL     1       7.298 -21.366  -5.418  1.00  0.00     0.013 C 
ATOM      7  C   UNL     1       6.689 -21.907  -7.769  1.00  0.00    -0.063 C 
ATOM      8  C   UNL     1       4.184 -22.853  -7.926  1.00  0.00    -0.003 C 
ATOM      9  C   UNL     1       2.741 -22.251  -8.040  1.00  0.00    -0.011 C 
ATOM     10  C   UNL     1       7.658 -22.293  -6.626  1.00  0.00    -0.006 C 
ATOM     11  C   UNL     1       7.192 -21.191  -8.787  1.00  0.00    -0.027 C 
ATOM     12  C   UNL     1       4.252 -24.125  -7.061  1.00  0.00     0.008 C 
ATOM     13  C   UNL     1       1.640 -23.286  -8.331  1.00  0.00     0.008 C 
ATOM     14  C   UNL     1       7.366 -23.758  -6.186  1.00  0.00     0.017 C 
ATOM     15  C   UNL     1       9.249 -22.164  -7.062  1.00  0.00    -0.020 C 
ATOM     16  C   UNL     1       8.272 -20.217  -8.488  1.00  0.00     0.032 C 
ATOM     17  C   UNL     1       9.578 -20.888  -7.985  1.00  0.00     0.006 C 
ATOM     18  C   UNL     1       9.767 -23.448  -7.811  1.00  0.00     0.008 C 
ATOM     19  C   UNL     1      10.106 -22.051  -5.755  1.00  0.00     0.012 C 
ATOM     20  C   UNL     1      10.648 -21.091  -9.172  1.00  0.00    -0.025 C 
ATOM     21  C   UNL     1       9.479 -23.444  -9.309  1.00  0.00     0.005 C 
ATOM     22  C   UNL     1      10.188 -22.292 -10.112  1.00  0.00     0.003 C 
ATOM     23  C   UNL     1      12.096 -21.321  -8.604  1.00  0.00     0.010 C 
ATOM     24  C   UNL     1      10.746 -19.740  -9.971  1.00  0.00     0.012 C 
ATOM     25  C   UNL     1      11.296 -22.804 -11.142  1.00  0.00    -0.006 C 
ATOM     26  C   UNL     1      13.125 -21.791  -9.644  1.00  0.00     0.033 C 
ATOM     27  C   UNL     1      12.655 -23.036 -10.417  1.00  0.00     0.120 C 
ATOM     28  C   UNL     1      11.483 -21.790 -12.310  1.00  0.00     0.014 C 
ATOM     29  C   UNL     1      10.869 -24.125 -11.861  1.00  0.00     0.014 C 
ENDROOT
BRANCH   1  30
ATOM     30  C   UNL     1       4.965 -19.407  -6.455  1.00  0.00     0.048 C 
ATOM     31  O   UNL     1       5.471 -18.636  -5.593  1.00  0.00    -0.550 OA
ATOM     32  O   UNL     1       4.489 -18.851  -7.637  1.00  0.00    -0.550 OA
ENDBRANCH   1  30
BRANCH  27  33
ATOM     33  O   UNL     1      12.557 -24.125  -9.533  1.00  0.00    -0.393 OA
ATOM     34  H   UNL     1      13.414 -24.625  -9.591  1.00  0.00     0.210 HD
ENDBRANCH  27  33
TORSDOF 2
ENDMDL
