MODEL 1
REMARK VINA RESULT:    -3.160      0.000      0.000
REMARK INTER + INTRA:          -4.767
REMARK INTER:                  -4.269
REMARK INTRA:                  -0.498
REMARK UNBOUND:                -0.498
REMARK SMILES [NH3+]CCCC[C@@H]([NH3+])C(=O)[O-]
REMARK SMILES IDX 4 1 3 2 2 3 1 4 5 8 6 9 7 10 8 14 9 15 10 16
REMARK H PARENT 1 5 1 6 1 7 7 11 7 12 7 13
REMARK Flexibility Score: inf
ROOT
ATOM      1  C   UNL     1     205.740 188.570  -3.719  1.00  0.00     0.012 C 
ENDROOT
BRANCH   1   2
ATOM      2  C   UNL     1     205.752 189.837  -2.855  1.00  0.00     0.061 C 
BRANCH   2   3
ATOM      3  C   UNL     1     207.076 189.970  -2.089  1.00  0.00     0.258 C 
BRANCH   3   4
ATOM      4  N   UNL     1     207.988 190.883  -2.777  1.00  0.00    -0.358 N 
ATOM      5  H   UNL     1     207.816 191.858  -2.439  1.00  0.00     0.344 HD
ATOM      6  H   UNL     1     208.980 190.623  -2.571  1.00  0.00     0.344 HD
ATOM      7  H   UNL     1     207.820 190.849  -3.809  1.00  0.00     0.344 HD
ENDBRANCH   3   4
ENDBRANCH   2   3
ENDBRANCH   1   2
BRANCH   1   8
ATOM      8  C   UNL     1     206.664 187.494  -3.129  1.00  0.00     0.072 C 
BRANCH   8   9
ATOM      9  C   UNL     1     207.655 186.925  -4.169  1.00  0.00     0.227 C 
BRANCH   9  10
ATOM     10  N   UNL     1     207.228 187.217  -5.544  1.00  0.00    -0.350 N 
ATOM     11  H   UNL     1     207.834 186.716  -6.235  1.00  0.00     0.345 HD
ATOM     12  H   UNL     1     206.235 186.917  -5.680  1.00  0.00     0.345 HD
ATOM     13  H   UNL     1     207.272 188.245  -5.724  1.00  0.00     0.345 HD
ENDBRANCH   9  10
BRANCH   9  14
ATOM     14  C   UNL     1     209.025 187.501  -3.922  1.00  0.00     0.099 C 
ATOM     15  O   UNL     1     209.856 186.875  -3.214  1.00  0.00    -0.544 OA
ATOM     16  O   UNL     1     209.372 188.736  -4.458  1.00  0.00    -0.544 OA
ENDBRANCH   9  14
ENDBRANCH   8   9
ENDBRANCH   1   8
TORSDOF 7
ENDMDL
MODEL 2
REMARK VINA RESULT:    -3.100      2.956      4.778
REMARK INTER + INTRA:          -4.686
REMARK INTER:                  -4.559
REMARK INTRA:                  -0.127
REMARK UNBOUND:                -0.498
REMARK SMILES [NH3+]CCCC[C@@H]([NH3+])C(=O)[O-]
REMARK SMILES IDX 4 1 3 2 2 3 1 4 5 8 6 9 7 10 8 14 9 15 10 16
REMARK H PARENT 1 5 1 6 1 7 7 11 7 12 7 13
REMARK Flexibility Score: inf
ROOT
ATOM      1  C   UNL     1     205.764 188.585  -3.481  1.00  0.00     0.012 C 
ENDROOT
BRANCH   1   2
ATOM      2  C   UNL     1     206.442 187.231  -3.239  1.00  0.00     0.061 C 
BRANCH   2   3
ATOM      3  C   UNL     1     207.651 187.046  -4.168  1.00  0.00     0.258 C 
BRANCH   3   4
ATOM      4  N   UNL     1     207.252 187.155  -5.571  1.00  0.00    -0.358 N 
ATOM      5  H   UNL     1     207.758 187.960  -6.008  1.00  0.00     0.344 HD
ATOM      6  H   UNL     1     207.502 186.279  -6.085  1.00  0.00     0.344 HD
ATOM      7  H   UNL     1     206.223 187.326  -5.640  1.00  0.00     0.344 HD
ENDBRANCH   3   4
ENDBRANCH   2   3
ENDBRANCH   1   2
BRANCH   1   8
ATOM      8  C   UNL     1     206.525 189.716  -2.772  1.00  0.00     0.072 C 
BRANCH   8   9
ATOM      9  C   UNL     1     205.583 190.788  -2.181  1.00  0.00     0.227 C 
BRANCH   9  10
ATOM     10  N   UNL     1     206.189 191.471  -1.030  1.00  0.00    -0.350 N 
ATOM     11  H   UNL     1     205.859 191.048  -0.131  1.00  0.00     0.345 HD
ATOM     12  H   UNL     1     207.231 191.396  -1.080  1.00  0.00     0.345 HD
ATOM     13  H   UNL     1     205.945 192.487  -1.045  1.00  0.00     0.345 HD
ENDBRANCH   9  10
BRANCH   9  14
ATOM     14  C   UNL     1     205.234 191.791  -3.249  1.00  0.00     0.099 C 
ATOM     15  O   UNL     1     204.135 191.710  -3.859  1.00  0.00    -0.544 OA
ATOM     16  O   UNL     1     206.130 192.801  -3.581  1.00  0.00    -0.544 OA
ENDBRANCH   9  14
ENDBRANCH   8   9
ENDBRANCH   1   8
TORSDOF 7
ENDMDL
MODEL 3
REMARK VINA RESULT:    -2.891      2.015      2.887
REMARK INTER + INTRA:          -4.404
REMARK INTER:                  -3.868
REMARK INTRA:                  -0.536
REMARK UNBOUND:                -0.498
REMARK SMILES [NH3+]CCCC[C@@H]([NH3+])C(=O)[O-]
REMARK SMILES IDX 4 1 3 2 2 3 1 4 5 8 6 9 7 10 8 14 9 15 10 16
REMARK H PARENT 1 5 1 6 1 7 7 11 7 12 7 13
REMARK Flexibility Score: inf
ROOT
ATOM      1  C   UNL     1     207.825 187.254  -4.475  1.00  0.00     0.012 C 
ENDROOT
BRANCH   1   2
ATOM      2  C   UNL     1     206.757 187.185  -3.376  1.00  0.00     0.061 C 
BRANCH   2   3
ATOM      3  C   UNL     1     205.769 188.354  -3.494  1.00  0.00     0.258 C 
BRANCH   3   4
ATOM      4  N   UNL     1     206.248 189.519  -2.751  1.00  0.00    -0.358 N 
ATOM      5  H   UNL     1     207.288 189.580  -2.843  1.00  0.00     0.344 HD
ATOM      6  H   UNL     1     205.822 190.393  -3.139  1.00  0.00     0.344 HD
ATOM      7  H   UNL     1     206.004 189.426  -1.739  1.00  0.00     0.344 HD
ENDBRANCH   3   4
ENDBRANCH   2   3
ENDBRANCH   1   2
BRANCH   1   8
ATOM      8  C   UNL     1     209.220 186.953  -3.906  1.00  0.00     0.072 C 
BRANCH   8   9
ATOM      9  C   UNL     1     209.745 188.081  -2.991  1.00  0.00     0.227 C 
BRANCH   9  10
ATOM     10  N   UNL     1     211.078 187.771  -2.455  1.00  0.00    -0.350 N 
ATOM     11  H   UNL     1     211.089 187.861  -1.413  1.00  0.00     0.345 HD
ATOM     12  H   UNL     1     211.349 186.795  -2.716  1.00  0.00     0.345 HD
ATOM     13  H   UNL     1     211.790 188.416  -2.867  1.00  0.00     0.345 HD
ENDBRANCH   9  10
BRANCH   9  14
ATOM     14  C   UNL     1     209.790 189.373  -3.764  1.00  0.00     0.099 C 
ATOM     15  O   UNL     1     210.595 189.510  -4.723  1.00  0.00    -0.544 OA
ATOM     16  O   UNL     1     208.957 190.429  -3.413  1.00  0.00    -0.544 OA
ENDBRANCH   9  14
ENDBRANCH   8   9
ENDBRANCH   1   8
TORSDOF 7
ENDMDL
MODEL 4
REMARK VINA RESULT:    -2.872     19.913     20.669
REMARK INTER + INTRA:          -4.377
REMARK INTER:                  -3.895
REMARK INTRA:                  -0.483
REMARK UNBOUND:                -0.498
REMARK SMILES [NH3+]CCCC[C@@H]([NH3+])C(=O)[O-]
REMARK SMILES IDX 4 1 3 2 2 3 1 4 5 8 6 9 7 10 8 14 9 15 10 16
REMARK H PARENT 1 5 1 6 1 7 7 11 7 12 7 13
REMARK Flexibility Score: inf
ROOT
ATOM      1  C   UNL     1     219.330 206.242  -5.515  1.00  0.00     0.012 C 
ENDROOT
BRANCH   1   2
ATOM      2  C   UNL     1     218.199 205.488  -4.806  1.00  0.00     0.061 C 
BRANCH   2   3
ATOM      3  C   UNL     1     218.578 205.162  -3.355  1.00  0.00     0.258 C 
BRANCH   3   4
ATOM      4  N   UNL     1     219.372 203.936  -3.285  1.00  0.00    -0.358 N 
ATOM      5  H   UNL     1     219.220 203.482  -2.355  1.00  0.00     0.344 HD
ATOM      6  H   UNL     1     219.075 203.273  -4.038  1.00  0.00     0.344 HD
ATOM      7  H   UNL     1     220.388 204.159  -3.391  1.00  0.00     0.344 HD
ENDBRANCH   3   4
ENDBRANCH   2   3
ENDBRANCH   1   2
BRANCH   1   8
ATOM      8  C   UNL     1     219.544 205.701  -6.937  1.00  0.00     0.072 C 
BRANCH   8   9
ATOM      9  C   UNL     1     220.913 205.006  -7.110  1.00  0.00     0.227 C 
BRANCH   9  10
ATOM     10  N   UNL     1     221.924 205.559  -6.198  1.00  0.00    -0.350 N 
ATOM     11  H   UNL     1     222.722 205.971  -6.734  1.00  0.00     0.345 HD
ATOM     12  H   UNL     1     221.495 206.301  -5.599  1.00  0.00     0.345 HD
ATOM     13  H   UNL     1     222.282 204.811  -5.562  1.00  0.00     0.345 HD
ENDBRANCH   9  10
BRANCH   9  14
ATOM     14  C   UNL     1     220.757 203.527  -6.868  1.00  0.00     0.099 C 
ATOM     15  O   UNL     1     220.501 202.753  -7.828  1.00  0.00    -0.544 OA
ATOM     16  O   UNL     1     220.875 203.010  -5.583  1.00  0.00    -0.544 OA
ENDBRANCH   9  14
ENDBRANCH   8   9
ENDBRANCH   1   8
TORSDOF 7
ENDMDL
MODEL 5
REMARK VINA RESULT:    -2.863     19.129     20.065
REMARK INTER + INTRA:          -4.366
REMARK INTER:                  -3.828
REMARK INTRA:                  -0.538
REMARK UNBOUND:                -0.498
REMARK SMILES [NH3+]CCCC[C@@H]([NH3+])C(=O)[O-]
REMARK SMILES IDX 4 1 3 2 2 3 1 4 5 8 6 9 7 10 8 14 9 15 10 16
REMARK H PARENT 1 5 1 6 1 7 7 11 7 12 7 13
REMARK Flexibility Score: inf
ROOT
ATOM      1  C   UNL     1     219.864 205.481  -7.093  1.00  0.00     0.012 C 
ENDROOT
BRANCH   1   2
ATOM      2  C   UNL     1     219.602 206.153  -5.740  1.00  0.00     0.061 C 
BRANCH   2   3
ATOM      3  C   UNL     1     218.406 205.508  -5.026  1.00  0.00     0.258 C 
BRANCH   3   4
ATOM      4  N   UNL     1     218.817 204.909  -3.756  1.00  0.00    -0.358 N 
ATOM      5  H   UNL     1     219.861 204.933  -3.689  1.00  0.00     0.344 HD
ATOM      6  H   UNL     1     218.413 205.450  -2.957  1.00  0.00     0.344 HD
ATOM      7  H   UNL     1     218.498 203.915  -3.707  1.00  0.00     0.344 HD
ENDBRANCH   3   4
ENDBRANCH   2   3
ENDBRANCH   1   2
BRANCH   1   8
ATOM      8  C   UNL     1     220.952 204.403  -6.971  1.00  0.00     0.072 C 
BRANCH   8   9
ATOM      9  C   UNL     1     220.371 202.972  -6.940  1.00  0.00     0.227 C 
BRANCH   9  10
ATOM     10  N   UNL     1     220.947 202.128  -7.995  1.00  0.00    -0.350 N 
ATOM     11  H   UNL     1     221.961 202.348  -8.137  1.00  0.00     0.345 HD
ATOM     12  H   UNL     1     220.851 201.118  -7.736  1.00  0.00     0.345 HD
ATOM     13  H   UNL     1     220.432 202.272  -8.893  1.00  0.00     0.345 HD
ENDBRANCH   9  10
BRANCH   9  14
ATOM     14  C   UNL     1     220.630 202.356  -5.590  1.00  0.00     0.099 C 
ATOM     15  O   UNL     1     221.055 203.066  -4.641  1.00  0.00    -0.544 OA
ATOM     16  O   UNL     1     220.421 200.997  -5.388  1.00  0.00    -0.544 OA
ENDBRANCH   9  14
ENDBRANCH   8   9
ENDBRANCH   1   8
TORSDOF 7
ENDMDL
MODEL 6
REMARK VINA RESULT:    -2.862      1.794      2.247
REMARK INTER + INTRA:          -4.364
REMARK INTER:                  -4.011
REMARK INTRA:                  -0.354
REMARK UNBOUND:                -0.498
REMARK SMILES [NH3+]CCCC[C@@H]([NH3+])C(=O)[O-]
REMARK SMILES IDX 4 1 3 2 2 3 1 4 5 8 6 9 7 10 8 14 9 15 10 16
REMARK H PARENT 1 5 1 6 1 7 7 11 7 12 7 13
REMARK Flexibility Score: inf
ROOT
ATOM      1  C   UNL     1     205.371 190.356  -2.565  1.00  0.00     0.012 C 
ENDROOT
BRANCH   1   2
ATOM      2  C   UNL     1     204.631 191.407  -3.401  1.00  0.00     0.061 C 
BRANCH   2   3
ATOM      3  C   UNL     1     205.421 192.722  -3.459  1.00  0.00     0.258 C 
BRANCH   3   4
ATOM      4  N   UNL     1     206.838 192.492  -3.179  1.00  0.00    -0.358 N 
ATOM      5  H   UNL     1     207.412 193.129  -3.778  1.00  0.00     0.344 HD
ATOM      6  H   UNL     1     207.043 192.696  -2.174  1.00  0.00     0.344 HD
ATOM      7  H   UNL     1     207.092 191.502  -3.399  1.00  0.00     0.344 HD
ENDBRANCH   3   4
ENDBRANCH   2   3
ENDBRANCH   1   2
BRANCH   1   8
ATOM      8  C   UNL     1     205.677 189.104  -3.400  1.00  0.00     0.072 C 
BRANCH   8   9
ATOM      9  C   UNL     1     206.909 188.329  -2.882  1.00  0.00     0.227 C 
BRANCH   9  10
ATOM     10  N   UNL     1     206.786 186.885  -3.124  1.00  0.00    -0.350 N 
ATOM     11  H   UNL     1     207.502 186.354  -2.576  1.00  0.00     0.345 HD
ATOM     12  H   UNL     1     205.832 186.558  -2.847  1.00  0.00     0.345 HD
ATOM     13  H   UNL     1     206.905 186.680  -4.142  1.00  0.00     0.345 HD
ENDBRANCH   9  10
BRANCH   9  14
ATOM     14  C   UNL     1     208.151 188.858  -3.550  1.00  0.00     0.099 C 
ATOM     15  O   UNL     1     208.676 188.225  -4.504  1.00  0.00    -0.544 OA
ATOM     16  O   UNL     1     208.737 190.038  -3.106  1.00  0.00    -0.544 OA
ENDBRANCH   9  14
ENDBRANCH   8   9
ENDBRANCH   1   8
TORSDOF 7
ENDMDL
MODEL 7
REMARK VINA RESULT:    -2.794     18.663     19.740
REMARK INTER + INTRA:          -4.272
REMARK INTER:                  -3.702
REMARK INTRA:                  -0.570
REMARK UNBOUND:                -0.498
REMARK SMILES [NH3+]CCCC[C@@H]([NH3+])C(=O)[O-]
REMARK SMILES IDX 4 1 3 2 2 3 1 4 5 8 6 9 7 10 8 14 9 15 10 16
REMARK H PARENT 1 5 1 6 1 7 7 11 7 12 7 13
REMARK Flexibility Score: inf
ROOT
ATOM      1  C   UNL     1     220.976 204.812  -6.822  1.00  0.00     0.012 C 
ENDROOT
BRANCH   1   2
ATOM      2  C   UNL     1     219.691 205.647  -6.877  1.00  0.00     0.061 C 
BRANCH   2   3
ATOM      3  C   UNL     1     219.279 206.118  -5.474  1.00  0.00     0.258 C 
BRANCH   3   4
ATOM      4  N   UNL     1     218.143 205.343  -4.976  1.00  0.00    -0.358 N 
ATOM      5  H   UNL     1     218.314 205.089  -3.976  1.00  0.00     0.344 HD
ATOM      6  H   UNL     1     217.267 205.911  -5.036  1.00  0.00     0.344 HD
ATOM      7  H   UNL     1     218.034 204.465  -5.534  1.00  0.00     0.344 HD
ENDBRANCH   3   4
ENDBRANCH   2   3
ENDBRANCH   1   2
BRANCH   1   8
ATOM      8  C   UNL     1     220.706 203.359  -7.241  1.00  0.00     0.072 C 
BRANCH   8   9
ATOM      9  C   UNL     1     220.596 202.402  -6.033  1.00  0.00     0.227 C 
BRANCH   9  10
ATOM     10  N   UNL     1     221.038 203.045  -4.788  1.00  0.00    -0.350 N 
ATOM     11  H   UNL     1     220.388 202.816  -4.000  1.00  0.00     0.345 HD
ATOM     12  H   UNL     1     222.001 202.719  -4.541  1.00  0.00     0.345 HD
ATOM     13  H   UNL     1     221.080 204.082  -4.913  1.00  0.00     0.345 HD
ENDBRANCH   9  10
BRANCH   9  14
ATOM     14  C   UNL     1     219.172 201.934  -5.893  1.00  0.00     0.099 C 
ATOM     15  O   UNL     1     218.423 202.438  -5.015  1.00  0.00    -0.544 OA
ATOM     16  O   UNL     1     218.681 200.928  -6.717  1.00  0.00    -0.544 OA
ENDBRANCH   9  14
ENDBRANCH   8   9
ENDBRANCH   1   8
TORSDOF 7
ENDMDL
MODEL 8
REMARK VINA RESULT:    -2.788      3.317      4.908
REMARK INTER + INTRA:          -4.265
REMARK INTER:                  -4.173
REMARK INTRA:                  -0.092
REMARK UNBOUND:                -0.498
REMARK SMILES [NH3+]CCCC[C@@H]([NH3+])C(=O)[O-]
REMARK SMILES IDX 4 1 3 2 2 3 1 4 5 8 6 9 7 10 8 14 9 15 10 16
REMARK H PARENT 1 5 1 6 1 7 7 11 7 12 7 13
REMARK Flexibility Score: inf
ROOT
ATOM      1  C   UNL     1     206.742 189.156  -3.060  1.00  0.00     0.012 C 
ENDROOT
BRANCH   1   2
ATOM      2  C   UNL     1     206.548 187.643  -3.220  1.00  0.00     0.061 C 
BRANCH   2   3
ATOM      3  C   UNL     1     207.598 187.049  -4.169  1.00  0.00     0.258 C 
BRANCH   3   4
ATOM      4  N   UNL     1     207.203 187.235  -5.565  1.00  0.00    -0.358 N 
ATOM      5  H   UNL     1     207.713 186.542  -6.160  1.00  0.00     0.344 HD
ATOM      6  H   UNL     1     206.174 187.080  -5.672  1.00  0.00     0.344 HD
ATOM      7  H   UNL     1     207.451 188.200  -5.884  1.00  0.00     0.344 HD
ENDBRANCH   3   4
ENDBRANCH   2   3
ENDBRANCH   1   2
BRANCH   1   8
ATOM      8  C   UNL     1     205.412 189.849  -2.729  1.00  0.00     0.072 C 
BRANCH   8   9
ATOM      9  C   UNL     1     205.447 191.368  -3.008  1.00  0.00     0.227 C 
BRANCH   9  10
ATOM     10  N   UNL     1     204.299 191.800  -3.817  1.00  0.00    -0.350 N 
ATOM     11  H   UNL     1     204.344 192.828  -4.007  1.00  0.00     0.345 HD
ATOM     12  H   UNL     1     204.291 191.285  -4.728  1.00  0.00     0.345 HD
ATOM     13  H   UNL     1     203.406 191.577  -3.322  1.00  0.00     0.345 HD
ENDBRANCH   9  10
BRANCH   9  14
ATOM     14  C   UNL     1     205.467 192.117  -1.702  1.00  0.00     0.099 C 
ATOM     15  O   UNL     1     206.204 191.726  -0.758  1.00  0.00    -0.544 OA
ATOM     16  O   UNL     1     204.657 193.233  -1.521  1.00  0.00    -0.544 OA
ENDBRANCH   9  14
ENDBRANCH   8   9
ENDBRANCH   1   8
TORSDOF 7
ENDMDL
MODEL 9
REMARK VINA RESULT:    -2.731      2.417      3.668
REMARK INTER + INTRA:          -4.187
REMARK INTER:                  -3.654
REMARK INTRA:                  -0.533
REMARK UNBOUND:                -0.498
REMARK SMILES [NH3+]CCCC[C@@H]([NH3+])C(=O)[O-]
REMARK SMILES IDX 4 1 3 2 2 3 1 4 5 8 6 9 7 10 8 14 9 15 10 16
REMARK H PARENT 1 5 1 6 1 7 7 11 7 12 7 13
REMARK Flexibility Score: inf
ROOT
ATOM      1  C   UNL     1     208.950 187.123  -3.915  1.00  0.00     0.012 C 
ENDROOT
BRANCH   1   2
ATOM      2  C   UNL     1     207.502 187.110  -4.419  1.00  0.00     0.061 C 
BRANCH   2   3
ATOM      3  C   UNL     1     206.510 187.159  -3.249  1.00  0.00     0.258 C 
BRANCH   3   4
ATOM      4  N   UNL     1     205.736 188.400  -3.272  1.00  0.00    -0.358 N 
ATOM      5  H   UNL     1     204.770 188.195  -3.617  1.00  0.00     0.344 HD
ATOM      6  H   UNL     1     205.673 188.802  -2.308  1.00  0.00     0.344 HD
ATOM      7  H   UNL     1     206.184 189.091  -3.915  1.00  0.00     0.344 HD
ENDBRANCH   3   4
ENDBRANCH   2   3
ENDBRANCH   1   2
BRANCH   1   8
ATOM      8  C   UNL     1     209.555 188.532  -4.017  1.00  0.00     0.072 C 
BRANCH   8   9
ATOM      9  C   UNL     1     209.901 189.133  -2.637  1.00  0.00     0.227 C 
BRANCH   9  10
ATOM     10  N   UNL     1     211.144 189.916  -2.680  1.00  0.00    -0.350 N 
ATOM     11  H   UNL     1     211.901 189.440  -2.137  1.00  0.00     0.345 HD
ATOM     12  H   UNL     1     211.457 190.033  -3.672  1.00  0.00     0.345 HD
ATOM     13  H   UNL     1     210.981 190.870  -2.288  1.00  0.00     0.345 HD
ENDBRANCH   9  10
BRANCH   9  14
ATOM     14  C   UNL     1     208.763 190.001  -2.168  1.00  0.00     0.099 C 
ATOM     15  O   UNL     1     208.607 190.232  -0.940  1.00  0.00    -0.544 OA
ATOM     16  O   UNL     1     207.865 190.535  -3.086  1.00  0.00    -0.544 OA
ENDBRANCH   9  14
ENDBRANCH   8   9
ENDBRANCH   1   8
TORSDOF 7
ENDMDL
