MODEL 1
REMARK VINA RESULT:    -4.651      0.000      0.000
REMARK INTER + INTRA:          -5.078
REMARK INTER:                  -5.059
REMARK INTRA:                  -0.020
REMARK UNBOUND:                -0.020
REMARK SMILES OCc1ccccc1
REMARK SMILES IDX 2 1 3 2 6 3 5 4 7 5 4 6 8 7 1 8
REMARK H PARENT 1 9
REMARK Flexibility Score: inf
ROOT
ATOM      1  C   UNL     1     114.706 167.379 121.583  1.00  0.00     0.191 C 
ENDROOT
BRANCH   1   2
ATOM      2  C   UNL     1     115.549 166.451 120.755  1.00  0.00    -0.023 A 
ATOM      3  C   UNL     1     117.177 164.776 119.198  1.00  0.00     0.000 A 
ATOM      4  C   UNL     1     116.225 165.592 118.583  1.00  0.00     0.000 A 
ATOM      5  C   UNL     1     117.326 164.801 120.588  1.00  0.00     0.000 A 
ATOM      6  C   UNL     1     115.416 166.432 119.357  1.00  0.00     0.006 A 
ATOM      7  C   UNL     1     116.519 165.638 121.365  1.00  0.00     0.006 A 
ENDBRANCH   1   2
BRANCH   1   8
ATOM      8  O   UNL     1     114.007 168.264 120.752  1.00  0.00    -0.392 OA
ATOM      9  H   UNL     1     113.224 167.766 120.399  1.00  0.00     0.211 HD
ENDBRANCH   1   8
TORSDOF 2
ENDMDL
MODEL 2
REMARK VINA RESULT:    -4.364      1.855      2.502
REMARK INTER + INTRA:          -4.767
REMARK INTER:                  -4.752
REMARK INTRA:                  -0.015
REMARK UNBOUND:                -0.020
REMARK SMILES OCc1ccccc1
REMARK SMILES IDX 2 1 3 2 6 3 5 4 7 5 4 6 8 7 1 8
REMARK H PARENT 1 9
REMARK Flexibility Score: inf
ROOT
ATOM      1  C   UNL     1     115.381 166.162 123.041  1.00  0.00     0.191 C 
ENDROOT
BRANCH   1   2
ATOM      2  C   UNL     1     115.796 166.010 121.604  1.00  0.00    -0.023 A 
ATOM      3  C   UNL     1     116.523 165.663 118.916  1.00  0.00     0.000 A 
ATOM      4  C   UNL     1     117.216 164.982 119.920  1.00  0.00     0.000 A 
ATOM      5  C   UNL     1     115.462 166.509 119.249  1.00  0.00     0.000 A 
ATOM      6  C   UNL     1     116.852 165.150 121.260  1.00  0.00     0.006 A 
ATOM      7  C   UNL     1     115.095 166.679 120.588  1.00  0.00     0.006 A 
ENDBRANCH   1   2
BRANCH   1   8
ATOM      8  O   UNL     1     115.304 164.905 123.655  1.00  0.00    -0.392 OA
ATOM      9  H   UNL     1     116.165 164.767 124.128  1.00  0.00     0.211 HD
ENDBRANCH   1   8
TORSDOF 2
ENDMDL
MODEL 3
REMARK VINA RESULT:    -4.330      1.846      2.002
REMARK INTER + INTRA:          -4.729
REMARK INTER:                  -4.718
REMARK INTRA:                  -0.011
REMARK UNBOUND:                -0.020
REMARK SMILES OCc1ccccc1
REMARK SMILES IDX 2 1 3 2 6 3 5 4 7 5 4 6 8 7 1 8
REMARK H PARENT 1 9
REMARK Flexibility Score: inf
ROOT
ATOM      1  C   UNL     1     115.488 166.228 123.132  1.00  0.00     0.191 C 
ENDROOT
BRANCH   1   2
ATOM      2  C   UNL     1     115.865 166.017 121.692  1.00  0.00    -0.023 A 
ATOM      3  C   UNL     1     116.611 165.689 119.006  1.00  0.00     0.000 A 
ATOM      4  C   UNL     1     115.490 166.457 119.331  1.00  0.00     0.000 A 
ATOM      5  C   UNL     1     117.367 165.093 120.020  1.00  0.00     0.000 A 
ATOM      6  C   UNL     1     115.119 166.626 120.669  1.00  0.00     0.006 A 
ATOM      7  C   UNL     1     117.000 165.259 121.359  1.00  0.00     0.006 A 
ENDBRANCH   1   2
BRANCH   1   8
ATOM      8  O   UNL     1     115.179 165.001 123.733  1.00  0.00    -0.392 OA
ATOM      9  H   UNL     1     115.702 164.308 123.252  1.00  0.00     0.211 HD
ENDBRANCH   1   8
TORSDOF 2
ENDMDL
MODEL 4
REMARK VINA RESULT:    -4.305      2.047      3.097
REMARK INTER + INTRA:          -4.702
REMARK INTER:                  -4.690
REMARK INTRA:                  -0.013
REMARK UNBOUND:                -0.020
REMARK SMILES OCc1ccccc1
REMARK SMILES IDX 2 1 3 2 6 3 5 4 7 5 4 6 8 7 1 8
REMARK H PARENT 1 9
REMARK Flexibility Score: inf
ROOT
ATOM      1  C   UNL     1     116.150 165.766 117.511  1.00  0.00     0.191 C 
ENDROOT
BRANCH   1   2
ATOM      2  C   UNL     1     116.273 165.778 119.009  1.00  0.00    -0.023 A 
ATOM      3  C   UNL     1     116.454 165.737 121.810  1.00  0.00     0.000 A 
ATOM      4  C   UNL     1     115.448 166.479 121.186  1.00  0.00     0.000 A 
ATOM      5  C   UNL     1     117.363 165.006 121.040  1.00  0.00     0.000 A 
ATOM      6  C   UNL     1     115.353 166.496 119.790  1.00  0.00     0.006 A 
ATOM      7  C   UNL     1     117.272 165.021 119.645  1.00  0.00     0.006 A 
ENDBRANCH   1   2
BRANCH   1   8
ATOM      8  O   UNL     1     117.376 166.106 116.925  1.00  0.00    -0.392 OA
ATOM      9  H   UNL     1     117.195 166.284 115.966  1.00  0.00     0.211 HD
ENDBRANCH   1   8
TORSDOF 2
ENDMDL
MODEL 5
REMARK VINA RESULT:    -4.296      2.023      3.313
REMARK INTER + INTRA:          -4.692
REMARK INTER:                  -4.678
REMARK INTRA:                  -0.013
REMARK UNBOUND:                -0.020
REMARK SMILES OCc1ccccc1
REMARK SMILES IDX 2 1 3 2 6 3 5 4 7 5 4 6 8 7 1 8
REMARK H PARENT 1 9
REMARK Flexibility Score: inf
ROOT
ATOM      1  C   UNL     1     116.149 165.775 117.519  1.00  0.00     0.191 C 
ENDROOT
BRANCH   1   2
ATOM      2  C   UNL     1     116.239 165.742 119.019  1.00  0.00    -0.023 A 
ATOM      3  C   UNL     1     116.459 165.741 121.817  1.00  0.00     0.000 A 
ATOM      4  C   UNL     1     117.363 165.007 121.045  1.00  0.00     0.000 A 
ATOM      5  C   UNL     1     115.452 166.485 121.195  1.00  0.00     0.000 A 
ATOM      6  C   UNL     1     117.259 165.010 119.650  1.00  0.00     0.006 A 
ATOM      7  C   UNL     1     115.344 166.490 119.801  1.00  0.00     0.006 A 
ENDBRANCH   1   2
BRANCH   1   8
ATOM      8  O   UNL     1     117.370 166.193 116.973  1.00  0.00    -0.392 OA
ATOM      9  H   UNL     1     117.223 167.106 116.612  1.00  0.00     0.211 HD
ENDBRANCH   1   8
TORSDOF 2
ENDMDL
MODEL 6
REMARK VINA RESULT:    -4.106     12.569     13.356
REMARK INTER + INTRA:          -4.486
REMARK INTER:                  -4.473
REMARK INTRA:                  -0.013
REMARK UNBOUND:                -0.020
REMARK SMILES OCc1ccccc1
REMARK SMILES IDX 2 1 3 2 6 3 5 4 7 5 4 6 8 7 1 8
REMARK H PARENT 1 9
REMARK Flexibility Score: inf
ROOT
ATOM      1  C   UNL     1     118.458 177.156 125.686  1.00  0.00     0.191 C 
ENDROOT
BRANCH   1   2
ATOM      2  C   UNL     1     117.229 177.950 125.340  1.00  0.00    -0.023 A 
ATOM      3  C   UNL     1     114.900 179.365 124.670  1.00  0.00     0.000 A 
ATOM      4  C   UNL     1     115.888 179.151 123.706  1.00  0.00     0.000 A 
ATOM      5  C   UNL     1     115.067 178.866 125.965  1.00  0.00     0.000 A 
ATOM      6  C   UNL     1     117.048 178.441 124.036  1.00  0.00     0.006 A 
ATOM      7  C   UNL     1     116.224 178.156 126.299  1.00  0.00     0.006 A 
ENDBRANCH   1   2
BRANCH   1   8
ATOM      8  O   UNL     1     118.093 175.899 126.184  1.00  0.00    -0.392 OA
ATOM      9  H   UNL     1     117.347 175.573 125.617  1.00  0.00     0.211 HD
ENDBRANCH   1   8
TORSDOF 2
ENDMDL
MODEL 7
REMARK VINA RESULT:    -4.096      2.496      3.268
REMARK INTER + INTRA:          -4.475
REMARK INTER:                  -4.465
REMARK INTRA:                  -0.010
REMARK UNBOUND:                -0.020
REMARK SMILES OCc1ccccc1
REMARK SMILES IDX 2 1 3 2 6 3 5 4 7 5 4 6 8 7 1 8
REMARK H PARENT 1 9
REMARK Flexibility Score: inf
ROOT
ATOM      1  C   UNL     1     115.369 165.992 123.219  1.00  0.00     0.191 C 
ENDROOT
BRANCH   1   2
ATOM      2  C   UNL     1     116.675 165.897 122.481  1.00  0.00    -0.023 A 
ATOM      3  C   UNL     1     119.129 165.651 121.141  1.00  0.00     0.000 A 
ATOM      4  C   UNL     1     119.070 166.301 122.376  1.00  0.00     0.000 A 
ATOM      5  C   UNL     1     117.968 165.114 120.577  1.00  0.00     0.000 A 
ATOM      6  C   UNL     1     117.849 166.420 123.048  1.00  0.00     0.006 A 
ATOM      7  C   UNL     1     116.745 165.231 121.246  1.00  0.00     0.006 A 
ENDBRANCH   1   2
BRANCH   1   8
ATOM      8  O   UNL     1     115.293 164.987 124.192  1.00  0.00    -0.392 OA
ATOM      9  H   UNL     1     115.870 165.277 124.946  1.00  0.00     0.211 HD
ENDBRANCH   1   8
TORSDOF 2
ENDMDL
MODEL 8
REMARK VINA RESULT:    -4.090     12.953     13.334
REMARK INTER + INTRA:          -4.468
REMARK INTER:                  -4.450
REMARK INTRA:                  -0.018
REMARK UNBOUND:                -0.020
REMARK SMILES OCc1ccccc1
REMARK SMILES IDX 2 1 3 2 6 3 5 4 7 5 4 6 8 7 1 8
REMARK H PARENT 1 9
REMARK Flexibility Score: inf
ROOT
ATOM      1  C   UNL     1     115.458 179.596 124.074  1.00  0.00     0.191 C 
ENDROOT
BRANCH   1   2
ATOM      2  C   UNL     1     116.398 178.738 124.875  1.00  0.00    -0.023 A 
ATOM      3  C   UNL     1     118.184 177.203 126.402  1.00  0.00     0.000 A 
ATOM      4  C   UNL     1     118.571 177.684 125.149  1.00  0.00     0.000 A 
ATOM      5  C   UNL     1     116.911 177.495 126.899  1.00  0.00     0.000 A 
ATOM      6  C   UNL     1     117.684 178.454 124.388  1.00  0.00     0.006 A 
ATOM      7  C   UNL     1     116.021 178.264 126.142  1.00  0.00     0.006 A 
ENDBRANCH   1   2
BRANCH   1   8
ATOM      8  O   UNL     1     114.135 179.357 124.469  1.00  0.00    -0.392 OA
ATOM      9  H   UNL     1     113.771 180.224 124.786  1.00  0.00     0.211 HD
ENDBRANCH   1   8
TORSDOF 2
ENDMDL
MODEL 9
REMARK VINA RESULT:    -4.053     13.209     13.723
REMARK INTER + INTRA:          -4.428
REMARK INTER:                  -4.419
REMARK INTRA:                  -0.010
REMARK UNBOUND:                -0.020
REMARK SMILES OCc1ccccc1
REMARK SMILES IDX 2 1 3 2 6 3 5 4 7 5 4 6 8 7 1 8
REMARK H PARENT 1 9
REMARK Flexibility Score: inf
ROOT
ATOM      1  C   UNL     1     114.008 179.305 125.742  1.00  0.00     0.191 C 
ENDROOT
BRANCH   1   2
ATOM      2  C   UNL     1     115.413 178.822 125.510  1.00  0.00    -0.023 A 
ATOM      3  C   UNL     1     118.006 177.851 125.052  1.00  0.00     0.000 A 
ATOM      4  C   UNL     1     117.389 177.639 126.288  1.00  0.00     0.000 A 
ATOM      5  C   UNL     1     117.328 178.537 124.041  1.00  0.00     0.000 A 
ATOM      6  C   UNL     1     116.094 178.118 126.516  1.00  0.00     0.006 A 
ATOM      7  C   UNL     1     116.034 179.018 124.266  1.00  0.00     0.006 A 
ENDBRANCH   1   2
BRANCH   1   8
ATOM      8  O   UNL     1     114.026 180.500 126.474  1.00  0.00    -0.392 OA
ATOM      9  H   UNL     1     113.519 181.167 125.943  1.00  0.00     0.211 HD
ENDBRANCH   1   8
TORSDOF 2
ENDMDL
