MODEL 1
REMARK VINA RESULT:    -3.973      0.000      0.000
REMARK INTER + INTRA:          -8.864
REMARK INTER:                  -7.456
REMARK INTRA:                  -1.408
REMARK UNBOUND:                -1.408
REMARK SMILES O=C([O-])CCCCCCCCCCCCCCC(=O)[O-]
REMARK SMILES IDX 10 1 9 2 8 3 7 4 6 5 5 6 4 7 2 8 1 9 3 10 11 11 12 12 13 13
REMARK SMILES IDX 14 14 15 15 16 16 17 17 18 18 19 19 20 20
REMARK H PARENT
REMARK Flexibility Score: inf
ROOT
ATOM      1  C   UNL     1      13.226 -12.741  17.446  1.00  0.00     0.000 C 
ENDROOT
BRANCH   1   2
ATOM      2  C   UNL     1      11.758 -12.509  17.035  1.00  0.00     0.000 C 
BRANCH   2   3
ATOM      3  C   UNL     1      11.338 -11.033  16.920  1.00  0.00     0.000 C 
BRANCH   3   4
ATOM      4  C   UNL     1      11.711 -10.410  15.567  1.00  0.00     0.000 C 
BRANCH   4   5
ATOM      5  C   UNL     1      10.762 -10.887  14.462  1.00  0.00     0.000 C 
BRANCH   5   6
ATOM      6  C   UNL     1      11.280 -10.476  13.076  1.00  0.00     0.006 C 
BRANCH   6   7
ATOM      7  C   UNL     1      10.673  -9.149  12.600  1.00  0.00     0.053 C 
BRANCH   7   8
ATOM      8  C   UNL     1       9.655  -9.360  11.522  1.00  0.00     0.041 C 
ATOM      9  O   UNL     1       8.739 -10.210  11.671  1.00  0.00    -0.550 OA
ATOM     10  O   UNL     1       9.701  -8.595  10.363  1.00  0.00    -0.550 OA
ENDBRANCH   7   8
ENDBRANCH   6   7
ENDBRANCH   5   6
ENDBRANCH   4   5
ENDBRANCH   3   4
ENDBRANCH   2   3
ENDBRANCH   1   2
BRANCH   1  11
ATOM     11  C   UNL     1      13.843 -14.064  16.957  1.00  0.00     0.000 C 
BRANCH  11  12
ATOM     12  C   UNL     1      12.784 -15.089  16.517  1.00  0.00     0.000 C 
BRANCH  12  13
ATOM     13  C   UNL     1      12.958 -16.449  17.213  1.00  0.00     0.000 C 
BRANCH  13  14
ATOM     14  C   UNL     1      13.668 -16.328  18.572  1.00  0.00     0.000 C 
BRANCH  14  15
ATOM     15  C   UNL     1      12.694 -16.369  19.762  1.00  0.00     0.000 C 
BRANCH  15  16
ATOM     16  C   UNL     1      12.420 -15.006  20.432  1.00  0.00     0.006 C 
BRANCH  16  17
ATOM     17  C   UNL     1      10.989 -14.478  20.243  1.00  0.00     0.053 C 
BRANCH  17  18
ATOM     18  C   UNL     1      10.432 -13.903  21.508  1.00  0.00     0.041 C 
ATOM     19  O   UNL     1      10.978 -14.155  22.615  1.00  0.00    -0.550 OA
ATOM     20  O   UNL     1       9.288 -13.116  21.470  1.00  0.00    -0.550 OA
ENDBRANCH  17  18
ENDBRANCH  16  17
ENDBRANCH  15  16
ENDBRANCH  14  15
ENDBRANCH  13  14
ENDBRANCH  12  13
ENDBRANCH  11  12
ENDBRANCH   1  11
TORSDOF 15
ENDMDL
MODEL 2
REMARK VINA RESULT:    -3.900      3.733      5.722
REMARK INTER + INTRA:          -8.727
REMARK INTER:                  -6.242
REMARK INTRA:                  -2.485
REMARK UNBOUND:                -1.408
REMARK SMILES O=C([O-])CCCCCCCCCCCCCCC(=O)[O-]
REMARK SMILES IDX 10 1 9 2 8 3 7 4 6 5 5 6 4 7 2 8 1 9 3 10 11 11 12 12 13 13
REMARK SMILES IDX 14 14 15 15 16 16 17 17 18 18 19 19 20 20
REMARK H PARENT
REMARK Flexibility Score: inf
ROOT
ATOM      1  C   UNL     1      13.923  -9.500  18.892  1.00  0.00     0.000 C 
ENDROOT
BRANCH   1   2
ATOM      2  C   UNL     1      14.008 -10.004  20.347  1.00  0.00     0.000 C 
BRANCH   2   3
ATOM      3  C   UNL     1      13.471 -11.428  20.577  1.00  0.00     0.000 C 
BRANCH   3   4
ATOM      4  C   UNL     1      14.575 -12.430  20.944  1.00  0.00     0.000 C 
BRANCH   4   5
ATOM      5  C   UNL     1      14.218 -13.841  20.461  1.00  0.00     0.000 C 
BRANCH   5   6
ATOM      6  C   UNL     1      14.524 -14.005  18.966  1.00  0.00     0.006 C 
BRANCH   6   7
ATOM      7  C   UNL     1      13.255 -14.246  18.137  1.00  0.00     0.053 C 
BRANCH   7   8
ATOM      8  C   UNL     1      13.571 -14.453  16.687  1.00  0.00     0.041 C 
ATOM      9  O   UNL     1      14.508 -13.811  16.144  1.00  0.00    -0.550 OA
ATOM     10  O   UNL     1      12.849 -15.377  15.943  1.00  0.00    -0.550 OA
ENDBRANCH   7   8
ENDBRANCH   6   7
ENDBRANCH   5   6
ENDBRANCH   4   5
ENDBRANCH   3   4
ENDBRANCH   2   3
ENDBRANCH   1   2
BRANCH   1  11
ATOM     11  C   UNL     1      14.188 -10.565  17.813  1.00  0.00     0.000 C 
BRANCH  11  12
ATOM     12  C   UNL     1      13.059 -10.653  16.771  1.00  0.00     0.000 C 
BRANCH  12  13
ATOM     13  C   UNL     1      11.688 -10.274  17.357  1.00  0.00     0.000 C 
BRANCH  13  14
ATOM     14  C   UNL     1      10.805 -11.504  17.629  1.00  0.00     0.000 C 
BRANCH  14  15
ATOM     15  C   UNL     1      10.214 -11.514  19.049  1.00  0.00     0.000 C 
BRANCH  15  16
ATOM     16  C   UNL     1      10.285 -12.871  19.780  1.00  0.00     0.006 C 
BRANCH  16  17
ATOM     17  C   UNL     1       9.647 -12.877  21.178  1.00  0.00     0.053 C 
BRANCH  17  18
ATOM     18  C   UNL     1      10.653 -13.155  22.251  1.00  0.00     0.041 C 
ATOM     19  O   UNL     1      10.997 -12.244  23.050  1.00  0.00    -0.550 OA
ATOM     20  O   UNL     1      11.237 -14.412  22.349  1.00  0.00    -0.550 OA
ENDBRANCH  17  18
ENDBRANCH  16  17
ENDBRANCH  15  16
ENDBRANCH  14  15
ENDBRANCH  13  14
ENDBRANCH  12  13
ENDBRANCH  11  12
ENDBRANCH   1  11
TORSDOF 15
ENDMDL
MODEL 3
REMARK VINA RESULT:    -3.899      3.848      6.955
REMARK INTER + INTRA:          -8.726
REMARK INTER:                  -6.161
REMARK INTRA:                  -2.565
REMARK UNBOUND:                -1.408
REMARK SMILES O=C([O-])CCCCCCCCCCCCCCC(=O)[O-]
REMARK SMILES IDX 10 1 9 2 8 3 7 4 6 5 5 6 4 7 2 8 1 9 3 10 11 11 12 12 13 13
REMARK SMILES IDX 14 14 15 15 16 16 17 17 18 18 19 19 20 20
REMARK H PARENT
REMARK Flexibility Score: inf
ROOT
ATOM      1  C   UNL     1      12.908 -10.477  17.070  1.00  0.00     0.000 C 
ENDROOT
BRANCH   1   2
ATOM      2  C   UNL     1      11.508 -10.274  17.685  1.00  0.00     0.000 C 
BRANCH   2   3
ATOM      3  C   UNL     1      10.579 -11.499  17.609  1.00  0.00     0.000 C 
BRANCH   3   4
ATOM      4  C   UNL     1       9.477 -11.480  18.680  1.00  0.00     0.000 C 
BRANCH   4   5
ATOM      5  C   UNL     1      10.066 -11.205  20.068  1.00  0.00     0.000 C 
BRANCH   5   6
ATOM      6  C   UNL     1       9.413 -12.102  21.130  1.00  0.00     0.006 C 
BRANCH   6   7
ATOM      7  C   UNL     1      10.001 -13.520  21.132  1.00  0.00     0.053 C 
BRANCH   7   8
ATOM      8  C   UNL     1      10.704 -13.827  22.419  1.00  0.00     0.041 C 
ATOM      9  O   UNL     1      11.640 -14.668  22.446  1.00  0.00    -0.550 OA
ATOM     10  O   UNL     1      10.344 -13.161  23.584  1.00  0.00    -0.550 OA
ENDBRANCH   7   8
ENDBRANCH   6   7
ENDBRANCH   5   6
ENDBRANCH   4   5
ENDBRANCH   3   4
ENDBRANCH   2   3
ENDBRANCH   1   2
BRANCH   1  11
ATOM     11  C   UNL     1      14.088 -10.151  18.004  1.00  0.00     0.000 C 
BRANCH  11  12
ATOM     12  C   UNL     1      13.663 -10.015  19.476  1.00  0.00     0.000 C 
BRANCH  12  13
ATOM     13  C   UNL     1      14.355 -11.044  20.386  1.00  0.00     0.000 C 
BRANCH  13  14
ATOM     14  C   UNL     1      13.513 -12.317  20.580  1.00  0.00     0.000 C 
BRANCH  14  15
ATOM     15  C   UNL     1      13.884 -13.437  19.592  1.00  0.00     0.000 C 
BRANCH  15  16
ATOM     16  C   UNL     1      12.700 -14.037  18.807  1.00  0.00     0.006 C 
BRANCH  16  17
ATOM     17  C   UNL     1      12.985 -14.292  17.318  1.00  0.00     0.053 C 
BRANCH  17  18
ATOM     18  C   UNL     1      12.977 -15.753  16.989  1.00  0.00     0.041 C 
ATOM     19  O   UNL     1      12.580 -16.147  15.861  1.00  0.00    -0.550 OA
ATOM     20  O   UNL     1      13.376 -16.683  17.941  1.00  0.00    -0.550 OA
ENDBRANCH  17  18
ENDBRANCH  16  17
ENDBRANCH  15  16
ENDBRANCH  14  15
ENDBRANCH  13  14
ENDBRANCH  12  13
ENDBRANCH  11  12
ENDBRANCH   1  11
TORSDOF 15
ENDMDL
MODEL 4
REMARK VINA RESULT:    -3.899      1.979      2.783
REMARK INTER + INTRA:          -8.725
REMARK INTER:                  -7.724
REMARK INTRA:                  -1.002
REMARK UNBOUND:                -1.408
REMARK SMILES O=C([O-])CCCCCCCCCCCCCCC(=O)[O-]
REMARK SMILES IDX 10 1 9 2 8 3 7 4 6 5 5 6 4 7 2 8 1 9 3 10 11 11 12 12 13 13
REMARK SMILES IDX 14 14 15 15 16 16 17 17 18 18 19 19 20 20
REMARK H PARENT
REMARK Flexibility Score: inf
ROOT
ATOM      1  C   UNL     1      13.588 -12.143  16.820  1.00  0.00     0.000 C 
ENDROOT
BRANCH   1   2
ATOM      2  C   UNL     1      13.125 -10.675  16.911  1.00  0.00     0.000 C 
BRANCH   2   3
ATOM      3  C   UNL     1      11.610 -10.457  16.747  1.00  0.00     0.000 C 
BRANCH   3   4
ATOM      4  C   UNL     1      11.067 -11.014  15.423  1.00  0.00     0.000 C 
BRANCH   4   5
ATOM      5  C   UNL     1      11.681 -10.280  14.225  1.00  0.00     0.000 C 
BRANCH   5   6
ATOM      6  C   UNL     1      10.844 -10.501  12.957  1.00  0.00     0.006 C 
BRANCH   6   7
ATOM      7  C   UNL     1      10.542  -9.186  12.225  1.00  0.00     0.053 C 
BRANCH   7   8
ATOM      8  C   UNL     1       9.361  -9.318  11.313  1.00  0.00     0.041 C 
ATOM      9  O   UNL     1       9.351  -8.730  10.200  1.00  0.00    -0.550 OA
ATOM     10  O   UNL     1       8.285 -10.117  11.678  1.00  0.00    -0.550 OA
ENDBRANCH   7   8
ENDBRANCH   6   7
ENDBRANCH   5   6
ENDBRANCH   4   5
ENDBRANCH   3   4
ENDBRANCH   2   3
ENDBRANCH   1   2
BRANCH   1  11
ATOM     11  C   UNL     1      13.003 -13.083  17.890  1.00  0.00     0.000 C 
BRANCH  11  12
ATOM     12  C   UNL     1      13.578 -12.821  19.293  1.00  0.00     0.000 C 
BRANCH  12  13
ATOM     13  C   UNL     1      12.520 -12.969  20.399  1.00  0.00     0.000 C 
BRANCH  13  14
ATOM     14  C   UNL     1      11.356 -13.883  19.980  1.00  0.00     0.000 C 
BRANCH  14  15
ATOM     15  C   UNL     1      10.402 -14.210  21.142  1.00  0.00     0.000 C 
BRANCH  15  16
ATOM     16  C   UNL     1       9.898 -12.989  21.940  1.00  0.00     0.006 C 
BRANCH  16  17
ATOM     17  C   UNL     1       8.547 -12.430  21.466  1.00  0.00     0.053 C 
BRANCH  17  18
ATOM     18  C   UNL     1       8.713 -11.200  20.629  1.00  0.00     0.041 C 
ATOM     19  O   UNL     1       8.109 -11.094  19.529  1.00  0.00    -0.550 OA
ATOM     20  O   UNL     1       9.561 -10.183  21.048  1.00  0.00    -0.550 OA
ENDBRANCH  17  18
ENDBRANCH  16  17
ENDBRANCH  15  16
ENDBRANCH  14  15
ENDBRANCH  13  14
ENDBRANCH  12  13
ENDBRANCH  11  12
ENDBRANCH   1  11
TORSDOF 15
ENDMDL
MODEL 5
REMARK VINA RESULT:    -3.868      4.437      6.104
REMARK INTER + INTRA:          -8.668
REMARK INTER:                  -6.055
REMARK INTRA:                  -2.613
REMARK UNBOUND:                -1.408
REMARK SMILES O=C([O-])CCCCCCCCCCCCCCC(=O)[O-]
REMARK SMILES IDX 10 1 9 2 8 3 7 4 6 5 5 6 4 7 2 8 1 9 3 10 11 11 12 12 13 13
REMARK SMILES IDX 14 14 15 15 16 16 17 17 18 18 19 19 20 20
REMARK H PARENT
REMARK Flexibility Score: inf
ROOT
ATOM      1  C   UNL     1       7.855 -12.031  21.870  1.00  0.00     0.000 C 
ENDROOT
BRANCH   1   2
ATOM      2  C   UNL     1       8.120 -11.394  20.491  1.00  0.00     0.000 C 
BRANCH   2   3
ATOM      3  C   UNL     1       9.169 -10.268  20.483  1.00  0.00     0.000 C 
BRANCH   3   4
ATOM      4  C   UNL     1      10.353 -10.560  19.550  1.00  0.00     0.000 C 
BRANCH   4   5
ATOM      5  C   UNL     1      10.153 -11.888  18.809  1.00  0.00     0.000 C 
BRANCH   5   6
ATOM      6  C   UNL     1      11.470 -12.373  18.186  1.00  0.00     0.006 C 
BRANCH   6   7
ATOM      7  C   UNL     1      12.698 -11.846  18.940  1.00  0.00     0.053 C 
BRANCH   7   8
ATOM      8  C   UNL     1      13.863 -11.635  18.022  1.00  0.00     0.041 C 
ATOM      9  O   UNL     1      14.301 -12.587  17.324  1.00  0.00    -0.550 OA
ATOM     10  O   UNL     1      14.447 -10.380  17.916  1.00  0.00    -0.550 OA
ENDBRANCH   7   8
ENDBRANCH   6   7
ENDBRANCH   5   6
ENDBRANCH   4   5
ENDBRANCH   3   4
ENDBRANCH   2   3
ENDBRANCH   1   2
BRANCH   1  11
ATOM     11  C   UNL     1       8.620 -11.395  23.044  1.00  0.00     0.000 C 
BRANCH  11  12
ATOM     12  C   UNL     1       9.679 -12.335  23.646  1.00  0.00     0.000 C 
BRANCH  12  13
ATOM     13  C   UNL     1      10.976 -12.365  22.821  1.00  0.00     0.000 C 
BRANCH  13  14
ATOM     14  C   UNL     1      11.403 -13.795  22.448  1.00  0.00     0.000 C 
BRANCH  14  15
ATOM     15  C   UNL     1      10.453 -14.460  21.437  1.00  0.00     0.000 C 
BRANCH  15  16
ATOM     16  C   UNL     1      11.140 -15.335  20.368  1.00  0.00     0.006 C 
BRANCH  16  17
ATOM     17  C   UNL     1      12.650 -15.531  20.579  1.00  0.00     0.053 C 
BRANCH  17  18
ATOM     18  C   UNL     1      13.408 -15.473  19.290  1.00  0.00     0.041 C 
ATOM     19  O   UNL     1      12.811 -15.640  18.194  1.00  0.00    -0.550 OA
ATOM     20  O   UNL     1      14.782 -15.268  19.299  1.00  0.00    -0.550 OA
ENDBRANCH  17  18
ENDBRANCH  16  17
ENDBRANCH  15  16
ENDBRANCH  14  15
ENDBRANCH  13  14
ENDBRANCH  12  13
ENDBRANCH  11  12
ENDBRANCH   1  11
TORSDOF 15
ENDMDL
MODEL 6
REMARK VINA RESULT:    -3.860      4.004      5.651
REMARK INTER + INTRA:          -8.653
REMARK INTER:                  -6.113
REMARK INTRA:                  -2.539
REMARK UNBOUND:                -1.408
REMARK SMILES O=C([O-])CCCCCCCCCCCCCCC(=O)[O-]
REMARK SMILES IDX 10 1 9 2 8 3 7 4 6 5 5 6 4 7 2 8 1 9 3 10 11 11 12 12 13 13
REMARK SMILES IDX 14 14 15 15 16 16 17 17 18 18 19 19 20 20
REMARK H PARENT
REMARK Flexibility Score: inf
ROOT
ATOM      1  C   UNL     1      13.839 -10.253  17.786  1.00  0.00     0.000 C 
ENDROOT
BRANCH   1   2
ATOM      2  C   UNL     1      12.425  -9.701  17.513  1.00  0.00     0.000 C 
BRANCH   2   3
ATOM      3  C   UNL     1      11.640 -10.433  16.409  1.00  0.00     0.000 C 
BRANCH   3   4
ATOM      4  C   UNL     1      10.699 -11.513  16.963  1.00  0.00     0.000 C 
BRANCH   4   5
ATOM      5  C   UNL     1      10.267 -11.183  18.396  1.00  0.00     0.000 C 
BRANCH   5   6
ATOM      6  C   UNL     1      10.185 -12.455  19.253  1.00  0.00     0.006 C 
BRANCH   6   7
ATOM      7  C   UNL     1      10.729 -12.235  20.671  1.00  0.00     0.053 C 
BRANCH   7   8
ATOM      8  C   UNL     1       9.716 -12.595  21.715  1.00  0.00     0.041 C 
ATOM      9  O   UNL     1      10.089 -12.969  22.858  1.00  0.00    -0.550 OA
ATOM     10  O   UNL     1       8.361 -12.488  21.434  1.00  0.00    -0.550 OA
ENDBRANCH   7   8
ENDBRANCH   6   7
ENDBRANCH   5   6
ENDBRANCH   4   5
ENDBRANCH   3   4
ENDBRANCH   2   3
ENDBRANCH   1   2
BRANCH   1  11
ATOM     11  C   UNL     1      13.975 -11.108  19.058  1.00  0.00     0.000 C 
BRANCH  11  12
ATOM     12  C   UNL     1      13.940 -12.619  18.768  1.00  0.00     0.000 C 
BRANCH  12  13
ATOM     13  C   UNL     1      14.293 -12.945  17.308  1.00  0.00     0.000 C 
BRANCH  13  14
ATOM     14  C   UNL     1      13.386 -14.037  16.714  1.00  0.00     0.000 C 
BRANCH  14  15
ATOM     15  C   UNL     1      12.590 -14.803  17.785  1.00  0.00     0.000 C 
BRANCH  15  16
ATOM     16  C   UNL     1      13.014 -16.272  17.992  1.00  0.00     0.006 C 
BRANCH  16  17
ATOM     17  C   UNL     1      12.438 -16.930  19.256  1.00  0.00     0.053 C 
BRANCH  17  18
ATOM     18  C   UNL     1      11.873 -15.921  20.206  1.00  0.00     0.041 C 
ATOM     19  O   UNL     1      12.638 -15.252  20.950  1.00  0.00    -0.550 OA
ATOM     20  O   UNL     1      10.498 -15.741  20.294  1.00  0.00    -0.550 OA
ENDBRANCH  17  18
ENDBRANCH  16  17
ENDBRANCH  15  16
ENDBRANCH  14  15
ENDBRANCH  13  14
ENDBRANCH  12  13
ENDBRANCH  11  12
ENDBRANCH   1  11
TORSDOF 15
ENDMDL
MODEL 7
REMARK VINA RESULT:    -3.839      3.657      7.509
REMARK INTER + INTRA:          -8.614
REMARK INTER:                  -6.158
REMARK INTRA:                  -2.456
REMARK UNBOUND:                -1.408
REMARK SMILES O=C([O-])CCCCCCCCCCCCCCC(=O)[O-]
REMARK SMILES IDX 10 1 9 2 8 3 7 4 6 5 5 6 4 7 2 8 1 9 3 10 11 11 12 12 13 13
REMARK SMILES IDX 14 14 15 15 16 16 17 17 18 18 19 19 20 20
REMARK H PARENT
REMARK Flexibility Score: inf
ROOT
ATOM      1  C   UNL     1       8.833 -11.538  22.914  1.00  0.00     0.000 C 
ENDROOT
BRANCH   1   2
ATOM      2  C   UNL     1      10.002 -12.420  23.397  1.00  0.00     0.000 C 
BRANCH   2   3
ATOM      3  C   UNL     1      11.365 -12.106  22.754  1.00  0.00     0.000 C 
BRANCH   3   4
ATOM      4  C   UNL     1      11.908 -13.267  21.908  1.00  0.00     0.000 C 
BRANCH   4   5
ATOM      5  C   UNL     1      10.906 -14.426  21.859  1.00  0.00     0.000 C 
BRANCH   5   6
ATOM      6  C   UNL     1      10.887 -15.079  20.469  1.00  0.00     0.006 C 
BRANCH   6   7
ATOM      7  C   UNL     1      11.964 -14.500  19.541  1.00  0.00     0.053 C 
BRANCH   7   8
ATOM      8  C   UNL     1      12.694 -15.577  18.800  1.00  0.00     0.041 C 
ATOM      9  O   UNL     1      12.138 -16.685  18.579  1.00  0.00    -0.550 OA
ATOM     10  O   UNL     1      13.979 -15.347  18.326  1.00  0.00    -0.550 OA
ENDBRANCH   7   8
ENDBRANCH   6   7
ENDBRANCH   5   6
ENDBRANCH   4   5
ENDBRANCH   3   4
ENDBRANCH   2   3
ENDBRANCH   1   2
BRANCH   1  11
ATOM     11  C   UNL     1       8.012 -12.118  21.748  1.00  0.00     0.000 C 
BRANCH  11  12
ATOM     12  C   UNL     1       8.174 -11.313  20.447  1.00  0.00     0.000 C 
BRANCH  12  13
ATOM     13  C   UNL     1       9.375 -11.783  19.610  1.00  0.00     0.000 C 
BRANCH  13  14
ATOM     14  C   UNL     1      10.171 -10.609  19.014  1.00  0.00     0.000 C 
BRANCH  14  15
ATOM     15  C   UNL     1      11.686 -10.727  19.259  1.00  0.00     0.000 C 
BRANCH  15  16
ATOM     16  C   UNL     1      12.573  -9.947  18.267  1.00  0.00     0.006 C 
BRANCH  16  17
ATOM     17  C   UNL     1      12.577 -10.509  16.837  1.00  0.00     0.053 C 
BRANCH  17  18
ATOM     18  C   UNL     1      12.926 -11.964  16.807  1.00  0.00     0.041 C 
ATOM     19  O   UNL     1      14.097 -12.342  17.073  1.00  0.00    -0.550 OA
ATOM     20  O   UNL     1      11.965 -12.903  16.453  1.00  0.00    -0.550 OA
ENDBRANCH  17  18
ENDBRANCH  16  17
ENDBRANCH  15  16
ENDBRANCH  14  15
ENDBRANCH  13  14
ENDBRANCH  12  13
ENDBRANCH  11  12
ENDBRANCH   1  11
TORSDOF 15
ENDMDL
MODEL 8
REMARK VINA RESULT:    -3.791      3.764      7.682
REMARK INTER + INTRA:          -8.523
REMARK INTER:                  -6.299
REMARK INTRA:                  -2.224
REMARK UNBOUND:                -1.408
REMARK SMILES O=C([O-])CCCCCCCCCCCCCCC(=O)[O-]
REMARK SMILES IDX 10 1 9 2 8 3 7 4 6 5 5 6 4 7 2 8 1 9 3 10 11 11 12 12 13 13
REMARK SMILES IDX 14 14 15 15 16 16 17 17 18 18 19 19 20 20
REMARK H PARENT
REMARK Flexibility Score: inf
ROOT
ATOM      1  C   UNL     1      11.019 -12.816  22.061  1.00  0.00     0.000 C 
ENDROOT
BRANCH   1   2
ATOM      2  C   UNL     1      11.169 -14.349  21.980  1.00  0.00     0.000 C 
BRANCH   2   3
ATOM      3  C   UNL     1      10.963 -14.952  20.579  1.00  0.00     0.000 C 
BRANCH   3   4
ATOM      4  C   UNL     1      12.150 -14.697  19.639  1.00  0.00     0.000 C 
BRANCH   4   5
ATOM      5  C   UNL     1      13.431 -15.336  20.187  1.00  0.00     0.000 C 
BRANCH   5   6
ATOM      6  C   UNL     1      14.613 -14.359  20.102  1.00  0.00     0.006 C 
BRANCH   6   7
ATOM      7  C   UNL     1      14.160 -12.924  19.802  1.00  0.00     0.053 C 
BRANCH   7   8
ATOM      8  C   UNL     1      14.470 -11.996  20.936  1.00  0.00     0.041 C 
ATOM      9  O   UNL     1      14.152 -10.779  20.865  1.00  0.00    -0.550 OA
ATOM     10  O   UNL     1      15.083 -12.480  22.083  1.00  0.00    -0.550 OA
ENDBRANCH   7   8
ENDBRANCH   6   7
ENDBRANCH   5   6
ENDBRANCH   4   5
ENDBRANCH   3   4
ENDBRANCH   2   3
ENDBRANCH   1   2
BRANCH   1  11
ATOM     11  C   UNL     1       9.632 -12.316  22.503  1.00  0.00     0.000 C 
BRANCH  11  12
ATOM     12  C   UNL     1       8.606 -12.314  21.356  1.00  0.00     0.000 C 
BRANCH  12  13
ATOM     13  C   UNL     1       8.629 -11.007  20.547  1.00  0.00     0.000 C 
BRANCH  13  14
ATOM     14  C   UNL     1       8.764 -11.253  19.035  1.00  0.00     0.000 C 
BRANCH  14  15
ATOM     15  C   UNL     1      10.163 -11.752  18.632  1.00  0.00     0.000 C 
BRANCH  15  16
ATOM     16  C   UNL     1      11.295 -10.713  18.773  1.00  0.00     0.006 C 
BRANCH  16  17
ATOM     17  C   UNL     1      11.683 -10.010  17.462  1.00  0.00     0.053 C 
BRANCH  17  18
ATOM     18  C   UNL     1      13.008 -10.477  16.946  1.00  0.00     0.041 C 
ATOM     19  O   UNL     1      13.069 -11.213  15.927  1.00  0.00    -0.550 OA
ATOM     20  O   UNL     1      14.176 -10.127  17.612  1.00  0.00    -0.550 OA
ENDBRANCH  17  18
ENDBRANCH  16  17
ENDBRANCH  15  16
ENDBRANCH  14  15
ENDBRANCH  13  14
ENDBRANCH  12  13
ENDBRANCH  11  12
ENDBRANCH   1  11
TORSDOF 15
ENDMDL
MODEL 9
REMARK VINA RESULT:    -3.750      3.808      5.831
REMARK INTER + INTRA:          -8.446
REMARK INTER:                  -6.079
REMARK INTRA:                  -2.367
REMARK UNBOUND:                -1.408
REMARK SMILES O=C([O-])CCCCCCCCCCCCCCC(=O)[O-]
REMARK SMILES IDX 10 1 9 2 8 3 7 4 6 5 5 6 4 7 2 8 1 9 3 10 11 11 12 12 13 13
REMARK SMILES IDX 14 14 15 15 16 16 17 17 18 18 19 19 20 20
REMARK H PARENT
REMARK Flexibility Score: inf
ROOT
ATOM      1  C   UNL     1      10.731 -11.877  19.766  1.00  0.00     0.000 C 
ENDROOT
BRANCH   1   2
ATOM      2  C   UNL     1      11.161 -12.393  18.377  1.00  0.00     0.000 C 
BRANCH   2   3
ATOM      3  C   UNL     1      10.837 -11.452  17.202  1.00  0.00     0.000 C 
BRANCH   3   4
ATOM      4  C   UNL     1      11.905 -10.369  16.992  1.00  0.00     0.000 C 
BRANCH   4   5
ATOM      5  C   UNL     1      13.314 -10.974  17.023  1.00  0.00     0.000 C 
BRANCH   5   6
ATOM      6  C   UNL     1      14.213 -10.223  18.016  1.00  0.00     0.006 C 
BRANCH   6   7
ATOM      7  C   UNL     1      13.403  -9.393  19.021  1.00  0.00     0.053 C 
BRANCH   7   8
ATOM      8  C   UNL     1      13.779  -9.712  20.435  1.00  0.00     0.041 C 
ATOM      9  O   UNL     1      13.710  -8.825  21.325  1.00  0.00    -0.550 OA
ATOM     10  O   UNL     1      14.178 -10.998  20.775  1.00  0.00    -0.550 OA
ENDBRANCH   7   8
ENDBRANCH   6   7
ENDBRANCH   5   6
ENDBRANCH   4   5
ENDBRANCH   3   4
ENDBRANCH   2   3
ENDBRANCH   1   2
BRANCH   1  11
ATOM     11  C   UNL     1      11.110 -12.785  20.949  1.00  0.00     0.000 C 
BRANCH  11  12
ATOM     12  C   UNL     1      10.687 -14.249  20.736  1.00  0.00     0.000 C 
BRANCH  12  13
ATOM     13  C   UNL     1      11.891 -15.200  20.634  1.00  0.00     0.000 C 
BRANCH  13  14
ATOM     14  C   UNL     1      13.177 -14.586  21.213  1.00  0.00     0.000 C 
BRANCH  14  15
ATOM     15  C   UNL     1      14.395 -14.767  20.291  1.00  0.00     0.000 C 
BRANCH  15  16
ATOM     16  C   UNL     1      14.323 -14.004  18.952  1.00  0.00     0.006 C 
BRANCH  16  17
ATOM     17  C   UNL     1      14.566 -14.875  17.709  1.00  0.00     0.053 C 
BRANCH  17  18
ATOM     18  C   UNL     1      13.285 -15.357  17.102  1.00  0.00     0.041 C 
ATOM     19  O   UNL     1      12.679 -14.651  16.254  1.00  0.00    -0.550 OA
ATOM     20  O   UNL     1      12.741 -16.572  17.500  1.00  0.00    -0.550 OA
ENDBRANCH  17  18
ENDBRANCH  16  17
ENDBRANCH  15  16
ENDBRANCH  14  15
ENDBRANCH  13  14
ENDBRANCH  12  13
ENDBRANCH  11  12
ENDBRANCH   1  11
TORSDOF 15
ENDMDL
