MODEL 1
REMARK VINA RESULT:     4.887      0.000      0.000
REMARK INTER + INTRA:          11.287
REMARK INTER:                  12.314
REMARK INTRA:                  -1.028
REMARK UNBOUND:                -1.028
REMARK SMILES CCCCCCCCCCCCCCCCCCCCCCCCCCCC(=O)[O-]
REMARK SMILES IDX 15 1 16 2 17 3 18 4 19 5 20 6 21 7 22 8 23 9 24 10 25 11
REMARK SMILES IDX 26 12 27 13 28 14 29 15 30 16 14 17 13 18 12 19 11 20 10 21
REMARK SMILES IDX 9 22 8 23 7 24 6 25 5 26 4 27 3 28 2 29 1 30
REMARK H PARENT
REMARK Flexibility Score: inf
ROOT
ATOM      1  C   UNL     1      20.484  21.328  15.415  1.00  0.00     0.000 C 
ENDROOT
BRANCH   1   2
ATOM      2  C   UNL     1      19.150  20.646  15.051  1.00  0.00     0.000 C 
BRANCH   2   3
ATOM      3  C   UNL     1      18.362  20.160  16.287  1.00  0.00     0.000 C 
BRANCH   3   4
ATOM      4  C   UNL     1      16.854  19.956  16.040  1.00  0.00     0.000 C 
BRANCH   4   5
ATOM      5  C   UNL     1      16.002  21.240  16.011  1.00  0.00     0.000 C 
BRANCH   5   6
ATOM      6  C   UNL     1      14.641  21.140  16.724  1.00  0.00     0.000 C 
BRANCH   6   7
ATOM      7  C   UNL     1      14.576  19.997  17.747  1.00  0.00     0.000 C 
BRANCH   7   8
ATOM      8  C   UNL     1      13.665  20.375  18.924  1.00  0.00     0.000 C 
BRANCH   8   9
ATOM      9  C   UNL     1      12.220  19.876  18.743  1.00  0.00     0.000 C 
BRANCH   9  10
ATOM     10  C   UNL     1      11.229  20.965  18.292  1.00  0.00     0.000 C 
BRANCH  10  11
ATOM     11  C   UNL     1      10.990  22.025  19.381  1.00  0.00     0.000 C 
BRANCH  11  12
ATOM     12  C   UNL     1      10.490  21.415  20.704  1.00  0.00     0.006 C 
BRANCH  12  13
ATOM     13  C   UNL     1      11.504  20.497  21.404  1.00  0.00     0.053 C 
BRANCH  13  14
ATOM     14  C   UNL     1      11.725  20.886  22.834  1.00  0.00     0.041 C 
ATOM     15  O   UNL     1      11.085  20.312  23.755  1.00  0.00    -0.550 OA
ATOM     16  O   UNL     1      12.613  21.908  23.148  1.00  0.00    -0.550 OA
ENDBRANCH  13  14
ENDBRANCH  12  13
ENDBRANCH  11  12
ENDBRANCH  10  11
ENDBRANCH   9  10
ENDBRANCH   8   9
ENDBRANCH   7   8
ENDBRANCH   6   7
ENDBRANCH   5   6
ENDBRANCH   4   5
ENDBRANCH   3   4
ENDBRANCH   2   3
ENDBRANCH   1   2
BRANCH   1  17
ATOM     17  C   UNL     1      21.414  21.508  14.205  1.00  0.00     0.000 C 
BRANCH  17  18
ATOM     18  C   UNL     1      22.239  20.246  13.893  1.00  0.00     0.000 C 
BRANCH  18  19
ATOM     19  C   UNL     1      23.361  20.001  14.925  1.00  0.00     0.000 C 
BRANCH  19  20
ATOM     20  C   UNL     1      24.627  20.844  14.689  1.00  0.00     0.000 C 
BRANCH  20  21
ATOM     21  C   UNL     1      25.341  21.224  15.997  1.00  0.00     0.000 C 
BRANCH  21  22
ATOM     22  C   UNL     1      25.954  20.018  16.732  1.00  0.00    -0.000 C 
BRANCH  22  23
ATOM     23  C   UNL     1      27.409  20.199  17.204  1.00  0.00    -0.000 C 
BRANCH  23  24
ATOM     24  C   UNL     1      28.286  20.956  16.190  1.00  0.00    -0.000 C 
BRANCH  24  25
ATOM     25  C   UNL     1      29.420  20.082  15.611  1.00  0.00    -0.000 C 
BRANCH  25  26
ATOM     26  C   UNL     1      29.338  19.875  14.085  1.00  0.00    -0.000 C 
BRANCH  26  27
ATOM     27  C   UNL     1      27.923  19.970  13.482  1.00  0.00    -0.000 C 
BRANCH  27  28
ATOM     28  C   UNL     1      27.790  20.934  12.289  1.00  0.00    -0.000 C 
BRANCH  28  29
ATOM     29  C   UNL     1      29.052  21.779  12.059  1.00  0.00    -0.003 C 
ATOM     30  C   UNL     1      29.333  21.946  10.568  1.00  0.00     0.004 C 
ENDBRANCH  28  29
ENDBRANCH  27  28
ENDBRANCH  26  27
ENDBRANCH  25  26
ENDBRANCH  24  25
ENDBRANCH  23  24
ENDBRANCH  22  23
ENDBRANCH  21  22
ENDBRANCH  20  21
ENDBRANCH  19  20
ENDBRANCH  18  19
ENDBRANCH  17  18
ENDBRANCH   1  17
TORSDOF 26
ENDMDL
MODEL 2
REMARK VINA RESULT:     5.472      5.047     14.693
REMARK INTER + INTRA:          12.762
REMARK INTER:                  12.357
REMARK INTRA:                   0.406
REMARK UNBOUND:                -1.028
REMARK SMILES CCCCCCCCCCCCCCCCCCCCCCCCCCCC(=O)[O-]
REMARK SMILES IDX 15 1 16 2 17 3 18 4 19 5 20 6 21 7 22 8 23 9 24 10 25 11
REMARK SMILES IDX 26 12 27 13 28 14 29 15 30 16 14 17 13 18 12 19 11 20 10 21
REMARK SMILES IDX 9 22 8 23 7 24 6 25 5 26 4 27 3 28 2 29 1 30
REMARK H PARENT
REMARK Flexibility Score: inf
ROOT
ATOM      1  C   UNL     1      15.826  21.654  15.850  1.00  0.00     0.000 C 
ENDROOT
BRANCH   1   2
ATOM      2  C   UNL     1      17.057  21.007  15.184  1.00  0.00     0.000 C 
BRANCH   2   3
ATOM      3  C   UNL     1      18.281  20.930  16.122  1.00  0.00     0.000 C 
BRANCH   3   4
ATOM      4  C   UNL     1      19.337  19.886  15.705  1.00  0.00     0.000 C 
BRANCH   4   5
ATOM      5  C   UNL     1      20.731  20.448  15.365  1.00  0.00     0.000 C 
BRANCH   5   6
ATOM      6  C   UNL     1      21.207  21.608  16.260  1.00  0.00     0.000 C 
BRANCH   6   7
ATOM      7  C   UNL     1      22.706  21.906  16.117  1.00  0.00     0.000 C 
BRANCH   7   8
ATOM      8  C   UNL     1      23.488  20.621  15.814  1.00  0.00     0.000 C 
BRANCH   8   9
ATOM      9  C   UNL     1      25.013  20.821  15.877  1.00  0.00     0.000 C 
BRANCH   9  10
ATOM     10  C   UNL     1      25.683  20.179  17.106  1.00  0.00     0.000 C 
BRANCH  10  11
ATOM     11  C   UNL     1      27.185  20.501  17.185  1.00  0.00     0.000 C 
BRANCH  11  12
ATOM     12  C   UNL     1      27.806  20.787  15.805  1.00  0.00     0.006 C 
BRANCH  12  13
ATOM     13  C   UNL     1      26.996  20.241  14.618  1.00  0.00     0.053 C 
BRANCH  13  14
ATOM     14  C   UNL     1      27.575  20.658  13.301  1.00  0.00     0.041 C 
ATOM     15  O   UNL     1      26.953  21.465  12.560  1.00  0.00    -0.550 OA
ATOM     16  O   UNL     1      28.788  20.129  12.876  1.00  0.00    -0.550 OA
ENDBRANCH  13  14
ENDBRANCH  12  13
ENDBRANCH  11  12
ENDBRANCH  10  11
ENDBRANCH   9  10
ENDBRANCH   8   9
ENDBRANCH   7   8
ENDBRANCH   6   7
ENDBRANCH   5   6
ENDBRANCH   4   5
ENDBRANCH   3   4
ENDBRANCH   2   3
ENDBRANCH   1   2
BRANCH   1  17
ATOM     17  C   UNL     1      14.573  20.767  15.782  1.00  0.00     0.000 C 
BRANCH  17  18
ATOM     18  C   UNL     1      13.268  21.561  15.979  1.00  0.00     0.000 C 
BRANCH  18  19
ATOM     19  C   UNL     1      12.722  22.141  14.656  1.00  0.00     0.000 C 
BRANCH  19  20
ATOM     20  C   UNL     1      11.547  23.120  14.837  1.00  0.00     0.000 C 
BRANCH  20  21
ATOM     21  C   UNL     1      11.171  23.330  16.313  1.00  0.00     0.000 C 
BRANCH  21  22
ATOM     22  C   UNL     1       9.877  22.604  16.725  1.00  0.00    -0.000 C 
BRANCH  22  23
ATOM     23  C   UNL     1      10.057  21.437  17.712  1.00  0.00    -0.000 C 
BRANCH  23  24
ATOM     24  C   UNL     1      11.478  21.354  18.301  1.00  0.00    -0.000 C 
BRANCH  24  25
ATOM     25  C   UNL     1      11.810  19.957  18.870  1.00  0.00    -0.000 C 
BRANCH  25  26
ATOM     26  C   UNL     1      11.756  19.875  20.408  1.00  0.00    -0.000 C 
BRANCH  26  27
ATOM     27  C   UNL     1      10.458  20.398  21.052  1.00  0.00    -0.000 C 
BRANCH  27  28
ATOM     28  C   UNL     1      10.556  20.696  22.559  1.00  0.00    -0.000 C 
BRANCH  28  29
ATOM     29  C   UNL     1      10.477  22.196  22.878  1.00  0.00    -0.003 C 
ATOM     30  C   UNL     1      11.850  22.853  22.755  1.00  0.00     0.004 C 
ENDBRANCH  28  29
ENDBRANCH  27  28
ENDBRANCH  26  27
ENDBRANCH  25  26
ENDBRANCH  24  25
ENDBRANCH  23  24
ENDBRANCH  22  23
ENDBRANCH  21  22
ENDBRANCH  20  21
ENDBRANCH  19  20
ENDBRANCH  18  19
ENDBRANCH  17  18
ENDBRANCH   1  17
TORSDOF 26
ENDMDL
MODEL 3
REMARK VINA RESULT:     5.838      1.435      2.978
REMARK INTER + INTRA:          13.683
REMARK INTER:                  15.227
REMARK INTRA:                  -1.544
REMARK UNBOUND:                -1.028
REMARK SMILES CCCCCCCCCCCCCCCCCCCCCCCCCCCC(=O)[O-]
REMARK SMILES IDX 15 1 16 2 17 3 18 4 19 5 20 6 21 7 22 8 23 9 24 10 25 11
REMARK SMILES IDX 26 12 27 13 28 14 29 15 30 16 14 17 13 18 12 19 11 20 10 21
REMARK SMILES IDX 9 22 8 23 7 24 6 25 5 26 4 27 3 28 2 29 1 30
REMARK H PARENT
REMARK Flexibility Score: inf
ROOT
ATOM      1  C   UNL     1      19.945  20.951  16.528  1.00  0.00     0.000 C 
ENDROOT
BRANCH   1   2
ATOM      2  C   UNL     1      19.015  20.923  15.299  1.00  0.00     0.000 C 
BRANCH   2   3
ATOM      3  C   UNL     1      17.887  19.876  15.417  1.00  0.00     0.000 C 
BRANCH   3   4
ATOM      4  C   UNL     1      16.853  20.177  16.521  1.00  0.00     0.000 C 
BRANCH   4   5
ATOM      5  C   UNL     1      15.383  19.890  16.154  1.00  0.00     0.000 C 
BRANCH   5   6
ATOM      6  C   UNL     1      14.360  20.897  16.713  1.00  0.00     0.000 C 
BRANCH   6   7
ATOM      7  C   UNL     1      13.594  21.651  15.617  1.00  0.00     0.000 C 
BRANCH   7   8
ATOM      8  C   UNL     1      12.121  21.219  15.592  1.00  0.00     0.000 C 
BRANCH   8   9
ATOM      9  C   UNL     1      11.262  21.965  16.629  1.00  0.00     0.000 C 
BRANCH   9  10
ATOM     10  C   UNL     1      10.053  21.161  17.142  1.00  0.00     0.000 C 
BRANCH  10  11
ATOM     11  C   UNL     1      10.470  20.008  18.071  1.00  0.00     0.000 C 
BRANCH  11  12
ATOM     12  C   UNL     1      11.466  20.452  19.158  1.00  0.00     0.006 C 
BRANCH  12  13
ATOM     13  C   UNL     1      10.828  20.735  20.527  1.00  0.00     0.053 C 
BRANCH  13  14
ATOM     14  C   UNL     1      11.271  22.048  21.096  1.00  0.00     0.041 C 
ATOM     15  O   UNL     1      11.800  22.101  22.237  1.00  0.00    -0.550 OA
ATOM     16  O   UNL     1      11.069  23.221  20.377  1.00  0.00    -0.550 OA
ENDBRANCH  13  14
ENDBRANCH  12  13
ENDBRANCH  11  12
ENDBRANCH  10  11
ENDBRANCH   9  10
ENDBRANCH   8   9
ENDBRANCH   7   8
ENDBRANCH   6   7
ENDBRANCH   5   6
ENDBRANCH   4   5
ENDBRANCH   3   4
ENDBRANCH   2   3
ENDBRANCH   1   2
BRANCH   1  17
ATOM     17  C   UNL     1      21.078  19.917  16.445  1.00  0.00     0.000 C 
BRANCH  17  18
ATOM     18  C   UNL     1      21.812  19.941  15.092  1.00  0.00     0.000 C 
BRANCH  18  19
ATOM     19  C   UNL     1      23.025  20.897  15.093  1.00  0.00     0.000 C 
BRANCH  19  20
ATOM     20  C   UNL     1      24.357  20.221  14.718  1.00  0.00     0.000 C 
BRANCH  20  21
ATOM     21  C   UNL     1      24.681  20.337  13.220  1.00  0.00     0.000 C 
BRANCH  21  22
ATOM     22  C   UNL     1      26.108  19.878  12.866  1.00  0.00    -0.000 C 
BRANCH  22  23
ATOM     23  C   UNL     1      26.578  20.218  11.439  1.00  0.00    -0.000 C 
BRANCH  23  24
ATOM     24  C   UNL     1      28.094  20.471  11.344  1.00  0.00    -0.000 C 
BRANCH  24  25
ATOM     25  C   UNL     1      28.657  21.209  12.579  1.00  0.00    -0.000 C 
BRANCH  25  26
ATOM     26  C   UNL     1      29.727  20.415  13.353  1.00  0.00    -0.000 C 
BRANCH  26  27
ATOM     27  C   UNL     1      29.710  20.603  14.882  1.00  0.00    -0.000 C 
BRANCH  27  28
ATOM     28  C   UNL     1      28.403  21.188  15.449  1.00  0.00    -0.000 C 
BRANCH  28  29
ATOM     29  C   UNL     1      27.479  20.116  16.045  1.00  0.00    -0.003 C 
ATOM     30  C   UNL     1      26.379  20.753  16.891  1.00  0.00     0.004 C 
ENDBRANCH  28  29
ENDBRANCH  27  28
ENDBRANCH  26  27
ENDBRANCH  25  26
ENDBRANCH  24  25
ENDBRANCH  23  24
ENDBRANCH  22  23
ENDBRANCH  21  22
ENDBRANCH  20  21
ENDBRANCH  19  20
ENDBRANCH  18  19
ENDBRANCH  17  18
ENDBRANCH   1  17
TORSDOF 26
ENDMDL
MODEL 4
REMARK VINA RESULT:     7.161      1.532      2.648
REMARK INTER + INTRA:          17.017
REMARK INTER:                  17.839
REMARK INTRA:                  -0.822
REMARK UNBOUND:                -1.028
REMARK SMILES CCCCCCCCCCCCCCCCCCCCCCCCCCCC(=O)[O-]
REMARK SMILES IDX 15 1 16 2 17 3 18 4 19 5 20 6 21 7 22 8 23 9 24 10 25 11
REMARK SMILES IDX 26 12 27 13 28 14 29 15 30 16 14 17 13 18 12 19 11 20 10 21
REMARK SMILES IDX 9 22 8 23 7 24 6 25 5 26 4 27 3 28 2 29 1 30
REMARK H PARENT
REMARK Flexibility Score: inf
ROOT
ATOM      1  C   UNL     1      22.205  21.574  15.153  1.00  0.00     0.000 C 
ENDROOT
BRANCH   1   2
ATOM      2  C   UNL     1      20.702  21.914  15.217  1.00  0.00     0.000 C 
BRANCH   2   3
ATOM      3  C   UNL     1      20.012  21.367  16.485  1.00  0.00     0.000 C 
BRANCH   3   4
ATOM      4  C   UNL     1      19.315  20.005  16.292  1.00  0.00     0.000 C 
BRANCH   4   5
ATOM      5  C   UNL     1      18.013  20.033  15.467  1.00  0.00     0.000 C 
BRANCH   5   6
ATOM      6  C   UNL     1      16.717  19.875  16.283  1.00  0.00     0.000 C 
BRANCH   6   7
ATOM      7  C   UNL     1      15.997  21.206  16.540  1.00  0.00     0.000 C 
BRANCH   7   8
ATOM      8  C   UNL     1      14.485  21.054  16.327  1.00  0.00     0.000 C 
BRANCH   8   9
ATOM      9  C   UNL     1      13.841  22.303  15.698  1.00  0.00     0.000 C 
BRANCH   9  10
ATOM     10  C   UNL     1      12.308  22.228  15.573  1.00  0.00     0.000 C 
BRANCH  10  11
ATOM     11  C   UNL     1      11.716  21.052  16.367  1.00  0.00     0.000 C 
BRANCH  11  12
ATOM     12  C   UNL     1      11.491  21.390  17.853  1.00  0.00     0.006 C 
BRANCH  12  13
ATOM     13  C   UNL     1      11.606  20.187  18.803  1.00  0.00     0.053 C 
BRANCH  13  14
ATOM     14  C   UNL     1      11.462  20.587  20.239  1.00  0.00     0.041 C 
ATOM     15  O   UNL     1      12.447  20.517  21.020  1.00  0.00    -0.550 OA
ATOM     16  O   UNL     1      10.228  21.005  20.724  1.00  0.00    -0.550 OA
ENDBRANCH  13  14
ENDBRANCH  12  13
ENDBRANCH  11  12
ENDBRANCH  10  11
ENDBRANCH   9  10
ENDBRANCH   8   9
ENDBRANCH   7   8
ENDBRANCH   6   7
ENDBRANCH   5   6
ENDBRANCH   4   5
ENDBRANCH   3   4
ENDBRANCH   2   3
ENDBRANCH   1   2
BRANCH   1  17
ATOM     17  C   UNL     1      22.637  21.028  13.783  1.00  0.00     0.000 C 
BRANCH  17  18
ATOM     18  C   UNL     1      23.652  19.875  13.894  1.00  0.00     0.000 C 
BRANCH  18  19
ATOM     19  C   UNL     1      24.539  19.985  15.153  1.00  0.00     0.000 C 
BRANCH  19  20
ATOM     20  C   UNL     1      25.513  21.177  15.134  1.00  0.00     0.000 C 
BRANCH  20  21
ATOM     21  C   UNL     1      26.921  20.802  15.624  1.00  0.00     0.000 C 
BRANCH  21  22
ATOM     22  C   UNL     1      27.679  19.875  14.655  1.00  0.00    -0.000 C 
BRANCH  22  23
ATOM     23  C   UNL     1      29.215  19.964  14.718  1.00  0.00    -0.000 C 
BRANCH  23  24
ATOM     24  C   UNL     1      29.732  21.403  14.903  1.00  0.00    -0.000 C 
BRANCH  24  25
ATOM     25  C   UNL     1      29.691  22.226  13.598  1.00  0.00    -0.000 C 
BRANCH  25  26
ATOM     26  C   UNL     1      28.861  21.579  12.471  1.00  0.00    -0.000 C 
BRANCH  26  27
ATOM     27  C   UNL     1      29.494  21.639  11.068  1.00  0.00    -0.000 C 
BRANCH  27  28
ATOM     28  C   UNL     1      28.753  20.830   9.987  1.00  0.00    -0.000 C 
BRANCH  28  29
ATOM     29  C   UNL     1      29.171  21.216   8.561  1.00  0.00    -0.003 C 
ATOM     30  C   UNL     1      30.124  20.178   7.972  1.00  0.00     0.004 C 
ENDBRANCH  28  29
ENDBRANCH  27  28
ENDBRANCH  26  27
ENDBRANCH  25  26
ENDBRANCH  24  25
ENDBRANCH  23  24
ENDBRANCH  22  23
ENDBRANCH  21  22
ENDBRANCH  20  21
ENDBRANCH  19  20
ENDBRANCH  18  19
ENDBRANCH  17  18
ENDBRANCH   1  17
TORSDOF 26
ENDMDL
MODEL 5
REMARK VINA RESULT:     7.601      1.444      2.145
REMARK INTER + INTRA:          18.127
REMARK INTER:                  18.116
REMARK INTRA:                   0.011
REMARK UNBOUND:                -1.028
REMARK SMILES CCCCCCCCCCCCCCCCCCCCCCCCCCCC(=O)[O-]
REMARK SMILES IDX 15 1 16 2 17 3 18 4 19 5 20 6 21 7 22 8 23 9 24 10 25 11
REMARK SMILES IDX 26 12 27 13 28 14 29 15 30 16 14 17 13 18 12 19 11 20 10 21
REMARK SMILES IDX 9 22 8 23 7 24 6 25 5 26 4 27 3 28 2 29 1 30
REMARK H PARENT
REMARK Flexibility Score: inf
ROOT
ATOM      1  C   UNL     1      18.671  21.052  15.156  1.00  0.00     0.000 C 
ENDROOT
BRANCH   1   2
ATOM      2  C   UNL     1      17.263  20.592  14.729  1.00  0.00     0.000 C 
BRANCH   2   3
ATOM      3  C   UNL     1      16.191  21.690  14.900  1.00  0.00     0.000 C 
BRANCH   3   4
ATOM      4  C   UNL     1      15.340  21.555  16.179  1.00  0.00     0.000 C 
BRANCH   4   5
ATOM      5  C   UNL     1      13.862  21.971  16.044  1.00  0.00     0.000 C 
BRANCH   5   6
ATOM      6  C   UNL     1      12.913  20.864  15.548  1.00  0.00     0.000 C 
BRANCH   6   7
ATOM      7  C   UNL     1      11.474  21.352  15.333  1.00  0.00     0.000 C 
BRANCH   7   8
ATOM      8  C   UNL     1      11.084  22.377  16.407  1.00  0.00     0.000 C 
BRANCH   8   9
ATOM      9  C   UNL     1      10.179  21.781  17.501  1.00  0.00     0.000 C 
BRANCH   9  10
ATOM     10  C   UNL     1      10.382  20.272  17.734  1.00  0.00     0.000 C 
BRANCH  10  11
ATOM     11  C   UNL     1      10.533  19.928  19.226  1.00  0.00     0.000 C 
BRANCH  11  12
ATOM     12  C   UNL     1      10.164  21.105  20.148  1.00  0.00     0.006 C 
BRANCH  12  13
ATOM     13  C   UNL     1       9.999  20.726  21.628  1.00  0.00     0.053 C 
BRANCH  13  14
ATOM     14  C   UNL     1      10.581  21.759  22.544  1.00  0.00     0.041 C 
ATOM     15  O   UNL     1       9.880  22.261  23.461  1.00  0.00    -0.550 OA
ATOM     16  O   UNL     1      11.889  22.191  22.363  1.00  0.00    -0.550 OA
ENDBRANCH  13  14
ENDBRANCH  12  13
ENDBRANCH  11  12
ENDBRANCH  10  11
ENDBRANCH   9  10
ENDBRANCH   8   9
ENDBRANCH   7   8
ENDBRANCH   6   7
ENDBRANCH   5   6
ENDBRANCH   4   5
ENDBRANCH   3   4
ENDBRANCH   2   3
ENDBRANCH   1   2
BRANCH   1  17
ATOM     17  C   UNL     1      19.629  19.880  15.423  1.00  0.00     0.000 C 
BRANCH  17  18
ATOM     18  C   UNL     1      21.047  20.342  15.804  1.00  0.00     0.000 C 
BRANCH  18  19
ATOM     19  C   UNL     1      21.916  20.668  14.571  1.00  0.00     0.000 C 
BRANCH  19  20
ATOM     20  C   UNL     1      23.301  19.995  14.583  1.00  0.00     0.000 C 
BRANCH  20  21
ATOM     21  C   UNL     1      24.296  20.699  15.520  1.00  0.00     0.000 C 
BRANCH  21  22
ATOM     22  C   UNL     1      25.579  19.885  15.773  1.00  0.00    -0.000 C 
BRANCH  22  23
ATOM     23  C   UNL     1      26.682  20.041  14.710  1.00  0.00    -0.000 C 
BRANCH  23  24
ATOM     24  C   UNL     1      27.670  21.180  15.024  1.00  0.00    -0.000 C 
BRANCH  24  25
ATOM     25  C   UNL     1      29.146  20.745  14.890  1.00  0.00    -0.000 C 
BRANCH  25  26
ATOM     26  C   UNL     1      29.991  21.659  13.981  1.00  0.00    -0.000 C 
BRANCH  26  27
ATOM     27  C   UNL     1      29.462  21.831  12.544  1.00  0.00    -0.000 C 
BRANCH  27  28
ATOM     28  C   UNL     1      28.072  21.221  12.287  1.00  0.00    -0.000 C 
BRANCH  28  29
ATOM     29  C   UNL     1      27.856  20.822  10.820  1.00  0.00    -0.003 C 
ATOM     30  C   UNL     1      29.191  20.599  10.113  1.00  0.00     0.004 C 
ENDBRANCH  28  29
ENDBRANCH  27  28
ENDBRANCH  26  27
ENDBRANCH  25  26
ENDBRANCH  24  25
ENDBRANCH  23  24
ENDBRANCH  22  23
ENDBRANCH  21  22
ENDBRANCH  20  21
ENDBRANCH  19  20
ENDBRANCH  18  19
ENDBRANCH  17  18
ENDBRANCH   1  17
TORSDOF 26
ENDMDL
