MODEL 1
REMARK VINA RESULT:    -3.992      0.000      0.000
REMARK INTER + INTRA:          -5.727
REMARK INTER:                  -5.392
REMARK INTRA:                  -0.334
REMARK UNBOUND:                -0.334
REMARK SMILES CCCCCCCC(=O)[O-]
REMARK SMILES IDX 5 1 6 2 7 3 8 4 9 5 10 6 4 7 3 8 2 9 1 10
REMARK H PARENT
REMARK Flexibility Score: inf
ROOT
ATOM      1  C   UNL     1     -20.326  -0.136   6.759  1.00  0.00     0.000 C 
ENDROOT
BRANCH   1   2
ATOM      2  C   UNL     1     -19.959   1.085   7.622  1.00  0.00     0.006 C 
BRANCH   2   3
ATOM      3  C   UNL     1     -20.915   2.278   7.466  1.00  0.00     0.053 C 
BRANCH   3   4
ATOM      4  C   UNL     1     -21.487   2.714   8.779  1.00  0.00     0.041 C 
ATOM      5  O   UNL     1     -21.662   1.878   9.704  1.00  0.00    -0.550 OA
ATOM      6  O   UNL     1     -21.860   4.039   8.970  1.00  0.00    -0.550 OA
ENDBRANCH   3   4
ENDBRANCH   2   3
ENDBRANCH   1   2
BRANCH   1   7
ATOM      7  C   UNL     1     -20.324  -1.450   7.558  1.00  0.00     0.000 C 
BRANCH   7   8
ATOM      8  C   UNL     1     -20.259  -1.218   9.076  1.00  0.00    -0.000 C 
BRANCH   8   9
ATOM      9  C   UNL     1     -19.549  -2.360   9.818  1.00  0.00    -0.003 C 
ATOM     10  C   UNL     1     -19.258  -3.527   8.879  1.00  0.00     0.004 C 
ENDBRANCH   8   9
ENDBRANCH   7   8
ENDBRANCH   1   7
TORSDOF 6
ENDMDL
MODEL 2
REMARK VINA RESULT:    -3.820      2.762      4.738
REMARK INTER + INTRA:          -5.495
REMARK INTER:                  -5.308
REMARK INTRA:                  -0.187
REMARK UNBOUND:                -0.334
REMARK SMILES CCCCCCCC(=O)[O-]
REMARK SMILES IDX 5 1 6 2 7 3 8 4 9 5 10 6 4 7 3 8 2 9 1 10
REMARK H PARENT
REMARK Flexibility Score: inf
ROOT
ATOM      1  C   UNL     1     -20.350   0.150   6.806  1.00  0.00     0.000 C 
ENDROOT
BRANCH   1   2
ATOM      2  C   UNL     1     -20.353  -1.226   7.499  1.00  0.00     0.006 C 
BRANCH   2   3
ATOM      3  C   UNL     1     -20.360  -1.157   9.034  1.00  0.00     0.053 C 
BRANCH   3   4
ATOM      4  C   UNL     1     -19.571  -2.272   9.648  1.00  0.00     0.041 C 
ATOM      5  O   UNL     1     -19.157  -2.178  10.833  1.00  0.00    -0.550 OA
ATOM      6  O   UNL     1     -19.262  -3.401   8.899  1.00  0.00    -0.550 OA
ENDBRANCH   3   4
ENDBRANCH   2   3
ENDBRANCH   1   2
BRANCH   1   7
ATOM      7  C   UNL     1     -20.052   1.304   7.778  1.00  0.00     0.000 C 
BRANCH   7   8
ATOM      8  C   UNL     1     -21.135   2.394   7.750  1.00  0.00    -0.000 C 
BRANCH   8   9
ATOM      9  C   UNL     1     -21.542   2.856   9.156  1.00  0.00    -0.003 C 
ATOM     10  C   UNL     1     -21.553   1.688  10.138  1.00  0.00     0.004 C 
ENDBRANCH   8   9
ENDBRANCH   7   8
ENDBRANCH   1   7
TORSDOF 6
ENDMDL
MODEL 3
REMARK VINA RESULT:    -3.694      0.935      1.309
REMARK INTER + INTRA:          -5.324
REMARK INTER:                  -5.111
REMARK INTRA:                  -0.213
REMARK UNBOUND:                -0.334
REMARK SMILES CCCCCCCC(=O)[O-]
REMARK SMILES IDX 5 1 6 2 7 3 8 4 9 5 10 6 4 7 3 8 2 9 1 10
REMARK H PARENT
REMARK Flexibility Score: inf
ROOT
ATOM      1  C   UNL     1     -20.107   0.097   6.824  1.00  0.00     0.000 C 
ENDROOT
BRANCH   1   2
ATOM      2  C   UNL     1     -20.432   1.365   7.635  1.00  0.00     0.006 C 
BRANCH   2   3
ATOM      3  C   UNL     1     -20.744   1.104   9.117  1.00  0.00     0.053 C 
BRANCH   3   4
ATOM      4  C   UNL     1     -21.689   2.119   9.679  1.00  0.00     0.041 C 
ATOM      5  O   UNL     1     -22.345   1.866  10.722  1.00  0.00    -0.550 OA
ATOM      6  O   UNL     1     -21.871   3.335   9.030  1.00  0.00    -0.550 OA
ENDBRANCH   3   4
ENDBRANCH   2   3
ENDBRANCH   1   2
BRANCH   1   7
ATOM      7  C   UNL     1     -20.712  -1.175   7.443  1.00  0.00     0.000 C 
BRANCH   7   8
ATOM      8  C   UNL     1     -19.680  -2.302   7.603  1.00  0.00    -0.000 C 
BRANCH   8   9
ATOM      9  C   UNL     1     -19.741  -2.967   8.986  1.00  0.00    -0.003 C 
ATOM     10  C   UNL     1     -19.805  -1.921  10.095  1.00  0.00     0.004 C 
ENDBRANCH   8   9
ENDBRANCH   7   8
ENDBRANCH   1   7
TORSDOF 6
ENDMDL
MODEL 4
REMARK VINA RESULT:    -3.566      2.821      4.757
REMARK INTER + INTRA:          -5.151
REMARK INTER:                  -4.952
REMARK INTRA:                  -0.200
REMARK UNBOUND:                -0.334
REMARK SMILES CCCCCCCC(=O)[O-]
REMARK SMILES IDX 5 1 6 2 7 3 8 4 9 5 10 6 4 7 3 8 2 9 1 10
REMARK H PARENT
REMARK Flexibility Score: inf
ROOT
ATOM      1  C   UNL     1     -20.040  -2.021  10.199  1.00  0.00     0.000 C 
ENDROOT
BRANCH   1   2
ATOM      2  C   UNL     1     -19.722  -1.557  11.632  1.00  0.00     0.006 C 
BRANCH   2   3
ATOM      3  C   UNL     1     -20.783  -1.952  12.672  1.00  0.00     0.053 C 
BRANCH   3   4
ATOM      4  C   UNL     1     -21.203  -0.789  13.515  1.00  0.00     0.041 C 
ATOM      5  O   UNL     1     -21.545  -0.964  14.713  1.00  0.00    -0.550 OA
ATOM      6  O   UNL     1     -21.250   0.487  12.965  1.00  0.00    -0.550 OA
ENDBRANCH   3   4
ENDBRANCH   2   3
ENDBRANCH   1   2
BRANCH   1   7
ATOM      7  C   UNL     1     -20.384  -0.853   9.259  1.00  0.00     0.000 C 
BRANCH   7   8
ATOM      8  C   UNL     1     -20.275  -1.238   7.775  1.00  0.00    -0.000 C 
BRANCH   8   9
ATOM      9  C   UNL     1     -20.352  -0.021   6.842  1.00  0.00    -0.003 C 
ATOM     10  C   UNL     1     -20.352   1.281   7.638  1.00  0.00     0.004 C 
ENDBRANCH   8   9
ENDBRANCH   7   8
ENDBRANCH   1   7
TORSDOF 6
ENDMDL
MODEL 5
REMARK VINA RESULT:    -3.508      1.711      2.839
REMARK INTER + INTRA:          -5.073
REMARK INTER:                  -4.861
REMARK INTRA:                  -0.212
REMARK UNBOUND:                -0.334
REMARK SMILES CCCCCCCC(=O)[O-]
REMARK SMILES IDX 5 1 6 2 7 3 8 4 9 5 10 6 4 7 3 8 2 9 1 10
REMARK H PARENT
REMARK Flexibility Score: inf
ROOT
ATOM      1  C   UNL     1     -20.002  -1.606  10.262  1.00  0.00     0.000 C 
ENDROOT
BRANCH   1   2
ATOM      2  C   UNL     1     -20.387  -0.850   8.977  1.00  0.00     0.006 C 
BRANCH   2   3
ATOM      3  C   UNL     1     -20.757   0.624   9.199  1.00  0.00     0.053 C 
BRANCH   3   4
ATOM      4  C   UNL     1     -20.779   1.397   7.917  1.00  0.00     0.041 C 
ATOM      5  O   UNL     1     -21.009   2.634   7.926  1.00  0.00    -0.550 OA
ATOM      6  O   UNL     1     -20.579   0.742   6.707  1.00  0.00    -0.550 OA
ENDBRANCH   3   4
ENDBRANCH   2   3
ENDBRANCH   1   2
BRANCH   1   7
ATOM      7  C   UNL     1     -19.119  -2.836   9.987  1.00  0.00     0.000 C 
BRANCH   7   8
ATOM      8  C   UNL     1     -19.346  -3.423   8.585  1.00  0.00    -0.000 C 
BRANCH   8   9
ATOM      9  C   UNL     1     -19.029  -4.923   8.516  1.00  0.00    -0.003 C 
ATOM     10  C   UNL     1     -20.272  -5.762   8.796  1.00  0.00     0.004 C 
ENDBRANCH   8   9
ENDBRANCH   7   8
ENDBRANCH   1   7
TORSDOF 6
ENDMDL
MODEL 6
REMARK VINA RESULT:    -3.469      2.684      5.548
REMARK INTER + INTRA:          -5.020
REMARK INTER:                  -4.827
REMARK INTRA:                  -0.193
REMARK UNBOUND:                -0.334
REMARK SMILES CCCCCCCC(=O)[O-]
REMARK SMILES IDX 5 1 6 2 7 3 8 4 9 5 10 6 4 7 3 8 2 9 1 10
REMARK H PARENT
REMARK Flexibility Score: inf
ROOT
ATOM      1  C   UNL     1     -21.363   1.081  10.543  1.00  0.00     0.000 C 
ENDROOT
BRANCH   1   2
ATOM      2  C   UNL     1     -20.711   0.397   9.327  1.00  0.00     0.006 C 
BRANCH   2   3
ATOM      3  C   UNL     1     -20.156  -1.006   9.617  1.00  0.00     0.053 C 
BRANCH   3   4
ATOM      4  C   UNL     1     -20.050  -1.835   8.375  1.00  0.00     0.041 C 
ATOM      5  O   UNL     1     -19.451  -2.942   8.399  1.00  0.00    -0.550 OA
ATOM      6  O   UNL     1     -20.583  -1.368   7.179  1.00  0.00    -0.550 OA
ENDBRANCH   3   4
ENDBRANCH   2   3
ENDBRANCH   1   2
BRANCH   1   7
ATOM      7  C   UNL     1     -22.121   2.366  10.166  1.00  0.00     0.000 C 
BRANCH   7   8
ATOM      8  C   UNL     1     -21.559   3.033   8.902  1.00  0.00    -0.000 C 
BRANCH   8   9
ATOM      9  C   UNL     1     -22.126   4.442   8.676  1.00  0.00    -0.003 C 
ATOM     10  C   UNL     1     -21.209   5.505   9.273  1.00  0.00     0.004 C 
ENDBRANCH   8   9
ENDBRANCH   7   8
ENDBRANCH   1   7
TORSDOF 6
ENDMDL
MODEL 7
REMARK VINA RESULT:    -3.166      2.750      3.852
REMARK INTER + INTRA:          -4.610
REMARK INTER:                  -4.333
REMARK INTRA:                  -0.277
REMARK UNBOUND:                -0.334
REMARK SMILES CCCCCCCC(=O)[O-]
REMARK SMILES IDX 5 1 6 2 7 3 8 4 9 5 10 6 4 7 3 8 2 9 1 10
REMARK H PARENT
REMARK Flexibility Score: inf
ROOT
ATOM      1  C   UNL     1     -19.782  -2.272  10.219  1.00  0.00     0.000 C 
ENDROOT
BRANCH   1   2
ATOM      2  C   UNL     1     -20.094  -1.567   8.885  1.00  0.00     0.006 C 
BRANCH   2   3
ATOM      3  C   UNL     1     -20.501  -0.093   9.032  1.00  0.00     0.053 C 
BRANCH   3   4
ATOM      4  C   UNL     1     -20.418   0.644   7.732  1.00  0.00     0.041 C 
ATOM      5  O   UNL     1     -20.070   0.042   6.682  1.00  0.00    -0.550 OA
ATOM      6  O   UNL     1     -20.693   2.006   7.685  1.00  0.00    -0.550 OA
ENDBRANCH   3   4
ENDBRANCH   2   3
ENDBRANCH   1   2
BRANCH   1   7
ATOM      7  C   UNL     1     -19.979  -1.353  11.436  1.00  0.00     0.000 C 
BRANCH   7   8
ATOM      8  C   UNL     1     -20.664  -2.069  12.611  1.00  0.00    -0.000 C 
BRANCH   8   9
ATOM      9  C   UNL     1     -20.936  -1.130  13.796  1.00  0.00    -0.003 C 
ATOM     10  C   UNL     1     -21.222   0.290  13.317  1.00  0.00     0.004 C 
ENDBRANCH   8   9
ENDBRANCH   7   8
ENDBRANCH   1   7
TORSDOF 6
ENDMDL
MODEL 8
REMARK VINA RESULT:    -3.059      3.393      4.372
REMARK INTER + INTRA:          -4.467
REMARK INTER:                  -4.189
REMARK INTRA:                  -0.277
REMARK UNBOUND:                -0.334
REMARK SMILES CCCCCCCC(=O)[O-]
REMARK SMILES IDX 5 1 6 2 7 3 8 4 9 5 10 6 4 7 3 8 2 9 1 10
REMARK H PARENT
REMARK Flexibility Score: inf
ROOT
ATOM      1  C   UNL     1     -21.612   1.872  10.294  1.00  0.00     0.000 C 
ENDROOT
BRANCH   1   2
ATOM      2  C   UNL     1     -20.957   1.319   9.015  1.00  0.00     0.006 C 
BRANCH   2   3
ATOM      3  C   UNL     1     -20.598  -0.174   9.086  1.00  0.00     0.053 C 
BRANCH   3   4
ATOM      4  C   UNL     1     -20.382  -0.764   7.727  1.00  0.00     0.041 C 
ATOM      5  O   UNL     1     -20.082  -1.981   7.604  1.00  0.00    -0.550 OA
ATOM      6  O   UNL     1     -20.476   0.039   6.597  1.00  0.00    -0.550 OA
ENDBRANCH   3   4
ENDBRANCH   2   3
ENDBRANCH   1   2
BRANCH   1   7
ATOM      7  C   UNL     1     -21.582   0.868  11.459  1.00  0.00     0.000 C 
BRANCH   7   8
ATOM      8  C   UNL     1     -21.199   1.524  12.794  1.00  0.00    -0.000 C 
BRANCH   8   9
ATOM      9  C   UNL     1     -21.033   0.502  13.928  1.00  0.00    -0.003 C 
ATOM     10  C   UNL     1     -20.905  -0.915  13.375  1.00  0.00     0.004 C 
ENDBRANCH   8   9
ENDBRANCH   7   8
ENDBRANCH   1   7
TORSDOF 6
ENDMDL
