MODEL 1
REMARK VINA RESULT:    -7.072      0.000      0.000
REMARK INTER + INTRA:          -7.692
REMARK INTER:                  -7.692
REMARK INTRA:                   0.000
REMARK UNBOUND:                 0.000
REMARK SMILES Cc1cc(O)c2c(c1)C(=O)c1cc(O)cc(O)c1C2=O
REMARK SMILES IDX 1 1 2 2 8 3 7 4 6 5 4 6 3 7 19 8 20 9 18 10 11 11 9 12 10 13
REMARK SMILES IDX 12 14 13 15 15 16 16 17 5 18 17 20 14 22
REMARK H PARENT 5 19 17 21 14 23
REMARK Flexibility Score: inf
ROOT
ATOM      1  C   UNL     1      18.388  -9.227 -29.640  1.00  0.00     0.044 C 
ATOM      2  C   UNL     1      19.226  -8.170 -28.984  1.00  0.00    -0.047 A 
ATOM      3  C   UNL     1      20.375  -7.688 -29.621  1.00  0.00     0.016 A 
ATOM      4  C   UNL     1      21.151  -6.678 -29.028  1.00  0.00     0.038 A 
ATOM      5  C   UNL     1      20.771  -6.141 -27.778  1.00  0.00     0.076 A 
ATOM      6  C   UNL     1      19.560  -6.575 -27.178  1.00  0.00     0.127 A 
ATOM      7  C   UNL     1      18.815  -7.595 -27.778  1.00  0.00     0.050 A 
ATOM      8  C   UNL     1      21.693  -5.184 -27.115  1.00  0.00     0.201 C 
ATOM      9  O   UNL     1      21.731  -5.120 -25.857  1.00  0.00    -0.288 OA
ATOM     10  C   UNL     1      22.696  -4.444 -27.924  1.00  0.00     0.076 A 
ATOM     11  C   UNL     1      23.072  -4.982 -29.175  1.00  0.00     0.041 A 
ATOM     12  C   UNL     1      22.363  -6.168 -29.713  1.00  0.00     0.194 C 
ATOM     13  O   UNL     1      22.777  -6.726 -30.766  1.00  0.00    -0.289 OA
ATOM     14  C   UNL     1      24.115  -4.388 -29.906  1.00  0.00     0.059 A 
ATOM     15  C   UNL     1      24.773  -3.261 -29.415  1.00  0.00     0.120 A 
ATOM     16  C   UNL     1      24.379  -2.701 -28.197  1.00  0.00     0.093 A 
ATOM     17  C   UNL     1      23.330  -3.261 -27.460  1.00  0.00     0.131 A 
ENDROOT
BRANCH   6  18
ATOM     18  O   UNL     1      19.044  -5.997 -26.017  1.00  0.00    -0.507 OA
ATOM     19  H   UNL     1      18.653  -6.532 -25.253  1.00  0.00     0.293 HD
ENDBRANCH   6  18
BRANCH  17  20
ATOM     20  O   UNL     1      22.931  -2.594 -26.299  1.00  0.00    -0.507 OA
ATOM     21  H   UNL     1      22.435  -3.042 -25.541  1.00  0.00     0.293 HD
ENDBRANCH  17  20
BRANCH  15  22
ATOM     22  O   UNL     1      25.813  -2.698 -30.152  1.00  0.00    -0.508 OA
ATOM     23  H   UNL     1      25.850  -1.703 -30.341  1.00  0.00     0.293 HD
ENDBRANCH  15  22
TORSDOF 3
ENDMDL
MODEL 2
REMARK VINA RESULT:    -6.970      1.634      1.927
REMARK INTER + INTRA:          -7.581
REMARK INTER:                  -7.581
REMARK INTRA:                   0.000
REMARK UNBOUND:                 0.000
REMARK SMILES Cc1cc(O)c2c(c1)C(=O)c1cc(O)cc(O)c1C2=O
REMARK SMILES IDX 1 1 2 2 8 3 7 4 6 5 4 6 3 7 19 8 20 9 18 10 11 11 9 12 10 13
REMARK SMILES IDX 12 14 13 15 15 16 16 17 5 18 17 20 14 22
REMARK H PARENT 5 19 17 21 14 23
REMARK Flexibility Score: inf
ROOT
ATOM      1  C   UNL     1      20.253  -8.776 -30.252  1.00  0.00     0.044 C 
ATOM      2  C   UNL     1      20.480  -7.579 -29.376  1.00  0.00    -0.047 A 
ATOM      3  C   UNL     1      21.398  -6.594 -29.756  1.00  0.00     0.016 A 
ATOM      4  C   UNL     1      21.598  -5.456 -28.957  1.00  0.00     0.038 A 
ATOM      5  C   UNL     1      20.866  -5.300 -27.759  1.00  0.00     0.076 A 
ATOM      6  C   UNL     1      19.877  -6.261 -27.423  1.00  0.00     0.127 A 
ATOM      7  C   UNL     1      19.711  -7.396 -28.223  1.00  0.00     0.050 A 
ATOM      8  C   UNL     1      21.210  -4.162 -26.868  1.00  0.00     0.201 C 
ATOM      9  O   UNL     1      21.050  -4.270 -25.623  1.00  0.00    -0.288 OA
ATOM     10  C   UNL     1      21.912  -2.976 -27.424  1.00  0.00     0.076 A 
ATOM     11  C   UNL     1      22.641  -3.134 -28.625  1.00  0.00     0.041 A 
ATOM     12  C   UNL     1      22.567  -4.413 -29.371  1.00  0.00     0.194 C 
ATOM     13  O   UNL     1      23.311  -4.603 -30.372  1.00  0.00    -0.289 OA
ATOM     14  C   UNL     1      23.429  -2.076 -29.108  1.00  0.00     0.059 A 
ATOM     15  C   UNL     1      23.488  -0.864 -28.421  1.00  0.00     0.120 A 
ATOM     16  C   UNL     1      22.738  -0.689 -27.255  1.00  0.00     0.093 A 
ATOM     17  C   UNL     1      21.929  -1.719 -26.764  1.00  0.00     0.131 A 
ENDROOT
BRANCH   6  18
ATOM     18  O   UNL     1      19.019  -6.110 -26.332  1.00  0.00    -0.507 OA
ATOM     19  H   UNL     1      18.586  -5.232 -26.079  1.00  0.00     0.293 HD
ENDBRANCH   6  18
BRANCH  17  20
ATOM     20  O   UNL     1      21.138  -1.441 -25.647  1.00  0.00    -0.507 OA
ATOM     21  H   UNL     1      21.335  -0.694 -24.996  1.00  0.00     0.293 HD
ENDBRANCH  17  20
BRANCH  15  22
ATOM     22  O   UNL     1      24.287   0.166 -28.913  1.00  0.00    -0.508 OA
ATOM     23  H   UNL     1      23.937   0.827 -29.597  1.00  0.00     0.293 HD
ENDBRANCH  15  22
TORSDOF 3
ENDMDL
MODEL 3
REMARK VINA RESULT:    -6.907      1.320      3.426
REMARK INTER + INTRA:          -7.513
REMARK INTER:                  -7.513
REMARK INTRA:                   0.000
REMARK UNBOUND:                 0.000
REMARK SMILES Cc1cc(O)c2c(c1)C(=O)c1cc(O)cc(O)c1C2=O
REMARK SMILES IDX 1 1 2 2 8 3 7 4 6 5 4 6 3 7 19 8 20 9 18 10 11 11 9 12 10 13
REMARK SMILES IDX 12 14 13 15 15 16 16 17 5 18 17 20 14 22
REMARK H PARENT 5 19 17 21 14 23
REMARK Flexibility Score: inf
ROOT
ATOM      1  C   UNL     1      18.623  -8.133 -27.507  1.00  0.00     0.044 C 
ATOM      2  C   UNL     1      19.711  -7.224 -28.000  1.00  0.00    -0.047 A 
ATOM      3  C   UNL     1      20.092  -6.109 -27.246  1.00  0.00     0.016 A 
ATOM      4  C   UNL     1      21.128  -5.268 -27.685  1.00  0.00     0.038 A 
ATOM      5  C   UNL     1      21.794  -5.547 -28.899  1.00  0.00     0.076 A 
ATOM      6  C   UNL     1      21.460  -6.725 -29.616  1.00  0.00     0.127 A 
ATOM      7  C   UNL     1      20.412  -7.536 -29.169  1.00  0.00     0.050 A 
ATOM      8  C   UNL     1      22.780  -4.557 -29.403  1.00  0.00     0.201 C 
ATOM      9  O   UNL     1      22.962  -4.431 -30.643  1.00  0.00    -0.288 OA
ATOM     10  C   UNL     1      23.405  -3.593 -28.461  1.00  0.00     0.076 A 
ATOM     11  C   UNL     1      22.738  -3.317 -27.246  1.00  0.00     0.041 A 
ATOM     12  C   UNL     1      21.530  -4.093 -26.875  1.00  0.00     0.194 C 
ATOM     13  O   UNL     1      20.861  -3.767 -25.856  1.00  0.00    -0.289 OA
ATOM     14  C   UNL     1      23.225  -2.312 -26.394  1.00  0.00     0.059 A 
ATOM     15  C   UNL     1      24.372  -1.593 -26.728  1.00  0.00     0.120 A 
ATOM     16  C   UNL     1      25.058  -1.888 -27.909  1.00  0.00     0.093 A 
ATOM     17  C   UNL     1      24.606  -2.898 -28.765  1.00  0.00     0.131 A 
ENDROOT
BRANCH   6  18
ATOM     18  O   UNL     1      22.162  -7.144 -30.747  1.00  0.00    -0.507 OA
ATOM     19  H   UNL     1      21.938  -7.983 -31.265  1.00  0.00     0.293 HD
ENDBRANCH   6  18
BRANCH  17  20
ATOM     20  O   UNL     1      25.394  -3.199 -29.878  1.00  0.00    -0.507 OA
ATOM     21  H   UNL     1      25.861  -2.499 -30.437  1.00  0.00     0.293 HD
ENDBRANCH  17  20
BRANCH  15  22
ATOM     22  O   UNL     1      24.828  -0.592 -25.873  1.00  0.00    -0.508 OA
ATOM     23  H   UNL     1      25.459  -0.797 -25.107  1.00  0.00     0.293 HD
ENDBRANCH  15  22
TORSDOF 3
ENDMDL
MODEL 4
REMARK VINA RESULT:    -6.809      4.852      7.209
REMARK INTER + INTRA:          -7.406
REMARK INTER:                  -7.406
REMARK INTRA:                   0.000
REMARK UNBOUND:                 0.000
REMARK SMILES Cc1cc(O)c2c(c1)C(=O)c1cc(O)cc(O)c1C2=O
REMARK SMILES IDX 1 1 2 2 8 3 7 4 6 5 4 6 3 7 19 8 20 9 18 10 11 11 9 12 10 13
REMARK SMILES IDX 12 14 13 15 15 16 16 17 5 18 17 20 14 22
REMARK H PARENT 5 19 17 21 14 23
REMARK Flexibility Score: inf
ROOT
ATOM      1  C   UNL     1      24.990  -4.327 -26.837  1.00  0.00     0.044 C 
ATOM      2  C   UNL     1      24.478  -2.917 -26.797  1.00  0.00    -0.047 A 
ATOM      3  C   UNL     1      25.263  -1.869 -27.291  1.00  0.00     0.016 A 
ATOM      4  C   UNL     1      24.782  -0.549 -27.283  1.00  0.00     0.038 A 
ATOM      5  C   UNL     1      23.493  -0.273 -26.774  1.00  0.00     0.076 A 
ATOM      6  C   UNL     1      22.671  -1.350 -26.354  1.00  0.00     0.127 A 
ATOM      7  C   UNL     1      23.179  -2.653 -26.352  1.00  0.00     0.050 A 
ATOM      8  C   UNL     1      23.078   1.147 -26.647  1.00  0.00     0.201 C 
ATOM      9  O   UNL     1      22.274   1.485 -25.737  1.00  0.00    -0.288 OA
ATOM     10  C   UNL     1      23.751   2.189 -27.464  1.00  0.00     0.076 A 
ATOM     11  C   UNL     1      25.039   1.909 -27.974  1.00  0.00     0.041 A 
ATOM     12  C   UNL     1      25.617   0.554 -27.815  1.00  0.00     0.194 C 
ATOM     13  O   UNL     1      26.813   0.334 -28.156  1.00  0.00    -0.289 OA
ATOM     14  C   UNL     1      25.763   2.917 -28.634  1.00  0.00     0.059 A 
ATOM     15  C   UNL     1      25.217   4.188 -28.804  1.00  0.00     0.120 A 
ATOM     16  C   UNL     1      23.928   4.459 -28.337  1.00  0.00     0.093 A 
ATOM     17  C   UNL     1      23.178   3.468 -27.695  1.00  0.00     0.131 A 
ENDROOT
BRANCH   6  18
ATOM     18  O   UNL     1      21.340  -1.177 -25.969  1.00  0.00    -0.507 OA
ATOM     19  H   UNL     1      20.868  -1.775 -25.304  1.00  0.00     0.293 HD
ENDBRANCH   6  18
BRANCH  17  20
ATOM     20  O   UNL     1      21.865   3.784 -27.338  1.00  0.00    -0.507 OA
ATOM     21  H   UNL     1      21.208   4.230 -27.963  1.00  0.00     0.293 HD
ENDBRANCH  17  20
BRANCH  15  22
ATOM     22  O   UNL     1      25.960   5.174 -29.450  1.00  0.00    -0.508 OA
ATOM     23  H   UNL     1      26.860   5.477 -29.095  1.00  0.00     0.293 HD
ENDBRANCH  15  22
TORSDOF 3
ENDMDL
MODEL 5
REMARK VINA RESULT:    -6.762      1.884      2.824
REMARK INTER + INTRA:          -7.355
REMARK INTER:                  -7.355
REMARK INTRA:                   0.000
REMARK UNBOUND:                 0.000
REMARK SMILES Cc1cc(O)c2c(c1)C(=O)c1cc(O)cc(O)c1C2=O
REMARK SMILES IDX 1 1 2 2 8 3 7 4 6 5 4 6 3 7 19 8 20 9 18 10 11 11 9 12 10 13
REMARK SMILES IDX 12 14 13 15 15 16 16 17 5 18 17 20 14 22
REMARK H PARENT 5 19 17 21 14 23
REMARK Flexibility Score: inf
ROOT
ATOM      1  C   UNL     1      20.373  -9.957 -32.794  1.00  0.00     0.044 C 
ATOM      2  C   UNL     1      20.327  -9.133 -31.541  1.00  0.00    -0.047 A 
ATOM      3  C   UNL     1      21.504  -8.596 -31.009  1.00  0.00     0.016 A 
ATOM      4  C   UNL     1      21.468  -7.799 -29.852  1.00  0.00     0.038 A 
ATOM      5  C   UNL     1      20.234  -7.536 -29.217  1.00  0.00     0.076 A 
ATOM      6  C   UNL     1      19.036  -8.014 -29.809  1.00  0.00     0.127 A 
ATOM      7  C   UNL     1      19.099  -8.821 -30.950  1.00  0.00     0.050 A 
ATOM      8  C   UNL     1      20.251  -6.816 -27.918  1.00  0.00     0.201 C 
ATOM      9  O   UNL     1      19.352  -7.041 -27.065  1.00  0.00    -0.288 OA
ATOM     10  C   UNL     1      21.424  -5.980 -27.553  1.00  0.00     0.076 A 
ATOM     11  C   UNL     1      22.657  -6.244 -28.192  1.00  0.00     0.041 A 
ATOM     12  C   UNL     1      22.719  -7.228 -29.299  1.00  0.00     0.194 C 
ATOM     13  O   UNL     1      23.835  -7.558 -29.786  1.00  0.00    -0.289 OA
ATOM     14  C   UNL     1      23.817  -5.569 -27.777  1.00  0.00     0.059 A 
ATOM     15  C   UNL     1      23.761  -4.628 -26.749  1.00  0.00     0.120 A 
ATOM     16  C   UNL     1      22.538  -4.334 -26.141  1.00  0.00     0.093 A 
ATOM     17  C   UNL     1      21.365  -4.976 -26.550  1.00  0.00     0.131 A 
ENDROOT
BRANCH   6  18
ATOM     18  O   UNL     1      17.770  -7.682 -29.324  1.00  0.00    -0.507 OA
ATOM     19  H   UNL     1      16.909  -8.030 -29.723  1.00  0.00     0.293 HD
ENDBRANCH   6  18
BRANCH  17  20
ATOM     20  O   UNL     1      20.166  -4.565 -25.961  1.00  0.00    -0.507 OA
ATOM     21  H   UNL     1      19.896  -3.597 -25.863  1.00  0.00     0.293 HD
ENDBRANCH  17  20
BRANCH  15  22
ATOM     22  O   UNL     1      24.928  -3.981 -26.346  1.00  0.00    -0.508 OA
ATOM     23  H   UNL     1      25.843  -4.327 -26.610  1.00  0.00     0.293 HD
ENDBRANCH  15  22
TORSDOF 3
ENDMDL
MODEL 6
REMARK VINA RESULT:    -6.654      1.308      6.254
REMARK INTER + INTRA:          -7.238
REMARK INTER:                  -7.238
REMARK INTRA:                   0.000
REMARK UNBOUND:                 0.000
REMARK SMILES Cc1cc(O)c2c(c1)C(=O)c1cc(O)cc(O)c1C2=O
REMARK SMILES IDX 1 1 2 2 8 3 7 4 6 5 4 6 3 7 19 8 20 9 18 10 11 11 9 12 10 13
REMARK SMILES IDX 12 14 13 15 15 16 16 17 5 18 17 20 14 22
REMARK H PARENT 5 19 17 21 14 23
REMARK Flexibility Score: inf
ROOT
ATOM      1  C   UNL     1      23.956  -0.853 -26.372  1.00  0.00     0.044 C 
ATOM      2  C   UNL     1      23.602  -2.123 -27.089  1.00  0.00    -0.047 A 
ATOM      3  C   UNL     1      22.549  -2.920 -26.628  1.00  0.00     0.016 A 
ATOM      4  C   UNL     1      22.191  -4.096 -27.308  1.00  0.00     0.038 A 
ATOM      5  C   UNL     1      22.898  -4.480 -28.469  1.00  0.00     0.076 A 
ATOM      6  C   UNL     1      23.908  -3.624 -28.978  1.00  0.00     0.127 A 
ATOM      7  C   UNL     1      24.260  -2.469 -28.273  1.00  0.00     0.050 A 
ATOM      8  C   UNL     1      22.589  -5.801 -29.075  1.00  0.00     0.201 C 
ATOM      9  O   UNL     1      23.490  -6.434 -29.688  1.00  0.00    -0.288 OA
ATOM     10  C   UNL     1      21.284  -6.454 -28.796  1.00  0.00     0.076 A 
ATOM     11  C   UNL     1      20.578  -6.066 -27.635  1.00  0.00     0.041 A 
ATOM     12  C   UNL     1      21.069  -4.931 -26.817  1.00  0.00     0.194 C 
ATOM     13  O   UNL     1      20.515  -4.662 -25.715  1.00  0.00    -0.289 OA
ATOM     14  C   UNL     1      19.411  -6.755 -27.264  1.00  0.00     0.059 A 
ATOM     15  C   UNL     1      18.934  -7.811 -28.040  1.00  0.00     0.120 A 
ATOM     16  C   UNL     1      19.606  -8.173 -29.210  1.00  0.00     0.093 A 
ATOM     17  C   UNL     1      20.758  -7.490 -29.613  1.00  0.00     0.131 A 
ENDROOT
BRANCH   6  18
ATOM     18  O   UNL     1      24.557  -3.861 -30.192  1.00  0.00    -0.507 OA
ATOM     19  H   UNL     1      25.385  -3.363 -30.489  1.00  0.00     0.293 HD
ENDBRANCH   6  18
BRANCH  17  20
ATOM     20  O   UNL     1      21.323  -7.846 -30.839  1.00  0.00    -0.507 OA
ATOM     21  H   UNL     1      21.712  -7.178 -31.490  1.00  0.00     0.293 HD
ENDBRANCH  17  20
BRANCH  15  22
ATOM     22  O   UNL     1      17.781  -8.487 -27.644  1.00  0.00    -0.508 OA
ATOM     23  H   UNL     1      17.348  -9.186 -28.237  1.00  0.00     0.293 HD
ENDBRANCH  15  22
TORSDOF 3
ENDMDL
MODEL 7
REMARK VINA RESULT:    -6.650      2.370      6.481
REMARK INTER + INTRA:          -7.233
REMARK INTER:                  -7.233
REMARK INTRA:                   0.000
REMARK UNBOUND:                 0.000
REMARK SMILES Cc1cc(O)c2c(c1)C(=O)c1cc(O)cc(O)c1C2=O
REMARK SMILES IDX 1 1 2 2 8 3 7 4 6 5 4 6 3 7 19 8 20 9 18 10 11 11 9 12 10 13
REMARK SMILES IDX 12 14 13 15 15 16 16 17 5 18 17 20 14 22
REMARK H PARENT 5 19 17 21 14 23
REMARK Flexibility Score: inf
ROOT
ATOM      1  C   UNL     1      21.582  -4.076 -25.988  1.00  0.00     0.044 C 
ATOM      2  C   UNL     1      21.637  -5.077 -27.104  1.00  0.00    -0.047 A 
ATOM      3  C   UNL     1      20.485  -5.776 -27.480  1.00  0.00     0.016 A 
ATOM      4  C   UNL     1      20.520  -6.695 -28.542  1.00  0.00     0.038 A 
ATOM      5  C   UNL     1      21.728  -6.917 -29.240  1.00  0.00     0.076 A 
ATOM      6  C   UNL     1      22.871  -6.144 -28.909  1.00  0.00     0.127 A 
ATOM      7  C   UNL     1      22.817  -5.250 -27.835  1.00  0.00     0.050 A 
ATOM      8  C   UNL     1      21.763  -8.000 -30.257  1.00  0.00     0.201 C 
ATOM      9  O   UNL     1      22.839  -8.616 -30.479  1.00  0.00    -0.288 OA
ATOM     10  C   UNL     1      20.496  -8.478 -30.869  1.00  0.00     0.076 A 
ATOM     11  C   UNL     1      19.289  -8.252 -30.169  1.00  0.00     0.041 A 
ATOM     12  C   UNL     1      19.293  -7.425 -28.938  1.00  0.00     0.194 C 
ATOM     13  O   UNL     1      18.244  -7.325 -28.243  1.00  0.00    -0.289 OA
ATOM     14  C   UNL     1      18.090  -8.808 -30.646  1.00  0.00     0.059 A 
ATOM     15  C   UNL     1      18.077  -9.570 -31.814  1.00  0.00     0.120 A 
ATOM     16  C   UNL     1      19.260  -9.764 -32.531  1.00  0.00     0.093 A 
ATOM     17  C   UNL     1      20.463  -9.204 -32.089  1.00  0.00     0.131 A 
ENDROOT
BRANCH   6  18
ATOM     18  O   UNL     1      24.059  -6.204 -29.639  1.00  0.00    -0.507 OA
ATOM     19  H   UNL     1      24.942  -5.848 -29.298  1.00  0.00     0.293 HD
ENDBRANCH   6  18
BRANCH  17  20
ATOM     20  O   UNL     1      21.586  -9.362 -32.905  1.00  0.00    -0.507 OA
ATOM     21  H   UNL     1      21.549  -9.752 -33.836  1.00  0.00     0.293 HD
ENDBRANCH  17  20
BRANCH  15  22
ATOM     22  O   UNL     1      16.878 -10.122 -32.260  1.00  0.00    -0.508 OA
ATOM     23  H   UNL     1      16.605 -11.066 -32.012  1.00  0.00     0.293 HD
ENDBRANCH  15  22
TORSDOF 3
ENDMDL
MODEL 8
REMARK VINA RESULT:    -6.591      2.238      6.471
REMARK INTER + INTRA:          -7.169
REMARK INTER:                  -7.169
REMARK INTRA:                   0.000
REMARK UNBOUND:                 0.000
REMARK SMILES Cc1cc(O)c2c(c1)C(=O)c1cc(O)cc(O)c1C2=O
REMARK SMILES IDX 1 1 2 2 8 3 7 4 6 5 4 6 3 7 19 8 20 9 18 10 11 11 9 12 10 13
REMARK SMILES IDX 12 14 13 15 15 16 16 17 5 18 17 20 14 22
REMARK H PARENT 5 19 17 21 14 23
REMARK Flexibility Score: inf
ROOT
ATOM      1  C   UNL     1      27.227   0.957 -28.938  1.00  0.00     0.044 C 
ATOM      2  C   UNL     1      26.042   0.216 -28.393  1.00  0.00    -0.047 A 
ATOM      3  C   UNL     1      25.457  -0.818 -29.132  1.00  0.00     0.016 A 
ATOM      4  C   UNL     1      24.365  -1.536 -28.618  1.00  0.00     0.038 A 
ATOM      5  C   UNL     1      23.848  -1.214 -27.343  1.00  0.00     0.076 A 
ATOM      6  C   UNL     1      24.498  -0.222 -26.564  1.00  0.00     0.127 A 
ATOM      7  C   UNL     1      25.571   0.493 -27.105  1.00  0.00     0.050 A 
ATOM      8  C   UNL     1      22.604  -1.893 -26.897  1.00  0.00     0.201 C 
ATOM      9  O   UNL     1      21.811  -1.299 -26.120  1.00  0.00    -0.288 OA
ATOM     10  C   UNL     1      22.208  -3.186 -27.513  1.00  0.00     0.076 A 
ATOM     11  C   UNL     1      22.729  -3.507 -28.787  1.00  0.00     0.041 A 
ATOM     12  C   UNL     1      23.757  -2.636 -29.405  1.00  0.00     0.194 C 
ATOM     13  O   UNL     1      24.132  -2.847 -30.591  1.00  0.00    -0.289 OA
ATOM     14  C   UNL     1      22.272  -4.653 -29.460  1.00  0.00     0.059 A 
ATOM     15  C   UNL     1      21.320  -5.486 -28.876  1.00  0.00     0.120 A 
ATOM     16  C   UNL     1      20.831  -5.196 -27.599  1.00  0.00     0.093 A 
ATOM     17  C   UNL     1      21.284  -4.073 -26.899  1.00  0.00     0.131 A 
ENDROOT
BRANCH   6  18
ATOM     18  O   UNL     1      24.136   0.058 -25.245  1.00  0.00    -0.507 OA
ATOM     19  H   UNL     1      23.178   0.100 -24.925  1.00  0.00     0.293 HD
ENDBRANCH   6  18
BRANCH  17  20
ATOM     20  O   UNL     1      20.821  -3.898 -25.593  1.00  0.00    -0.507 OA
ATOM     21  H   UNL     1      20.164  -3.178 -25.326  1.00  0.00     0.293 HD
ENDBRANCH  17  20
BRANCH  15  22
ATOM     22  O   UNL     1      20.873  -6.610 -29.569  1.00  0.00    -0.508 OA
ATOM     23  H   UNL     1      20.262  -6.527 -30.373  1.00  0.00     0.293 HD
ENDBRANCH  15  22
TORSDOF 3
ENDMDL
MODEL 9
REMARK VINA RESULT:    -6.578      5.821      9.663
REMARK INTER + INTRA:          -7.154
REMARK INTER:                  -7.154
REMARK INTRA:                   0.000
REMARK UNBOUND:                 0.000
REMARK SMILES Cc1cc(O)c2c(c1)C(=O)c1cc(O)cc(O)c1C2=O
REMARK SMILES IDX 1 1 2 2 8 3 7 4 6 5 4 6 3 7 19 8 20 9 18 10 11 11 9 12 10 13
REMARK SMILES IDX 12 14 13 15 15 16 16 17 5 18 17 20 14 22
REMARK H PARENT 5 19 17 21 14 23
REMARK Flexibility Score: inf
ROOT
ATOM      1  C   UNL     1      25.560   7.401 -27.836  1.00  0.00     0.044 C 
ATOM      2  C   UNL     1      25.152   5.983 -27.564  1.00  0.00    -0.047 A 
ATOM      3  C   UNL     1      25.526   4.962 -28.445  1.00  0.00     0.016 A 
ATOM      4  C   UNL     1      25.173   3.627 -28.185  1.00  0.00     0.038 A 
ATOM      5  C   UNL     1      24.435   3.309 -27.023  1.00  0.00     0.076 A 
ATOM      6  C   UNL     1      24.132   4.336 -26.093  1.00  0.00     0.127 A 
ATOM      7  C   UNL     1      24.476   5.660 -26.383  1.00  0.00     0.050 A 
ATOM      8  C   UNL     1      23.954   1.913 -26.858  1.00  0.00     0.201 C 
ATOM      9  O   UNL     1      22.887   1.689 -26.227  1.00  0.00    -0.288 OA
ATOM     10  C   UNL     1      24.626   0.809 -27.591  1.00  0.00     0.076 A 
ATOM     11  C   UNL     1      25.367   1.131 -28.751  1.00  0.00     0.041 A 
ATOM     12  C   UNL     1      25.580   2.551 -29.120  1.00  0.00     0.194 C 
ATOM     13  O   UNL     1      26.131   2.842 -30.218  1.00  0.00    -0.289 OA
ATOM     14  C   UNL     1      25.901   0.104 -29.547  1.00  0.00     0.059 A 
ATOM     15  C   UNL     1      25.720  -1.233 -29.195  1.00  0.00     0.120 A 
ATOM     16  C   UNL     1      25.023  -1.556 -28.028  1.00  0.00     0.093 A 
ATOM     17  C   UNL     1      24.499  -0.553 -27.207  1.00  0.00     0.131 A 
ENDROOT
BRANCH   6  18
ATOM     18  O   UNL     1      23.529   4.083 -24.859  1.00  0.00    -0.507 OA
ATOM     19  H   UNL     1      24.047   3.873 -24.017  1.00  0.00     0.293 HD
ENDBRANCH   6  18
BRANCH  17  20
ATOM     20  O   UNL     1      23.896  -0.947 -26.011  1.00  0.00    -0.507 OA
ATOM     21  H   UNL     1      22.904  -1.111 -25.913  1.00  0.00     0.293 HD
ENDBRANCH  17  20
BRANCH  15  22
ATOM     22  O   UNL     1      26.248  -2.235 -30.007  1.00  0.00    -0.508 OA
ATOM     23  H   UNL     1      25.707  -2.647 -30.759  1.00  0.00     0.293 HD
ENDBRANCH  15  22
TORSDOF 3
ENDMDL
