MODEL 1
REMARK VINA RESULT:    -5.770      0.000      0.000
REMARK INTER + INTRA:          -6.464
REMARK INTER:                  -6.276
REMARK INTRA:                  -0.189
REMARK UNBOUND:                -0.189
REMARK SMILES O=C([O-])c1ccccc1O
REMARK SMILES IDX 4 1 9 2 5 3 8 4 6 5 7 6 2 7 1 8 3 9 10 10
REMARK H PARENT 10 11
REMARK Flexibility Score: inf
ROOT
ATOM      1  C   UNL     1       5.942  44.673  -5.088  1.00  0.00     0.039 A 
ATOM      2  C   UNL     1       6.612  43.709  -4.296  1.00  0.00     0.124 A 
ATOM      3  C   UNL     1       6.701  45.688  -5.706  1.00  0.00     0.014 A 
ATOM      4  C   UNL     1       8.005  43.777  -4.140  1.00  0.00     0.047 A 
ATOM      5  C   UNL     1       8.087  45.743  -5.541  1.00  0.00     0.001 A 
ATOM      6  C   UNL     1       8.738  44.789  -4.760  1.00  0.00     0.004 A 
ENDROOT
BRANCH   1   7
ATOM      7  C   UNL     1       4.469  44.639  -5.280  1.00  0.00     0.075 C 
ATOM      8  O   UNL     1       3.982  44.385  -6.414  1.00  0.00    -0.545 OA
ATOM      9  O   UNL     1       3.602  44.883  -4.223  1.00  0.00    -0.545 OA
ENDBRANCH   1   7
BRANCH   2  10
ATOM     10  O   UNL     1       5.904  42.686  -3.665  1.00  0.00    -0.507 OA
ATOM     11  H   UNL     1       5.075  42.277  -4.080  1.00  0.00     0.293 HD
ENDBRANCH   2  10
TORSDOF 2
ENDMDL
MODEL 2
REMARK VINA RESULT:    -5.711      1.465      2.975
REMARK INTER + INTRA:          -6.401
REMARK INTER:                  -6.164
REMARK INTRA:                  -0.237
REMARK UNBOUND:                -0.189
REMARK SMILES O=C([O-])c1ccccc1O
REMARK SMILES IDX 4 1 9 2 5 3 8 4 6 5 7 6 2 7 1 8 3 9 10 10
REMARK H PARENT 10 11
REMARK Flexibility Score: inf
ROOT
ATOM      1  C   UNL     1       7.469  44.405  -4.811  1.00  0.00     0.039 A 
ATOM      2  C   UNL     1       6.652  45.498  -5.184  1.00  0.00     0.124 A 
ATOM      3  C   UNL     1       8.762  44.304  -5.366  1.00  0.00     0.014 A 
ATOM      4  C   UNL     1       7.135  46.455  -6.091  1.00  0.00     0.047 A 
ATOM      5  C   UNL     1       9.228  45.264  -6.267  1.00  0.00     0.001 A 
ATOM      6  C   UNL     1       8.416  46.338  -6.629  1.00  0.00     0.004 A 
ENDROOT
BRANCH   1   7
ATOM      7  C   UNL     1       7.000  43.369  -3.856  1.00  0.00     0.075 C 
ATOM      8  O   UNL     1       5.798  42.988  -3.871  1.00  0.00    -0.545 OA
ATOM      9  O   UNL     1       7.866  42.800  -2.931  1.00  0.00    -0.545 OA
ENDBRANCH   1   7
BRANCH   2  10
ATOM     10  O   UNL     1       5.367  45.641  -4.661  1.00  0.00    -0.507 OA
ATOM     11  H   UNL     1       5.145  46.357  -3.981  1.00  0.00     0.293 HD
ENDBRANCH   2  10
TORSDOF 2
ENDMDL
MODEL 3
REMARK VINA RESULT:    -5.688     16.661     17.417
REMARK INTER + INTRA:          -6.376
REMARK INTER:                  -6.180
REMARK INTRA:                  -0.195
REMARK UNBOUND:                -0.189
REMARK SMILES O=C([O-])c1ccccc1O
REMARK SMILES IDX 4 1 9 2 5 3 8 4 6 5 7 6 2 7 1 8 3 9 10 10
REMARK H PARENT 10 11
REMARK Flexibility Score: inf
ROOT
ATOM      1  C   UNL     1      -0.097  46.758  11.037  1.00  0.00     0.039 A 
ATOM      2  C   UNL     1       0.677  47.897  10.710  1.00  0.00     0.124 A 
ATOM      3  C   UNL     1       0.310  45.949  12.117  1.00  0.00     0.014 A 
ATOM      4  C   UNL     1       1.826  48.200  11.457  1.00  0.00     0.047 A 
ATOM      5  C   UNL     1       1.456  46.264  12.852  1.00  0.00     0.001 A 
ATOM      6  C   UNL     1       2.213  47.387  12.522  1.00  0.00     0.004 A 
ENDROOT
BRANCH   1   7
ATOM      7  C   UNL     1      -1.320  46.400  10.273  1.00  0.00     0.075 C 
ATOM      8  O   UNL     1      -2.453  46.453  10.824  1.00  0.00    -0.545 OA
ATOM      9  O   UNL     1      -1.245  46.001   8.944  1.00  0.00    -0.545 OA
ENDBRANCH   1   7
BRANCH   2  10
ATOM     10  O   UNL     1       0.314  48.728   9.649  1.00  0.00    -0.507 OA
ATOM     11  H   UNL     1       0.182  48.369   8.712  1.00  0.00     0.293 HD
ENDBRANCH   2  10
TORSDOF 2
ENDMDL
MODEL 4
REMARK VINA RESULT:    -5.662      1.358      2.030
REMARK INTER + INTRA:          -6.347
REMARK INTER:                  -6.181
REMARK INTRA:                  -0.167
REMARK UNBOUND:                -0.189
REMARK SMILES O=C([O-])c1ccccc1O
REMARK SMILES IDX 4 1 9 2 5 3 8 4 6 5 7 6 2 7 1 8 3 9 10 10
REMARK H PARENT 10 11
REMARK Flexibility Score: inf
ROOT
ATOM      1  C   UNL     1       7.068  44.892  -5.315  1.00  0.00     0.039 A 
ATOM      2  C   UNL     1       8.350  44.316  -5.146  1.00  0.00     0.124 A 
ATOM      3  C   UNL     1       6.930  45.998  -6.178  1.00  0.00     0.014 A 
ATOM      4  C   UNL     1       9.452  44.849  -5.832  1.00  0.00     0.047 A 
ATOM      5  C   UNL     1       8.037  46.517  -6.854  1.00  0.00     0.001 A 
ATOM      6  C   UNL     1       9.296  45.944  -6.681  1.00  0.00     0.004 A 
ENDROOT
BRANCH   1   7
ATOM      7  C   UNL     1       5.874  44.361  -4.609  1.00  0.00     0.075 C 
ATOM      8  O   UNL     1       5.871  43.181  -4.163  1.00  0.00    -0.545 OA
ATOM      9  O   UNL     1       4.742  45.145  -4.423  1.00  0.00    -0.545 OA
ENDBRANCH   1   7
BRANCH   2  10
ATOM     10  O   UNL     1       8.535  43.220  -4.303  1.00  0.00    -0.507 OA
ATOM     11  H   UNL     1       8.205  42.295  -4.550  1.00  0.00     0.293 HD
ENDBRANCH   2  10
TORSDOF 2
ENDMDL
MODEL 5
REMARK VINA RESULT:    -5.582      1.542      2.149
REMARK INTER + INTRA:          -6.261
REMARK INTER:                  -6.017
REMARK INTRA:                  -0.243
REMARK UNBOUND:                -0.189
REMARK SMILES O=C([O-])c1ccccc1O
REMARK SMILES IDX 4 1 9 2 5 3 8 4 6 5 7 6 2 7 1 8 3 9 10 10
REMARK H PARENT 10 11
REMARK Flexibility Score: inf
ROOT
ATOM      1  C   UNL     1       6.565  45.307  -5.021  1.00  0.00     0.039 A 
ATOM      2  C   UNL     1       6.955  46.464  -4.305  1.00  0.00     0.124 A 
ATOM      3  C   UNL     1       7.566  44.460  -5.537  1.00  0.00     0.014 A 
ATOM      4  C   UNL     1       8.317  46.748  -4.122  1.00  0.00     0.047 A 
ATOM      5  C   UNL     1       8.919  44.756  -5.348  1.00  0.00     0.001 A 
ATOM      6  C   UNL     1       9.293  45.898  -4.641  1.00  0.00     0.004 A 
ENDROOT
BRANCH   1   7
ATOM      7  C   UNL     1       5.135  44.968  -5.238  1.00  0.00     0.075 C 
ATOM      8  O   UNL     1       4.766  44.426  -6.315  1.00  0.00    -0.545 OA
ATOM      9  O   UNL     1       4.178  45.236  -4.267  1.00  0.00    -0.545 OA
ENDBRANCH   1   7
BRANCH   2  10
ATOM     10  O   UNL     1       6.000  47.331  -3.774  1.00  0.00    -0.507 OA
ATOM     11  H   UNL     1       5.244  47.702  -4.338  1.00  0.00     0.293 HD
ENDBRANCH   2  10
TORSDOF 2
ENDMDL
MODEL 6
REMARK VINA RESULT:    -5.575      6.945      8.227
REMARK INTER + INTRA:          -6.252
REMARK INTER:                  -6.168
REMARK INTRA:                  -0.085
REMARK UNBOUND:                -0.189
REMARK SMILES O=C([O-])c1ccccc1O
REMARK SMILES IDX 4 1 9 2 5 3 8 4 6 5 7 6 2 7 1 8 3 9 10 10
REMARK H PARENT 10 11
REMARK Flexibility Score: inf
ROOT
ATOM      1  C   UNL     1      -1.011  45.199  -1.340  1.00  0.00     0.039 A 
ATOM      2  C   UNL     1       0.328  44.747  -1.273  1.00  0.00     0.124 A 
ATOM      3  C   UNL     1      -1.723  45.392  -0.139  1.00  0.00     0.014 A 
ATOM      4  C   UNL     1       0.921  44.499  -0.025  1.00  0.00     0.047 A 
ATOM      5  C   UNL     1      -1.119  45.141   1.096  1.00  0.00     0.001 A 
ATOM      6  C   UNL     1       0.200  44.695   1.153  1.00  0.00     0.004 A 
ENDROOT
BRANCH   1   7
ATOM      7  C   UNL     1      -1.678  45.473  -2.639  1.00  0.00     0.075 C 
ATOM      8  O   UNL     1      -1.732  46.649  -3.090  1.00  0.00    -0.545 OA
ATOM      9  O   UNL     1      -2.251  44.449  -3.382  1.00  0.00    -0.545 OA
ENDBRANCH   1   7
BRANCH   2  10
ATOM     10  O   UNL     1       1.073  44.542  -2.435  1.00  0.00    -0.507 OA
ATOM     11  H   UNL     1       0.894  43.759  -3.052  1.00  0.00     0.293 HD
ENDBRANCH   2  10
TORSDOF 2
ENDMDL
MODEL 7
REMARK VINA RESULT:    -5.505     11.186     12.399
REMARK INTER + INTRA:          -6.177
REMARK INTER:                  -6.005
REMARK INTRA:                  -0.171
REMARK UNBOUND:                -0.189
REMARK SMILES O=C([O-])c1ccccc1O
REMARK SMILES IDX 4 1 9 2 5 3 8 4 6 5 7 6 2 7 1 8 3 9 10 10
REMARK H PARENT 10 11
REMARK Flexibility Score: inf
ROOT
ATOM      1  C   UNL     1      -2.685  44.823   3.728  1.00  0.00     0.039 A 
ATOM      2  C   UNL     1      -1.714  45.611   4.390  1.00  0.00     0.124 A 
ATOM      3  C   UNL     1      -2.483  44.498   2.371  1.00  0.00     0.014 A 
ATOM      4  C   UNL     1      -0.578  46.053   3.695  1.00  0.00     0.047 A 
ATOM      5  C   UNL     1      -1.346  44.945   1.691  1.00  0.00     0.001 A 
ATOM      6  C   UNL     1      -0.395  45.721   2.352  1.00  0.00     0.004 A 
ENDROOT
BRANCH   1   7
ATOM      7  C   UNL     1      -3.902  44.335   4.424  1.00  0.00     0.075 C 
ATOM      8  O   UNL     1      -4.847  45.128   4.685  1.00  0.00    -0.545 OA
ATOM      9  O   UNL     1      -4.028  43.003   4.802  1.00  0.00    -0.545 OA
ENDBRANCH   1   7
BRANCH   2  10
ATOM     10  O   UNL     1      -1.870  45.958   5.733  1.00  0.00    -0.507 OA
ATOM     11  H   UNL     1      -2.785  46.047   6.157  1.00  0.00     0.293 HD
ENDBRANCH   2  10
TORSDOF 2
ENDMDL
MODEL 8
REMARK VINA RESULT:    -5.476      7.730      9.713
REMARK INTER + INTRA:          -6.145
REMARK INTER:                  -5.894
REMARK INTRA:                  -0.251
REMARK UNBOUND:                -0.189
REMARK SMILES O=C([O-])c1ccccc1O
REMARK SMILES IDX 4 1 9 2 5 3 8 4 6 5 7 6 2 7 1 8 3 9 10 10
REMARK H PARENT 10 11
REMARK Flexibility Score: inf
ROOT
ATOM      1  C   UNL     1      -0.914  44.740  -0.072  1.00  0.00     0.039 A 
ATOM      2  C   UNL     1      -2.036  45.524  -0.429  1.00  0.00     0.124 A 
ATOM      3  C   UNL     1      -0.992  43.928   1.078  1.00  0.00     0.014 A 
ATOM      4  C   UNL     1      -3.198  45.483   0.357  1.00  0.00     0.047 A 
ATOM      5  C   UNL     1      -2.155  43.898   1.852  1.00  0.00     0.001 A 
ATOM      6  C   UNL     1      -3.256  44.674   1.492  1.00  0.00     0.004 A 
ENDROOT
BRANCH   1   7
ATOM      7  C   UNL     1       0.336  44.753  -0.875  1.00  0.00     0.075 C 
ATOM      8  O   UNL     1       1.460  44.737  -0.304  1.00  0.00    -0.545 OA
ATOM      9  O   UNL     1       0.297  44.781  -2.264  1.00  0.00    -0.545 OA
ENDBRANCH   1   7
BRANCH   2  10
ATOM     10  O   UNL     1      -2.006  46.342  -1.559  1.00  0.00    -0.507 OA
ATOM     11  H   UNL     1      -2.354  47.293  -1.538  1.00  0.00     0.293 HD
ENDBRANCH   2  10
TORSDOF 2
ENDMDL
MODEL 9
REMARK VINA RESULT:    -5.447      1.617      2.367
REMARK INTER + INTRA:          -6.113
REMARK INTER:                  -5.997
REMARK INTRA:                  -0.116
REMARK UNBOUND:                -0.189
REMARK SMILES O=C([O-])c1ccccc1O
REMARK SMILES IDX 4 1 9 2 5 3 8 4 6 5 7 6 2 7 1 8 3 9 10 10
REMARK H PARENT 10 11
REMARK Flexibility Score: inf
ROOT
ATOM      1  C   UNL     1       6.402  45.522  -4.895  1.00  0.00     0.039 A 
ATOM      2  C   UNL     1       7.413  45.396  -5.877  1.00  0.00     0.124 A 
ATOM      3  C   UNL     1       6.735  46.092  -3.649  1.00  0.00     0.014 A 
ATOM      4  C   UNL     1       8.717  45.835  -5.600  1.00  0.00     0.047 A 
ATOM      5  C   UNL     1       8.037  46.525  -3.388  1.00  0.00     0.001 A 
ATOM      6  C   UNL     1       9.027  46.397  -4.361  1.00  0.00     0.004 A 
ENDROOT
BRANCH   1   7
ATOM      7  C   UNL     1       5.009  45.070  -5.145  1.00  0.00     0.075 C 
ATOM      8  O   UNL     1       4.120  45.234  -4.267  1.00  0.00    -0.545 OA
ATOM      9  O   UNL     1       4.656  44.462  -6.344  1.00  0.00    -0.545 OA
ENDBRANCH   1   7
BRANCH   2  10
ATOM     10  O   UNL     1       7.132  44.839  -7.125  1.00  0.00    -0.507 OA
ATOM     11  H   UNL     1       6.821  45.406  -7.904  1.00  0.00     0.293 HD
ENDBRANCH   2  10
TORSDOF 2
ENDMDL
