MODEL 1
REMARK VINA RESULT:    -2.999      0.000      0.000
REMARK INTER + INTRA:          -3.647
REMARK INTER:                  -3.525
REMARK INTRA:                  -0.122
REMARK UNBOUND:                -0.122
REMARK SMILES O=C([O-])CCC(=O)[O-]
REMARK SMILES IDX 4 1 2 2 1 3 3 4 5 5 6 6 7 7 8 8
REMARK H PARENT
REMARK Flexibility Score: inf
ROOT
ATOM      1  C   UNL     1      -8.117  -0.211  10.731  1.00  0.00     0.059 C 
ENDROOT
BRANCH   1   2
ATOM      2  C   UNL     1      -8.743   0.861  11.566  1.00  0.00     0.042 C 
ATOM      3  O   UNL     1      -8.109   1.917  11.822  1.00  0.00    -0.550 OA
ATOM      4  O   UNL     1     -10.047   0.714  12.022  1.00  0.00    -0.550 OA
ENDBRANCH   1   2
BRANCH   1   5
ATOM      5  C   UNL     1      -8.585  -0.099   9.278  1.00  0.00     0.059 C 
BRANCH   5   6
ATOM      6  C   UNL     1      -7.623   0.724   8.481  1.00  0.00     0.042 C 
ATOM      7  O   UNL     1      -6.440   0.882   8.882  1.00  0.00    -0.550 OA
ATOM      8  O   UNL     1      -8.019   1.275   7.270  1.00  0.00    -0.550 OA
ENDBRANCH   5   6
ENDBRANCH   1   5
TORSDOF 3
ENDMDL
MODEL 2
REMARK VINA RESULT:    -2.985     20.576     21.880
REMARK INTER + INTRA:          -3.630
REMARK INTER:                  -3.551
REMARK INTRA:                  -0.079
REMARK UNBOUND:                -0.122
REMARK SMILES O=C([O-])CCC(=O)[O-]
REMARK SMILES IDX 4 1 2 2 1 3 3 4 5 5 6 6 7 7 8 8
REMARK H PARENT
REMARK Flexibility Score: inf
ROOT
ATOM      1  C   UNL     1       4.914  -0.876  -6.857  1.00  0.00     0.059 C 
ENDROOT
BRANCH   1   2
ATOM      2  C   UNL     1       3.589  -0.236  -7.128  1.00  0.00     0.042 C 
ATOM      3  O   UNL     1       2.524  -0.870  -6.912  1.00  0.00    -0.550 OA
ATOM      4  O   UNL     1       3.530   1.078  -7.573  1.00  0.00    -0.550 OA
ENDBRANCH   1   2
BRANCH   1   5
ATOM      5  C   UNL     1       5.993  -0.273  -7.758  1.00  0.00     0.059 C 
BRANCH   5   6
ATOM      6  C   UNL     1       6.875   0.647  -6.976  1.00  0.00     0.042 C 
ATOM      7  O   UNL     1       7.870   0.194  -6.352  1.00  0.00    -0.550 OA
ATOM      8  O   UNL     1       6.627   2.013  -6.977  1.00  0.00    -0.550 OA
ENDBRANCH   5   6
ENDBRANCH   1   5
TORSDOF 3
ENDMDL
MODEL 3
REMARK VINA RESULT:    -2.957      0.167      3.748
REMARK INTER + INTRA:          -3.597
REMARK INTER:                  -3.488
REMARK INTRA:                  -0.109
REMARK UNBOUND:                -0.122
REMARK SMILES O=C([O-])CCC(=O)[O-]
REMARK SMILES IDX 4 1 2 2 1 3 3 4 5 5 6 6 7 7 8 8
REMARK H PARENT
REMARK Flexibility Score: inf
ROOT
ATOM      1  C   UNL     1      -8.625  -0.001   9.363  1.00  0.00     0.059 C 
ENDROOT
BRANCH   1   2
ATOM      2  C   UNL     1      -7.579   0.659   8.521  1.00  0.00     0.042 C 
ATOM      3  O   UNL     1      -7.874   1.119   7.388  1.00  0.00    -0.550 OA
ATOM      4  O   UNL     1      -6.287   0.810   9.009  1.00  0.00    -0.550 OA
ENDBRANCH   1   2
BRANCH   1   5
ATOM      5  C   UNL     1      -8.138  -0.144  10.806  1.00  0.00     0.059 C 
BRANCH   5   6
ATOM      6  C   UNL     1      -8.798   0.871  11.685  1.00  0.00     0.042 C 
ATOM      7  O   UNL     1      -8.168   1.897  12.051  1.00  0.00    -0.550 OA
ATOM      8  O   UNL     1     -10.125   0.708  12.059  1.00  0.00    -0.550 OA
ENDBRANCH   5   6
ENDBRANCH   1   5
TORSDOF 3
ENDMDL
MODEL 4
REMARK VINA RESULT:    -2.918     12.459     13.467
REMARK INTER + INTRA:          -3.551
REMARK INTER:                  -3.479
REMARK INTRA:                  -0.072
REMARK UNBOUND:                -0.122
REMARK SMILES O=C([O-])CCC(=O)[O-]
REMARK SMILES IDX 4 1 2 2 1 3 3 4 5 5 6 6 7 7 8 8
REMARK H PARENT
REMARK Flexibility Score: inf
ROOT
ATOM      1  C   UNL     1       1.023   9.671   5.154  1.00  0.00     0.059 C 
ENDROOT
BRANCH   1   2
ATOM      2  C   UNL     1      -0.426   9.317   5.030  1.00  0.00     0.042 C 
ATOM      3  O   UNL     1      -0.772   8.265   4.432  1.00  0.00    -0.550 OA
ATOM      4  O   UNL     1      -1.392  10.125   5.616  1.00  0.00    -0.550 OA
ENDBRANCH   1   2
BRANCH   1   5
ATOM      5  C   UNL     1       1.400   9.870   6.623  1.00  0.00     0.059 C 
BRANCH   5   6
ATOM      6  C   UNL     1       2.521   8.956   7.005  1.00  0.00     0.042 C 
ATOM      7  O   UNL     1       3.462   9.375   7.728  1.00  0.00    -0.550 OA
ATOM      8  O   UNL     1       2.500   7.627   6.603  1.00  0.00    -0.550 OA
ENDBRANCH   5   6
ENDBRANCH   1   5
TORSDOF 3
ENDMDL
MODEL 5
REMARK VINA RESULT:    -2.911     20.830     21.760
REMARK INTER + INTRA:          -3.543
REMARK INTER:                  -3.419
REMARK INTRA:                  -0.124
REMARK UNBOUND:                -0.122
REMARK SMILES O=C([O-])CCC(=O)[O-]
REMARK SMILES IDX 4 1 2 2 1 3 3 4 5 5 6 6 7 7 8 8
REMARK H PARENT
REMARK Flexibility Score: inf
ROOT
ATOM      1  C   UNL     1       6.633   1.528  -6.767  1.00  0.00     0.059 C 
ENDROOT
BRANCH   1   2
ATOM      2  C   UNL     1       7.367   1.134  -5.524  1.00  0.00     0.042 C 
ATOM      3  O   UNL     1       6.825   1.272  -4.397  1.00  0.00    -0.550 OA
ATOM      4  O   UNL     1       8.634   0.570  -5.614  1.00  0.00    -0.550 OA
ENDBRANCH   1   2
BRANCH   1   5
ATOM      5  C   UNL     1       5.926   0.316  -7.377  1.00  0.00     0.059 C 
BRANCH   5   6
ATOM      6  C   UNL     1       4.491   0.280  -6.955  1.00  0.00     0.042 C 
ATOM      7  O   UNL     1       4.132  -0.446  -5.992  1.00  0.00    -0.550 OA
ATOM      8  O   UNL     1       3.559   1.087  -7.594  1.00  0.00    -0.550 OA
ENDBRANCH   5   6
ENDBRANCH   1   5
TORSDOF 3
ENDMDL
MODEL 6
REMARK VINA RESULT:    -2.911     16.226     17.160
REMARK INTER + INTRA:          -3.543
REMARK INTER:                  -3.422
REMARK INTRA:                  -0.121
REMARK UNBOUND:                -0.122
REMARK SMILES O=C([O-])CCC(=O)[O-]
REMARK SMILES IDX 4 1 2 2 1 3 3 4 5 5 6 6 7 7 8 8
REMARK H PARENT
REMARK Flexibility Score: inf
ROOT
ATOM      1  C   UNL     1      -6.838  -7.453  -3.346  1.00  0.00     0.059 C 
ENDROOT
BRANCH   1   2
ATOM      2  C   UNL     1      -5.411  -7.871  -3.516  1.00  0.00     0.042 C 
ATOM      3  O   UNL     1      -4.967  -8.873  -2.897  1.00  0.00    -0.550 OA
ATOM      4  O   UNL     1      -4.585  -7.181  -4.394  1.00  0.00    -0.550 OA
ENDBRANCH   1   2
BRANCH   1   5
ATOM      5  C   UNL     1      -7.760  -8.673  -3.379  1.00  0.00     0.059 C 
BRANCH   5   6
ATOM      6  C   UNL     1      -8.234  -8.934  -4.774  1.00  0.00     0.042 C 
ATOM      7  O   UNL     1      -9.193  -8.274  -5.251  1.00  0.00    -0.550 OA
ATOM      8  O   UNL     1      -7.583  -9.873  -5.564  1.00  0.00    -0.550 OA
ENDBRANCH   5   6
ENDBRANCH   1   5
TORSDOF 3
ENDMDL
MODEL 7
REMARK VINA RESULT:    -2.906     20.835     21.794
REMARK INTER + INTRA:          -3.537
REMARK INTER:                  -3.415
REMARK INTRA:                  -0.122
REMARK UNBOUND:                -0.122
REMARK SMILES O=C([O-])CCC(=O)[O-]
REMARK SMILES IDX 4 1 2 2 1 3 3 4 5 5 6 6 7 7 8 8
REMARK H PARENT
REMARK Flexibility Score: inf
ROOT
ATOM      1  C   UNL     1       5.948   0.375  -7.375  1.00  0.00     0.059 C 
ENDROOT
BRANCH   1   2
ATOM      2  C   UNL     1       4.516   0.313  -6.946  1.00  0.00     0.042 C 
ATOM      3  O   UNL     1       4.178  -0.399  -5.965  1.00  0.00    -0.550 OA
ATOM      4  O   UNL     1       3.560   1.081  -7.599  1.00  0.00    -0.550 OA
ENDBRANCH   1   2
BRANCH   1   5
ATOM      5  C   UNL     1       6.651   1.566  -6.722  1.00  0.00     0.059 C 
BRANCH   5   6
ATOM      6  C   UNL     1       7.411   1.125  -5.511  1.00  0.00     0.042 C 
ATOM      7  O   UNL     1       6.921   1.284  -4.363  1.00  0.00    -0.550 OA
ATOM      8  O   UNL     1       8.640   0.495  -5.654  1.00  0.00    -0.550 OA
ENDBRANCH   5   6
ENDBRANCH   1   5
TORSDOF 3
ENDMDL
MODEL 8
REMARK VINA RESULT:    -2.897      1.318      3.623
REMARK INTER + INTRA:          -3.527
REMARK INTER:                  -3.409
REMARK INTRA:                  -0.118
REMARK UNBOUND:                -0.122
REMARK SMILES O=C([O-])CCC(=O)[O-]
REMARK SMILES IDX 4 1 2 2 1 3 3 4 5 5 6 6 7 7 8 8
REMARK H PARENT
REMARK Flexibility Score: inf
ROOT
ATOM      1  C   UNL     1      -7.837  -0.379   9.185  1.00  0.00     0.059 C 
ENDROOT
BRANCH   1   2
ATOM      2  C   UNL     1      -8.338   0.097   7.858  1.00  0.00     0.042 C 
ATOM      3  O   UNL     1      -9.145  -0.605   7.196  1.00  0.00    -0.550 OA
ATOM      4  O   UNL     1      -7.949   1.340   7.373  1.00  0.00    -0.550 OA
ENDBRANCH   1   2
BRANCH   1   5
ATOM      5  C   UNL     1      -8.488   0.416  10.319  1.00  0.00     0.059 C 
BRANCH   5   6
ATOM      6  C   UNL     1      -7.504   1.363  10.928  1.00  0.00     0.042 C 
ATOM      7  O   UNL     1      -7.758   1.921  12.027  1.00  0.00    -0.550 OA
ATOM      8  O   UNL     1      -6.284   1.591  10.306  1.00  0.00    -0.550 OA
ENDBRANCH   5   6
ENDBRANCH   1   5
TORSDOF 3
ENDMDL
MODEL 9
REMARK VINA RESULT:    -2.878     20.822     22.062
REMARK INTER + INTRA:          -3.504
REMARK INTER:                  -3.383
REMARK INTRA:                  -0.121
REMARK UNBOUND:                -0.122
REMARK SMILES O=C([O-])CCC(=O)[O-]
REMARK SMILES IDX 4 1 2 2 1 3 3 4 5 5 6 6 7 7 8 8
REMARK H PARENT
REMARK Flexibility Score: inf
ROOT
ATOM      1  C   UNL     1       7.333   0.101  -6.534  1.00  0.00     0.059 C 
ENDROOT
BRANCH   1   2
ATOM      2  C   UNL     1       8.229   0.646  -5.467  1.00  0.00     0.042 C 
ATOM      3  O   UNL     1       9.468   0.434  -5.510  1.00  0.00    -0.550 OA
ATOM      4  O   UNL     1       7.699   1.429  -4.449  1.00  0.00    -0.550 OA
ENDBRANCH   1   2
BRANCH   1   5
ATOM      5  C   UNL     1       6.369   1.182  -7.027  1.00  0.00     0.059 C 
BRANCH   5   6
ATOM      6  C   UNL     1       4.961   0.832  -6.664  1.00  0.00     0.042 C 
ATOM      7  O   UNL     1       4.016   1.115  -7.447  1.00  0.00    -0.550 OA
ATOM      8  O   UNL     1       4.696   0.149  -5.485  1.00  0.00    -0.550 OA
ENDBRANCH   5   6
ENDBRANCH   1   5
TORSDOF 3
ENDMDL
