MODEL 1
REMARK VINA RESULT:    -4.197      0.000      0.000
REMARK INTER + INTRA:          -4.752
REMARK INTER:                  -4.688
REMARK INTRA:                  -0.065
REMARK UNBOUND:                -0.065
REMARK SMILES COc1ccc(C(=O)[O-])cc1
REMARK SMILES IDX 6 1 5 2 10 3 4 4 11 5 3 6 7 7 8 8 9 9 2 10 1 11
REMARK H PARENT
REMARK Flexibility Score: inf
ROOT
ATOM      1  C   UNL     1       9.530  -7.422  26.588  1.00  0.00    -0.003 A 
ATOM      2  C   UNL     1      10.389  -7.903  25.586  1.00  0.00     0.014 A 
ATOM      3  C   UNL     1       9.495  -8.084  27.828  1.00  0.00     0.014 A 
ATOM      4  C   UNL     1      11.197  -9.020  25.819  1.00  0.00     0.047 A 
ATOM      5  C   UNL     1      10.302  -9.202  28.060  1.00  0.00     0.047 A 
ATOM      6  C   UNL     1      11.161  -9.679  27.053  1.00  0.00     0.118 A 
ENDROOT
BRANCH   1   7
ATOM      7  C   UNL     1       8.678  -6.239  26.338  1.00  0.00     0.071 C 
ATOM      8  O   UNL     1       7.534  -6.152  26.858  1.00  0.00    -0.545 OA
ATOM      9  O   UNL     1       9.129  -5.206  25.524  1.00  0.00    -0.545 OA
ENDBRANCH   1   7
BRANCH   6  10
ATOM     10  O   UNL     1      11.990 -10.796  27.237  1.00  0.00    -0.497 OA
ATOM     11  C   UNL     1      12.317 -11.730  26.214  1.00  0.00     0.278 C 
ENDBRANCH   6  10
TORSDOF 2
ENDMDL
MODEL 2
REMARK VINA RESULT:    -4.139      0.933      4.659
REMARK INTER + INTRA:          -4.688
REMARK INTER:                  -4.620
REMARK INTRA:                  -0.068
REMARK UNBOUND:                -0.065
REMARK SMILES COc1ccc(C(=O)[O-])cc1
REMARK SMILES IDX 6 1 5 2 10 3 4 4 11 5 3 6 7 7 8 8 9 9 2 10 1 11
REMARK H PARENT
REMARK Flexibility Score: inf
ROOT
ATOM      1  C   UNL     1      11.004  -9.359  26.848  1.00  0.00    -0.003 A 
ATOM      2  C   UNL     1      11.078  -8.679  25.621  1.00  0.00     0.014 A 
ATOM      3  C   UNL     1      10.114  -8.892  27.832  1.00  0.00     0.014 A 
ATOM      4  C   UNL     1      10.280  -7.556  25.382  1.00  0.00     0.047 A 
ATOM      5  C   UNL     1       9.317  -7.768  27.592  1.00  0.00     0.047 A 
ATOM      6  C   UNL     1       9.395  -7.091  26.362  1.00  0.00     0.118 A 
ENDROOT
BRANCH   1   7
ATOM      7  C   UNL     1      11.849 -10.548  27.097  1.00  0.00     0.071 C 
ATOM      8  O   UNL     1      11.423 -11.500  27.803  1.00  0.00    -0.545 OA
ATOM      9  O   UNL     1      13.126 -10.629  26.555  1.00  0.00    -0.545 OA
ENDBRANCH   1   7
BRANCH   6  10
ATOM     10  O   UNL     1       8.616  -5.960  26.073  1.00  0.00    -0.497 OA
ATOM     11  C   UNL     1       8.785  -5.142  24.921  1.00  0.00     0.278 C 
ENDBRANCH   6  10
TORSDOF 2
ENDMDL
MODEL 3
REMARK VINA RESULT:    -4.123      0.308      1.484
REMARK INTER + INTRA:          -4.670
REMARK INTER:                  -4.610
REMARK INTRA:                  -0.060
REMARK UNBOUND:                -0.065
REMARK SMILES COc1ccc(C(=O)[O-])cc1
REMARK SMILES IDX 6 1 5 2 10 3 4 4 11 5 3 6 7 7 8 8 9 9 2 10 1 11
REMARK H PARENT
REMARK Flexibility Score: inf
ROOT
ATOM      1  C   UNL     1       9.779  -7.522  26.577  1.00  0.00    -0.003 A 
ATOM      2  C   UNL     1       9.876  -8.136  27.837  1.00  0.00     0.014 A 
ATOM      3  C   UNL     1      10.454  -8.098  25.486  1.00  0.00     0.014 A 
ATOM      4  C   UNL     1      10.633  -9.300  28.003  1.00  0.00     0.047 A 
ATOM      5  C   UNL     1      11.212  -9.262  25.654  1.00  0.00     0.047 A 
ATOM      6  C   UNL     1      11.306  -9.872  26.918  1.00  0.00     0.118 A 
ENDROOT
BRANCH   1   7
ATOM      7  C   UNL     1       8.976  -6.292  26.404  1.00  0.00     0.071 C 
ATOM      8  O   UNL     1       7.837  -6.191  26.933  1.00  0.00    -0.545 OA
ATOM      9  O   UNL     1       9.467  -5.231  25.653  1.00  0.00    -0.545 OA
ENDBRANCH   1   7
BRANCH   6  10
ATOM     10  O   UNL     1      12.052 -11.040  27.137  1.00  0.00    -0.497 OA
ATOM     11  C   UNL     1      12.325 -12.018  26.139  1.00  0.00     0.278 C 
ENDBRANCH   6  10
TORSDOF 2
ENDMDL
MODEL 4
REMARK VINA RESULT:    -4.075      2.139      4.858
REMARK INTER + INTRA:          -4.616
REMARK INTER:                  -4.562
REMARK INTRA:                  -0.054
REMARK UNBOUND:                -0.065
REMARK SMILES COc1ccc(C(=O)[O-])cc1
REMARK SMILES IDX 6 1 5 2 10 3 4 4 11 5 3 6 7 7 8 8 9 9 2 10 1 11
REMARK H PARENT
REMARK Flexibility Score: inf
ROOT
ATOM      1  C   UNL     1       9.894  -7.729  27.699  1.00  0.00    -0.003 A 
ATOM      2  C   UNL     1       8.614  -7.281  27.332  1.00  0.00     0.014 A 
ATOM      3  C   UNL     1      11.021  -7.113  27.125  1.00  0.00     0.014 A 
ATOM      4  C   UNL     1       8.464  -6.240  26.411  1.00  0.00     0.047 A 
ATOM      5  C   UNL     1      10.869  -6.073  26.203  1.00  0.00     0.047 A 
ATOM      6  C   UNL     1       9.585  -5.628  25.839  1.00  0.00     0.118 A 
ENDROOT
BRANCH   1   7
ATOM      7  C   UNL     1      10.050  -8.829  28.676  1.00  0.00     0.071 C 
ATOM      8  O   UNL     1      10.298 -10.001  28.286  1.00  0.00    -0.545 OA
ATOM      9  O   UNL     1       9.922  -8.585  30.038  1.00  0.00    -0.545 OA
ENDBRANCH   1   7
BRANCH   6  10
ATOM     10  O   UNL     1       9.380  -4.588  24.920  1.00  0.00    -0.497 OA
ATOM     11  C   UNL     1      10.104  -3.362  24.919  1.00  0.00     0.278 C 
ENDBRANCH   6  10
TORSDOF 2
ENDMDL
MODEL 5
REMARK VINA RESULT:    -4.066      2.401      4.562
REMARK INTER + INTRA:          -4.606
REMARK INTER:                  -4.540
REMARK INTRA:                  -0.067
REMARK UNBOUND:                -0.065
REMARK SMILES COc1ccc(C(=O)[O-])cc1
REMARK SMILES IDX 6 1 5 2 10 3 4 4 11 5 3 6 7 7 8 8 9 9 2 10 1 11
REMARK H PARENT
REMARK Flexibility Score: inf
ROOT
ATOM      1  C   UNL     1       9.624  -7.276  27.134  1.00  0.00    -0.003 A 
ATOM      2  C   UNL     1      10.995  -6.974  27.181  1.00  0.00     0.014 A 
ATOM      3  C   UNL     1       8.775  -6.467  26.358  1.00  0.00     0.014 A 
ATOM      4  C   UNL     1      11.507  -5.887  26.465  1.00  0.00     0.047 A 
ATOM      5  C   UNL     1       9.289  -5.379  25.644  1.00  0.00     0.047 A 
ATOM      6  C   UNL     1      10.662  -5.082  25.693  1.00  0.00     0.118 A 
ENDROOT
BRANCH   1   7
ATOM      7  C   UNL     1       9.085  -8.427  27.891  1.00  0.00     0.071 C 
ATOM      8  O   UNL     1       7.885  -8.438  28.272  1.00  0.00    -0.545 OA
ATOM      9  O   UNL     1       9.898  -9.513  28.193  1.00  0.00    -0.545 OA
ENDBRANCH   1   7
BRANCH   6  10
ATOM     10  O   UNL     1      11.226  -4.003  24.995  1.00  0.00    -0.497 OA
ATOM     11  C   UNL     1      12.391  -3.298  25.410  1.00  0.00     0.278 C 
ENDBRANCH   6  10
TORSDOF 2
ENDMDL
MODEL 6
REMARK VINA RESULT:    -4.032      2.454      4.001
REMARK INTER + INTRA:          -4.568
REMARK INTER:                  -4.507
REMARK INTRA:                  -0.062
REMARK UNBOUND:                -0.065
REMARK SMILES COc1ccc(C(=O)[O-])cc1
REMARK SMILES IDX 6 1 5 2 10 3 4 4 11 5 3 6 7 7 8 8 9 9 2 10 1 11
REMARK H PARENT
REMARK Flexibility Score: inf
ROOT
ATOM      1  C   UNL     1      10.926  -8.937  26.284  1.00  0.00    -0.003 A 
ATOM      2  C   UNL     1      11.075  -9.840  27.350  1.00  0.00     0.014 A 
ATOM      3  C   UNL     1       9.969  -7.912  26.391  1.00  0.00     0.014 A 
ATOM      4  C   UNL     1      10.284  -9.722  28.497  1.00  0.00     0.047 A 
ATOM      5  C   UNL     1       9.178  -7.795  27.538  1.00  0.00     0.047 A 
ATOM      6  C   UNL     1       9.331  -8.702  28.602  1.00  0.00     0.118 A 
ENDROOT
BRANCH   1   7
ATOM      7  C   UNL     1      11.766  -9.064  25.073  1.00  0.00     0.071 C 
ATOM      8  O   UNL     1      11.322  -9.640  24.044  1.00  0.00    -0.545 OA
ATOM      9  O   UNL     1      13.057  -8.551  25.055  1.00  0.00    -0.545 OA
ENDBRANCH   1   7
BRANCH   6  10
ATOM     10  O   UNL     1       8.563  -8.627  29.774  1.00  0.00    -0.497 OA
ATOM     11  C   UNL     1       8.805  -9.400  30.944  1.00  0.00     0.278 C 
ENDBRANCH   6  10
TORSDOF 2
ENDMDL
MODEL 7
REMARK VINA RESULT:    -3.992      1.232      5.144
REMARK INTER + INTRA:          -4.524
REMARK INTER:                  -4.466
REMARK INTRA:                  -0.058
REMARK UNBOUND:                -0.065
REMARK SMILES COc1ccc(C(=O)[O-])cc1
REMARK SMILES IDX 6 1 5 2 10 3 4 4 11 5 3 6 7 7 8 8 9 9 2 10 1 11
REMARK H PARENT
REMARK Flexibility Score: inf
ROOT
ATOM      1  C   UNL     1      11.749 -10.134  26.256  1.00  0.00    -0.003 A 
ATOM      2  C   UNL     1      11.157  -9.918  27.512  1.00  0.00     0.014 A 
ATOM      3  C   UNL     1      11.440  -9.259  25.200  1.00  0.00     0.014 A 
ATOM      4  C   UNL     1      10.275  -8.850  27.707  1.00  0.00     0.047 A 
ATOM      5  C   UNL     1      10.557  -8.192  25.396  1.00  0.00     0.047 A 
ATOM      6  C   UNL     1       9.968  -7.980  26.655  1.00  0.00     0.118 A 
ENDROOT
BRANCH   1   7
ATOM      7  C   UNL     1      12.683 -11.263  26.054  1.00  0.00     0.071 C 
ATOM      8  O   UNL     1      13.918 -11.056  25.915  1.00  0.00    -0.545 OA
ATOM      9  O   UNL     1      12.209 -12.569  26.010  1.00  0.00    -0.545 OA
ENDBRANCH   1   7
BRANCH   6  10
ATOM     10  O   UNL     1       9.077  -6.925  26.902  1.00  0.00    -0.497 OA
ATOM     11  C   UNL     1       8.712  -5.940  25.941  1.00  0.00     0.278 C 
ENDBRANCH   6  10
TORSDOF 2
ENDMDL
MODEL 8
REMARK VINA RESULT:    -3.983      1.450      2.142
REMARK INTER + INTRA:          -4.513
REMARK INTER:                  -4.458
REMARK INTRA:                  -0.055
REMARK UNBOUND:                -0.065
REMARK SMILES COc1ccc(C(=O)[O-])cc1
REMARK SMILES IDX 6 1 5 2 10 3 4 4 11 5 3 6 7 7 8 8 9 9 2 10 1 11
REMARK H PARENT
REMARK Flexibility Score: inf
ROOT
ATOM      1  C   UNL     1      10.623  -8.668  26.534  1.00  0.00    -0.003 A 
ATOM      2  C   UNL     1      10.992  -8.882  25.195  1.00  0.00     0.014 A 
ATOM      3  C   UNL     1      10.996  -9.616  27.502  1.00  0.00     0.014 A 
ATOM      4  C   UNL     1      11.718 -10.020  24.833  1.00  0.00     0.047 A 
ATOM      5  C   UNL     1      11.722 -10.755  27.138  1.00  0.00     0.047 A 
ATOM      6  C   UNL     1      12.089 -10.965  25.796  1.00  0.00     0.118 A 
ENDROOT
BRANCH   1   7
ATOM      7  C   UNL     1       9.856  -7.461  26.914  1.00  0.00     0.071 C 
ATOM      8  O   UNL     1      10.334  -6.312  26.724  1.00  0.00    -0.545 OA
ATOM      9  O   UNL     1       8.596  -7.580  27.490  1.00  0.00    -0.545 OA
ENDBRANCH   1   7
BRANCH   6  10
ATOM     10  O   UNL     1      12.816 -12.090  25.381  1.00  0.00    -0.497 OA
ATOM     11  C   UNL     1      12.436 -13.436  25.647  1.00  0.00     0.278 C 
ENDBRANCH   6  10
TORSDOF 2
ENDMDL
MODEL 9
REMARK VINA RESULT:    -3.917      2.079      5.430
REMARK INTER + INTRA:          -4.440
REMARK INTER:                  -4.382
REMARK INTRA:                  -0.058
REMARK UNBOUND:                -0.065
REMARK SMILES COc1ccc(C(=O)[O-])cc1
REMARK SMILES IDX 6 1 5 2 10 3 4 4 11 5 3 6 7 7 8 8 9 9 2 10 1 11
REMARK H PARENT
REMARK Flexibility Score: inf
ROOT
ATOM      1  C   UNL     1      12.151 -11.464  25.873  1.00  0.00    -0.003 A 
ATOM      2  C   UNL     1      11.946 -10.841  24.630  1.00  0.00     0.014 A 
ATOM      3  C   UNL     1      11.845 -10.755  27.048  1.00  0.00     0.014 A 
ATOM      4  C   UNL     1      11.444  -9.538  24.564  1.00  0.00     0.047 A 
ATOM      5  C   UNL     1      11.344  -9.451  26.980  1.00  0.00     0.047 A 
ATOM      6  C   UNL     1      11.140  -8.832  25.733  1.00  0.00     0.118 A 
ENDROOT
BRANCH   1   7
ATOM      7  C   UNL     1      12.680 -12.844  25.940  1.00  0.00     0.071 C 
ATOM      8  O   UNL     1      12.066 -13.735  26.585  1.00  0.00    -0.545 OA
ATOM      9  O   UNL     1      13.865 -13.176  25.293  1.00  0.00    -0.545 OA
ENDBRANCH   1   7
BRANCH   6  10
ATOM     10  O   UNL     1      10.640  -7.527  25.613  1.00  0.00    -0.497 OA
ATOM     11  C   UNL     1      10.872  -6.488  26.558  1.00  0.00     0.278 C 
ENDBRANCH   6  10
TORSDOF 2
ENDMDL
