MODEL 1
REMARK VINA RESULT:    -3.799      0.000      0.000
REMARK INTER + INTRA:          -4.917
REMARK INTER:                  -4.688
REMARK INTRA:                  -0.229
REMARK UNBOUND:                -0.229
REMARK SMILES C=CC[C@H](C)C(=O)CC
REMARK SMILES IDX 4 1 5 2 6 3 7 4 8 5 9 6 3 7 2 8 1 9
REMARK H PARENT
REMARK Flexibility Score: inf
ROOT
ATOM      1  C   UNL     1       1.999   5.639  28.826  1.00  0.00     0.057 C 
ATOM      2  C   UNL     1       3.131   6.659  28.641  1.00  0.00     0.016 C 
ENDROOT
BRANCH   1   3
ATOM      3  C   UNL     1       0.993   6.160  29.830  1.00  0.00     0.135 C 
ATOM      4  O   UNL     1       0.164   6.990  29.482  1.00  0.00    -0.299 OA
BRANCH   3   5
ATOM      5  C   UNL     1       0.990   5.672  31.255  1.00  0.00     0.072 C 
ATOM      6  C   UNL     1       0.687   6.816  32.217  1.00  0.00     0.012 C 
ENDBRANCH   3   5
ENDBRANCH   1   3
BRANCH   1   7
ATOM      7  C   UNL     1       2.536   4.267  29.284  1.00  0.00     0.038 C 
BRANCH   7   8
ATOM      8  C   UNL     1       2.777   3.330  28.130  1.00  0.00    -0.034 C 
ATOM      9  C   UNL     1       3.977   3.216  27.554  1.00  0.00     0.004 C 
ENDBRANCH   7   8
ENDBRANCH   1   7
TORSDOF 4
ENDMDL
MODEL 2
REMARK VINA RESULT:    -3.762      1.719      2.435
REMARK INTER + INTRA:          -4.871
REMARK INTER:                  -4.519
REMARK INTRA:                  -0.352
REMARK UNBOUND:                -0.229
REMARK SMILES C=CC[C@H](C)C(=O)CC
REMARK SMILES IDX 4 1 5 2 6 3 7 4 8 5 9 6 3 7 2 8 1 9
REMARK H PARENT
REMARK Flexibility Score: inf
ROOT
ATOM      1  C   UNL     1       2.766   4.142  30.084  1.00  0.00     0.057 C 
ATOM      2  C   UNL     1       1.953   3.404  31.156  1.00  0.00     0.016 C 
ENDROOT
BRANCH   1   3
ATOM      3  C   UNL     1       2.460   5.623  30.132  1.00  0.00     0.135 C 
ATOM      4  O   UNL     1       2.768   6.274  31.121  1.00  0.00    -0.299 OA
BRANCH   3   5
ATOM      5  C   UNL     1       1.783   6.318  28.979  1.00  0.00     0.072 C 
ATOM      6  C   UNL     1       0.358   6.714  29.349  1.00  0.00     0.012 C 
ENDBRANCH   3   5
ENDBRANCH   1   3
BRANCH   1   7
ATOM      7  C   UNL     1       2.479   3.592  28.670  1.00  0.00     0.038 C 
BRANCH   7   8
ATOM      8  C   UNL     1       3.740   3.331  27.889  1.00  0.00    -0.034 C 
ATOM      9  C   UNL     1       4.883   2.986  28.490  1.00  0.00     0.004 C 
ENDBRANCH   7   8
ENDBRANCH   1   7
TORSDOF 4
ENDMDL
MODEL 3
REMARK VINA RESULT:    -3.738      1.039      1.607
REMARK INTER + INTRA:          -4.841
REMARK INTER:                  -4.621
REMARK INTRA:                  -0.221
REMARK UNBOUND:                -0.229
REMARK SMILES C=CC[C@H](C)C(=O)CC
REMARK SMILES IDX 4 1 5 2 6 3 7 4 8 5 9 6 3 7 2 8 1 9
REMARK H PARENT
REMARK Flexibility Score: inf
ROOT
ATOM      1  C   UNL     1       2.111   5.256  30.360  1.00  0.00     0.057 C 
ATOM      2  C   UNL     1       1.945   3.947  31.144  1.00  0.00     0.016 C 
ENDROOT
BRANCH   1   3
ATOM      3  C   UNL     1       0.963   6.193  30.671  1.00  0.00     0.135 C 
ATOM      4  O   UNL     1       0.275   6.630  29.759  1.00  0.00    -0.299 OA
BRANCH   3   5
ATOM      5  C   UNL     1       0.647   6.596  32.087  1.00  0.00     0.072 C 
ATOM      6  C   UNL     1       1.804   7.382  32.695  1.00  0.00     0.012 C 
ENDBRANCH   3   5
ENDBRANCH   1   3
BRANCH   1   7
ATOM      7  C   UNL     1       2.185   5.004  28.839  1.00  0.00     0.038 C 
BRANCH   7   8
ATOM      8  C   UNL     1       2.565   3.584  28.510  1.00  0.00    -0.034 C 
ATOM      9  C   UNL     1       3.715   3.285  27.899  1.00  0.00     0.004 C 
ENDBRANCH   7   8
ENDBRANCH   1   7
TORSDOF 4
ENDMDL
MODEL 4
REMARK VINA RESULT:    -3.665      1.429      1.887
REMARK INTER + INTRA:          -4.751
REMARK INTER:                  -4.488
REMARK INTRA:                  -0.263
REMARK UNBOUND:                -0.229
REMARK SMILES C=CC[C@H](C)C(=O)CC
REMARK SMILES IDX 4 1 5 2 6 3 7 4 8 5 9 6 3 7 2 8 1 9
REMARK H PARENT
REMARK Flexibility Score: inf
ROOT
ATOM      1  C   UNL     1       1.316   5.631  29.456  1.00  0.00     0.057 C 
ATOM      2  C   UNL     1       0.380   6.816  29.179  1.00  0.00     0.016 C 
ENDROOT
BRANCH   1   3
ATOM      3  C   UNL     1       1.528   5.478  30.947  1.00  0.00     0.135 C 
ATOM      4  O   UNL     1       1.417   4.376  31.464  1.00  0.00    -0.299 OA
BRANCH   3   5
ATOM      5  C   UNL     1       1.879   6.662  31.810  1.00  0.00     0.072 C 
ATOM      6  C   UNL     1       0.725   7.010  32.744  1.00  0.00     0.012 C 
ENDBRANCH   3   5
ENDBRANCH   1   3
BRANCH   1   7
ATOM      7  C   UNL     1       2.677   5.800  28.747  1.00  0.00     0.038 C 
BRANCH   7   8
ATOM      8  C   UNL     1       3.389   4.487  28.552  1.00  0.00    -0.034 C 
ATOM      9  C   UNL     1       2.732   3.372  28.219  1.00  0.00     0.004 C 
ENDBRANCH   7   8
ENDBRANCH   1   7
TORSDOF 4
ENDMDL
MODEL 5
REMARK VINA RESULT:    -3.662      2.125      4.013
REMARK INTER + INTRA:          -4.748
REMARK INTER:                  -4.230
REMARK INTRA:                  -0.517
REMARK UNBOUND:                -0.229
REMARK SMILES C=CC[C@H](C)C(=O)CC
REMARK SMILES IDX 4 1 5 2 6 3 7 4 8 5 9 6 3 7 2 8 1 9
REMARK H PARENT
REMARK Flexibility Score: inf
ROOT
ATOM      1  C   UNL     1       2.166   5.258  31.862  1.00  0.00     0.057 C 
ATOM      2  C   UNL     1       3.346   6.189  31.553  1.00  0.00     0.016 C 
ENDROOT
BRANCH   1   3
ATOM      3  C   UNL     1       2.295   3.978  31.065  1.00  0.00     0.135 C 
ATOM      4  O   UNL     1       1.612   3.008  31.362  1.00  0.00    -0.299 OA
BRANCH   3   5
ATOM      5  C   UNL     1       3.250   3.875  29.905  1.00  0.00     0.072 C 
ATOM      6  C   UNL     1       2.490   3.727  28.591  1.00  0.00     0.012 C 
ENDBRANCH   3   5
ENDBRANCH   1   3
BRANCH   1   7
ATOM      7  C   UNL     1       0.811   5.932  31.556  1.00  0.00     0.038 C 
BRANCH   7   8
ATOM      8  C   UNL     1       0.916   6.955  30.455  1.00  0.00    -0.034 C 
ATOM      9  C   UNL     1       0.376   6.750  29.250  1.00  0.00     0.004 C 
ENDBRANCH   7   8
ENDBRANCH   1   7
TORSDOF 4
ENDMDL
MODEL 6
REMARK VINA RESULT:    -3.637      1.680      2.252
REMARK INTER + INTRA:          -4.716
REMARK INTER:                  -4.402
REMARK INTRA:                  -0.315
REMARK UNBOUND:                -0.229
REMARK SMILES C=CC[C@H](C)C(=O)CC
REMARK SMILES IDX 4 1 5 2 6 3 7 4 8 5 9 6 3 7 2 8 1 9
REMARK H PARENT
REMARK Flexibility Score: inf
ROOT
ATOM      1  C   UNL     1       2.196   4.850  28.958  1.00  0.00     0.057 C 
ATOM      2  C   UNL     1       3.104   6.029  28.584  1.00  0.00     0.016 C 
ENDROOT
BRANCH   1   3
ATOM      3  C   UNL     1       2.124   4.711  30.464  1.00  0.00     0.135 C 
ATOM      4  O   UNL     1       1.815   5.677  31.147  1.00  0.00    -0.299 OA
BRANCH   3   5
ATOM      5  C   UNL     1       2.422   3.399  31.142  1.00  0.00     0.072 C 
ATOM      6  C   UNL     1       3.837   3.395  31.711  1.00  0.00     0.012 C 
ENDBRANCH   3   5
ENDBRANCH   1   3
BRANCH   1   7
ATOM      7  C   UNL     1       2.690   3.528  28.333  1.00  0.00     0.038 C 
BRANCH   7   8
ATOM      8  C   UNL     1       4.122   3.611  27.872  1.00  0.00    -0.034 C 
ATOM      9  C   UNL     1       4.525   3.065  26.721  1.00  0.00     0.004 C 
ENDBRANCH   7   8
ENDBRANCH   1   7
TORSDOF 4
ENDMDL
MODEL 7
REMARK VINA RESULT:    -3.566     17.344     18.713
REMARK INTER + INTRA:          -4.629
REMARK INTER:                  -4.350
REMARK INTRA:                  -0.279
REMARK UNBOUND:                -0.229
REMARK SMILES C=CC[C@H](C)C(=O)CC
REMARK SMILES IDX 4 1 5 2 6 3 7 4 8 5 9 6 3 7 2 8 1 9
REMARK H PARENT
REMARK Flexibility Score: inf
ROOT
ATOM      1  C   UNL     1      -8.902  -4.482  19.428  1.00  0.00     0.057 C 
ATOM      2  C   UNL     1      -9.537  -3.087  19.349  1.00  0.00     0.016 C 
ENDROOT
BRANCH   1   3
ATOM      3  C   UNL     1      -9.779  -5.490  18.717  1.00  0.00     0.135 C 
ATOM      4  O   UNL     1     -10.943  -5.631  19.065  1.00  0.00    -0.299 OA
BRANCH   3   5
ATOM      5  C   UNL     1      -9.246  -6.323  17.581  1.00  0.00     0.072 C 
ATOM      6  C   UNL     1      -8.081  -7.190  18.048  1.00  0.00     0.012 C 
ENDBRANCH   3   5
ENDBRANCH   1   3
BRANCH   1   7
ATOM      7  C   UNL     1      -8.674  -4.923  20.890  1.00  0.00     0.038 C 
BRANCH   7   8
ATOM      8  C   UNL     1      -9.537  -4.160  21.860  1.00  0.00    -0.034 C 
ATOM      9  C   UNL     1     -10.459  -4.768  22.612  1.00  0.00     0.004 C 
ENDBRANCH   7   8
ENDBRANCH   1   7
TORSDOF 4
ENDMDL
MODEL 8
REMARK VINA RESULT:    -3.532     17.210     18.281
REMARK INTER + INTRA:          -4.588
REMARK INTER:                  -4.365
REMARK INTRA:                  -0.223
REMARK UNBOUND:                -0.229
REMARK SMILES C=CC[C@H](C)C(=O)CC
REMARK SMILES IDX 4 1 5 2 6 3 7 4 8 5 9 6 3 7 2 8 1 9
REMARK H PARENT
REMARK Flexibility Score: inf
ROOT
ATOM      1  C   UNL     1      -9.592  -5.276  19.608  1.00  0.00     0.057 C 
ATOM      2  C   UNL     1     -10.799  -5.272  18.660  1.00  0.00     0.016 C 
ENDROOT
BRANCH   1   3
ATOM      3  C   UNL     1      -9.473  -3.933  20.297  1.00  0.00     0.135 C 
ATOM      4  O   UNL     1      -9.514  -2.906  19.635  1.00  0.00    -0.299 OA
BRANCH   3   5
ATOM      5  C   UNL     1      -9.307  -3.836  21.792  1.00  0.00     0.072 C 
ATOM      6  C   UNL     1     -10.315  -4.731  22.505  1.00  0.00     0.012 C 
ENDBRANCH   3   5
ENDBRANCH   1   3
BRANCH   1   7
ATOM      7  C   UNL     1      -8.281  -5.600  18.861  1.00  0.00     0.038 C 
BRANCH   7   8
ATOM      8  C   UNL     1      -8.443  -6.733  17.882  1.00  0.00    -0.034 C 
ATOM      9  C   UNL     1      -7.790  -7.889  18.028  1.00  0.00     0.004 C 
ENDBRANCH   7   8
ENDBRANCH   1   7
TORSDOF 4
ENDMDL
MODEL 9
REMARK VINA RESULT:    -3.529      1.728      2.620
REMARK INTER + INTRA:          -4.584
REMARK INTER:                  -4.161
REMARK INTRA:                  -0.423
REMARK UNBOUND:                -0.229
REMARK SMILES C=CC[C@H](C)C(=O)CC
REMARK SMILES IDX 4 1 5 2 6 3 7 4 8 5 9 6 3 7 2 8 1 9
REMARK H PARENT
REMARK Flexibility Score: inf
ROOT
ATOM      1  C   UNL     1       2.218   4.202  28.970  1.00  0.00     0.057 C 
ATOM      2  C   UNL     1       3.500   3.833  28.211  1.00  0.00     0.016 C 
ENDROOT
BRANCH   1   3
ATOM      3  C   UNL     1       1.984   5.696  28.893  1.00  0.00     0.135 C 
ATOM      4  O   UNL     1       2.900   6.436  28.560  1.00  0.00    -0.299 OA
BRANCH   3   5
ATOM      5  C   UNL     1       0.639   6.293  29.214  1.00  0.00     0.072 C 
ATOM      6  C   UNL     1       0.699   7.089  30.514  1.00  0.00     0.012 C 
ENDBRANCH   3   5
ENDBRANCH   1   3
BRANCH   1   7
ATOM      7  C   UNL     1       2.280   3.757  30.447  1.00  0.00     0.038 C 
BRANCH   7   8
ATOM      8  C   UNL     1       3.655   3.925  31.039  1.00  0.00    -0.034 C 
ATOM      9  C   UNL     1       3.940   4.914  31.890  1.00  0.00     0.004 C 
ENDBRANCH   7   8
ENDBRANCH   1   7
TORSDOF 4
ENDMDL
