MODEL 1
REMARK VINA RESULT:    -3.622      0.000      0.000
REMARK INTER + INTRA:         -13.983
REMARK INTER:                  -9.552
REMARK INTRA:                  -4.431
REMARK UNBOUND:                -4.431
REMARK SMILES CCCCCCCCCCCCCCCCCCCCCCCCCCCCCC(=O)[O-]
REMARK SMILES IDX 16 1 17 2 18 3 19 4 20 5 21 6 22 7 23 8 24 9 25 10 26 11
REMARK SMILES IDX 27 12 28 13 29 14 30 15 31 16 32 17 15 18 14 19 13 20 12 21
REMARK SMILES IDX 11 22 10 23 9 24 8 25 7 26 6 27 5 28 4 29 3 30 2 31 1 32
REMARK H PARENT
REMARK Flexibility Score: inf
ROOT
ATOM      1  C   UNL     1      -4.362  -0.842  -2.387  1.00  0.00     0.000 C 
ENDROOT
BRANCH   1   2
ATOM      2  C   UNL     1      -3.952  -0.470  -3.822  1.00  0.00     0.000 C 
BRANCH   2   3
ATOM      3  C   UNL     1      -2.647  -1.153  -4.267  1.00  0.00     0.000 C 
BRANCH   3   4
ATOM      4  C   UNL     1      -2.856  -2.235  -5.348  1.00  0.00     0.000 C 
BRANCH   4   5
ATOM      5  C   UNL     1      -2.596  -3.651  -4.810  1.00  0.00     0.000 C 
BRANCH   5   6
ATOM      6  C   UNL     1      -1.990  -3.598  -3.401  1.00  0.00     0.000 C 
BRANCH   6   7
ATOM      7  C   UNL     1      -0.567  -4.178  -3.337  1.00  0.00     0.000 C 
BRANCH   7   8
ATOM      8  C   UNL     1       0.569  -3.136  -3.403  1.00  0.00     0.000 C 
BRANCH   8   9
ATOM      9  C   UNL     1       1.332  -3.081  -4.741  1.00  0.00     0.000 C 
BRANCH   9  10
ATOM     10  C   UNL     1       0.779  -2.070  -5.764  1.00  0.00     0.000 C 
BRANCH  10  11
ATOM     11  C   UNL     1       1.854  -1.478  -6.700  1.00  0.00     0.000 C 
BRANCH  11  12
ATOM     12  C   UNL     1       3.282  -1.652  -6.150  1.00  0.00     0.000 C 
BRANCH  12  13
ATOM     13  C   UNL     1       4.364  -1.100  -7.096  1.00  0.00     0.006 C 
BRANCH  13  14
ATOM     14  C   UNL     1       4.236   0.408  -7.378  1.00  0.00     0.053 C 
BRANCH  14  15
ATOM     15  C   UNL     1       5.154   1.236  -6.532  1.00  0.00     0.041 C 
ATOM     16  O   UNL     1       4.815   1.572  -5.367  1.00  0.00    -0.550 OA
ATOM     17  O   UNL     1       6.375   1.662  -7.042  1.00  0.00    -0.550 OA
ENDBRANCH  14  15
ENDBRANCH  13  14
ENDBRANCH  12  13
ENDBRANCH  11  12
ENDBRANCH  10  11
ENDBRANCH   9  10
ENDBRANCH   8   9
ENDBRANCH   7   8
ENDBRANCH   6   7
ENDBRANCH   5   6
ENDBRANCH   4   5
ENDBRANCH   3   4
ENDBRANCH   2   3
ENDBRANCH   1   2
BRANCH   1  18
ATOM     18  C   UNL     1      -5.653  -1.687  -2.350  1.00  0.00     0.000 C 
BRANCH  18  19
ATOM     19  C   UNL     1      -6.370  -1.781  -3.708  1.00  0.00     0.000 C 
BRANCH  19  20
ATOM     20  C   UNL     1      -6.654  -3.226  -4.135  1.00  0.00     0.000 C 
BRANCH  20  21
ATOM     21  C   UNL     1      -7.777  -3.841  -3.289  1.00  0.00     0.000 C 
BRANCH  21  22
ATOM     22  C   UNL     1      -8.633  -4.849  -4.076  1.00  0.00     0.000 C 
BRANCH  22  23
ATOM     23  C   UNL     1      -9.870  -5.347  -3.299  1.00  0.00     0.000 C 
BRANCH  23  24
ATOM     24  C   UNL     1      -9.744  -6.828  -2.895  1.00  0.00    -0.000 C 
BRANCH  24  25
ATOM     25  C   UNL     1      -8.903  -7.026  -1.624  1.00  0.00    -0.000 C 
BRANCH  25  26
ATOM     26  C   UNL     1      -7.650  -7.880  -1.871  1.00  0.00    -0.000 C 
BRANCH  26  27
ATOM     27  C   UNL     1      -7.688  -8.521  -3.266  1.00  0.00    -0.000 C 
BRANCH  27  28
ATOM     28  C   UNL     1      -6.429  -8.221  -4.096  1.00  0.00    -0.000 C 
BRANCH  28  29
ATOM     29  C   UNL     1      -5.784  -6.872  -3.733  1.00  0.00    -0.000 C 
BRANCH  29  30
ATOM     30  C   UNL     1      -4.337  -7.024  -3.237  1.00  0.00    -0.000 C 
BRANCH  30  31
ATOM     31  C   UNL     1      -4.163  -6.572  -1.780  1.00  0.00    -0.003 C 
ATOM     32  C   UNL     1      -4.711  -5.163  -1.575  1.00  0.00     0.004 C 
ENDBRANCH  30  31
ENDBRANCH  29  30
ENDBRANCH  28  29
ENDBRANCH  27  28
ENDBRANCH  26  27
ENDBRANCH  25  26
ENDBRANCH  24  25
ENDBRANCH  23  24
ENDBRANCH  22  23
ENDBRANCH  21  22
ENDBRANCH  20  21
ENDBRANCH  19  20
ENDBRANCH  18  19
ENDBRANCH   1  18
TORSDOF 28
ENDMDL
MODEL 2
REMARK VINA RESULT:    -3.605      5.328      9.964
REMARK INTER + INTRA:         -13.938
REMARK INTER:                  -8.754
REMARK INTRA:                  -5.184
REMARK UNBOUND:                -4.431
REMARK SMILES CCCCCCCCCCCCCCCCCCCCCCCCCCCCCC(=O)[O-]
REMARK SMILES IDX 16 1 17 2 18 3 19 4 20 5 21 6 22 7 23 8 24 9 25 10 26 11
REMARK SMILES IDX 27 12 28 13 29 14 30 15 31 16 32 17 15 18 14 19 13 20 12 21
REMARK SMILES IDX 11 22 10 23 9 24 8 25 7 26 6 27 5 28 4 29 3 30 2 31 1 32
REMARK H PARENT
REMARK Flexibility Score: inf
ROOT
ATOM      1  C   UNL     1      -4.384  -4.513  -3.409  1.00  0.00     0.000 C 
ENDROOT
BRANCH   1   2
ATOM      2  C   UNL     1      -4.402  -5.619  -2.341  1.00  0.00     0.000 C 
BRANCH   2   3
ATOM      3  C   UNL     1      -4.321  -7.033  -2.943  1.00  0.00     0.000 C 
BRANCH   3   4
ATOM      4  C   UNL     1      -5.399  -7.310  -4.014  1.00  0.00     0.000 C 
BRANCH   4   5
ATOM      5  C   UNL     1      -6.470  -8.294  -3.520  1.00  0.00     0.000 C 
BRANCH   5   6
ATOM      6  C   UNL     1      -7.129  -9.022  -4.701  1.00  0.00     0.000 C 
BRANCH   6   7
ATOM      7  C   UNL     1      -8.639  -8.746  -4.808  1.00  0.00     0.000 C 
BRANCH   7   8
ATOM      8  C   UNL     1      -9.155  -7.580  -3.940  1.00  0.00     0.000 C 
BRANCH   8   9
ATOM      9  C   UNL     1      -9.960  -6.506  -4.697  1.00  0.00     0.000 C 
BRANCH   9  10
ATOM     10  C   UNL     1      -9.392  -5.077  -4.597  1.00  0.00     0.000 C 
BRANCH  10  11
ATOM     11  C   UNL     1      -8.168  -4.956  -3.663  1.00  0.00     0.000 C 
BRANCH  11  12
ATOM     12  C   UNL     1      -8.340  -3.857  -2.599  1.00  0.00     0.000 C 
BRANCH  12  13
ATOM     13  C   UNL     1      -7.989  -4.333  -1.178  1.00  0.00     0.006 C 
BRANCH  13  14
ATOM     14  C   UNL     1      -7.668  -5.836  -1.085  1.00  0.00     0.053 C 
BRANCH  14  15
ATOM     15  C   UNL     1      -8.689  -6.598  -0.297  1.00  0.00     0.041 C 
ATOM     16  O   UNL     1      -8.782  -7.848  -0.419  1.00  0.00    -0.550 OA
ATOM     17  O   UNL     1      -9.559  -5.924   0.552  1.00  0.00    -0.550 OA
ENDBRANCH  14  15
ENDBRANCH  13  14
ENDBRANCH  12  13
ENDBRANCH  11  12
ENDBRANCH  10  11
ENDBRANCH   9  10
ENDBRANCH   8   9
ENDBRANCH   7   8
ENDBRANCH   6   7
ENDBRANCH   5   6
ENDBRANCH   4   5
ENDBRANCH   3   4
ENDBRANCH   2   3
ENDBRANCH   1   2
BRANCH   1  18
ATOM     18  C   UNL     1      -3.003  -3.833  -3.522  1.00  0.00     0.000 C 
BRANCH  18  19
ATOM     19  C   UNL     1      -2.574  -3.540  -4.970  1.00  0.00     0.000 C 
BRANCH  19  20
ATOM     20  C   UNL     1      -2.440  -2.040  -5.261  1.00  0.00     0.000 C 
BRANCH  20  21
ATOM     21  C   UNL     1      -1.465  -1.373  -4.281  1.00  0.00     0.000 C 
BRANCH  21  22
ATOM     22  C   UNL     1      -2.044  -0.102  -3.635  1.00  0.00     0.000 C 
BRANCH  22  23
ATOM     23  C   UNL     1      -3.186  -0.383  -2.636  1.00  0.00     0.000 C 
BRANCH  23  24
ATOM     24  C   UNL     1      -4.534   0.181  -3.121  1.00  0.00    -0.000 C 
BRANCH  24  25
ATOM     25  C   UNL     1      -5.659  -0.866  -3.094  1.00  0.00    -0.000 C 
BRANCH  25  26
ATOM     26  C   UNL     1      -6.524  -0.838  -4.363  1.00  0.00    -0.000 C 
BRANCH  26  27
ATOM     27  C   UNL     1      -6.063  -1.905  -5.366  1.00  0.00    -0.000 C 
BRANCH  27  28
ATOM     28  C   UNL     1      -5.668  -1.313  -6.729  1.00  0.00    -0.000 C 
BRANCH  28  29
ATOM     29  C   UNL     1      -6.648  -0.229  -7.214  1.00  0.00    -0.000 C 
BRANCH  29  30
ATOM     30  C   UNL     1      -5.930   0.990  -7.813  1.00  0.00    -0.000 C 
BRANCH  30  31
ATOM     31  C   UNL     1      -6.196   2.278  -7.020  1.00  0.00    -0.003 C 
ATOM     32  C   UNL     1      -5.175   2.454  -5.900  1.00  0.00     0.004 C 
ENDBRANCH  30  31
ENDBRANCH  29  30
ENDBRANCH  28  29
ENDBRANCH  27  28
ENDBRANCH  26  27
ENDBRANCH  25  26
ENDBRANCH  24  25
ENDBRANCH  23  24
ENDBRANCH  22  23
ENDBRANCH  21  22
ENDBRANCH  20  21
ENDBRANCH  19  20
ENDBRANCH  18  19
ENDBRANCH   1  18
TORSDOF 28
ENDMDL
MODEL 3
REMARK VINA RESULT:    -3.554      3.979      6.403
REMARK INTER + INTRA:         -13.803
REMARK INTER:                  -8.426
REMARK INTRA:                  -5.377
REMARK UNBOUND:                -4.431
REMARK SMILES CCCCCCCCCCCCCCCCCCCCCCCCCCCCCC(=O)[O-]
REMARK SMILES IDX 16 1 17 2 18 3 19 4 20 5 21 6 22 7 23 8 24 9 25 10 26 11
REMARK SMILES IDX 27 12 28 13 29 14 30 15 31 16 32 17 15 18 14 19 13 20 12 21
REMARK SMILES IDX 11 22 10 23 9 24 8 25 7 26 6 27 5 28 4 29 3 30 2 31 1 32
REMARK H PARENT
REMARK Flexibility Score: inf
ROOT
ATOM      1  C   UNL     1      -3.336  -4.861  -3.029  1.00  0.00     0.000 C 
ENDROOT
BRANCH   1   2
ATOM      2  C   UNL     1      -3.167  -4.398  -4.486  1.00  0.00     0.000 C 
BRANCH   2   3
ATOM      3  C   UNL     1      -2.290  -3.141  -4.617  1.00  0.00     0.000 C 
BRANCH   3   4
ATOM      4  C   UNL     1      -3.005  -1.958  -5.303  1.00  0.00     0.000 C 
BRANCH   4   5
ATOM      5  C   UNL     1      -4.518  -1.957  -5.033  1.00  0.00     0.000 C 
BRANCH   5   6
ATOM      6  C   UNL     1      -5.301  -1.636  -6.314  1.00  0.00     0.000 C 
BRANCH   6   7
ATOM      7  C   UNL     1      -6.665  -0.979  -6.034  1.00  0.00     0.000 C 
BRANCH   7   8
ATOM      8  C   UNL     1      -7.194  -0.065  -7.158  1.00  0.00     0.000 C 
BRANCH   8   9
ATOM      9  C   UNL     1      -6.109   0.585  -8.040  1.00  0.00     0.000 C 
BRANCH   9  10
ATOM     10  C   UNL     1      -6.172   2.123  -8.119  1.00  0.00     0.000 C 
BRANCH  10  11
ATOM     11  C   UNL     1      -5.157   2.837  -7.201  1.00  0.00     0.000 C 
BRANCH  11  12
ATOM     12  C   UNL     1      -5.567   2.797  -5.718  1.00  0.00     0.000 C 
BRANCH  12  13
ATOM     13  C   UNL     1      -4.618   1.949  -4.852  1.00  0.00     0.006 C 
BRANCH  13  14
ATOM     14  C   UNL     1      -5.267   1.401  -3.568  1.00  0.00     0.053 C 
BRANCH  14  15
ATOM     15  C   UNL     1      -4.260   0.922  -2.568  1.00  0.00     0.041 C 
ATOM     16  O   UNL     1      -3.096   0.612  -2.936  1.00  0.00    -0.550 OA
ATOM     17  O   UNL     1      -4.616   0.790  -1.230  1.00  0.00    -0.550 OA
ENDBRANCH  14  15
ENDBRANCH  13  14
ENDBRANCH  12  13
ENDBRANCH  11  12
ENDBRANCH  10  11
ENDBRANCH   9  10
ENDBRANCH   8   9
ENDBRANCH   7   8
ENDBRANCH   6   7
ENDBRANCH   5   6
ENDBRANCH   4   5
ENDBRANCH   3   4
ENDBRANCH   2   3
ENDBRANCH   1   2
BRANCH   1  18
ATOM     18  C   UNL     1      -3.876  -6.304  -2.935  1.00  0.00     0.000 C 
BRANCH  18  19
ATOM     19  C   UNL     1      -4.555  -6.796  -4.225  1.00  0.00     0.000 C 
BRANCH  19  20
ATOM     20  C   UNL     1      -5.758  -7.708  -3.956  1.00  0.00     0.000 C 
BRANCH  20  21
ATOM     21  C   UNL     1      -6.225  -7.590  -2.498  1.00  0.00     0.000 C 
BRANCH  21  22
ATOM     22  C   UNL     1      -7.656  -8.114  -2.286  1.00  0.00     0.000 C 
BRANCH  22  23
ATOM     23  C   UNL     1      -8.537  -7.177  -1.432  1.00  0.00     0.000 C 
BRANCH  23  24
ATOM     24  C   UNL     1      -9.705  -6.581  -2.240  1.00  0.00    -0.000 C 
BRANCH  24  25
ATOM     25  C   UNL     1      -9.719  -7.058  -3.701  1.00  0.00    -0.000 C 
BRANCH  25  26
ATOM     26  C   UNL     1      -9.729  -5.894  -4.703  1.00  0.00    -0.000 C 
BRANCH  26  27
ATOM     27  C   UNL     1      -9.813  -4.543  -3.976  1.00  0.00    -0.000 C 
BRANCH  27  28
ATOM     28  C   UNL     1      -8.620  -3.625  -4.283  1.00  0.00    -0.000 C 
BRANCH  28  29
ATOM     29  C   UNL     1      -7.272  -4.240  -3.867  1.00  0.00    -0.000 C 
BRANCH  29  30
ATOM     30  C   UNL     1      -6.875  -3.872  -2.428  1.00  0.00    -0.000 C 
BRANCH  30  31
ATOM     31  C   UNL     1      -7.453  -2.520  -1.986  1.00  0.00    -0.003 C 
ATOM     32  C   UNL     1      -8.447  -2.698  -0.842  1.00  0.00     0.004 C 
ENDBRANCH  30  31
ENDBRANCH  29  30
ENDBRANCH  28  29
ENDBRANCH  27  28
ENDBRANCH  26  27
ENDBRANCH  25  26
ENDBRANCH  24  25
ENDBRANCH  23  24
ENDBRANCH  22  23
ENDBRANCH  21  22
ENDBRANCH  20  21
ENDBRANCH  19  20
ENDBRANCH  18  19
ENDBRANCH   1  18
TORSDOF 28
ENDMDL
MODEL 4
REMARK VINA RESULT:    -3.465      2.328      6.106
REMARK INTER + INTRA:         -13.568
REMARK INTER:                  -8.427
REMARK INTRA:                  -5.141
REMARK UNBOUND:                -4.431
REMARK SMILES CCCCCCCCCCCCCCCCCCCCCCCCCCCCCC(=O)[O-]
REMARK SMILES IDX 16 1 17 2 18 3 19 4 20 5 21 6 22 7 23 8 24 9 25 10 26 11
REMARK SMILES IDX 27 12 28 13 29 14 30 15 31 16 32 17 15 18 14 19 13 20 12 21
REMARK SMILES IDX 11 22 10 23 9 24 8 25 7 26 6 27 5 28 4 29 3 30 2 31 1 32
REMARK H PARENT
REMARK Flexibility Score: inf
ROOT
ATOM      1  C   UNL     1      -7.879  -8.663  -3.359  1.00  0.00     0.000 C 
ENDROOT
BRANCH   1   2
ATOM      2  C   UNL     1      -6.434  -8.554  -3.873  1.00  0.00     0.000 C 
BRANCH   2   3
ATOM      3  C   UNL     1      -5.594  -7.533  -3.087  1.00  0.00     0.000 C 
BRANCH   3   4
ATOM      4  C   UNL     1      -5.105  -6.346  -3.945  1.00  0.00     0.000 C 
BRANCH   4   5
ATOM      5  C   UNL     1      -5.961  -5.087  -3.739  1.00  0.00     0.000 C 
BRANCH   5   6
ATOM      6  C   UNL     1      -6.355  -4.930  -2.263  1.00  0.00     0.000 C 
BRANCH   6   7
ATOM      7  C   UNL     1      -5.744  -3.678  -1.609  1.00  0.00     0.000 C 
BRANCH   7   8
ATOM      8  C   UNL     1      -4.231  -3.761  -1.321  1.00  0.00     0.000 C 
BRANCH   8   9
ATOM      9  C   UNL     1      -3.331  -2.996  -2.311  1.00  0.00     0.000 C 
BRANCH   9  10
ATOM     10  C   UNL     1      -2.307  -3.866  -3.065  1.00  0.00     0.000 C 
BRANCH  10  11
ATOM     11  C   UNL     1      -2.431  -3.785  -4.602  1.00  0.00     0.000 C 
BRANCH  11  12
ATOM     12  C   UNL     1      -2.274  -2.348  -5.134  1.00  0.00     0.000 C 
BRANCH  12  13
ATOM     13  C   UNL     1      -0.913  -1.720  -4.784  1.00  0.00     0.006 C 
BRANCH  13  14
ATOM     14  C   UNL     1       0.296  -2.565  -5.226  1.00  0.00     0.053 C 
BRANCH  14  15
ATOM     15  C   UNL     1       1.560  -1.768  -5.312  1.00  0.00     0.041 C 
ATOM     16  O   UNL     1       2.192  -1.464  -4.266  1.00  0.00    -0.550 OA
ATOM     17  O   UNL     1       2.027  -1.333  -6.547  1.00  0.00    -0.550 OA
ENDBRANCH  14  15
ENDBRANCH  13  14
ENDBRANCH  12  13
ENDBRANCH  11  12
ENDBRANCH  10  11
ENDBRANCH   9  10
ENDBRANCH   8   9
ENDBRANCH   7   8
ENDBRANCH   6   7
ENDBRANCH   5   6
ENDBRANCH   4   5
ENDBRANCH   3   4
ENDBRANCH   2   3
ENDBRANCH   1   2
BRANCH   1  18
ATOM     18  C   UNL     1      -8.789  -7.559  -3.938  1.00  0.00     0.000 C 
BRANCH  18  19
ATOM     19  C   UNL     1      -9.701  -6.896  -2.890  1.00  0.00     0.000 C 
BRANCH  19  20
ATOM     20  C   UNL     1     -10.021  -5.432  -3.219  1.00  0.00     0.000 C 
BRANCH  20  21
ATOM     21  C   UNL     1      -9.633  -5.094  -4.665  1.00  0.00     0.000 C 
BRANCH  21  22
ATOM     22  C   UNL     1     -10.069  -3.679  -5.084  1.00  0.00     0.000 C 
BRANCH  22  23
ATOM     23  C   UNL     1      -8.980  -2.607  -4.864  1.00  0.00     0.000 C 
BRANCH  23  24
ATOM     24  C   UNL     1      -9.431  -1.214  -5.339  1.00  0.00    -0.000 C 
BRANCH  24  25
ATOM     25  C   UNL     1      -9.007  -0.914  -6.786  1.00  0.00    -0.000 C 
BRANCH  25  26
ATOM     26  C   UNL     1      -8.285   0.434  -6.924  1.00  0.00    -0.000 C 
BRANCH  26  27
ATOM     27  C   UNL     1      -7.011   0.292  -7.770  1.00  0.00    -0.000 C 
BRANCH  27  28
ATOM     28  C   UNL     1      -6.376  -1.104  -7.663  1.00  0.00    -0.000 C 
BRANCH  28  29
ATOM     29  C   UNL     1      -5.257  -1.170  -6.608  1.00  0.00    -0.000 C 
BRANCH  29  30
ATOM     30  C   UNL     1      -5.725  -1.814  -5.293  1.00  0.00    -0.000 C 
BRANCH  30  31
ATOM     31  C   UNL     1      -5.661  -0.841  -4.107  1.00  0.00    -0.003 C 
ATOM     32  C   UNL     1      -5.069   0.500  -4.529  1.00  0.00     0.004 C 
ENDBRANCH  30  31
ENDBRANCH  29  30
ENDBRANCH  28  29
ENDBRANCH  27  28
ENDBRANCH  26  27
ENDBRANCH  25  26
ENDBRANCH  24  25
ENDBRANCH  23  24
ENDBRANCH  22  23
ENDBRANCH  21  22
ENDBRANCH  20  21
ENDBRANCH  19  20
ENDBRANCH  18  19
ENDBRANCH   1  18
TORSDOF 28
ENDMDL
MODEL 5
REMARK VINA RESULT:    -3.430     11.573     14.693
REMARK INTER + INTRA:         -13.476
REMARK INTER:                  -8.596
REMARK INTRA:                  -4.880
REMARK UNBOUND:                -4.431
REMARK SMILES CCCCCCCCCCCCCCCCCCCCCCCCCCCCCC(=O)[O-]
REMARK SMILES IDX 16 1 17 2 18 3 19 4 20 5 21 6 22 7 23 8 24 9 25 10 26 11
REMARK SMILES IDX 27 12 28 13 29 14 30 15 31 16 32 17 15 18 14 19 13 20 12 21
REMARK SMILES IDX 11 22 10 23 9 24 8 25 7 26 6 27 5 28 4 29 3 30 2 31 1 32
REMARK H PARENT
REMARK Flexibility Score: inf
ROOT
ATOM      1  C   UNL     1      -0.609   9.756   5.517  1.00  0.00     0.000 C 
ENDROOT
BRANCH   1   2
ATOM      2  C   UNL     1       0.791  10.125   6.039  1.00  0.00     0.000 C 
BRANCH   2   3
ATOM      3  C   UNL     1       1.875  10.044   4.951  1.00  0.00     0.000 C 
BRANCH   3   4
ATOM      4  C   UNL     1       2.940   8.960   5.221  1.00  0.00     0.000 C 
BRANCH   4   5
ATOM      5  C   UNL     1       2.643   8.158   6.498  1.00  0.00     0.000 C 
BRANCH   5   6
ATOM      6  C   UNL     1       2.489   6.664   6.181  1.00  0.00     0.000 C 
BRANCH   6   7
ATOM      7  C   UNL     1       2.274   6.387   4.682  1.00  0.00     0.000 C 
BRANCH   7   8
ATOM      8  C   UNL     1       0.865   5.884   4.304  1.00  0.00     0.000 C 
BRANCH   8   9
ATOM      9  C   UNL     1       0.725   4.354   4.186  1.00  0.00     0.000 C 
BRANCH   9  10
ATOM     10  C   UNL     1       2.021   3.561   4.444  1.00  0.00     0.000 C 
BRANCH  10  11
ATOM     11  C   UNL     1       1.918   2.561   5.615  1.00  0.00     0.000 C 
BRANCH  11  12
ATOM     12  C   UNL     1       1.228   3.164   6.852  1.00  0.00     0.000 C 
BRANCH  12  13
ATOM     13  C   UNL     1      -0.038   2.395   7.271  1.00  0.00     0.006 C 
BRANCH  13  14
ATOM     14  C   UNL     1      -0.504   1.351   6.240  1.00  0.00     0.053 C 
BRANCH  14  15
ATOM     15  C   UNL     1      -1.959   1.472   5.908  1.00  0.00     0.041 C 
ATOM     16  O   UNL     1      -2.322   1.977   4.813  1.00  0.00    -0.550 OA
ATOM     17  O   UNL     1      -2.919   1.053   6.823  1.00  0.00    -0.550 OA
ENDBRANCH  14  15
ENDBRANCH  13  14
ENDBRANCH  12  13
ENDBRANCH  11  12
ENDBRANCH  10  11
ENDBRANCH   9  10
ENDBRANCH   8   9
ENDBRANCH   7   8
ENDBRANCH   6   7
ENDBRANCH   5   6
ENDBRANCH   4   5
ENDBRANCH   3   4
ENDBRANCH   2   3
ENDBRANCH   1   2
BRANCH   1  18
ATOM     18  C   UNL     1      -0.561   9.152   4.098  1.00  0.00     0.000 C 
BRANCH  18  19
ATOM     19  C   UNL     1      -1.949   8.832   3.515  1.00  0.00     0.000 C 
BRANCH  19  20
ATOM     20  C   UNL     1      -3.051   8.798   4.581  1.00  0.00     0.000 C 
BRANCH  20  21
ATOM     21  C   UNL     1      -4.115   9.871   4.308  1.00  0.00     0.000 C 
BRANCH  21  22
ATOM     22  C   UNL     1      -4.823   9.679   2.956  1.00  0.00     0.000 C 
BRANCH  22  23
ATOM     23  C   UNL     1      -5.386   8.256   2.751  1.00  0.00     0.000 C 
BRANCH  23  24
ATOM     24  C   UNL     1      -4.984   7.663   1.387  1.00  0.00    -0.000 C 
BRANCH  24  25
ATOM     25  C   UNL     1      -4.717   6.151   1.455  1.00  0.00    -0.000 C 
BRANCH  25  26
ATOM     26  C   UNL     1      -4.144   5.711   2.810  1.00  0.00    -0.000 C 
BRANCH  26  27
ATOM     27  C   UNL     1      -2.722   5.153   2.650  1.00  0.00    -0.000 C 
BRANCH  27  28
ATOM     28  C   UNL     1      -2.124   5.432   1.262  1.00  0.00    -0.000 C 
BRANCH  28  29
ATOM     29  C   UNL     1      -0.839   6.277   1.326  1.00  0.00    -0.000 C 
BRANCH  29  30
ATOM     30  C   UNL     1      -0.431   6.835  -0.047  1.00  0.00    -0.000 C 
BRANCH  30  31
ATOM     31  C   UNL     1      -0.241   8.359  -0.030  1.00  0.00    -0.003 C 
ATOM     32  C   UNL     1      -1.585   9.079  -0.091  1.00  0.00     0.004 C 
ENDBRANCH  30  31
ENDBRANCH  29  30
ENDBRANCH  28  29
ENDBRANCH  27  28
ENDBRANCH  26  27
ENDBRANCH  25  26
ENDBRANCH  24  25
ENDBRANCH  23  24
ENDBRANCH  22  23
ENDBRANCH  21  22
ENDBRANCH  20  21
ENDBRANCH  19  20
ENDBRANCH  18  19
ENDBRANCH   1  18
TORSDOF 28
ENDMDL
MODEL 6
REMARK VINA RESULT:    -3.391      2.260      4.726
REMARK INTER + INTRA:         -13.374
REMARK INTER:                  -7.917
REMARK INTRA:                  -5.457
REMARK UNBOUND:                -4.431
REMARK SMILES CCCCCCCCCCCCCCCCCCCCCCCCCCCCCC(=O)[O-]
REMARK SMILES IDX 16 1 17 2 18 3 19 4 20 5 21 6 22 7 23 8 24 9 25 10 26 11
REMARK SMILES IDX 27 12 28 13 29 14 30 15 31 16 32 17 15 18 14 19 13 20 12 21
REMARK SMILES IDX 11 22 10 23 9 24 8 25 7 26 6 27 5 28 4 29 3 30 2 31 1 32
REMARK H PARENT
REMARK Flexibility Score: inf
ROOT
ATOM      1  C   UNL     1      -4.093  -5.870  -3.172  1.00  0.00     0.000 C 
ENDROOT
BRANCH   1   2
ATOM      2  C   UNL     1      -5.142  -4.766  -2.962  1.00  0.00     0.000 C 
BRANCH   2   3
ATOM      3  C   UNL     1      -5.359  -4.421  -1.478  1.00  0.00     0.000 C 
BRANCH   3   4
ATOM      4  C   UNL     1      -4.045  -4.192  -0.700  1.00  0.00     0.000 C 
BRANCH   4   5
ATOM      5  C   UNL     1      -3.123  -3.183  -1.400  1.00  0.00     0.000 C 
BRANCH   5   6
ATOM      6  C   UNL     1      -3.185  -1.814  -0.708  1.00  0.00     0.000 C 
BRANCH   6   7
ATOM      7  C   UNL     1      -3.592  -0.677  -1.661  1.00  0.00     0.000 C 
BRANCH   7   8
ATOM      8  C   UNL     1      -4.554  -1.086  -2.795  1.00  0.00     0.000 C 
BRANCH   8   9
ATOM      9  C   UNL     1      -4.294  -0.407  -4.154  1.00  0.00     0.000 C 
BRANCH   9  10
ATOM     10  C   UNL     1      -3.168  -1.042  -4.992  1.00  0.00     0.000 C 
BRANCH  10  11
ATOM     11  C   UNL     1      -3.306  -2.569  -5.168  1.00  0.00     0.000 C 
BRANCH  11  12
ATOM     12  C   UNL     1      -2.000  -3.323  -4.857  1.00  0.00     0.000 C 
BRANCH  12  13
ATOM     13  C   UNL     1      -0.800  -2.384  -4.634  1.00  0.00     0.006 C 
BRANCH  13  14
ATOM     14  C   UNL     1       0.544  -3.117  -4.476  1.00  0.00     0.053 C 
BRANCH  14  15
ATOM     15  C   UNL     1       1.693  -2.355  -5.063  1.00  0.00     0.041 C 
ATOM     16  O   UNL     1       2.863  -2.541  -4.638  1.00  0.00    -0.550 OA
ATOM     17  O   UNL     1       1.466  -1.415  -6.062  1.00  0.00    -0.550 OA
ENDBRANCH  14  15
ENDBRANCH  13  14
ENDBRANCH  12  13
ENDBRANCH  11  12
ENDBRANCH  10  11
ENDBRANCH   9  10
ENDBRANCH   8   9
ENDBRANCH   7   8
ENDBRANCH   6   7
ENDBRANCH   5   6
ENDBRANCH   4   5
ENDBRANCH   3   4
ENDBRANCH   2   3
ENDBRANCH   1   2
BRANCH   1  18
ATOM     18  C   UNL     1      -4.637  -7.039  -4.020  1.00  0.00     0.000 C 
BRANCH  18  19
ATOM     19  C   UNL     1      -6.095  -7.413  -3.695  1.00  0.00     0.000 C 
BRANCH  19  20
ATOM     20  C   UNL     1      -6.343  -8.926  -3.722  1.00  0.00     0.000 C 
BRANCH  20  21
ATOM     21  C   UNL     1      -7.844  -9.238  -3.785  1.00  0.00     0.000 C 
BRANCH  21  22
ATOM     22  C   UNL     1      -8.409  -9.164  -5.215  1.00  0.00     0.000 C 
BRANCH  22  23
ATOM     23  C   UNL     1      -9.310  -7.935  -5.459  1.00  0.00     0.000 C 
BRANCH  23  24
ATOM     24  C   UNL     1      -9.700  -7.230  -4.147  1.00  0.00    -0.000 C 
BRANCH  24  25
ATOM     25  C   UNL     1      -9.257  -5.758  -4.112  1.00  0.00    -0.000 C 
BRANCH  25  26
ATOM     26  C   UNL     1      -8.982  -5.257  -2.686  1.00  0.00    -0.000 C 
BRANCH  26  27
ATOM     27  C   UNL     1      -9.362  -6.322  -1.647  1.00  0.00    -0.000 C 
BRANCH  27  28
ATOM     28  C   UNL     1      -8.190  -6.701  -0.726  1.00  0.00    -0.000 C 
BRANCH  28  29
ATOM     29  C   UNL     1      -8.257  -8.162  -0.248  1.00  0.00    -0.000 C 
BRANCH  29  30
ATOM     30  C   UNL     1      -6.937  -8.639   0.378  1.00  0.00    -0.000 C 
BRANCH  30  31
ATOM     31  C   UNL     1      -5.764  -7.697   0.066  1.00  0.00    -0.003 C 
ATOM     32  C   UNL     1      -4.552  -8.478  -0.431  1.00  0.00     0.004 C 
ENDBRANCH  30  31
ENDBRANCH  29  30
ENDBRANCH  28  29
ENDBRANCH  27  28
ENDBRANCH  26  27
ENDBRANCH  25  26
ENDBRANCH  24  25
ENDBRANCH  23  24
ENDBRANCH  22  23
ENDBRANCH  21  22
ENDBRANCH  20  21
ENDBRANCH  19  20
ENDBRANCH  18  19
ENDBRANCH   1  18
TORSDOF 28
ENDMDL
MODEL 7
REMARK VINA RESULT:    -3.369      4.663      7.594
REMARK INTER + INTRA:         -13.315
REMARK INTER:                  -7.367
REMARK INTRA:                  -5.948
REMARK UNBOUND:                -4.431
REMARK SMILES CCCCCCCCCCCCCCCCCCCCCCCCCCCCCC(=O)[O-]
REMARK SMILES IDX 16 1 17 2 18 3 19 4 20 5 21 6 22 7 23 8 24 9 25 10 26 11
REMARK SMILES IDX 27 12 28 13 29 14 30 15 31 16 32 17 15 18 14 19 13 20 12 21
REMARK SMILES IDX 11 22 10 23 9 24 8 25 7 26 6 27 5 28 4 29 3 30 2 31 1 32
REMARK H PARENT
REMARK Flexibility Score: inf
ROOT
ATOM      1  C   UNL     1      -2.058  -5.005  -2.113  1.00  0.00     0.000 C 
ENDROOT
BRANCH   1   2
ATOM      2  C   UNL     1      -0.710  -4.817  -2.829  1.00  0.00     0.000 C 
BRANCH   2   3
ATOM      3  C   UNL     1       0.003  -3.513  -2.429  1.00  0.00     0.000 C 
BRANCH   3   4
ATOM      4  C   UNL     1      -0.333  -2.320  -3.349  1.00  0.00     0.000 C 
BRANCH   4   5
ATOM      5  C   UNL     1      -0.492  -2.744  -4.817  1.00  0.00     0.000 C 
BRANCH   5   6
ATOM      6  C   UNL     1      -1.754  -2.122  -5.432  1.00  0.00     0.000 C 
BRANCH   6   7
ATOM      7  C   UNL     1      -2.689  -1.499  -4.381  1.00  0.00     0.000 C 
BRANCH   7   8
ATOM      8  C   UNL     1      -4.196  -1.721  -4.630  1.00  0.00     0.000 C 
BRANCH   8   9
ATOM      9  C   UNL     1      -4.719  -3.126  -4.276  1.00  0.00     0.000 C 
BRANCH   9  10
ATOM     10  C   UNL     1      -5.756  -3.165  -3.137  1.00  0.00     0.000 C 
BRANCH  10  11
ATOM     11  C   UNL     1      -5.137  -3.070  -1.726  1.00  0.00     0.000 C 
BRANCH  11  12
ATOM     12  C   UNL     1      -5.786  -4.044  -0.726  1.00  0.00     0.000 C 
BRANCH  12  13
ATOM     13  C   UNL     1      -6.483  -3.330   0.446  1.00  0.00     0.006 C 
BRANCH  13  14
ATOM     14  C   UNL     1      -7.248  -2.059   0.036  1.00  0.00     0.053 C 
BRANCH  14  15
ATOM     15  C   UNL     1      -8.616  -2.353  -0.498  1.00  0.00     0.041 C 
ATOM     16  O   UNL     1      -9.414  -3.073   0.158  1.00  0.00    -0.550 OA
ATOM     17  O   UNL     1      -9.001  -1.854  -1.738  1.00  0.00    -0.550 OA
ENDBRANCH  14  15
ENDBRANCH  13  14
ENDBRANCH  12  13
ENDBRANCH  11  12
ENDBRANCH  10  11
ENDBRANCH   9  10
ENDBRANCH   8   9
ENDBRANCH   7   8
ENDBRANCH   6   7
ENDBRANCH   5   6
ENDBRANCH   4   5
ENDBRANCH   3   4
ENDBRANCH   2   3
ENDBRANCH   1   2
BRANCH   1  18
ATOM     18  C   UNL     1      -2.727  -6.348  -2.472  1.00  0.00     0.000 C 
BRANCH  18  19
ATOM     19  C   UNL     1      -3.188  -6.438  -3.938  1.00  0.00     0.000 C 
BRANCH  19  20
ATOM     20  C   UNL     1      -4.685  -6.740  -4.076  1.00  0.00     0.000 C 
BRANCH  20  21
ATOM     21  C   UNL     1      -5.314  -7.048  -2.710  1.00  0.00     0.000 C 
BRANCH  21  22
ATOM     22  C   UNL     1      -5.981  -8.434  -2.660  1.00  0.00     0.000 C 
BRANCH  22  23
ATOM     23  C   UNL     1      -6.526  -8.907  -4.024  1.00  0.00     0.000 C 
BRANCH  23  24
ATOM     24  C   UNL     1      -8.033  -9.217  -3.971  1.00  0.00    -0.000 C 
BRANCH  24  25
ATOM     25  C   UNL     1      -8.861  -8.289  -4.875  1.00  0.00    -0.000 C 
BRANCH  25  26
ATOM     26  C   UNL     1      -9.635  -7.227  -4.081  1.00  0.00    -0.000 C 
BRANCH  26  27
ATOM     27  C   UNL     1      -8.797  -5.951  -3.908  1.00  0.00    -0.000 C 
BRANCH  27  28
ATOM     28  C   UNL     1      -8.655  -5.525  -2.438  1.00  0.00    -0.000 C 
BRANCH  28  29
ATOM     29  C   UNL     1      -9.152  -6.600  -1.455  1.00  0.00    -0.000 C 
BRANCH  29  30
ATOM     30  C   UNL     1      -8.603  -6.398  -0.034  1.00  0.00    -0.000 C 
BRANCH  30  31
ATOM     31  C   UNL     1      -7.779  -7.598   0.455  1.00  0.00    -0.003 C 
ATOM     32  C   UNL     1      -8.456  -8.915   0.084  1.00  0.00     0.004 C 
ENDBRANCH  30  31
ENDBRANCH  29  30
ENDBRANCH  28  29
ENDBRANCH  27  28
ENDBRANCH  26  27
ENDBRANCH  25  26
ENDBRANCH  24  25
ENDBRANCH  23  24
ENDBRANCH  22  23
ENDBRANCH  21  22
ENDBRANCH  20  21
ENDBRANCH  19  20
ENDBRANCH  18  19
ENDBRANCH   1  18
TORSDOF 28
ENDMDL
MODEL 8
REMARK VINA RESULT:    -3.368      4.688      8.744
REMARK INTER + INTRA:         -13.312
REMARK INTER:                  -7.593
REMARK INTRA:                  -5.719
REMARK UNBOUND:                -4.431
REMARK SMILES CCCCCCCCCCCCCCCCCCCCCCCCCCCCCC(=O)[O-]
REMARK SMILES IDX 16 1 17 2 18 3 19 4 20 5 21 6 22 7 23 8 24 9 25 10 26 11
REMARK SMILES IDX 27 12 28 13 29 14 30 15 31 16 32 17 15 18 14 19 13 20 12 21
REMARK SMILES IDX 11 22 10 23 9 24 8 25 7 26 6 27 5 28 4 29 3 30 2 31 1 32
REMARK H PARENT
REMARK Flexibility Score: inf
ROOT
ATOM      1  C   UNL     1      -8.447  -6.342   0.825  1.00  0.00     0.000 C 
ENDROOT
BRANCH   1   2
ATOM      2  C   UNL     1      -8.629  -7.864   0.960  1.00  0.00     0.000 C 
BRANCH   2   3
ATOM      3  C   UNL     1      -8.140  -8.636  -0.277  1.00  0.00     0.000 C 
BRANCH   3   4
ATOM      4  C   UNL     1      -7.801  -7.727  -1.478  1.00  0.00     0.000 C 
BRANCH   4   5
ATOM      5  C   UNL     1      -7.802  -8.496  -2.808  1.00  0.00     0.000 C 
BRANCH   5   6
ATOM      6  C   UNL     1      -8.944  -8.016  -3.715  1.00  0.00     0.000 C 
BRANCH   6   7
ATOM      7  C   UNL     1      -9.655  -6.763  -3.173  1.00  0.00     0.000 C 
BRANCH   7   8
ATOM      8  C   UNL     1      -9.959  -5.676  -4.225  1.00  0.00     0.000 C 
BRANCH   8   9
ATOM      9  C   UNL     1      -8.888  -4.576  -4.358  1.00  0.00     0.000 C 
BRANCH   9  10
ATOM     10  C   UNL     1      -7.518  -4.925  -3.747  1.00  0.00     0.000 C 
BRANCH  10  11
ATOM     11  C   UNL     1      -6.498  -3.767  -3.796  1.00  0.00     0.000 C 
BRANCH  11  12
ATOM     12  C   UNL     1      -5.544  -3.765  -2.588  1.00  0.00     0.000 C 
BRANCH  12  13
ATOM     13  C   UNL     1      -5.307  -5.169  -2.004  1.00  0.00     0.006 C 
BRANCH  13  14
ATOM     14  C   UNL     1      -4.037  -5.859  -2.534  1.00  0.00     0.053 C 
BRANCH  14  15
ATOM     15  C   UNL     1      -4.330  -7.145  -3.245  1.00  0.00     0.041 C 
ATOM     16  O   UNL     1      -4.753  -7.134  -4.430  1.00  0.00    -0.550 OA
ATOM     17  O   UNL     1      -4.163  -8.358  -2.585  1.00  0.00    -0.550 OA
ENDBRANCH  14  15
ENDBRANCH  13  14
ENDBRANCH  12  13
ENDBRANCH  11  12
ENDBRANCH  10  11
ENDBRANCH   9  10
ENDBRANCH   8   9
ENDBRANCH   7   8
ENDBRANCH   6   7
ENDBRANCH   5   6
ENDBRANCH   4   5
ENDBRANCH   3   4
ENDBRANCH   2   3
ENDBRANCH   1   2
BRANCH   1  18
ATOM     18  C   UNL     1      -9.797  -5.598   0.749  1.00  0.00     0.000 C 
BRANCH  18  19
ATOM     19  C   UNL     1      -9.836  -4.496  -0.324  1.00  0.00     0.000 C 
BRANCH  19  20
ATOM     20  C   UNL     1      -8.515  -3.726  -0.438  1.00  0.00     0.000 C 
BRANCH  20  21
ATOM     21  C   UNL     1      -8.764  -2.247  -0.768  1.00  0.00     0.000 C 
BRANCH  21  22
ATOM     22  C   UNL     1      -9.384  -2.044  -2.161  1.00  0.00     0.000 C 
BRANCH  22  23
ATOM     23  C   UNL     1     -10.102  -0.687  -2.325  1.00  0.00     0.000 C 
BRANCH  23  24
ATOM     24  C   UNL     1      -9.563   0.114  -3.525  1.00  0.00    -0.000 C 
BRANCH  24  25
ATOM     25  C   UNL     1      -8.278  -0.491  -4.113  1.00  0.00    -0.000 C 
BRANCH  25  26
ATOM     26  C   UNL     1      -7.072   0.453  -3.996  1.00  0.00    -0.000 C 
BRANCH  26  27
ATOM     27  C   UNL     1      -6.127   0.001  -2.873  1.00  0.00    -0.000 C 
BRANCH  27  28
ATOM     28  C   UNL     1      -4.694  -0.259  -3.368  1.00  0.00    -0.000 C 
BRANCH  28  29
ATOM     29  C   UNL     1      -4.579  -0.225  -4.902  1.00  0.00    -0.000 C 
BRANCH  29  30
ATOM     30  C   UNL     1      -4.219  -1.597  -5.496  1.00  0.00    -0.000 C 
BRANCH  30  31
ATOM     31  C   UNL     1      -2.762  -1.995  -5.217  1.00  0.00    -0.003 C 
ATOM     32  C   UNL     1      -2.641  -3.496  -4.974  1.00  0.00     0.004 C 
ENDBRANCH  30  31
ENDBRANCH  29  30
ENDBRANCH  28  29
ENDBRANCH  27  28
ENDBRANCH  26  27
ENDBRANCH  25  26
ENDBRANCH  24  25
ENDBRANCH  23  24
ENDBRANCH  22  23
ENDBRANCH  21  22
ENDBRANCH  20  21
ENDBRANCH  19  20
ENDBRANCH  18  19
ENDBRANCH   1  18
TORSDOF 28
ENDMDL
