MODEL 1
REMARK VINA RESULT:    -4.552      0.000      0.000
REMARK INTER + INTRA:          -9.799
REMARK INTER:                  -8.278
REMARK INTRA:                  -1.522
REMARK UNBOUND:                -1.522
REMARK SMILES CCCCCC=CCC=CCCCCCCCC(=O)[O-]
REMARK SMILES IDX 11 1 12 2 13 3 14 4 15 5 16 6 17 7 18 8 19 9 20 10 10 11
REMARK SMILES IDX 9 12 8 13 7 14 6 15 5 16 4 17 3 18 2 19 1 20
REMARK H PARENT
REMARK Flexibility Score: inf
ROOT
ATOM      1  C   UNL     1      -2.751  14.305 -17.769  1.00  0.00     0.027 C 
ENDROOT
BRANCH   1   2
ATOM      2  C   UNL     1      -1.727  14.932 -18.726  1.00  0.00     0.004 C 
BRANCH   2   3
ATOM      3  C   UNL     1      -0.805  15.937 -18.014  1.00  0.00     0.000 C 
BRANCH   3   4
ATOM      4  C   UNL     1       0.629  15.917 -18.586  1.00  0.00     0.000 C 
BRANCH   4   5
ATOM      5  C   UNL     1       1.291  17.304 -18.639  1.00  0.00     0.000 C 
BRANCH   5   6
ATOM      6  C   UNL     1       0.922  18.093 -19.906  1.00  0.00     0.006 C 
BRANCH   6   7
ATOM      7  C   UNL     1       0.559  19.552 -19.597  1.00  0.00     0.053 C 
BRANCH   7   8
ATOM      8  C   UNL     1      -0.240  19.671 -18.335  1.00  0.00     0.041 C 
ATOM      9  O   UNL     1      -1.467  19.389 -18.331  1.00  0.00    -0.550 OA
ATOM     10  O   UNL     1       0.365  20.123 -17.169  1.00  0.00    -0.550 OA
ENDBRANCH   7   8
ENDBRANCH   6   7
ENDBRANCH   5   6
ENDBRANCH   4   5
ENDBRANCH   3   4
ENDBRANCH   2   3
ENDBRANCH   1   2
BRANCH   1  11
ATOM     11  C   UNL     1      -2.366  14.499 -16.322  1.00  0.00    -0.031 C 
ATOM     12  C   UNL     1      -2.930  13.845 -15.289  1.00  0.00    -0.027 C 
BRANCH  12  13
ATOM     13  C   UNL     1      -3.980  12.774 -15.430  1.00  0.00     0.054 C 
BRANCH  13  14
ATOM     14  C   UNL     1      -5.324  13.373 -15.760  1.00  0.00    -0.027 C 
ATOM     15  C   UNL     1      -6.184  12.837 -16.645  1.00  0.00    -0.031 C 
BRANCH  15  16
ATOM     16  C   UNL     1      -5.910  11.597 -17.461  1.00  0.00     0.027 C 
BRANCH  16  17
ATOM     17  C   UNL     1      -5.228  11.914 -18.803  1.00  0.00     0.004 C 
BRANCH  17  18
ATOM     18  C   UNL     1      -3.891  11.183 -19.024  1.00  0.00     0.000 C 
BRANCH  18  19
ATOM     19  C   UNL     1      -3.475  10.326 -17.820  1.00  0.00    -0.003 C 
ATOM     20  C   UNL     1      -3.264   8.871 -18.227  1.00  0.00     0.004 C 
ENDBRANCH  18  19
ENDBRANCH  17  18
ENDBRANCH  16  17
ENDBRANCH  15  16
ENDBRANCH  13  14
ENDBRANCH  12  13
ENDBRANCH   1  11
TORSDOF 14
ENDMDL
MODEL 2
REMARK VINA RESULT:    -4.276      2.653      3.330
REMARK INTER + INTRA:          -9.297
REMARK INTER:                  -7.800
REMARK INTRA:                  -1.496
REMARK UNBOUND:                -1.522
REMARK SMILES CCCCCC=CCC=CCCCCCCCC(=O)[O-]
REMARK SMILES IDX 11 1 12 2 13 3 14 4 15 5 16 6 17 7 18 8 19 9 20 10 10 11
REMARK SMILES IDX 9 12 8 13 7 14 6 15 5 16 4 17 3 18 2 19 1 20
REMARK H PARENT
REMARK Flexibility Score: inf
ROOT
ATOM      1  C   UNL     1      -2.812  14.115 -17.058  1.00  0.00     0.027 C 
ENDROOT
BRANCH   1   2
ATOM      2  C   UNL     1      -1.656  15.126 -17.037  1.00  0.00     0.004 C 
BRANCH   2   3
ATOM      3  C   UNL     1      -1.152  15.463 -18.451  1.00  0.00     0.000 C 
BRANCH   3   4
ATOM      4  C   UNL     1      -0.246  16.713 -18.464  1.00  0.00     0.000 C 
BRANCH   4   5
ATOM      5  C   UNL     1       1.255  16.386 -18.400  1.00  0.00     0.000 C 
BRANCH   5   6
ATOM      6  C   UNL     1       1.867  16.119 -19.784  1.00  0.00     0.006 C 
BRANCH   6   7
ATOM      7  C   UNL     1       2.111  14.624 -20.031  1.00  0.00     0.053 C 
BRANCH   7   8
ATOM      8  C   UNL     1       1.937  14.263 -21.475  1.00  0.00     0.041 C 
ATOM      9  O   UNL     1       1.877  15.164 -22.352  1.00  0.00    -0.550 OA
ATOM     10  O   UNL     1       1.811  12.930 -21.848  1.00  0.00    -0.550 OA
ENDBRANCH   7   8
ENDBRANCH   6   7
ENDBRANCH   5   6
ENDBRANCH   4   5
ENDBRANCH   3   4
ENDBRANCH   2   3
ENDBRANCH   1   2
BRANCH   1  11
ATOM     11  C   UNL     1      -3.176  13.644 -15.670  1.00  0.00    -0.031 C 
ATOM     12  C   UNL     1      -4.429  13.366 -15.264  1.00  0.00    -0.027 C 
BRANCH  12  13
ATOM     13  C   UNL     1      -5.643  13.418 -16.153  1.00  0.00     0.054 C 
BRANCH  13  14
ATOM     14  C   UNL     1      -6.112  12.030 -16.513  1.00  0.00    -0.027 C 
ATOM     15  C   UNL     1      -6.163  11.562 -17.773  1.00  0.00    -0.031 C 
BRANCH  15  16
ATOM     16  C   UNL     1      -5.803  12.365 -19.000  1.00  0.00     0.027 C 
BRANCH  16  17
ATOM     17  C   UNL     1      -4.338  12.167 -19.425  1.00  0.00     0.004 C 
BRANCH  17  18
ATOM     18  C   UNL     1      -3.844  10.711 -19.339  1.00  0.00     0.000 C 
BRANCH  18  19
ATOM     19  C   UNL     1      -3.104  10.408 -18.028  1.00  0.00    -0.003 C 
ATOM     20  C   UNL     1      -3.379   8.983 -17.557  1.00  0.00     0.004 C 
ENDBRANCH  18  19
ENDBRANCH  17  18
ENDBRANCH  16  17
ENDBRANCH  15  16
ENDBRANCH  13  14
ENDBRANCH  12  13
ENDBRANCH   1  11
TORSDOF 14
ENDMDL
MODEL 3
REMARK VINA RESULT:    -4.227      3.514      7.658
REMARK INTER + INTRA:          -9.208
REMARK INTER:                  -7.545
REMARK INTRA:                  -1.663
REMARK UNBOUND:                -1.522
REMARK SMILES CCCCCC=CCC=CCCCCCCCC(=O)[O-]
REMARK SMILES IDX 11 1 12 2 13 3 14 4 15 5 16 6 17 7 18 8 19 9 20 10 10 11
REMARK SMILES IDX 9 12 8 13 7 14 6 15 5 16 4 17 3 18 2 19 1 20
REMARK H PARENT
REMARK Flexibility Score: inf
ROOT
ATOM      1  C   UNL     1      -5.590  13.406 -15.007  1.00  0.00     0.027 C 
ENDROOT
BRANCH   1   2
ATOM      2  C   UNL     1      -6.582  12.635 -15.889  1.00  0.00     0.004 C 
BRANCH   2   3
ATOM      3  C   UNL     1      -6.515  13.074 -17.362  1.00  0.00     0.000 C 
BRANCH   3   4
ATOM      4  C   UNL     1      -6.233  11.889 -18.310  1.00  0.00     0.000 C 
BRANCH   4   5
ATOM      5  C   UNL     1      -5.324  12.252 -19.496  1.00  0.00     0.000 C 
BRANCH   5   6
ATOM      6  C   UNL     1      -4.176  11.249 -19.696  1.00  0.00     0.006 C 
BRANCH   6   7
ATOM      7  C   UNL     1      -3.342  11.059 -18.422  1.00  0.00     0.053 C 
BRANCH   7   8
ATOM      8  C   UNL     1      -3.619   9.741 -17.766  1.00  0.00     0.041 C 
ATOM      9  O   UNL     1      -3.295   8.667 -18.338  1.00  0.00    -0.550 OA
ATOM     10  O   UNL     1      -4.264   9.698 -16.536  1.00  0.00    -0.550 OA
ENDBRANCH   7   8
ENDBRANCH   6   7
ENDBRANCH   5   6
ENDBRANCH   4   5
ENDBRANCH   3   4
ENDBRANCH   2   3
ENDBRANCH   1   2
BRANCH   1  11
ATOM     11  C   UNL     1      -4.234  12.742 -14.967  1.00  0.00    -0.031 C 
ATOM     12  C   UNL     1      -3.140  13.205 -15.600  1.00  0.00    -0.027 C 
BRANCH  12  13
ATOM     13  C   UNL     1      -3.090  14.491 -16.384  1.00  0.00     0.054 C 
BRANCH  13  14
ATOM     14  C   UNL     1      -2.769  14.229 -17.834  1.00  0.00    -0.027 C 
ATOM     15  C   UNL     1      -1.855  14.925 -18.534  1.00  0.00    -0.031 C 
BRANCH  15  16
ATOM     16  C   UNL     1      -1.059  16.086 -17.987  1.00  0.00     0.027 C 
BRANCH  16  17
ATOM     17  C   UNL     1       0.411  16.055 -18.437  1.00  0.00     0.004 C 
BRANCH  17  18
ATOM     18  C   UNL     1       0.935  17.395 -18.984  1.00  0.00     0.000 C 
BRANCH  18  19
ATOM     19  C   UNL     1       0.039  18.585 -18.606  1.00  0.00    -0.003 C 
ATOM     20  C   UNL     1       0.873  19.776 -18.145  1.00  0.00     0.004 C 
ENDBRANCH  18  19
ENDBRANCH  17  18
ENDBRANCH  16  17
ENDBRANCH  15  16
ENDBRANCH  13  14
ENDBRANCH  12  13
ENDBRANCH   1  11
TORSDOF 14
ENDMDL
MODEL 4
REMARK VINA RESULT:    -4.174      1.257      3.000
REMARK INTER + INTRA:          -9.112
REMARK INTER:                  -7.224
REMARK INTRA:                  -1.888
REMARK UNBOUND:                -1.522
REMARK SMILES CCCCCC=CCC=CCCCCCCCC(=O)[O-]
REMARK SMILES IDX 11 1 12 2 13 3 14 4 15 5 16 6 17 7 18 8 19 9 20 10 10 11
REMARK SMILES IDX 9 12 8 13 7 14 6 15 5 16 4 17 3 18 2 19 1 20
REMARK H PARENT
REMARK Flexibility Score: inf
ROOT
ATOM      1  C   UNL     1      -4.461  13.750 -15.375  1.00  0.00     0.027 C 
ENDROOT
BRANCH   1   2
ATOM      2  C   UNL     1      -2.958  13.438 -15.334  1.00  0.00     0.004 C 
BRANCH   2   3
ATOM      3  C   UNL     1      -2.129  14.461 -16.129  1.00  0.00     0.000 C 
BRANCH   3   4
ATOM      4  C   UNL     1      -2.718  14.724 -17.532  1.00  0.00     0.000 C 
BRANCH   4   5
ATOM      5  C   UNL     1      -1.658  15.077 -18.589  1.00  0.00     0.000 C 
BRANCH   5   6
ATOM      6  C   UNL     1      -0.509  15.927 -18.021  1.00  0.00     0.006 C 
BRANCH   6   7
ATOM      7  C   UNL     1      -0.467  17.332 -18.637  1.00  0.00     0.053 C 
BRANCH   7   8
ATOM      8  C   UNL     1       0.936  17.838 -18.773  1.00  0.00     0.041 C 
ATOM      9  O   UNL     1       1.904  17.032 -18.786  1.00  0.00    -0.550 OA
ATOM     10  O   UNL     1       1.178  19.204 -18.854  1.00  0.00    -0.550 OA
ENDBRANCH   7   8
ENDBRANCH   6   7
ENDBRANCH   5   6
ENDBRANCH   4   5
ENDBRANCH   3   4
ENDBRANCH   2   3
ENDBRANCH   1   2
BRANCH   1  11
ATOM     11  C   UNL     1      -5.300  12.496 -15.351  1.00  0.00    -0.031 C 
ATOM     12  C   UNL     1      -6.251  12.197 -16.257  1.00  0.00    -0.027 C 
BRANCH  12  13
ATOM     13  C   UNL     1      -6.568  13.037 -17.466  1.00  0.00     0.054 C 
BRANCH  13  14
ATOM     14  C   UNL     1      -6.597  12.197 -18.718  1.00  0.00    -0.027 C 
ATOM     15  C   UNL     1      -5.500  11.872 -19.425  1.00  0.00    -0.031 C 
BRANCH  15  16
ATOM     16  C   UNL     1      -4.101  12.335 -19.095  1.00  0.00     0.027 C 
BRANCH  16  17
ATOM     17  C   UNL     1      -3.167  11.170 -18.727  1.00  0.00     0.004 C 
BRANCH  17  18
ATOM     18  C   UNL     1      -3.524  10.464 -17.407  1.00  0.00     0.000 C 
BRANCH  18  19
ATOM     19  C   UNL     1      -3.497   8.932 -17.523  1.00  0.00    -0.003 C 
ATOM     20  C   UNL     1      -3.197   8.495 -18.954  1.00  0.00     0.004 C 
ENDBRANCH  18  19
ENDBRANCH  17  18
ENDBRANCH  16  17
ENDBRANCH  15  16
ENDBRANCH  13  14
ENDBRANCH  12  13
ENDBRANCH   1  11
TORSDOF 14
ENDMDL
MODEL 5
REMARK VINA RESULT:    -4.171      1.413      3.309
REMARK INTER + INTRA:          -9.107
REMARK INTER:                  -7.014
REMARK INTRA:                  -2.093
REMARK UNBOUND:                -1.522
REMARK SMILES CCCCCC=CCC=CCCCCCCCC(=O)[O-]
REMARK SMILES IDX 11 1 12 2 13 3 14 4 15 5 16 6 17 7 18 8 19 9 20 10 10 11
REMARK SMILES IDX 9 12 8 13 7 14 6 15 5 16 4 17 3 18 2 19 1 20
REMARK H PARENT
REMARK Flexibility Score: inf
ROOT
ATOM      1  C   UNL     1      -4.837  13.806 -15.983  1.00  0.00     0.027 C 
ENDROOT
BRANCH   1   2
ATOM      2  C   UNL     1      -3.495  13.368 -15.377  1.00  0.00     0.004 C 
BRANCH   2   3
ATOM      3  C   UNL     1      -2.309  14.158 -15.957  1.00  0.00     0.000 C 
BRANCH   3   4
ATOM      4  C   UNL     1      -2.709  14.978 -17.202  1.00  0.00     0.000 C 
BRANCH   4   5
ATOM      5  C   UNL     1      -1.651  14.960 -18.318  1.00  0.00     0.000 C 
BRANCH   5   6
ATOM      6  C   UNL     1      -0.499  15.945 -18.063  1.00  0.00     0.006 C 
BRANCH   6   7
ATOM      7  C   UNL     1      -0.775  17.330 -18.666  1.00  0.00     0.053 C 
BRANCH   7   8
ATOM      8  C   UNL     1       0.491  18.091 -18.916  1.00  0.00     0.041 C 
ATOM      9  O   UNL     1       0.676  19.212 -18.373  1.00  0.00    -0.550 OA
ATOM     10  O   UNL     1       1.454  17.575 -19.774  1.00  0.00    -0.550 OA
ENDBRANCH   7   8
ENDBRANCH   6   7
ENDBRANCH   5   6
ENDBRANCH   4   5
ENDBRANCH   3   4
ENDBRANCH   2   3
ENDBRANCH   1   2
BRANCH   1  11
ATOM     11  C   UNL     1      -6.012  13.214 -15.242  1.00  0.00    -0.031 C 
ATOM     12  C   UNL     1      -6.585  12.033 -15.541  1.00  0.00    -0.027 C 
BRANCH  12  13
ATOM     13  C   UNL     1      -6.095  11.097 -16.615  1.00  0.00     0.054 C 
BRANCH  13  14
ATOM     14  C   UNL     1      -4.917  10.288 -16.133  1.00  0.00    -0.027 C 
ATOM     15  C   UNL     1      -3.898   9.907 -16.925  1.00  0.00    -0.031 C 
BRANCH  15  16
ATOM     16  C   UNL     1      -3.811  10.194 -18.405  1.00  0.00     0.027 C 
BRANCH  16  17
ATOM     17  C   UNL     1      -3.278  11.606 -18.701  1.00  0.00     0.004 C 
BRANCH  17  18
ATOM     18  C   UNL     1      -4.324  12.566 -19.297  1.00  0.00     0.000 C 
BRANCH  18  19
ATOM     19  C   UNL     1      -5.300  11.866 -20.253  1.00  0.00    -0.003 C 
ATOM     20  C   UNL     1      -6.746  12.228 -19.925  1.00  0.00     0.004 C 
ENDBRANCH  18  19
ENDBRANCH  17  18
ENDBRANCH  16  17
ENDBRANCH  15  16
ENDBRANCH  13  14
ENDBRANCH  12  13
ENDBRANCH   1  11
TORSDOF 14
ENDMDL
MODEL 6
REMARK VINA RESULT:    -4.130      1.469      2.874
REMARK INTER + INTRA:          -9.032
REMARK INTER:                  -6.751
REMARK INTRA:                  -2.282
REMARK UNBOUND:                -1.522
REMARK SMILES CCCCCC=CCC=CCCCCCCCC(=O)[O-]
REMARK SMILES IDX 11 1 12 2 13 3 14 4 15 5 16 6 17 7 18 8 19 9 20 10 10 11
REMARK SMILES IDX 9 12 8 13 7 14 6 15 5 16 4 17 3 18 2 19 1 20
REMARK H PARENT
REMARK Flexibility Score: inf
ROOT
ATOM      1  C   UNL     1      -3.127  13.652 -15.343  1.00  0.00     0.027 C 
ENDROOT
BRANCH   1   2
ATOM      2  C   UNL     1      -2.199  14.492 -16.233  1.00  0.00     0.004 C 
BRANCH   2   3
ATOM      3  C   UNL     1      -2.714  14.594 -17.679  1.00  0.00     0.000 C 
BRANCH   3   4
ATOM      4  C   UNL     1      -1.598  14.993 -18.667  1.00  0.00     0.000 C 
BRANCH   4   5
ATOM      5  C   UNL     1      -0.564  15.963 -18.072  1.00  0.00     0.000 C 
BRANCH   5   6
ATOM      6  C   UNL     1       0.809  15.866 -18.756  1.00  0.00     0.006 C 
BRANCH   6   7
ATOM      7  C   UNL     1       1.590  17.184 -18.679  1.00  0.00     0.053 C 
BRANCH   7   8
ATOM      8  C   UNL     1       1.323  18.060 -19.866  1.00  0.00     0.041 C 
ATOM      9  O   UNL     1       0.369  18.882 -19.846  1.00  0.00    -0.550 OA
ATOM     10  O   UNL     1       2.109  17.945 -21.006  1.00  0.00    -0.550 OA
ENDBRANCH   7   8
ENDBRANCH   6   7
ENDBRANCH   5   6
ENDBRANCH   4   5
ENDBRANCH   3   4
ENDBRANCH   2   3
ENDBRANCH   1   2
BRANCH   1  11
ATOM     11  C   UNL     1      -4.575  13.785 -15.752  1.00  0.00    -0.031 C 
ATOM     12  C   UNL     1      -5.470  12.780 -15.723  1.00  0.00    -0.027 C 
BRANCH  12  13
ATOM     13  C   UNL     1      -5.177  11.393 -15.214  1.00  0.00     0.054 C 
BRANCH  13  14
ATOM     14  C   UNL     1      -5.527  10.350 -16.247  1.00  0.00    -0.027 C 
ATOM     15  C   UNL     1      -4.672   9.920 -17.192  1.00  0.00    -0.031 C 
BRANCH  15  16
ATOM     16  C   UNL     1      -3.269  10.444 -17.381  1.00  0.00     0.027 C 
BRANCH  16  17
ATOM     17  C   UNL     1      -3.144  11.362 -18.608  1.00  0.00     0.004 C 
BRANCH  17  18
ATOM     18  C   UNL     1      -4.342  11.298 -19.573  1.00  0.00     0.000 C 
BRANCH  18  19
ATOM     19  C   UNL     1      -5.240  12.542 -19.492  1.00  0.00    -0.003 C 
ATOM     20  C   UNL     1      -6.705  12.152 -19.327  1.00  0.00     0.004 C 
ENDBRANCH  18  19
ENDBRANCH  17  18
ENDBRANCH  16  17
ENDBRANCH  15  16
ENDBRANCH  13  14
ENDBRANCH  12  13
ENDBRANCH   1  11
TORSDOF 14
ENDMDL
MODEL 7
REMARK VINA RESULT:    -4.077      1.030      3.034
REMARK INTER + INTRA:          -8.936
REMARK INTER:                  -7.173
REMARK INTRA:                  -1.763
REMARK UNBOUND:                -1.522
REMARK SMILES CCCCCC=CCC=CCCCCCCCC(=O)[O-]
REMARK SMILES IDX 11 1 12 2 13 3 14 4 15 5 16 6 17 7 18 8 19 9 20 10 10 11
REMARK SMILES IDX 9 12 8 13 7 14 6 15 5 16 4 17 3 18 2 19 1 20
REMARK H PARENT
REMARK Flexibility Score: inf
ROOT
ATOM      1  C   UNL     1      -3.729  13.240 -18.958  1.00  0.00     0.027 C 
ENDROOT
BRANCH   1   2
ATOM      2  C   UNL     1      -2.275  13.732 -18.996  1.00  0.00     0.004 C 
BRANCH   2   3
ATOM      3  C   UNL     1      -2.166  15.246 -18.743  1.00  0.00     0.000 C 
BRANCH   3   4
ATOM      4  C   UNL     1      -0.931  15.607 -17.890  1.00  0.00     0.000 C 
BRANCH   4   5
ATOM      5  C   UNL     1       0.339  15.860 -18.720  1.00  0.00     0.000 C 
BRANCH   5   6
ATOM      6  C   UNL     1       0.879  17.291 -18.563  1.00  0.00     0.006 C 
BRANCH   6   7
ATOM      7  C   UNL     1      -0.115  18.345 -19.071  1.00  0.00     0.053 C 
BRANCH   7   8
ATOM      8  C   UNL     1      -0.230  19.502 -18.126  1.00  0.00     0.041 C 
ATOM      9  O   UNL     1       0.803  20.015 -17.620  1.00  0.00    -0.550 OA
ATOM     10  O   UNL     1      -1.483  19.994 -17.779  1.00  0.00    -0.550 OA
ENDBRANCH   7   8
ENDBRANCH   6   7
ENDBRANCH   5   6
ENDBRANCH   4   5
ENDBRANCH   3   4
ENDBRANCH   2   3
ENDBRANCH   1   2
BRANCH   1  11
ATOM     11  C   UNL     1      -3.864  11.835 -19.495  1.00  0.00    -0.031 C 
ATOM     12  C   UNL     1      -3.751  10.720 -18.749  1.00  0.00    -0.027 C 
BRANCH  12  13
ATOM     13  C   UNL     1      -3.543  10.711 -17.257  1.00  0.00     0.054 C 
BRANCH  13  14
ATOM     14  C   UNL     1      -4.705  10.059 -16.550  1.00  0.00    -0.027 C 
ATOM     15  C   UNL     1      -5.883  10.671 -16.329  1.00  0.00    -0.031 C 
BRANCH  15  16
ATOM     16  C   UNL     1      -6.192  12.098 -16.713  1.00  0.00     0.027 C 
BRANCH  16  17
ATOM     17  C   UNL     1      -6.233  13.039 -15.497  1.00  0.00     0.004 C 
BRANCH  17  18
ATOM     18  C   UNL     1      -4.880  13.213 -14.783  1.00  0.00     0.000 C 
BRANCH  18  19
ATOM     19  C   UNL     1      -3.808  13.845 -15.684  1.00  0.00    -0.003 C 
ATOM     20  C   UNL     1      -2.427  13.749 -15.044  1.00  0.00     0.004 C 
ENDBRANCH  18  19
ENDBRANCH  17  18
ENDBRANCH  16  17
ENDBRANCH  15  16
ENDBRANCH  13  14
ENDBRANCH  12  13
ENDBRANCH   1  11
TORSDOF 14
ENDMDL
MODEL 8
REMARK VINA RESULT:    -3.902      3.091      8.209
REMARK INTER + INTRA:          -8.618
REMARK INTER:                  -7.164
REMARK INTRA:                  -1.453
REMARK UNBOUND:                -1.522
REMARK SMILES CCCCCC=CCC=CCCCCCCCC(=O)[O-]
REMARK SMILES IDX 11 1 12 2 13 3 14 4 15 5 16 6 17 7 18 8 19 9 20 10 10 11
REMARK SMILES IDX 9 12 8 13 7 14 6 15 5 16 4 17 3 18 2 19 1 20
REMARK H PARENT
REMARK Flexibility Score: inf
ROOT
ATOM      1  C   UNL     1      -2.573  13.650 -19.083  1.00  0.00     0.027 C 
ENDROOT
BRANCH   1   2
ATOM      2  C   UNL     1      -3.970  13.012 -19.102  1.00  0.00     0.004 C 
BRANCH   2   3
ATOM      3  C   UNL     1      -3.908  11.475 -19.102  1.00  0.00     0.000 C 
BRANCH   3   4
ATOM      4  C   UNL     1      -3.347  10.915 -17.777  1.00  0.00     0.000 C 
BRANCH   4   5
ATOM      5  C   UNL     1      -4.263   9.875 -17.111  1.00  0.00     0.000 C 
BRANCH   5   6
ATOM      6  C   UNL     1      -5.111  10.468 -15.974  1.00  0.00     0.006 C 
BRANCH   6   7
ATOM      7  C   UNL     1      -4.700  11.907 -15.633  1.00  0.00     0.053 C 
BRANCH   7   8
ATOM      8  C   UNL     1      -5.867  12.846 -15.683  1.00  0.00     0.041 C 
ATOM      9  O   UNL     1      -6.259  13.427 -14.637  1.00  0.00    -0.550 OA
ATOM     10  O   UNL     1      -6.541  13.054 -16.880  1.00  0.00    -0.550 OA
ENDBRANCH   7   8
ENDBRANCH   6   7
ENDBRANCH   5   6
ENDBRANCH   4   5
ENDBRANCH   3   4
ENDBRANCH   2   3
ENDBRANCH   1   2
BRANCH   1  11
ATOM     11  C   UNL     1      -2.407  14.614 -17.933  1.00  0.00    -0.031 C 
ATOM     12  C   UNL     1      -1.414  15.517 -17.832  1.00  0.00    -0.027 C 
BRANCH  12  13
ATOM     13  C   UNL     1      -0.361  15.745 -18.885  1.00  0.00     0.054 C 
BRANCH  13  14
ATOM     14  C   UNL     1       0.962  16.110 -18.259  1.00  0.00    -0.027 C 
ATOM     15  C   UNL     1       1.946  16.752 -18.915  1.00  0.00    -0.031 C 
BRANCH  15  16
ATOM     16  C   UNL     1       1.886  17.156 -20.368  1.00  0.00     0.027 C 
BRANCH  16  17
ATOM     17  C   UNL     1       1.696  18.671 -20.551  1.00  0.00     0.004 C 
BRANCH  17  18
ATOM     18  C   UNL     1       1.261  19.415 -19.274  1.00  0.00     0.000 C 
BRANCH  18  19
ATOM     19  C   UNL     1      -0.163  19.982 -19.370  1.00  0.00    -0.003 C 
ATOM     20  C   UNL     1      -0.943  19.731 -18.083  1.00  0.00     0.004 C 
ENDBRANCH  18  19
ENDBRANCH  17  18
ENDBRANCH  16  17
ENDBRANCH  15  16
ENDBRANCH  13  14
ENDBRANCH  12  13
ENDBRANCH   1  11
TORSDOF 14
ENDMDL
MODEL 9
REMARK VINA RESULT:    -3.900      0.902      1.778
REMARK INTER + INTRA:          -8.614
REMARK INTER:                  -7.431
REMARK INTRA:                  -1.183
REMARK UNBOUND:                -1.522
REMARK SMILES CCCCCC=CCC=CCCCCCCCC(=O)[O-]
REMARK SMILES IDX 11 1 12 2 13 3 14 4 15 5 16 6 17 7 18 8 19 9 20 10 10 11
REMARK SMILES IDX 9 12 8 13 7 14 6 15 5 16 4 17 3 18 2 19 1 20
REMARK H PARENT
REMARK Flexibility Score: inf
ROOT
ATOM      1  C   UNL     1      -1.357  15.829 -17.716  1.00  0.00     0.027 C 
ENDROOT
BRANCH   1   2
ATOM      2  C   UNL     1      -0.450  16.601 -18.686  1.00  0.00     0.004 C 
BRANCH   2   3
ATOM      3  C   UNL     1       1.029  16.202 -18.541  1.00  0.00     0.000 C 
BRANCH   3   4
ATOM      4  C   UNL     1       1.982  17.347 -18.943  1.00  0.00     0.000 C 
BRANCH   4   5
ATOM      5  C   UNL     1       1.542  18.102 -20.208  1.00  0.00     0.000 C 
BRANCH   5   6
ATOM      6  C   UNL     1       0.995  19.506 -19.906  1.00  0.00     0.006 C 
BRANCH   6   7
ATOM      7  C   UNL     1       1.213  19.910 -18.441  1.00  0.00     0.053 C 
BRANCH   7   8
ATOM      8  C   UNL     1      -0.085  20.069 -17.709  1.00  0.00     0.041 C 
ATOM      9  O   UNL     1      -0.102  20.123 -16.451  1.00  0.00    -0.550 OA
ATOM     10  O   UNL     1      -1.280  20.125 -18.416  1.00  0.00    -0.550 OA
ENDBRANCH   7   8
ENDBRANCH   6   7
ENDBRANCH   5   6
ENDBRANCH   4   5
ENDBRANCH   3   4
ENDBRANCH   2   3
ENDBRANCH   1   2
BRANCH   1  11
ATOM     11  C   UNL     1      -2.171  14.772 -18.423  1.00  0.00    -0.031 C 
ATOM     12  C   UNL     1      -2.932  13.852 -17.800  1.00  0.00    -0.027 C 
BRANCH  12  13
ATOM     13  C   UNL     1      -3.136  13.786 -16.309  1.00  0.00     0.054 C 
BRANCH  13  14
ATOM     14  C   UNL     1      -4.595  13.936 -15.954  1.00  0.00    -0.027 C 
ATOM     15  C   UNL     1      -5.381  12.911 -15.577  1.00  0.00    -0.031 C 
BRANCH  15  16
ATOM     16  C   UNL     1      -4.932  11.472 -15.499  1.00  0.00     0.027 C 
BRANCH  16  17
ATOM     17  C   UNL     1      -5.397  10.644 -16.709  1.00  0.00     0.004 C 
BRANCH  17  18
ATOM     18  C   UNL     1      -4.686  10.996 -18.028  1.00  0.00     0.000 C 
BRANCH  18  19
ATOM     19  C   UNL     1      -3.357  10.247 -18.208  1.00  0.00    -0.003 C 
ATOM     20  C   UNL     1      -3.463   8.810 -17.705  1.00  0.00     0.004 C 
ENDBRANCH  18  19
ENDBRANCH  17  18
ENDBRANCH  16  17
ENDBRANCH  15  16
ENDBRANCH  13  14
ENDBRANCH  12  13
ENDBRANCH   1  11
TORSDOF 14
ENDMDL
