MODEL 1
REMARK VINA RESULT:    -3.372      0.000      0.000
REMARK INTER + INTRA:          -4.477
REMARK INTER:                  -4.357
REMARK INTRA:                  -0.120
REMARK UNBOUND:                -0.120
REMARK SMILES C=CC(=O)CCCCC
REMARK SMILES IDX 6 1 7 2 8 3 9 4 5 5 3 6 4 7 2 8 1 9
REMARK H PARENT
REMARK Flexibility Score: inf
ROOT
ATOM      1  C   UNL     1     -12.454  14.964 -22.829  1.00  0.00     0.008 C 
ENDROOT
BRANCH   1   2
ATOM      2  C   UNL     1     -12.141  16.206 -23.675  1.00  0.00     0.000 C 
BRANCH   2   3
ATOM      3  C   UNL     1     -13.430  16.867 -24.179  1.00  0.00    -0.003 C 
ATOM      4  C   UNL     1     -14.297  17.342 -23.017  1.00  0.00     0.004 C 
ENDBRANCH   2   3
ENDBRANCH   1   2
BRANCH   1   5
ATOM      5  C   UNL     1     -11.309  13.938 -22.860  1.00  0.00     0.080 C 
BRANCH   5   6
ATOM      6  C   UNL     1     -11.779  12.504 -22.973  1.00  0.00     0.155 C 
ATOM      7  O   UNL     1     -12.460  11.992 -22.044  1.00  0.00    -0.295 OA
BRANCH   6   8
ATOM      8  C   UNL     1     -11.419  11.648 -24.122  1.00  0.00     0.039 C 
ATOM      9  C   UNL     1     -11.996  10.473 -24.379  1.00  0.00     0.012 C 
ENDBRANCH   6   8
ENDBRANCH   5   6
ENDBRANCH   1   5
TORSDOF 5
ENDMDL
MODEL 2
REMARK VINA RESULT:    -3.302      1.167      4.886
REMARK INTER + INTRA:          -4.387
REMARK INTER:                  -4.244
REMARK INTRA:                  -0.143
REMARK UNBOUND:                -0.120
REMARK SMILES C=CC(=O)CCCCC
REMARK SMILES IDX 6 1 7 2 8 3 9 4 5 5 3 6 4 7 2 8 1 9
REMARK H PARENT
REMARK Flexibility Score: inf
ROOT
ATOM      1  C   UNL     1     -11.843  12.284 -23.033  1.00  0.00     0.008 C 
ENDROOT
BRANCH   1   2
ATOM      2  C   UNL     1     -11.600  11.405 -24.269  1.00  0.00     0.000 C 
BRANCH   2   3
ATOM      3  C   UNL     1     -11.878   9.930 -23.956  1.00  0.00    -0.003 C 
ATOM      4  C   UNL     1     -12.623   9.776 -22.634  1.00  0.00     0.004 C 
ENDBRANCH   2   3
ENDBRANCH   1   2
BRANCH   1   5
ATOM      5  C   UNL     1     -11.238  13.689 -23.194  1.00  0.00     0.080 C 
BRANCH   5   6
ATOM      6  C   UNL     1     -12.179  14.806 -22.798  1.00  0.00     0.155 C 
ATOM      7  O   UNL     1     -13.052  14.605 -21.911  1.00  0.00    -0.295 OA
BRANCH   6   8
ATOM      8  C   UNL     1     -12.153  16.127 -23.459  1.00  0.00     0.039 C 
ATOM      9  C   UNL     1     -13.149  16.598 -24.210  1.00  0.00     0.012 C 
ENDBRANCH   6   8
ENDBRANCH   5   6
ENDBRANCH   1   5
TORSDOF 5
ENDMDL
MODEL 3
REMARK VINA RESULT:    -3.293     16.006     18.062
REMARK INTER + INTRA:          -4.375
REMARK INTER:                  -3.819
REMARK INTRA:                  -0.556
REMARK UNBOUND:                -0.120
REMARK SMILES C=CC(=O)CCCCC
REMARK SMILES IDX 6 1 7 2 8 3 9 4 5 5 3 6 4 7 2 8 1 9
REMARK H PARENT
REMARK Flexibility Score: inf
ROOT
ATOM      1  C   UNL     1     -14.363  -0.155 -11.341  1.00  0.00     0.008 C 
ENDROOT
BRANCH   1   2
ATOM      2  C   UNL     1     -13.178  -1.125 -11.229  1.00  0.00     0.000 C 
BRANCH   2   3
ATOM      3  C   UNL     1     -12.154  -0.624 -10.203  1.00  0.00    -0.003 C 
ATOM      4  C   UNL     1     -10.728  -0.794 -10.718  1.00  0.00     0.004 C 
ENDBRANCH   2   3
ENDBRANCH   1   2
BRANCH   1   5
ATOM      5  C   UNL     1     -14.291   0.703 -12.616  1.00  0.00     0.080 C 
BRANCH   5   6
ATOM      6  C   UNL     1     -13.887   2.139 -12.362  1.00  0.00     0.155 C 
ATOM      7  O   UNL     1     -14.773   3.012 -12.156  1.00  0.00    -0.295 OA
BRANCH   6   8
ATOM      8  C   UNL     1     -12.477   2.577 -12.400  1.00  0.00     0.039 C 
ATOM      9  C   UNL     1     -11.517   1.923 -13.054  1.00  0.00     0.012 C 
ENDBRANCH   6   8
ENDBRANCH   5   6
ENDBRANCH   1   5
TORSDOF 5
ENDMDL
MODEL 4
REMARK VINA RESULT:    -3.258     13.772     14.635
REMARK INTER + INTRA:          -4.330
REMARK INTER:                  -4.084
REMARK INTRA:                  -0.246
REMARK UNBOUND:                -0.120
REMARK SMILES C=CC(=O)CCCCC
REMARK SMILES IDX 6 1 7 2 8 3 9 4 5 5 3 6 4 7 2 8 1 9
REMARK H PARENT
REMARK Flexibility Score: inf
ROOT
ATOM      1  C   UNL     1       0.938  13.846 -18.400  1.00  0.00     0.008 C 
ENDROOT
BRANCH   1   2
ATOM      2  C   UNL     1       1.805  15.097 -18.198  1.00  0.00     0.000 C 
BRANCH   2   3
ATOM      3  C   UNL     1       3.040  15.061 -19.107  1.00  0.00    -0.003 C 
ATOM      4  C   UNL     1       3.121  16.310 -19.979  1.00  0.00     0.004 C 
ENDBRANCH   2   3
ENDBRANCH   1   2
BRANCH   1   5
ATOM      5  C   UNL     1       0.948  13.364 -19.861  1.00  0.00     0.080 C 
BRANCH   5   6
ATOM      6  C   UNL     1       0.696  11.880 -20.014  1.00  0.00     0.155 C 
ATOM      7  O   UNL     1       0.132  11.444 -21.053  1.00  0.00    -0.295 OA
BRANCH   6   8
ATOM      8  C   UNL     1       1.039  10.911 -18.953  1.00  0.00     0.039 C 
ATOM      9  C   UNL     1       1.903   9.909 -19.117  1.00  0.00     0.012 C 
ENDBRANCH   6   8
ENDBRANCH   5   6
ENDBRANCH   1   5
TORSDOF 5
ENDMDL
MODEL 5
REMARK VINA RESULT:    -3.221     13.935     15.635
REMARK INTER + INTRA:          -4.282
REMARK INTER:                  -3.950
REMARK INTRA:                  -0.332
REMARK UNBOUND:                -0.120
REMARK SMILES C=CC(=O)CCCCC
REMARK SMILES IDX 6 1 7 2 8 3 9 4 5 5 3 6 4 7 2 8 1 9
REMARK H PARENT
REMARK Flexibility Score: inf
ROOT
ATOM      1  C   UNL     1      -1.466   4.810 -25.667  1.00  0.00     0.008 C 
ENDROOT
BRANCH   1   2
ATOM      2  C   UNL     1      -1.827   5.979 -24.740  1.00  0.00     0.000 C 
BRANCH   2   3
ATOM      3  C   UNL     1      -1.081   5.871 -23.404  1.00  0.00    -0.003 C 
ATOM      4  C   UNL     1      -0.442   7.202 -23.019  1.00  0.00     0.004 C 
ENDBRANCH   2   3
ENDBRANCH   1   2
BRANCH   1   5
ATOM      5  C   UNL     1      -0.081   4.223 -25.348  1.00  0.00     0.080 C 
BRANCH   5   6
ATOM      6  C   UNL     1       1.029   4.772 -26.218  1.00  0.00     0.155 C 
ATOM      7  O   UNL     1       1.500   5.918 -25.984  1.00  0.00    -0.295 OA
BRANCH   6   8
ATOM      8  C   UNL     1       1.552   4.031 -27.384  1.00  0.00     0.039 C 
ATOM      9  C   UNL     1       1.122   2.823 -27.746  1.00  0.00     0.012 C 
ENDBRANCH   6   8
ENDBRANCH   5   6
ENDBRANCH   1   5
TORSDOF 5
ENDMDL
MODEL 6
REMARK VINA RESULT:    -3.216      2.375      4.424
REMARK INTER + INTRA:          -4.275
REMARK INTER:                  -3.788
REMARK INTRA:                  -0.488
REMARK UNBOUND:                -0.120
REMARK SMILES C=CC(=O)CCCCC
REMARK SMILES IDX 6 1 7 2 8 3 9 4 5 5 3 6 4 7 2 8 1 9
REMARK H PARENT
REMARK Flexibility Score: inf
ROOT
ATOM      1  C   UNL     1     -10.669  14.675 -22.568  1.00  0.00     0.008 C 
ENDROOT
BRANCH   1   2
ATOM      2  C   UNL     1     -11.593  13.597 -23.151  1.00  0.00     0.000 C 
BRANCH   2   3
ATOM      3  C   UNL     1     -12.254  12.778 -22.035  1.00  0.00    -0.003 C 
ATOM      4  C   UNL     1     -13.151  13.653 -21.165  1.00  0.00     0.004 C 
ENDBRANCH   2   3
ENDBRANCH   1   2
BRANCH   1   5
ATOM      5  C   UNL     1     -10.915  16.054 -23.203  1.00  0.00     0.080 C 
BRANCH   5   6
ATOM      6  C   UNL     1     -12.135  16.766 -22.660  1.00  0.00     0.155 C 
ATOM      7  O   UNL     1     -12.112  17.250 -21.496  1.00  0.00    -0.295 OA
BRANCH   6   8
ATOM      8  C   UNL     1     -13.392  16.871 -23.429  1.00  0.00     0.039 C 
ATOM      9  C   UNL     1     -13.462  16.733 -24.753  1.00  0.00     0.012 C 
ENDBRANCH   6   8
ENDBRANCH   5   6
ENDBRANCH   1   5
TORSDOF 5
ENDMDL
MODEL 7
REMARK VINA RESULT:    -3.182     16.005     17.503
REMARK INTER + INTRA:          -4.232
REMARK INTER:                  -3.757
REMARK INTRA:                  -0.475
REMARK UNBOUND:                -0.120
REMARK SMILES C=CC(=O)CCCCC
REMARK SMILES IDX 6 1 7 2 8 3 9 4 5 5 3 6 4 7 2 8 1 9
REMARK H PARENT
REMARK Flexibility Score: inf
ROOT
ATOM      1  C   UNL     1     -12.717   2.012 -13.301  1.00  0.00     0.008 C 
ENDROOT
BRANCH   1   2
ATOM      2  C   UNL     1     -13.527   2.198 -12.011  1.00  0.00     0.000 C 
BRANCH   2   3
ATOM      3  C   UNL     1     -15.014   1.907 -12.249  1.00  0.00    -0.003 C 
ATOM      4  C   UNL     1     -15.391   0.516 -11.749  1.00  0.00     0.004 C 
ENDBRANCH   2   3
ENDBRANCH   1   2
BRANCH   1   5
ATOM      5  C   UNL     1     -12.087   0.611 -13.393  1.00  0.00     0.080 C 
BRANCH   5   6
ATOM      6  C   UNL     1     -11.004   0.362 -12.366  1.00  0.00     0.155 C 
ATOM      7  O   UNL     1      -9.942   1.040 -12.399  1.00  0.00    -0.295 OA
BRANCH   6   8
ATOM      8  C   UNL     1     -11.119  -0.698 -11.343  1.00  0.00     0.039 C 
ATOM      9  C   UNL     1     -12.034  -0.693 -10.373  1.00  0.00     0.012 C 
ENDBRANCH   6   8
ENDBRANCH   5   6
ENDBRANCH   1   5
TORSDOF 5
ENDMDL
MODEL 8
REMARK VINA RESULT:    -3.162     14.603     16.650
REMARK INTER + INTRA:          -4.206
REMARK INTER:                  -3.987
REMARK INTRA:                  -0.219
REMARK UNBOUND:                -0.120
REMARK SMILES C=CC(=O)CCCCC
REMARK SMILES IDX 6 1 7 2 8 3 9 4 5 5 3 6 4 7 2 8 1 9
REMARK H PARENT
REMARK Flexibility Score: inf
ROOT
ATOM      1  C   UNL     1     -13.905   1.708 -11.972  1.00  0.00     0.008 C 
ENDROOT
BRANCH   1   2
ATOM      2  C   UNL     1     -15.164   0.830 -11.969  1.00  0.00     0.000 C 
BRANCH   2   3
ATOM      3  C   UNL     1     -14.807  -0.640 -11.722  1.00  0.00    -0.003 C 
ATOM      4  C   UNL     1     -13.383  -0.782 -11.193  1.00  0.00     0.004 C 
ENDBRANCH   2   3
ENDBRANCH   1   2
BRANCH   1   5
ATOM      5  C   UNL     1     -14.138   3.054 -12.679  1.00  0.00     0.080 C 
BRANCH   5   6
ATOM      6  C   UNL     1     -12.904   3.608 -13.358  1.00  0.00     0.155 C 
ATOM      7  O   UNL     1     -13.006   4.597 -14.132  1.00  0.00    -0.295 OA
BRANCH   6   8
ATOM      8  C   UNL     1     -11.572   2.993 -13.190  1.00  0.00     0.039 C 
ATOM      9  C   UNL     1     -10.427   3.627 -13.443  1.00  0.00     0.012 C 
ENDBRANCH   6   8
ENDBRANCH   5   6
ENDBRANCH   1   5
TORSDOF 5
ENDMDL
MODEL 9
REMARK VINA RESULT:    -3.142      9.970     13.006
REMARK INTER + INTRA:          -4.180
REMARK INTER:                  -3.919
REMARK INTRA:                  -0.261
REMARK UNBOUND:                -0.120
REMARK SMILES C=CC(=O)CCCCC
REMARK SMILES IDX 6 1 7 2 8 3 9 4 5 5 3 6 4 7 2 8 1 9
REMARK H PARENT
REMARK Flexibility Score: inf
ROOT
ATOM      1  C   UNL     1     -16.268   1.962 -22.187  1.00  0.00     0.008 C 
ENDROOT
BRANCH   1   2
ATOM      2  C   UNL     1     -17.010   0.763 -21.580  1.00  0.00     0.000 C 
BRANCH   2   3
ATOM      3  C   UNL     1     -16.367   0.333 -20.256  1.00  0.00    -0.003 C 
ATOM      4  C   UNL     1     -17.066  -0.893 -19.676  1.00  0.00     0.004 C 
ENDBRANCH   2   3
ENDBRANCH   1   2
BRANCH   1   5
ATOM      5  C   UNL     1     -17.125   3.239 -22.178  1.00  0.00     0.080 C 
BRANCH   5   6
ATOM      6  C   UNL     1     -16.397   4.457 -21.652  1.00  0.00     0.155 C 
ATOM      7  O   UNL     1     -16.711   5.604 -22.070  1.00  0.00    -0.295 OA
BRANCH   6   8
ATOM      8  C   UNL     1     -15.277   4.351 -20.694  1.00  0.00     0.039 C 
ATOM      9  C   UNL     1     -14.067   4.869 -20.911  1.00  0.00     0.012 C 
ENDBRANCH   6   8
ENDBRANCH   5   6
ENDBRANCH   1   5
TORSDOF 5
ENDMDL
