MODEL 1
REMARK VINA RESULT:     5.286      0.000      0.000
REMARK INTER + INTRA:           5.440
REMARK INTER:                   5.440
REMARK INTRA:                   0.000
REMARK UNBOUND:                 0.000
REMARK SMILES Nc1ncnc2nc[nH]c12
REMARK SMILES IDX 8 1 7 2 6 3 5 4 4 5 3 6 2 7 10 8 9 9 1 11
REMARK H PARENT 9 10 1 12 1 13
REMARK Flexibility Score: inf
ROOT
ATOM      1  C   UNL     1       6.813   1.852  10.380  1.00  0.00     0.199 A 
ATOM      2  N   UNL     1       5.575   1.293  10.291  1.00  0.00    -0.217 NA
ATOM      3  C   UNL     1       5.790   0.052  10.757  1.00  0.00     0.182 A 
ATOM      4  N   UNL     1       4.869  -0.935  10.883  1.00  0.00    -0.215 NA
ATOM      5  C   UNL     1       5.280  -2.141  11.380  1.00  0.00     0.226 A 
ATOM      6  N   UNL     1       6.590  -2.337  11.739  1.00  0.00    -0.217 NA
ATOM      7  C   UNL     1       7.519  -1.343  11.612  1.00  0.00     0.152 A 
ATOM      8  C   UNL     1       7.086  -0.122  11.105  1.00  0.00     0.127 A 
ATOM      9  N   UNL     1       7.758   1.013  10.873  1.00  0.00    -0.340 N 
ATOM     10  H   UNL     1       8.769   1.216  11.031  1.00  0.00     0.168 HD
ENDROOT
BRANCH   7  11
ATOM     11  N   UNL     1       8.877  -1.570  11.993  1.00  0.00    -0.382 N 
ATOM     12  H   UNL     1       9.584  -1.832  11.270  1.00  0.00     0.158 HD
ATOM     13  H   UNL     1       9.187  -1.479  12.985  1.00  0.00     0.158 HD
ENDBRANCH   7  11
TORSDOF 1
ENDMDL
MODEL 2
REMARK VINA RESULT:     5.571      1.133      3.109
REMARK INTER + INTRA:           5.734
REMARK INTER:                   5.734
REMARK INTRA:                   0.000
REMARK UNBOUND:                 0.000
REMARK SMILES Nc1ncnc2nc[nH]c12
REMARK SMILES IDX 8 1 7 2 6 3 5 4 4 5 3 6 2 7 10 8 9 9 1 11
REMARK H PARENT 9 10 1 12 1 13
REMARK Flexibility Score: inf
ROOT
ATOM      1  C   UNL     1       6.948  -1.814  11.497  1.00  0.00     0.199 A 
ATOM      2  N   UNL     1       5.749  -1.566  10.901  1.00  0.00    -0.217 NA
ATOM      3  C   UNL     1       5.841  -0.258  10.610  1.00  0.00     0.182 A 
ATOM      4  N   UNL     1       4.900   0.501   9.999  1.00  0.00    -0.215 NA
ATOM      5  C   UNL     1       5.176   1.824   9.787  1.00  0.00     0.226 A 
ATOM      6  N   UNL     1       6.377   2.357  10.186  1.00  0.00    -0.217 NA
ATOM      7  C   UNL     1       7.326   1.592  10.802  1.00  0.00     0.152 A 
ATOM      8  C   UNL     1       7.030   0.249  11.010  1.00  0.00     0.127 A 
ATOM      9  N   UNL     1       7.753  -0.725  11.579  1.00  0.00    -0.340 N 
ATOM     10  H   UNL     1       8.710  -0.671  11.991  1.00  0.00     0.168 HD
ENDROOT
BRANCH   7  11
ATOM     11  N   UNL     1       8.568   2.169  11.208  1.00  0.00    -0.382 N 
ATOM     12  H   UNL     1       9.451   1.619  11.122  1.00  0.00     0.158 HD
ATOM     13  H   UNL     1       8.618   3.138  11.592  1.00  0.00     0.158 HD
ENDBRANCH   7  11
TORSDOF 1
ENDMDL
MODEL 3
REMARK VINA RESULT:     6.002      1.278      2.449
REMARK INTER + INTRA:           6.178
REMARK INTER:                   6.178
REMARK INTRA:                   0.000
REMARK UNBOUND:                 0.000
REMARK SMILES Nc1ncnc2nc[nH]c12
REMARK SMILES IDX 8 1 7 2 6 3 5 4 4 5 3 6 2 7 10 8 9 9 1 11
REMARK H PARENT 9 10 1 12 1 13
REMARK Flexibility Score: inf
ROOT
ATOM      1  C   UNL     1       6.213   1.954  10.018  1.00  0.00     0.199 A 
ATOM      2  N   UNL     1       6.913   1.516  11.099  1.00  0.00    -0.217 NA
ATOM      3  C   UNL     1       6.618   0.206  11.119  1.00  0.00     0.182 A 
ATOM      4  N   UNL     1       7.065  -0.710  12.012  1.00  0.00    -0.215 NA
ATOM      5  C   UNL     1       6.651  -2.006  11.869  1.00  0.00     0.226 A 
ATOM      6  N   UNL     1       5.808  -2.358  10.845  1.00  0.00    -0.217 NA
ATOM      7  C   UNL     1       5.357  -1.436   9.944  1.00  0.00     0.152 A 
ATOM      8  C   UNL     1       5.786  -0.122  10.103  1.00  0.00     0.127 A 
ATOM      9  N   UNL     1       5.514   0.977   9.387  1.00  0.00    -0.340 N 
ATOM     10  H   UNL     1       4.909   1.071   8.542  1.00  0.00     0.168 HD
ENDROOT
BRANCH   7  11
ATOM     11  N   UNL     1       4.479  -1.826   8.886  1.00  0.00    -0.382 N 
ATOM     12  H   UNL     1       3.569  -2.287   9.108  1.00  0.00     0.158 HD
ATOM     13  H   UNL     1       4.726  -1.661   7.886  1.00  0.00     0.158 HD
ENDBRANCH   7  11
TORSDOF 1
ENDMDL
MODEL 4
REMARK VINA RESULT:     6.271      9.079     10.991
REMARK INTER + INTRA:           6.454
REMARK INTER:                   6.454
REMARK INTRA:                   0.000
REMARK UNBOUND:                 0.000
REMARK SMILES Nc1ncnc2nc[nH]c12
REMARK SMILES IDX 8 1 7 2 6 3 5 4 4 5 3 6 2 7 10 8 9 9 1 11
REMARK H PARENT 9 10 1 12 1 13
REMARK Flexibility Score: inf
ROOT
ATOM      1  C   UNL     1       6.328   7.833   7.924  1.00  0.00     0.199 A 
ATOM      2  N   UNL     1       6.208   8.569   6.785  1.00  0.00    -0.217 NA
ATOM      3  C   UNL     1       5.107   9.297   7.031  1.00  0.00     0.182 A 
ATOM      4  N   UNL     1       4.540  10.208   6.204  1.00  0.00    -0.215 NA
ATOM      5  C   UNL     1       3.412  10.854   6.632  1.00  0.00     0.226 A 
ATOM      6  N   UNL     1       2.878  10.579   7.866  1.00  0.00    -0.217 NA
ATOM      7  C   UNL     1       3.449   9.660   8.700  1.00  0.00     0.152 A 
ATOM      8  C   UNL     1       4.595   9.012   8.251  1.00  0.00     0.127 A 
ATOM      9  N   UNL     1       5.357   8.081   8.839  1.00  0.00    -0.340 N 
ATOM     10  H   UNL     1       5.242   7.642   9.779  1.00  0.00     0.168 HD
ENDROOT
BRANCH   7  11
ATOM     11  N   UNL     1       2.875   9.390   9.980  1.00  0.00    -0.382 N 
ATOM     12  H   UNL     1       3.410   9.614  10.849  1.00  0.00     0.158 HD
ATOM     13  H   UNL     1       1.924   8.971  10.073  1.00  0.00     0.158 HD
ENDBRANCH   7  11
TORSDOF 1
ENDMDL
MODEL 5
REMARK VINA RESULT:     6.341      1.098      3.163
REMARK INTER + INTRA:           6.526
REMARK INTER:                   6.526
REMARK INTRA:                   0.000
REMARK UNBOUND:                 0.000
REMARK SMILES Nc1ncnc2nc[nH]c12
REMARK SMILES IDX 8 1 7 2 6 3 5 4 4 5 3 6 2 7 10 8 9 9 1 11
REMARK H PARENT 9 10 1 12 1 13
REMARK Flexibility Score: inf
ROOT
ATOM      1  C   UNL     1       9.136  -2.369  12.424  1.00  0.00     0.199 A 
ATOM      2  N   UNL     1       7.994  -3.049  12.718  1.00  0.00    -0.217 NA
ATOM      3  C   UNL     1       7.048  -2.263  12.180  1.00  0.00     0.182 A 
ATOM      4  N   UNL     1       5.711  -2.485  12.191  1.00  0.00    -0.215 NA
ATOM      5  C   UNL     1       4.899  -1.564  11.588  1.00  0.00     0.226 A 
ATOM      6  N   UNL     1       5.434  -0.450  10.989  1.00  0.00    -0.217 NA
ATOM      7  C   UNL     1       6.781  -0.226  10.978  1.00  0.00     0.152 A 
ATOM      8  C   UNL     1       7.594  -1.171  11.596  1.00  0.00     0.127 A 
ATOM      9  N   UNL     1       8.924  -1.217  11.739  1.00  0.00    -0.340 N 
ATOM     10  H   UNL     1       9.640  -0.534  11.406  1.00  0.00     0.168 HD
ENDROOT
BRANCH   7  11
ATOM     11  N   UNL     1       7.315   0.940  10.349  1.00  0.00    -0.382 N 
ATOM     12  H   UNL     1       8.348   1.052  10.248  1.00  0.00     0.158 HD
ATOM     13  H   UNL     1       6.693   1.693   9.981  1.00  0.00     0.158 HD
ENDBRANCH   7  11
TORSDOF 1
ENDMDL
MODEL 6
REMARK VINA RESULT:     6.764      1.071      3.954
REMARK INTER + INTRA:           6.962
REMARK INTER:                   6.962
REMARK INTRA:                   0.000
REMARK UNBOUND:                 0.000
REMARK SMILES Nc1ncnc2nc[nH]c12
REMARK SMILES IDX 8 1 7 2 6 3 5 4 4 5 3 6 2 7 10 8 9 9 1 11
REMARK H PARENT 9 10 1 12 1 13
REMARK Flexibility Score: inf
ROOT
ATOM      1  C   UNL     1       5.875  -1.742  11.211  1.00  0.00     0.199 A 
ATOM      2  N   UNL     1       7.136  -1.332  11.516  1.00  0.00    -0.217 NA
ATOM      3  C   UNL     1       7.113  -0.041  11.147  1.00  0.00     0.182 A 
ATOM      4  N   UNL     1       8.136   0.844  11.239  1.00  0.00    -0.215 NA
ATOM      5  C   UNL     1       7.921   2.124  10.808  1.00  0.00     0.226 A 
ATOM      6  N   UNL     1       6.700   2.493  10.300  1.00  0.00    -0.217 NA
ATOM      7  C   UNL     1       5.669   1.601  10.207  1.00  0.00     0.152 A 
ATOM      8  C   UNL     1       5.903   0.303  10.649  1.00  0.00     0.127 A 
ATOM      9  N   UNL     1       5.097  -0.766  10.680  1.00  0.00    -0.340 N 
ATOM     10  H   UNL     1       4.103  -0.842  10.371  1.00  0.00     0.168 HD
ENDROOT
BRANCH   7  11
ATOM     11  N   UNL     1       4.407   2.008   9.675  1.00  0.00    -0.382 N 
ATOM     12  H   UNL     1       3.894   1.382   9.016  1.00  0.00     0.158 HD
ATOM     13  H   UNL     1       3.979   2.925   9.930  1.00  0.00     0.158 HD
ENDBRANCH   7  11
TORSDOF 1
ENDMDL
MODEL 7
REMARK VINA RESULT:     7.342      8.049      9.477
REMARK INTER + INTRA:           7.557
REMARK INTER:                   7.557
REMARK INTRA:                   0.000
REMARK UNBOUND:                 0.000
REMARK SMILES Nc1ncnc2nc[nH]c12
REMARK SMILES IDX 8 1 7 2 6 3 5 4 4 5 3 6 2 7 10 8 9 9 1 11
REMARK H PARENT 9 10 1 12 1 13
REMARK Flexibility Score: inf
ROOT
ATOM      1  C   UNL     1      11.516  -0.842  17.191  1.00  0.00     0.199 A 
ATOM      2  N   UNL     1      12.748  -1.378  16.972  1.00  0.00    -0.217 NA
ATOM      3  C   UNL     1      13.498  -0.287  16.750  1.00  0.00     0.182 A 
ATOM      4  N   UNL     1      14.825  -0.260  16.477  1.00  0.00    -0.215 NA
ATOM      5  C   UNL     1      15.419   0.956  16.279  1.00  0.00     0.226 A 
ATOM      6  N   UNL     1      14.683   2.112  16.359  1.00  0.00    -0.217 NA
ATOM      7  C   UNL     1      13.345   2.086  16.634  1.00  0.00     0.152 A 
ATOM      8  C   UNL     1      12.755   0.841  16.833  1.00  0.00     0.127 A 
ATOM      9  N   UNL     1      11.488   0.512  17.113  1.00  0.00    -0.340 N 
ATOM     10  H   UNL     1      10.665   1.140  17.243  1.00  0.00     0.168 HD
ENDROOT
BRANCH   7  11
ATOM     11  N   UNL     1      12.599   3.302  16.712  1.00  0.00    -0.382 N 
ATOM     12  H   UNL     1      13.091   4.204  16.897  1.00  0.00     0.158 HD
ATOM     13  H   UNL     1      11.563   3.314  16.588  1.00  0.00     0.158 HD
ENDBRANCH   7  11
TORSDOF 1
ENDMDL
MODEL 8
REMARK VINA RESULT:     7.469      1.155      3.631
REMARK INTER + INTRA:           7.688
REMARK INTER:                   7.688
REMARK INTRA:                   0.000
REMARK UNBOUND:                 0.000
REMARK SMILES Nc1ncnc2nc[nH]c12
REMARK SMILES IDX 8 1 7 2 6 3 5 4 4 5 3 6 2 7 10 8 9 9 1 11
REMARK H PARENT 9 10 1 12 1 13
REMARK Flexibility Score: inf
ROOT
ATOM      1  C   UNL     1       8.349  -2.786  12.658  1.00  0.00     0.199 A 
ATOM      2  N   UNL     1       8.856  -1.776  11.901  1.00  0.00    -0.217 NA
ATOM      3  C   UNL     1       7.747  -1.123  11.517  1.00  0.00     0.182 A 
ATOM      4  N   UNL     1       7.690  -0.018  10.735  1.00  0.00    -0.215 NA
ATOM      5  C   UNL     1       6.459   0.507  10.449  1.00  0.00     0.226 A 
ATOM      6  N   UNL     1       5.321  -0.075  10.948  1.00  0.00    -0.217 NA
ATOM      7  C   UNL     1       5.378  -1.189  11.737  1.00  0.00     0.152 A 
ATOM      8  C   UNL     1       6.636  -1.712  12.018  1.00  0.00     0.127 A 
ATOM      9  N   UNL     1       6.995  -2.775  12.749  1.00  0.00    -0.340 N 
ATOM     10  H   UNL     1       6.386  -3.443  13.270  1.00  0.00     0.168 HD
ENDROOT
BRANCH   7  11
ATOM     11  N   UNL     1       4.179  -1.778  12.244  1.00  0.00    -0.382 N 
ATOM     12  H   UNL     1       3.629  -1.286  12.983  1.00  0.00     0.158 HD
ATOM     13  H   UNL     1       3.833  -2.697  11.893  1.00  0.00     0.158 HD
ENDBRANCH   7  11
TORSDOF 1
ENDMDL
MODEL 9
REMARK VINA RESULT:     7.815      5.902      7.895
REMARK INTER + INTRA:           8.043
REMARK INTER:                   8.043
REMARK INTRA:                   0.000
REMARK UNBOUND:                 0.000
REMARK SMILES Nc1ncnc2nc[nH]c12
REMARK SMILES IDX 8 1 7 2 6 3 5 4 4 5 3 6 2 7 10 8 9 9 1 11
REMARK H PARENT 9 10 1 12 1 13
REMARK Flexibility Score: inf
ROOT
ATOM      1  C   UNL     1      12.821  -0.234  16.314  1.00  0.00     0.199 A 
ATOM      2  N   UNL     1      14.080  -0.649  16.005  1.00  0.00    -0.217 NA
ATOM      3  C   UNL     1      13.879  -1.351  14.877  1.00  0.00     0.182 A 
ATOM      4  N   UNL     1      14.823  -1.989  14.144  1.00  0.00    -0.215 NA
ATOM      5  C   UNL     1      14.423  -2.656  13.019  1.00  0.00     0.226 A 
ATOM      6  N   UNL     1      13.101  -2.672  12.651  1.00  0.00    -0.217 NA
ATOM      7  C   UNL     1      12.149  -2.029  13.390  1.00  0.00     0.152 A 
ATOM      8  C   UNL     1      12.571  -1.355  14.531  1.00  0.00     0.127 A 
ATOM      9  N   UNL     1      11.877  -0.649  15.433  1.00  0.00    -0.340 N 
ATOM     10  H   UNL     1      10.851  -0.457  15.462  1.00  0.00     0.168 HD
ENDROOT
BRANCH   7  11
ATOM     11  N   UNL     1      10.778  -2.060  12.987  1.00  0.00    -0.382 N 
ATOM     12  H   UNL     1      10.304  -2.975  12.820  1.00  0.00     0.158 HD
ATOM     13  H   UNL     1      10.231  -1.181  12.855  1.00  0.00     0.158 HD
ENDBRANCH   7  11
TORSDOF 1
ENDMDL
