MODEL 1
REMARK VINA RESULT:    -4.814      0.000      0.000
REMARK INTER + INTRA:          -8.276
REMARK INTER:                  -7.347
REMARK INTRA:                  -0.929
REMARK UNBOUND:                -0.929
REMARK SMILES O=C([O-])CCCCCCCCC(=O)[O-]
REMARK SMILES IDX 7 1 6 2 5 3 4 4 2 5 1 6 3 7 8 8 9 9 10 10 11 11 12 12 13 13
REMARK SMILES IDX 14 14
REMARK H PARENT
REMARK Flexibility Score: inf
ROOT
ATOM      1  C   UNL     1     -10.813  -6.500  15.050  1.00  0.00     0.000 C 
ENDROOT
BRANCH   1   2
ATOM      2  C   UNL     1      -9.486  -6.024  15.666  1.00  0.00     0.000 C 
BRANCH   2   3
ATOM      3  C   UNL     1      -9.573  -4.591  16.219  1.00  0.00     0.006 C 
BRANCH   3   4
ATOM      4  C   UNL     1     -10.725  -3.788  15.598  1.00  0.00     0.053 C 
BRANCH   4   5
ATOM      5  C   UNL     1     -11.688  -3.356  16.659  1.00  0.00     0.041 C 
ATOM      6  O   UNL     1     -12.897  -3.702  16.596  1.00  0.00    -0.550 OA
ATOM      7  O   UNL     1     -11.240  -2.612  17.744  1.00  0.00    -0.550 OA
ENDBRANCH   4   5
ENDBRANCH   3   4
ENDBRANCH   2   3
ENDBRANCH   1   2
BRANCH   1   8
ATOM      8  C   UNL     1     -10.664  -6.966  13.591  1.00  0.00     0.000 C 
BRANCH   8   9
ATOM      9  C   UNL     1     -11.175  -5.972  12.533  1.00  0.00     0.000 C 
BRANCH   9  10
ATOM     10  C   UNL     1     -10.077  -5.518  11.556  1.00  0.00     0.006 C 
BRANCH  10  11
ATOM     11  C   UNL     1      -8.688  -6.016  11.973  1.00  0.00     0.053 C 
BRANCH  11  12
ATOM     12  C   UNL     1      -7.853  -4.912  12.545  1.00  0.00     0.041 C 
ATOM     13  O   UNL     1      -8.393  -3.841  12.926  1.00  0.00    -0.550 OA
ATOM     14  O   UNL     1      -6.481  -5.081  12.688  1.00  0.00    -0.550 OA
ENDBRANCH  11  12
ENDBRANCH  10  11
ENDBRANCH   9  10
ENDBRANCH   8   9
ENDBRANCH   1   8
TORSDOF 9
ENDMDL
MODEL 2
REMARK VINA RESULT:    -4.720      2.636      5.718
REMARK INTER + INTRA:          -8.133
REMARK INTER:                  -7.293
REMARK INTRA:                  -0.840
REMARK UNBOUND:                -0.929
REMARK SMILES O=C([O-])CCCCCCCCC(=O)[O-]
REMARK SMILES IDX 7 1 6 2 5 3 4 4 2 5 1 6 3 7 8 8 9 9 10 10 11 11 12 12 13 13
REMARK SMILES IDX 14 14
REMARK H PARENT
REMARK Flexibility Score: inf
ROOT
ATOM      1  C   UNL     1     -10.603  -6.643  13.418  1.00  0.00     0.000 C 
ENDROOT
BRANCH   1   2
ATOM      2  C   UNL     1     -12.119  -6.760  13.186  1.00  0.00     0.000 C 
BRANCH   2   3
ATOM      3  C   UNL     1     -12.660  -5.660  12.257  1.00  0.00     0.006 C 
BRANCH   3   4
ATOM      4  C   UNL     1     -11.550  -4.963  11.459  1.00  0.00     0.053 C 
BRANCH   4   5
ATOM      5  C   UNL     1     -11.510  -5.485  10.057  1.00  0.00     0.041 C 
ATOM      6  O   UNL     1     -12.579  -5.664   9.417  1.00  0.00    -0.550 OA
ATOM      7  O   UNL     1     -10.289  -5.728   9.440  1.00  0.00    -0.550 OA
ENDBRANCH   4   5
ENDBRANCH   3   4
ENDBRANCH   2   3
ENDBRANCH   1   2
BRANCH   1   8
ATOM      8  C   UNL     1     -10.245  -6.279  14.870  1.00  0.00     0.000 C 
BRANCH   8   9
ATOM      9  C   UNL     1     -11.425  -5.800  15.733  1.00  0.00     0.000 C 
BRANCH   9  10
ATOM     10  C   UNL     1     -11.436  -4.276  15.943  1.00  0.00     0.006 C 
BRANCH  10  11
ATOM     11  C   UNL     1     -12.854  -3.731  16.160  1.00  0.00     0.053 C 
BRANCH  11  12
ATOM     12  C   UNL     1     -13.406  -3.114  14.912  1.00  0.00     0.041 C 
ATOM     13  O   UNL     1     -12.630  -2.660  14.032  1.00  0.00    -0.550 OA
ATOM     14  O   UNL     1     -14.780  -3.071  14.708  1.00  0.00    -0.550 OA
ENDBRANCH  11  12
ENDBRANCH  10  11
ENDBRANCH   9  10
ENDBRANCH   8   9
ENDBRANCH   1   8
TORSDOF 9
ENDMDL
MODEL 3
REMARK VINA RESULT:    -4.651      1.275      2.061
REMARK INTER + INTRA:          -8.028
REMARK INTER:                  -7.349
REMARK INTRA:                  -0.679
REMARK UNBOUND:                -0.929
REMARK SMILES O=C([O-])CCCCCCCCC(=O)[O-]
REMARK SMILES IDX 7 1 6 2 5 3 4 4 2 5 1 6 3 7 8 8 9 9 10 10 11 11 12 12 13 13
REMARK SMILES IDX 14 14
REMARK H PARENT
REMARK Flexibility Score: inf
ROOT
ATOM      1  C   UNL     1     -11.594  -6.513  15.385  1.00  0.00     0.000 C 
ENDROOT
BRANCH   1   2
ATOM      2  C   UNL     1     -10.209  -6.039  15.861  1.00  0.00     0.000 C 
BRANCH   2   3
ATOM      3  C   UNL     1     -10.125  -4.510  15.998  1.00  0.00     0.006 C 
BRANCH   3   4
ATOM      4  C   UNL     1      -8.752  -4.037  16.495  1.00  0.00     0.053 C 
BRANCH   4   5
ATOM      5  C   UNL     1      -8.910  -3.117  17.664  1.00  0.00     0.041 C 
ATOM      6  O   UNL     1      -8.024  -3.069  18.558  1.00  0.00    -0.550 OA
ATOM      7  O   UNL     1     -10.013  -2.275  17.742  1.00  0.00    -0.550 OA
ENDBRANCH   4   5
ENDBRANCH   3   4
ENDBRANCH   2   3
ENDBRANCH   1   2
BRANCH   1   8
ATOM      8  C   UNL     1     -11.619  -6.889  13.893  1.00  0.00     0.000 C 
BRANCH   8   9
ATOM      9  C   UNL     1     -10.237  -7.009  13.227  1.00  0.00     0.000 C 
BRANCH   9  10
ATOM     10  C   UNL     1     -10.012  -5.969  12.117  1.00  0.00     0.006 C 
BRANCH  10  11
ATOM     11  C   UNL     1      -8.534  -5.849  11.724  1.00  0.00     0.053 C 
BRANCH  11  12
ATOM     12  C   UNL     1      -7.820  -4.834  12.562  1.00  0.00     0.041 C 
ATOM     13  O   UNL     1      -6.613  -5.003  12.873  1.00  0.00    -0.550 OA
ATOM     14  O   UNL     1      -8.482  -3.683  12.972  1.00  0.00    -0.550 OA
ENDBRANCH  11  12
ENDBRANCH  10  11
ENDBRANCH   9  10
ENDBRANCH   8   9
ENDBRANCH   1   8
TORSDOF 9
ENDMDL
MODEL 4
REMARK VINA RESULT:    -4.645      2.344      2.808
REMARK INTER + INTRA:          -8.018
REMARK INTER:                  -7.222
REMARK INTRA:                  -0.797
REMARK UNBOUND:                -0.929
REMARK SMILES O=C([O-])CCCCCCCCC(=O)[O-]
REMARK SMILES IDX 7 1 6 2 5 3 4 4 2 5 1 6 3 7 8 8 9 9 10 10 11 11 12 12 13 13
REMARK SMILES IDX 14 14
REMARK H PARENT
REMARK Flexibility Score: inf
ROOT
ATOM      1  C   UNL     1     -10.734  -7.390  14.757  1.00  0.00     0.000 C 
ENDROOT
BRANCH   1   2
ATOM      2  C   UNL     1     -11.120  -6.358  15.830  1.00  0.00     0.000 C 
BRANCH   2   3
ATOM      3  C   UNL     1     -10.193  -5.131  15.828  1.00  0.00     0.006 C 
BRANCH   3   4
ATOM      4  C   UNL     1     -10.927  -3.837  15.449  1.00  0.00     0.053 C 
BRANCH   4   5
ATOM      5  C   UNL     1     -11.795  -3.380  16.580  1.00  0.00     0.041 C 
ATOM      6  O   UNL     1     -13.033  -3.606  16.560  1.00  0.00    -0.550 OA
ATOM      7  O   UNL     1     -11.227  -2.748  17.679  1.00  0.00    -0.550 OA
ENDBRANCH   4   5
ENDBRANCH   3   4
ENDBRANCH   2   3
ENDBRANCH   1   2
BRANCH   1   8
ATOM      8  C   UNL     1     -10.900  -6.855  13.323  1.00  0.00     0.000 C 
BRANCH   8   9
ATOM      9  C   UNL     1     -12.356  -6.702  12.849  1.00  0.00     0.000 C 
BRANCH   9  10
ATOM     10  C   UNL     1     -12.748  -5.240  12.575  1.00  0.00     0.006 C 
BRANCH  10  11
ATOM     11  C   UNL     1     -11.796  -4.560  11.582  1.00  0.00     0.053 C 
BRANCH  11  12
ATOM     12  C   UNL     1     -11.870  -5.190  10.226  1.00  0.00     0.041 C 
ATOM     13  O   UNL     1     -12.984  -5.360   9.665  1.00  0.00    -0.550 OA
ATOM     14  O   UNL     1     -10.704  -5.559   9.567  1.00  0.00    -0.550 OA
ENDBRANCH  11  12
ENDBRANCH  10  11
ENDBRANCH   9  10
ENDBRANCH   8   9
ENDBRANCH   1   8
TORSDOF 9
ENDMDL
MODEL 5
REMARK VINA RESULT:    -4.644      2.133      5.541
REMARK INTER + INTRA:          -8.017
REMARK INTER:                  -7.282
REMARK INTRA:                  -0.735
REMARK UNBOUND:                -0.929
REMARK SMILES O=C([O-])CCCCCCCCC(=O)[O-]
REMARK SMILES IDX 7 1 6 2 5 3 4 4 2 5 1 6 3 7 8 8 9 9 10 10 11 11 12 12 13 13
REMARK SMILES IDX 14 14
REMARK H PARENT
REMARK Flexibility Score: inf
ROOT
ATOM      1  C   UNL     1      -8.951  -4.078  16.572  1.00  0.00     0.000 C 
ENDROOT
BRANCH   1   2
ATOM      2  C   UNL     1      -8.814  -5.244  15.578  1.00  0.00     0.000 C 
BRANCH   2   3
ATOM      3  C   UNL     1      -8.993  -4.799  14.117  1.00  0.00     0.006 C 
BRANCH   3   4
ATOM      4  C   UNL     1      -9.963  -5.699  13.340  1.00  0.00     0.053 C 
BRANCH   4   5
ATOM      5  C   UNL     1      -9.481  -5.894  11.937  1.00  0.00     0.041 C 
ATOM      6  O   UNL     1     -10.266  -5.723  10.968  1.00  0.00    -0.550 OA
ATOM      7  O   UNL     1      -8.151  -6.217  11.697  1.00  0.00    -0.550 OA
ENDBRANCH   4   5
ENDBRANCH   3   4
ENDBRANCH   2   3
ENDBRANCH   1   2
BRANCH   1   8
ATOM      8  C   UNL     1     -10.073  -3.095  16.192  1.00  0.00     0.000 C 
BRANCH   8   9
ATOM      9  C   UNL     1     -11.298  -3.112  17.123  1.00  0.00     0.000 C 
BRANCH   9  10
ATOM     10  C   UNL     1     -12.598  -3.501  16.399  1.00  0.00     0.006 C 
BRANCH  10  11
ATOM     11  C   UNL     1     -12.491  -3.320  14.879  1.00  0.00     0.053 C 
BRANCH  11  12
ATOM     12  C   UNL     1     -13.735  -2.712  14.307  1.00  0.00     0.041 C 
ATOM     13  O   UNL     1     -14.851  -3.267  14.481  1.00  0.00    -0.550 OA
ATOM     14  O   UNL     1     -13.663  -1.513  13.608  1.00  0.00    -0.550 OA
ENDBRANCH  11  12
ENDBRANCH  10  11
ENDBRANCH   9  10
ENDBRANCH   8   9
ENDBRANCH   1   8
TORSDOF 9
ENDMDL
MODEL 6
REMARK VINA RESULT:    -4.639      2.776      5.408
REMARK INTER + INTRA:          -8.009
REMARK INTER:                  -7.248
REMARK INTRA:                  -0.761
REMARK UNBOUND:                -0.929
REMARK SMILES O=C([O-])CCCCCCCCC(=O)[O-]
REMARK SMILES IDX 7 1 6 2 5 3 4 4 2 5 1 6 3 7 8 8 9 9 10 10 11 11 12 12 13 13
REMARK SMILES IDX 14 14
REMARK H PARENT
REMARK Flexibility Score: inf
ROOT
ATOM      1  C   UNL     1      -8.020  -5.259  12.205  1.00  0.00     0.000 C 
ENDROOT
BRANCH   1   2
ATOM      2  C   UNL     1      -9.221  -6.209  12.062  1.00  0.00     0.000 C 
BRANCH   2   3
ATOM      3  C   UNL     1     -10.515  -5.470  11.680  1.00  0.00     0.006 C 
BRANCH   3   4
ATOM      4  C   UNL     1     -10.766  -5.465  10.166  1.00  0.00     0.053 C 
BRANCH   4   5
ATOM      5  C   UNL     1     -12.233  -5.372   9.882  1.00  0.00     0.041 C 
ATOM      6  O   UNL     1     -12.969  -4.637  10.590  1.00  0.00    -0.550 OA
ATOM      7  O   UNL     1     -12.777  -6.059   8.805  1.00  0.00    -0.550 OA
ENDBRANCH   4   5
ENDBRANCH   3   4
ENDBRANCH   2   3
ENDBRANCH   1   2
BRANCH   1   8
ATOM      8  C   UNL     1      -8.248  -4.156  13.253  1.00  0.00     0.000 C 
BRANCH   8   9
ATOM      9  C   UNL     1      -7.742  -4.486  14.669  1.00  0.00     0.000 C 
BRANCH   9  10
ATOM     10  C   UNL     1      -8.872  -4.549  15.711  1.00  0.00     0.006 C 
BRANCH  10  11
ATOM     11  C   UNL     1      -9.392  -5.977  15.917  1.00  0.00     0.053 C 
BRANCH  11  12
ATOM     12  C   UNL     1     -10.846  -6.090  15.576  1.00  0.00     0.041 C 
ATOM     13  O   UNL     1     -11.472  -5.094  15.127  1.00  0.00    -0.550 OA
ATOM     14  O   UNL     1     -11.501  -7.307  15.722  1.00  0.00    -0.550 OA
ENDBRANCH  11  12
ENDBRANCH  10  11
ENDBRANCH   9  10
ENDBRANCH   8   9
ENDBRANCH   1   8
TORSDOF 9
ENDMDL
MODEL 7
REMARK VINA RESULT:    -4.613      1.434      4.984
REMARK INTER + INTRA:          -7.970
REMARK INTER:                  -7.358
REMARK INTRA:                  -0.612
REMARK UNBOUND:                -0.929
REMARK SMILES O=C([O-])CCCCCCCCC(=O)[O-]
REMARK SMILES IDX 7 1 6 2 5 3 4 4 2 5 1 6 3 7 8 8 9 9 10 10 11 11 12 12 13 13
REMARK SMILES IDX 14 14
REMARK H PARENT
REMARK Flexibility Score: inf
ROOT
ATOM      1  C   UNL     1     -10.663  -7.187  14.791  1.00  0.00     0.000 C 
ENDROOT
BRANCH   1   2
ATOM      2  C   UNL     1     -10.433  -7.286  13.273  1.00  0.00     0.000 C 
BRANCH   2   3
ATOM      3  C   UNL     1     -10.106  -5.925  12.636  1.00  0.00     0.006 C 
BRANCH   3   4
ATOM      4  C   UNL     1      -8.740  -5.913  11.937  1.00  0.00     0.053 C 
BRANCH   4   5
ATOM      5  C   UNL     1      -7.837  -4.906  12.577  1.00  0.00     0.041 C 
ATOM      6  O   UNL     1      -8.316  -3.867  13.100  1.00  0.00    -0.550 OA
ATOM      7  O   UNL     1      -6.469  -5.141  12.639  1.00  0.00    -0.550 OA
ENDBRANCH   4   5
ENDBRANCH   3   4
ENDBRANCH   2   3
ENDBRANCH   1   2
BRANCH   1   8
ATOM      8  C   UNL     1     -10.496  -5.755  15.331  1.00  0.00     0.000 C 
BRANCH   8   9
ATOM      9  C   UNL     1     -11.788  -5.098  15.849  1.00  0.00     0.000 C 
BRANCH   9  10
ATOM     10  C   UNL     1     -11.727  -3.562  15.841  1.00  0.00     0.006 C 
BRANCH  10  11
ATOM     11  C   UNL     1     -11.364  -2.989  17.217  1.00  0.00     0.053 C 
BRANCH  11  12
ATOM     12  C   UNL     1      -9.890  -2.759  17.350  1.00  0.00     0.041 C 
ATOM     13  O   UNL     1      -9.175  -2.621  16.324  1.00  0.00    -0.550 OA
ATOM     14  O   UNL     1      -9.313  -2.666  18.611  1.00  0.00    -0.550 OA
ENDBRANCH  11  12
ENDBRANCH  10  11
ENDBRANCH   9  10
ENDBRANCH   8   9
ENDBRANCH   1   8
TORSDOF 9
ENDMDL
MODEL 8
REMARK VINA RESULT:    -4.589      1.861      2.443
REMARK INTER + INTRA:          -7.933
REMARK INTER:                  -7.206
REMARK INTRA:                  -0.727
REMARK UNBOUND:                -0.929
REMARK SMILES O=C([O-])CCCCCCCCC(=O)[O-]
REMARK SMILES IDX 7 1 6 2 5 3 4 4 2 5 1 6 3 7 8 8 9 9 10 10 11 11 12 12 13 13
REMARK SMILES IDX 14 14
REMARK H PARENT
REMARK Flexibility Score: inf
ROOT
ATOM      1  C   UNL     1     -11.326  -7.049  15.295  1.00  0.00     0.000 C 
ENDROOT
BRANCH   1   2
ATOM      2  C   UNL     1     -10.484  -5.888  15.853  1.00  0.00     0.000 C 
BRANCH   2   3
ATOM      3  C   UNL     1     -11.250  -4.554  15.857  1.00  0.00     0.006 C 
BRANCH   3   4
ATOM      4  C   UNL     1     -10.362  -3.362  15.473  1.00  0.00     0.053 C 
BRANCH   4   5
ATOM      5  C   UNL     1      -9.589  -2.885  16.662  1.00  0.00     0.041 C 
ATOM      6  O   UNL     1      -8.336  -2.999  16.690  1.00  0.00    -0.550 OA
ATOM      7  O   UNL     1     -10.249  -2.268  17.718  1.00  0.00    -0.550 OA
ENDBRANCH   4   5
ENDBRANCH   3   4
ENDBRANCH   2   3
ENDBRANCH   1   2
BRANCH   1   8
ATOM      8  C   UNL     1     -11.269  -7.149  13.760  1.00  0.00     0.000 C 
BRANCH   8   9
ATOM      9  C   UNL     1     -12.519  -6.632  13.026  1.00  0.00     0.000 C 
BRANCH   9  10
ATOM     10  C   UNL     1     -12.181  -5.722  11.833  1.00  0.00     0.006 C 
BRANCH  10  11
ATOM     11  C   UNL     1     -10.782  -5.104  11.952  1.00  0.00     0.053 C 
BRANCH  11  12
ATOM     12  C   UNL     1      -9.837  -5.675  10.941  1.00  0.00     0.041 C 
ATOM     13  O   UNL     1      -8.725  -6.141  11.303  1.00  0.00    -0.550 OA
ATOM     14  O   UNL     1     -10.200  -5.723   9.601  1.00  0.00    -0.550 OA
ENDBRANCH  11  12
ENDBRANCH  10  11
ENDBRANCH   9  10
ENDBRANCH   8   9
ENDBRANCH   1   8
TORSDOF 9
ENDMDL
MODEL 9
REMARK VINA RESULT:    -4.566      2.045      5.077
REMARK INTER + INTRA:          -7.898
REMARK INTER:                  -6.995
REMARK INTRA:                  -0.903
REMARK UNBOUND:                -0.929
REMARK SMILES O=C([O-])CCCCCCCCC(=O)[O-]
REMARK SMILES IDX 7 1 6 2 5 3 4 4 2 5 1 6 3 7 8 8 9 9 10 10 11 11 12 12 13 13
REMARK SMILES IDX 14 14
REMARK H PARENT
REMARK Flexibility Score: inf
ROOT
ATOM      1  C   UNL     1      -7.191  -3.701  12.708  1.00  0.00     0.000 C 
ENDROOT
BRANCH   1   2
ATOM      2  C   UNL     1      -7.284  -5.233  12.605  1.00  0.00     0.000 C 
BRANCH   2   3
ATOM      3  C   UNL     1      -8.510  -5.696  11.801  1.00  0.00     0.006 C 
BRANCH   3   4
ATOM      4  C   UNL     1      -9.637  -6.228  12.697  1.00  0.00     0.053 C 
BRANCH   4   5
ATOM      5  C   UNL     1     -10.762  -5.242  12.760  1.00  0.00     0.041 C 
ATOM      6  O   UNL     1     -10.940  -4.424  11.820  1.00  0.00    -0.550 OA
ATOM      7  O   UNL     1     -11.643  -5.260  13.834  1.00  0.00    -0.550 OA
ENDBRANCH   4   5
ENDBRANCH   3   4
ENDBRANCH   2   3
ENDBRANCH   1   2
BRANCH   1   8
ATOM      8  C   UNL     1      -7.507  -3.175  14.120  1.00  0.00     0.000 C 
BRANCH   8   9
ATOM      9  C   UNL     1      -7.526  -4.245  15.226  1.00  0.00     0.000 C 
BRANCH   9  10
ATOM     10  C   UNL     1      -8.872  -4.319  15.966  1.00  0.00     0.006 C 
BRANCH  10  11
ATOM     11  C   UNL     1      -9.506  -2.935  16.158  1.00  0.00     0.053 C 
BRANCH  11  12
ATOM     12  C   UNL     1      -9.949  -2.722  17.573  1.00  0.00     0.041 C 
ATOM     13  O   UNL     1     -11.157  -2.482  17.830  1.00  0.00    -0.550 OA
ATOM     14  O   UNL     1      -9.030  -2.821  18.611  1.00  0.00    -0.550 OA
ENDBRANCH  11  12
ENDBRANCH  10  11
ENDBRANCH   9  10
ENDBRANCH   8   9
ENDBRANCH   1   8
TORSDOF 9
ENDMDL
