MODEL 1
REMARK VINA RESULT:    -7.157      0.000      0.000
REMARK INTER + INTRA:         -10.989
REMARK INTER:                  -9.458
REMARK INTRA:                  -1.531
REMARK UNBOUND:                -1.531
REMARK SMILES CC[C@@H](C=C[C@@H](C)[C@H]1CC[C@@H]2[C@H]3CC=C4C[C@H](O)CC[C@]4(C)[C@H]3CC[C@@]21C)C(C)C
REMARK SMILES IDX 6 1 7 2 5 3 4 4 3 5 2 6 1 7 28 8 29 9 30 10 8 11 9 12 26 13
REMARK SMILES IDX 10 14 11 15 25 16 27 17 12 18 24 19 23 20 13 21 21 22 14 23
REMARK SMILES IDX 15 24 20 25 22 26 16 27 19 28 17 29 18 30
REMARK H PARENT 18 31
REMARK Flexibility Score: inf
ROOT
ATOM      1  C   UNL     1      21.226 -14.122   4.511  1.00  0.00     0.012 C 
ATOM      2  C   UNL     1      22.181 -15.163   3.875  1.00  0.00     0.012 C 
ENDROOT
BRANCH   1   3
ATOM      3  C   UNL     1      19.779 -14.360   4.104  1.00  0.00    -0.028 C 
ATOM      4  C   UNL     1      18.889 -15.118   4.766  1.00  0.00    -0.027 C 
BRANCH   4   5
ATOM      5  C   UNL     1      19.160 -15.891   6.042  1.00  0.00     0.014 C 
BRANCH   5   6
ATOM      6  C   UNL     1      18.782 -17.384   5.822  1.00  0.00     0.004 C 
ATOM      7  C   UNL     1      19.207 -17.955   4.464  1.00  0.00     0.004 C 
ENDBRANCH   5   6
BRANCH   5   8
ATOM      8  C   UNL     1      18.438 -15.224   7.254  1.00  0.00    -0.011 C 
ATOM      9  C   UNL     1      18.401 -16.160   8.474  1.00  0.00     0.008 C 
ATOM     10  C   UNL     1      19.131 -13.912   7.659  1.00  0.00     0.008 C 
ENDBRANCH   5   8
ENDBRANCH   4   5
ENDBRANCH   1   3
BRANCH   1  11
ATOM     11  C   UNL     1      21.636 -12.621   4.290  1.00  0.00     0.002 C 
ATOM     12  C   UNL     1      20.417 -11.703   4.106  1.00  0.00     0.005 C 
ATOM     13  C   UNL     1      22.633 -11.885   5.284  1.00  0.00    -0.026 C 
ATOM     14  C   UNL     1      20.944 -10.312   4.368  1.00  0.00     0.005 C 
ATOM     15  C   UNL     1      21.937 -10.504   5.517  1.00  0.00    -0.001 C 
ATOM     16  C   UNL     1      24.049 -11.741   4.620  1.00  0.00     0.007 C 
ATOM     17  C   UNL     1      22.838 -12.603   6.645  1.00  0.00     0.012 C 
ATOM     18  C   UNL     1      22.860  -9.270   5.736  1.00  0.00     0.000 C 
ATOM     19  C   UNL     1      24.277 -10.419   3.876  1.00  0.00     0.005 C 
ATOM     20  C   UNL     1      24.099  -9.167   4.775  1.00  0.00     0.003 C 
ATOM     21  C   UNL     1      23.231  -9.138   7.228  1.00  0.00     0.031 C 
ATOM     22  C   UNL     1      25.428  -8.612   5.446  1.00  0.00    -0.008 C 
ATOM     23  C   UNL     1      24.087  -7.935   7.444  1.00  0.00    -0.027 C 
ATOM     24  C   UNL     1      25.084  -7.652   6.592  1.00  0.00    -0.065 C 
ATOM     25  C   UNL     1      26.300  -7.859   4.381  1.00  0.00     0.014 C 
ATOM     26  C   UNL     1      26.310  -9.732   6.047  1.00  0.00     0.016 C 
ATOM     27  C   UNL     1      25.751  -6.306   6.650  1.00  0.00     0.063 C 
ATOM     28  C   UNL     1      25.884  -6.399   4.082  1.00  0.00     0.033 C 
ATOM     29  C   UNL     1      25.489  -5.562   5.335  1.00  0.00     0.118 C 
BRANCH  29  30
ATOM     30  O   UNL     1      24.147  -5.142   5.264  1.00  0.00    -0.393 OA
ATOM     31  H   UNL     1      23.572  -5.877   5.583  1.00  0.00     0.210 HD
ENDBRANCH  29  30
ENDBRANCH   1  11
TORSDOF 6
ENDMDL
MODEL 2
REMARK VINA RESULT:    -6.933      1.892      2.776
REMARK INTER + INTRA:         -10.693
REMARK INTER:                  -9.155
REMARK INTRA:                  -1.538
REMARK UNBOUND:                -1.531
REMARK SMILES CC[C@@H](C=C[C@@H](C)[C@H]1CC[C@@H]2[C@H]3CC=C4C[C@H](O)CC[C@]4(C)[C@H]3CC[C@@]21C)C(C)C
REMARK SMILES IDX 6 1 7 2 5 3 4 4 3 5 2 6 1 7 28 8 29 9 30 10 8 11 9 12 26 13
REMARK SMILES IDX 10 14 11 15 25 16 27 17 12 18 24 19 23 20 13 21 21 22 14 23
REMARK SMILES IDX 15 24 20 25 22 26 16 27 19 28 17 29 18 30
REMARK H PARENT 18 31
REMARK Flexibility Score: inf
ROOT
ATOM      1  C   UNL     1      21.987 -12.285   4.745  1.00  0.00     0.012 C 
ATOM      2  C   UNL     1      22.586 -13.422   3.880  1.00  0.00     0.012 C 
ENDROOT
BRANCH   1   3
ATOM      3  C   UNL     1      20.611 -11.864   4.251  1.00  0.00    -0.028 C 
ATOM      4  C   UNL     1      19.438 -12.385   4.649  1.00  0.00    -0.027 C 
BRANCH   4   5
ATOM      5  C   UNL     1      19.262 -13.502   5.660  1.00  0.00     0.014 C 
BRANCH   5   6
ATOM      6  C   UNL     1      18.437 -14.650   5.012  1.00  0.00     0.004 C 
ATOM      7  C   UNL     1      19.097 -16.031   5.090  1.00  0.00     0.004 C 
ENDBRANCH   5   6
BRANCH   5   8
ATOM      8  C   UNL     1      18.654 -12.952   6.988  1.00  0.00    -0.011 C 
ATOM      9  C   UNL     1      17.228 -13.482   7.217  1.00  0.00     0.008 C 
ATOM     10  C   UNL     1      19.524 -13.334   8.196  1.00  0.00     0.008 C 
ENDBRANCH   5   8
ENDBRANCH   4   5
ENDBRANCH   1   3
BRANCH   1  11
ATOM     11  C   UNL     1      22.922 -11.037   4.942  1.00  0.00     0.002 C 
ATOM     12  C   UNL     1      22.517  -9.855   4.047  1.00  0.00     0.005 C 
ATOM     13  C   UNL     1      23.220 -10.451   6.389  1.00  0.00    -0.026 C 
ATOM     14  C   UNL     1      23.184  -8.654   4.675  1.00  0.00     0.005 C 
ATOM     15  C   UNL     1      23.063  -8.909   6.180  1.00  0.00    -0.001 C 
ATOM     16  C   UNL     1      24.667 -10.853   6.846  1.00  0.00     0.007 C 
ATOM     17  C   UNL     1      22.241 -10.930   7.494  1.00  0.00     0.012 C 
ATOM     18  C   UNL     1      23.976  -7.979   7.030  1.00  0.00     0.000 C 
ATOM     19  C   UNL     1      25.752  -9.817   6.523  1.00  0.00     0.005 C 
ATOM     20  C   UNL     1      25.480  -8.423   7.147  1.00  0.00     0.003 C 
ATOM     21  C   UNL     1      23.318  -7.685   8.394  1.00  0.00     0.031 C 
ATOM     22  C   UNL     1      26.150  -8.164   8.564  1.00  0.00    -0.008 C 
ATOM     23  C   UNL     1      24.177  -6.766   9.195  1.00  0.00    -0.027 C 
ATOM     24  C   UNL     1      25.505  -6.949   9.244  1.00  0.00    -0.065 C 
ATOM     25  C   UNL     1      27.689  -7.911   8.398  1.00  0.00     0.014 C 
ATOM     26  C   UNL     1      25.987  -9.360   9.533  1.00  0.00     0.016 C 
ATOM     27  C   UNL     1      26.384  -5.870   9.811  1.00  0.00     0.063 C 
ATOM     28  C   UNL     1      28.094  -6.476   7.985  1.00  0.00     0.033 C 
ATOM     29  C   UNL     1      27.303  -5.341   8.702  1.00  0.00     0.118 C 
BRANCH  29  30
ATOM     30  O   UNL     1      26.570  -4.570   7.780  1.00  0.00    -0.393 OA
ATOM     31  H   UNL     1      25.797  -5.099   7.473  1.00  0.00     0.210 HD
ENDBRANCH  29  30
ENDBRANCH   1  11
TORSDOF 6
ENDMDL
MODEL 3
REMARK VINA RESULT:    -6.818     16.005     18.735
REMARK INTER + INTRA:         -10.542
REMARK INTER:                  -9.195
REMARK INTRA:                  -1.346
REMARK UNBOUND:                -1.531
REMARK SMILES CC[C@@H](C=C[C@@H](C)[C@H]1CC[C@@H]2[C@H]3CC=C4C[C@H](O)CC[C@]4(C)[C@H]3CC[C@@]21C)C(C)C
REMARK SMILES IDX 6 1 7 2 5 3 4 4 3 5 2 6 1 7 28 8 29 9 30 10 8 11 9 12 26 13
REMARK SMILES IDX 10 14 11 15 25 16 27 17 12 18 24 19 23 20 13 21 21 22 14 23
REMARK SMILES IDX 15 24 20 25 22 26 16 27 19 28 17 29 18 30
REMARK H PARENT 18 31
REMARK Flexibility Score: inf
ROOT
ATOM      1  C   UNL     1      16.624  -3.602  18.696  1.00  0.00     0.012 C 
ATOM      2  C   UNL     1      16.540  -5.140  18.530  1.00  0.00     0.012 C 
ENDROOT
BRANCH   1   3
ATOM      3  C   UNL     1      15.851  -2.873  17.606  1.00  0.00    -0.028 C 
ATOM      4  C   UNL     1      15.356  -1.627  17.692  1.00  0.00    -0.027 C 
BRANCH   4   5
ATOM      5  C   UNL     1      15.463  -0.712  18.897  1.00  0.00     0.014 C 
BRANCH   5   6
ATOM      6  C   UNL     1      14.116  -0.735  19.675  1.00  0.00     0.004 C 
ATOM      7  C   UNL     1      14.234  -0.379  21.161  1.00  0.00     0.004 C 
ENDBRANCH   5   6
BRANCH   5   8
ATOM      8  C   UNL     1      15.924   0.715  18.464  1.00  0.00    -0.011 C 
ATOM      9  C   UNL     1      17.228   1.125  19.171  1.00  0.00     0.008 C 
ATOM     10  C   UNL     1      16.142   0.791  16.944  1.00  0.00     0.008 C 
ENDBRANCH   5   8
ENDBRANCH   4   5
ENDBRANCH   1   3
BRANCH   1  11
ATOM     11  C   UNL     1      18.080  -3.028  18.837  1.00  0.00     0.002 C 
ATOM     12  C   UNL     1      18.479  -2.146  17.642  1.00  0.00     0.005 C 
ATOM     13  C   UNL     1      18.543  -2.271  20.154  1.00  0.00    -0.026 C 
ATOM     14  C   UNL     1      19.655  -1.339  18.139  1.00  0.00     0.005 C 
ATOM     15  C   UNL     1      19.296  -1.020  19.593  1.00  0.00    -0.001 C 
ATOM     16  C   UNL     1      19.475  -3.200  21.011  1.00  0.00     0.007 C 
ATOM     17  C   UNL     1      17.383  -1.810  21.077  1.00  0.00     0.012 C 
ATOM     18  C   UNL     1      20.506  -0.489  20.416  1.00  0.00     0.000 C 
ATOM     19  C   UNL     1      20.975  -3.032  20.738  1.00  0.00     0.005 C 
ATOM     20  C   UNL     1      21.486  -1.586  20.970  1.00  0.00     0.003 C 
ATOM     21  C   UNL     1      20.024   0.502  21.494  1.00  0.00     0.031 C 
ATOM     22  C   UNL     1      22.075  -1.292  22.417  1.00  0.00    -0.008 C 
ATOM     23  C   UNL     1      21.187   1.039  22.260  1.00  0.00    -0.027 C 
ATOM     24  C   UNL     1      22.174   0.220  22.654  1.00  0.00    -0.065 C 
ATOM     25  C   UNL     1      23.498  -1.937  22.563  1.00  0.00     0.014 C 
ATOM     26  C   UNL     1      21.195  -1.869  23.552  1.00  0.00     0.016 C 
ATOM     27  C   UNL     1      23.462   0.802  23.168  1.00  0.00     0.063 C 
ATOM     28  C   UNL     1      24.669  -1.124  21.962  1.00  0.00     0.033 C 
ATOM     29  C   UNL     1      24.600   0.411  22.218  1.00  0.00     0.118 C 
BRANCH  29  30
ATOM     30  O   UNL     1      24.501   1.125  21.008  1.00  0.00    -0.393 OA
ATOM     31  H   UNL     1      23.567   1.080  20.694  1.00  0.00     0.210 HD
ENDBRANCH  29  30
ENDBRANCH   1  11
TORSDOF 6
ENDMDL
MODEL 4
REMARK VINA RESULT:    -6.429      9.642     15.003
REMARK INTER + INTRA:         -10.027
REMARK INTER:                  -8.521
REMARK INTRA:                  -1.506
REMARK UNBOUND:                -1.531
REMARK SMILES CC[C@@H](C=C[C@@H](C)[C@H]1CC[C@@H]2[C@H]3CC=C4C[C@H](O)CC[C@]4(C)[C@H]3CC[C@@]21C)C(C)C
REMARK SMILES IDX 6 1 7 2 5 3 4 4 3 5 2 6 1 7 28 8 29 9 30 10 8 11 9 12 26 13
REMARK SMILES IDX 10 14 11 15 25 16 27 17 12 18 24 19 23 20 13 21 21 22 14 23
REMARK SMILES IDX 15 24 20 25 22 26 16 27 19 28 17 29 18 30
REMARK H PARENT 18 31
REMARK Flexibility Score: inf
ROOT
ATOM      1  C   UNL     1      14.917 -18.318  12.478  1.00  0.00     0.012 C 
ATOM      2  C   UNL     1      14.208 -19.125  11.363  1.00  0.00     0.012 C 
ENDROOT
BRANCH   1   3
ATOM      3  C   UNL     1      16.227 -18.968  12.900  1.00  0.00    -0.028 C 
ATOM      4  C   UNL     1      17.427 -18.762  12.330  1.00  0.00    -0.027 C 
BRANCH   4   5
ATOM      5  C   UNL     1      17.704 -17.851  11.150  1.00  0.00     0.014 C 
BRANCH   5   6
ATOM      6  C   UNL     1      18.498 -18.642  10.071  1.00  0.00     0.004 C 
ATOM      7  C   UNL     1      17.698 -18.972   8.806  1.00  0.00     0.004 C 
ENDBRANCH   5   6
BRANCH   5   8
ATOM      8  C   UNL     1      18.403 -16.538  11.620  1.00  0.00    -0.011 C 
ATOM      9  C   UNL     1      19.850 -16.453  11.103  1.00  0.00     0.008 C 
ATOM     10  C   UNL     1      17.633 -15.297  11.140  1.00  0.00     0.008 C 
ENDBRANCH   5   8
ENDBRANCH   4   5
ENDBRANCH   1   3
BRANCH   1  11
ATOM     11  C   UNL     1      14.025 -17.984  13.727  1.00  0.00     0.002 C 
ATOM     12  C   UNL     1      14.519 -18.685  15.003  1.00  0.00     0.005 C 
ATOM     13  C   UNL     1      13.683 -16.483  14.118  1.00  0.00    -0.026 C 
ATOM     14  C   UNL     1      13.871 -17.921  16.134  1.00  0.00     0.005 C 
ATOM     15  C   UNL     1      13.911 -16.463  15.666  1.00  0.00    -0.001 C 
ATOM     16  C   UNL     1      12.201 -16.146  13.724  1.00  0.00     0.007 C 
ATOM     17  C   UNL     1      14.589 -15.417  13.444  1.00  0.00     0.012 C 
ATOM     18  C   UNL     1      12.996 -15.528  16.508  1.00  0.00     0.000 C 
ATOM     19  C   UNL     1      11.174 -16.363  14.843  1.00  0.00     0.005 C 
ATOM     20  C   UNL     1      11.473 -15.537  16.122  1.00  0.00     0.003 C 
ATOM     21  C   UNL     1      13.601 -14.111  16.577  1.00  0.00     0.031 C 
ATOM     22  C   UNL     1      10.747 -14.126  16.211  1.00  0.00    -0.008 C 
ATOM     23  C   UNL     1      12.743 -13.223  17.414  1.00  0.00    -0.027 C 
ATOM     24  C   UNL     1      11.407 -13.255  17.287  1.00  0.00    -0.065 C 
ATOM     25  C   UNL     1       9.228 -14.319  16.556  1.00  0.00     0.014 C 
ATOM     26  C   UNL     1      10.816 -13.332  14.885  1.00  0.00     0.016 C 
ATOM     27  C   UNL     1      10.546 -12.578  18.316  1.00  0.00     0.063 C 
ATOM     28  C   UNL     1       8.902 -14.539  18.052  1.00  0.00     0.033 C 
ATOM     29  C   UNL     1       9.702 -13.637  19.036  1.00  0.00     0.118 C 
BRANCH  29  30
ATOM     30  O   UNL     1      10.508 -14.409  19.895  1.00  0.00    -0.393 OA
ATOM     31  H   UNL     1       9.922 -14.978  20.447  1.00  0.00     0.210 HD
ENDBRANCH  29  30
ENDBRANCH   1  11
TORSDOF 6
ENDMDL
MODEL 5
REMARK VINA RESULT:    -6.429      9.698     15.789
REMARK INTER + INTRA:         -10.027
REMARK INTER:                  -8.739
REMARK INTRA:                  -1.288
REMARK UNBOUND:                -1.531
REMARK SMILES CC[C@@H](C=C[C@@H](C)[C@H]1CC[C@@H]2[C@H]3CC=C4C[C@H](O)CC[C@]4(C)[C@H]3CC[C@@]21C)C(C)C
REMARK SMILES IDX 6 1 7 2 5 3 4 4 3 5 2 6 1 7 28 8 29 9 30 10 8 11 9 12 26 13
REMARK SMILES IDX 10 14 11 15 25 16 27 17 12 18 24 19 23 20 13 21 21 22 14 23
REMARK SMILES IDX 15 24 20 25 22 26 16 27 19 28 17 29 18 30
REMARK H PARENT 18 31
REMARK Flexibility Score: inf
ROOT
ATOM      1  C   UNL     1      15.318 -18.322  12.170  1.00  0.00     0.012 C 
ATOM      2  C   UNL     1      14.631 -19.007  10.963  1.00  0.00     0.012 C 
ENDROOT
BRANCH   1   3
ATOM      3  C   UNL     1      16.797 -18.670  12.252  1.00  0.00    -0.028 C 
ATOM      4  C   UNL     1      17.793 -18.027  11.620  1.00  0.00    -0.027 C 
BRANCH   4   5
ATOM      5  C   UNL     1      17.633 -16.837  10.695  1.00  0.00     0.014 C 
BRANCH   5   6
ATOM      6  C   UNL     1      18.096 -17.238   9.265  1.00  0.00     0.004 C 
ATOM      7  C   UNL     1      17.613 -18.618   8.804  1.00  0.00     0.004 C 
ENDBRANCH   5   6
BRANCH   5   8
ATOM      8  C   UNL     1      18.367 -15.587  11.274  1.00  0.00    -0.011 C 
ATOM      9  C   UNL     1      19.888 -15.805  11.338  1.00  0.00     0.008 C 
ATOM     10  C   UNL     1      18.083 -14.336  10.426  1.00  0.00     0.008 C 
ENDBRANCH   5   8
ENDBRANCH   4   5
ENDBRANCH   1   3
BRANCH   1  11
ATOM     11  C   UNL     1      14.607 -18.546  13.554  1.00  0.00     0.002 C 
ATOM     12  C   UNL     1      15.559 -19.125  14.613  1.00  0.00     0.005 C 
ATOM     13  C   UNL     1      13.778 -17.384  14.251  1.00  0.00    -0.026 C 
ATOM     14  C   UNL     1      14.878 -18.845  15.932  1.00  0.00     0.005 C 
ATOM     15  C   UNL     1      14.255 -17.459  15.740  1.00  0.00    -0.001 C 
ATOM     16  C   UNL     1      12.238 -17.653  14.099  1.00  0.00     0.007 C 
ATOM     17  C   UNL     1      14.052 -15.964  13.687  1.00  0.00     0.012 C 
ATOM     18  C   UNL     1      13.214 -17.101  16.840  1.00  0.00     0.000 C 
ATOM     19  C   UNL     1      11.601 -18.413  15.269  1.00  0.00     0.005 C 
ATOM     20  C   UNL     1      11.775 -17.700  16.636  1.00  0.00     0.003 C 
ATOM     21  C   UNL     1      13.213 -15.581  17.099  1.00  0.00     0.031 C 
ATOM     22  C   UNL     1      10.581 -16.744  17.066  1.00  0.00    -0.008 C 
ATOM     23  C   UNL     1      12.240 -15.242  18.179  1.00  0.00    -0.027 C 
ATOM     24  C   UNL     1      11.026 -15.814  18.202  1.00  0.00    -0.065 C 
ATOM     25  C   UNL     1       9.350 -17.593  17.541  1.00  0.00     0.014 C 
ATOM     26  C   UNL     1      10.091 -15.839  15.910  1.00  0.00     0.016 C 
ATOM     27  C   UNL     1      10.169 -15.689  19.430  1.00  0.00     0.063 C 
ATOM     28  C   UNL     1       9.413 -18.110  18.998  1.00  0.00     0.033 C 
ATOM     29  C   UNL     1       9.956 -17.082  20.034  1.00  0.00     0.118 C 
BRANCH  29  30
ATOM     30  O   UNL     1      11.142 -17.545  20.637  1.00  0.00    -0.393 OA
ATOM     31  H   UNL     1      11.452 -16.864  21.280  1.00  0.00     0.210 HD
ENDBRANCH  29  30
ENDBRANCH   1  11
TORSDOF 6
ENDMDL
MODEL 6
REMARK VINA RESULT:    -6.287      1.598      2.651
REMARK INTER + INTRA:          -9.839
REMARK INTER:                  -8.926
REMARK INTRA:                  -0.913
REMARK UNBOUND:                -1.531
REMARK SMILES CC[C@@H](C=C[C@@H](C)[C@H]1CC[C@@H]2[C@H]3CC=C4C[C@H](O)CC[C@]4(C)[C@H]3CC[C@@]21C)C(C)C
REMARK SMILES IDX 6 1 7 2 5 3 4 4 3 5 2 6 1 7 28 8 29 9 30 10 8 11 9 12 26 13
REMARK SMILES IDX 10 14 11 15 25 16 27 17 12 18 24 19 23 20 13 21 21 22 14 23
REMARK SMILES IDX 15 24 20 25 22 26 16 27 19 28 17 29 18 30
REMARK H PARENT 18 31
REMARK Flexibility Score: inf
ROOT
ATOM      1  C   UNL     1      22.222 -13.465   4.923  1.00  0.00     0.012 C 
ATOM      2  C   UNL     1      22.755 -14.896   4.661  1.00  0.00     0.012 C 
ENDROOT
BRANCH   1   3
ATOM      3  C   UNL     1      21.195 -13.046   3.881  1.00  0.00    -0.028 C 
ATOM      4  C   UNL     1      19.885 -13.346   3.902  1.00  0.00    -0.027 C 
BRANCH   4   5
ATOM      5  C   UNL     1      19.181 -14.169   4.963  1.00  0.00     0.014 C 
BRANCH   5   6
ATOM      6  C   UNL     1      18.167 -15.127   4.274  1.00  0.00     0.004 C 
ATOM      7  C   UNL     1      18.726 -16.517   3.947  1.00  0.00     0.004 C 
ENDBRANCH   5   6
BRANCH   5   8
ATOM      8  C   UNL     1      18.546 -13.244   6.047  1.00  0.00    -0.011 C 
ATOM      9  C   UNL     1      17.239 -13.837   6.600  1.00  0.00     0.008 C 
ATOM     10  C   UNL     1      19.517 -13.014   7.217  1.00  0.00     0.008 C 
ENDBRANCH   5   8
ENDBRANCH   4   5
ENDBRANCH   1   3
BRANCH   1  11
ATOM     11  C   UNL     1      23.330 -12.365   5.099  1.00  0.00     0.002 C 
ATOM     12  C   UNL     1      24.265 -12.277   3.882  1.00  0.00     0.005 C 
ATOM     13  C   UNL     1      22.955 -10.878   5.513  1.00  0.00    -0.026 C 
ATOM     14  C   UNL     1      24.932 -10.928   4.010  1.00  0.00     0.005 C 
ATOM     15  C   UNL     1      23.821 -10.015   4.536  1.00  0.00    -0.001 C 
ATOM     16  C   UNL     1      23.320 -10.629   7.020  1.00  0.00     0.007 C 
ATOM     17  C   UNL     1      21.456 -10.516   5.338  1.00  0.00     0.012 C 
ATOM     18  C   UNL     1      24.353  -8.654   5.071  1.00  0.00     0.000 C 
ATOM     19  C   UNL     1      24.714 -10.032   7.253  1.00  0.00     0.005 C 
ATOM     20  C   UNL     1      24.932  -8.675   6.532  1.00  0.00     0.003 C 
ATOM     21  C   UNL     1      23.306  -7.545   4.844  1.00  0.00     0.031 C 
ATOM     22  C   UNL     1      24.618  -7.381   7.399  1.00  0.00    -0.008 C 
ATOM     23  C   UNL     1      23.830  -6.233   5.324  1.00  0.00    -0.027 C 
ATOM     24  C   UNL     1      24.486  -6.152   6.492  1.00  0.00    -0.065 C 
ATOM     25  C   UNL     1      25.765  -7.137   8.443  1.00  0.00     0.014 C 
ATOM     26  C   UNL     1      23.296  -7.497   8.195  1.00  0.00     0.016 C 
ATOM     27  C   UNL     1      25.249  -4.901   6.830  1.00  0.00     0.063 C 
ATOM     28  C   UNL     1      27.026  -6.424   7.901  1.00  0.00     0.033 C 
ATOM     29  C   UNL     1      26.742  -5.240   6.930  1.00  0.00     0.118 C 
BRANCH  29  30
ATOM     30  O   UNL     1      27.278  -5.488   5.652  1.00  0.00    -0.393 OA
ATOM     31  H   UNL     1      27.036  -4.738   5.060  1.00  0.00     0.210 HD
ENDBRANCH  29  30
ENDBRANCH   1  11
TORSDOF 6
ENDMDL
MODEL 7
REMARK VINA RESULT:    -5.611      8.035     14.294
REMARK INTER + INTRA:          -8.946
REMARK INTER:                  -8.004
REMARK INTRA:                  -0.942
REMARK UNBOUND:                -1.531
REMARK SMILES CC[C@@H](C=C[C@@H](C)[C@H]1CC[C@@H]2[C@H]3CC=C4C[C@H](O)CC[C@]4(C)[C@H]3CC[C@@]21C)C(C)C
REMARK SMILES IDX 6 1 7 2 5 3 4 4 3 5 2 6 1 7 28 8 29 9 30 10 8 11 9 12 26 13
REMARK SMILES IDX 10 14 11 15 25 16 27 17 12 18 24 19 23 20 13 21 21 22 14 23
REMARK SMILES IDX 15 24 20 25 22 26 16 27 19 28 17 29 18 30
REMARK H PARENT 18 31
REMARK Flexibility Score: inf
ROOT
ATOM      1  C   UNL     1      17.623 -17.793  11.215  1.00  0.00     0.012 C 
ATOM      2  C   UNL     1      18.326 -19.125  11.578  1.00  0.00     0.012 C 
ENDROOT
BRANCH   1   3
ATOM      3  C   UNL     1      18.334 -16.594  11.826  1.00  0.00    -0.028 C 
ATOM      4  C   UNL     1      18.448 -15.378  11.265  1.00  0.00    -0.027 C 
BRANCH   4   5
ATOM      5  C   UNL     1      17.899 -14.970   9.912  1.00  0.00     0.014 C 
BRANCH   5   6
ATOM      6  C   UNL     1      18.889 -15.429   8.803  1.00  0.00     0.004 C 
ATOM      7  C   UNL     1      18.380 -16.586   7.935  1.00  0.00     0.004 C 
ENDBRANCH   5   6
BRANCH   5   8
ATOM      8  C   UNL     1      17.577 -13.444   9.885  1.00  0.00    -0.011 C 
ATOM      9  C   UNL     1      18.606 -12.636  10.695  1.00  0.00     0.008 C 
ATOM     10  C   UNL     1      17.551 -12.908   8.444  1.00  0.00     0.008 C 
ENDBRANCH   5   8
ENDBRANCH   4   5
ENDBRANCH   1   3
BRANCH   1  11
ATOM     11  C   UNL     1      16.082 -17.751  11.520  1.00  0.00     0.002 C 
ATOM     12  C   UNL     1      15.305 -18.837  10.758  1.00  0.00     0.005 C 
ATOM     13  C   UNL     1      15.537 -17.742  13.012  1.00  0.00    -0.026 C 
ATOM     14  C   UNL     1      13.990 -18.952  11.491  1.00  0.00     0.005 C 
ATOM     15  C   UNL     1      14.372 -18.786  12.965  1.00  0.00    -0.001 C 
ATOM     16  C   UNL     1      15.040 -16.303  13.397  1.00  0.00     0.007 C 
ATOM     17  C   UNL     1      16.576 -18.169  14.083  1.00  0.00     0.012 C 
ATOM     18  C   UNL     1      13.145 -18.525  13.887  1.00  0.00     0.000 C 
ATOM     19  C   UNL     1      13.545 -16.055  13.159  1.00  0.00     0.005 C 
ATOM     20  C   UNL     1      12.626 -17.043  13.926  1.00  0.00     0.003 C 
ATOM     21  C   UNL     1      13.392 -19.125  15.286  1.00  0.00     0.031 C 
ATOM     22  C   UNL     1      12.123 -16.544  15.349  1.00  0.00    -0.008 C 
ATOM     23  C   UNL     1      12.203 -18.906  16.160  1.00  0.00    -0.027 C 
ATOM     24  C   UNL     1      11.572 -17.722  16.162  1.00  0.00    -0.065 C 
ATOM     25  C   UNL     1      11.001 -15.460  15.177  1.00  0.00     0.014 C 
ATOM     26  C   UNL     1      13.250 -15.902  16.194  1.00  0.00     0.016 C 
ATOM     27  C   UNL     1      10.225 -17.598  16.817  1.00  0.00     0.063 C 
ATOM     28  C   UNL     1       9.578 -16.003  14.905  1.00  0.00     0.033 C 
ATOM     29  C   UNL     1       9.181 -17.249  15.750  1.00  0.00     0.118 C 
BRANCH  29  30
ATOM     30  O   UNL     1       8.926 -18.363  14.926  1.00  0.00    -0.393 OA
ATOM     31  H   UNL     1       8.076 -18.774  15.211  1.00  0.00     0.210 HD
ENDBRANCH  29  30
ENDBRANCH   1  11
TORSDOF 6
ENDMDL
MODEL 8
REMARK VINA RESULT:    -5.384      1.866      3.225
REMARK INTER + INTRA:          -8.646
REMARK INTER:                  -8.842
REMARK INTRA:                   0.196
REMARK UNBOUND:                -1.531
REMARK SMILES CC[C@@H](C=C[C@@H](C)[C@H]1CC[C@@H]2[C@H]3CC=C4C[C@H](O)CC[C@]4(C)[C@H]3CC[C@@]21C)C(C)C
REMARK SMILES IDX 6 1 7 2 5 3 4 4 3 5 2 6 1 7 28 8 29 9 30 10 8 11 9 12 26 13
REMARK SMILES IDX 10 14 11 15 25 16 27 17 12 18 24 19 23 20 13 21 21 22 14 23
REMARK SMILES IDX 15 24 20 25 22 26 16 27 19 28 17 29 18 30
REMARK H PARENT 18 31
REMARK Flexibility Score: inf
ROOT
ATOM      1  C   UNL     1      22.004 -11.810   4.269  1.00  0.00     0.012 C 
ATOM      2  C   UNL     1      20.479 -11.584   4.422  1.00  0.00     0.012 C 
ENDROOT
BRANCH   1   3
ATOM      3  C   UNL     1      22.480 -13.011   5.073  1.00  0.00    -0.028 C 
ATOM      4  C   UNL     1      21.777 -14.132   5.305  1.00  0.00    -0.027 C 
BRANCH   4   5
ATOM      5  C   UNL     1      20.367 -14.410   4.819  1.00  0.00     0.014 C 
BRANCH   5   6
ATOM      6  C   UNL     1      19.418 -14.517   6.047  1.00  0.00     0.004 C 
ATOM      7  C   UNL     1      18.157 -13.650   5.953  1.00  0.00     0.004 C 
ENDBRANCH   5   6
BRANCH   5   8
ATOM      8  C   UNL     1      20.343 -15.661   3.886  1.00  0.00    -0.011 C 
ATOM      9  C   UNL     1      21.678 -16.425   3.932  1.00  0.00     0.008 C 
ATOM     10  C   UNL     1      19.210 -16.624   4.279  1.00  0.00     0.008 C 
ENDBRANCH   5   8
ENDBRANCH   4   5
ENDBRANCH   1   3
BRANCH   1  11
ATOM     11  C   UNL     1      22.895 -10.548   4.558  1.00  0.00     0.002 C 
ATOM     12  C   UNL     1      22.350  -9.280   3.881  1.00  0.00     0.005 C 
ATOM     13  C   UNL     1      23.306 -10.151   6.040  1.00  0.00    -0.026 C 
ATOM     14  C   UNL     1      23.019  -8.140   4.611  1.00  0.00     0.005 C 
ATOM     15  C   UNL     1      23.058  -8.607   6.069  1.00  0.00    -0.001 C 
ATOM     16  C   UNL     1      24.808 -10.525   6.302  1.00  0.00     0.007 C 
ATOM     17  C   UNL     1      22.464 -10.835   7.150  1.00  0.00     0.012 C 
ATOM     18  C   UNL     1      24.008  -7.750   6.957  1.00  0.00     0.000 C 
ATOM     19  C   UNL     1      25.808  -9.392   6.033  1.00  0.00     0.005 C 
ATOM     20  C   UNL     1      25.534  -8.116   6.872  1.00  0.00     0.003 C 
ATOM     21  C   UNL     1      23.474  -7.688   8.403  1.00  0.00     0.031 C 
ATOM     22  C   UNL     1      26.327  -8.016   8.245  1.00  0.00    -0.008 C 
ATOM     23  C   UNL     1      24.364  -6.838   9.246  1.00  0.00    -0.027 C 
ATOM     24  C   UNL     1      25.698  -6.947   9.147  1.00  0.00    -0.065 C 
ATOM     25  C   UNL     1      27.830  -7.651   7.977  1.00  0.00     0.014 C 
ATOM     26  C   UNL     1      26.316  -9.342   9.043  1.00  0.00     0.016 C 
ATOM     27  C   UNL     1      26.578  -5.906   9.780  1.00  0.00     0.063 C 
ATOM     28  C   UNL     1      28.125  -6.151   7.739  1.00  0.00     0.033 C 
ATOM     29  C   UNL     1      27.357  -5.176   8.680  1.00  0.00     0.118 C 
BRANCH  29  30
ATOM     30  O   UNL     1      26.502  -4.329   7.948  1.00  0.00    -0.393 OA
ATOM     31  H   UNL     1      27.014  -3.936   7.203  1.00  0.00     0.210 HD
ENDBRANCH  29  30
ENDBRANCH   1  11
TORSDOF 6
ENDMDL
