MODEL 1
REMARK VINA RESULT:    -2.950      0.000      0.000
REMARK INTER + INTRA:         -12.966
REMARK INTER:                  -7.779
REMARK INTRA:                  -5.187
REMARK UNBOUND:                -5.187
REMARK SMILES CCCCCCCCCCCCCCCCCCCCCCCCCCCCCC(=O)[O-]
REMARK SMILES IDX 16 1 17 2 18 3 19 4 20 5 21 6 22 7 23 8 24 9 25 10 26 11
REMARK SMILES IDX 27 12 28 13 29 14 30 15 31 16 32 17 15 18 14 19 13 20 12 21
REMARK SMILES IDX 11 22 10 23 9 24 8 25 7 26 6 27 5 28 4 29 3 30 2 31 1 32
REMARK H PARENT
REMARK Flexibility Score: inf
ROOT
ATOM      1  C   UNL     1       6.666   5.421  -0.695  1.00  0.00     0.000 C 
ENDROOT
BRANCH   1   2
ATOM      2  C   UNL     1       6.178   5.934   0.678  1.00  0.00     0.000 C 
BRANCH   2   3
ATOM      3  C   UNL     1       7.278   6.594   1.529  1.00  0.00     0.000 C 
BRANCH   3   4
ATOM      4  C   UNL     1       7.933   5.624   2.527  1.00  0.00     0.000 C 
BRANCH   4   5
ATOM      5  C   UNL     1       9.419   5.375   2.229  1.00  0.00     0.000 C 
BRANCH   5   6
ATOM      6  C   UNL     1       9.734   3.896   1.942  1.00  0.00     0.000 C 
BRANCH   6   7
ATOM      7  C   UNL     1       8.542   2.964   2.254  1.00  0.00     0.000 C 
BRANCH   7   8
ATOM      8  C   UNL     1       8.310   1.860   1.202  1.00  0.00     0.000 C 
BRANCH   8   9
ATOM      9  C   UNL     1       9.576   1.132   0.713  1.00  0.00     0.000 C 
BRANCH   9  10
ATOM     10  C   UNL     1       9.370   0.217  -0.509  1.00  0.00     0.000 C 
BRANCH  10  11
ATOM     11  C   UNL     1       7.902   0.131  -0.955  1.00  0.00     0.000 C 
BRANCH  11  12
ATOM     12  C   UNL     1       7.582  -1.269  -1.500  1.00  0.00     0.000 C 
BRANCH  12  13
ATOM     13  C   UNL     1       6.721  -1.224  -2.772  1.00  0.00     0.006 C 
BRANCH  13  14
ATOM     14  C   UNL     1       5.649  -2.323  -2.789  1.00  0.00     0.053 C 
BRANCH  14  15
ATOM     15  C   UNL     1       5.275  -2.671  -4.195  1.00  0.00     0.041 C 
ATOM     16  O   UNL     1       4.119  -3.098  -4.455  1.00  0.00    -0.550 OA
ATOM     17  O   UNL     1       6.189  -2.488  -5.226  1.00  0.00    -0.550 OA
ENDBRANCH  14  15
ENDBRANCH  13  14
ENDBRANCH  12  13
ENDBRANCH  11  12
ENDBRANCH  10  11
ENDBRANCH   9  10
ENDBRANCH   8   9
ENDBRANCH   7   8
ENDBRANCH   6   7
ENDBRANCH   5   6
ENDBRANCH   4   5
ENDBRANCH   3   4
ENDBRANCH   2   3
ENDBRANCH   1   2
BRANCH   1  18
ATOM     18  C   UNL     1       7.882   6.207  -1.214  1.00  0.00     0.000 C 
BRANCH  18  19
ATOM     19  C   UNL     1       9.083   5.304  -1.543  1.00  0.00     0.000 C 
BRANCH  19  20
ATOM     20  C   UNL     1       8.757   3.803  -1.694  1.00  0.00     0.000 C 
BRANCH  20  21
ATOM     21  C   UNL     1       9.404   3.107  -2.906  1.00  0.00     0.000 C 
BRANCH  21  22
ATOM     22  C   UNL     1       8.418   2.419  -3.868  1.00  0.00     0.000 C 
BRANCH  22  23
ATOM     23  C   UNL     1       6.953   2.442  -3.383  1.00  0.00     0.000 C 
BRANCH  23  24
ATOM     24  C   UNL     1       6.010   3.129  -4.385  1.00  0.00    -0.000 C 
BRANCH  24  25
ATOM     25  C   UNL     1       5.966   4.658  -4.218  1.00  0.00    -0.000 C 
BRANCH  25  26
ATOM     26  C   UNL     1       4.550   5.206  -3.938  1.00  0.00    -0.000 C 
BRANCH  26  27
ATOM     27  C   UNL     1       3.515   4.081  -3.746  1.00  0.00    -0.000 C 
BRANCH  27  28
ATOM     28  C   UNL     1       2.466   4.412  -2.671  1.00  0.00    -0.000 C 
BRANCH  28  29
ATOM     29  C   UNL     1       3.037   5.016  -1.374  1.00  0.00    -0.000 C 
BRANCH  29  30
ATOM     30  C   UNL     1       2.696   6.505  -1.209  1.00  0.00    -0.000 C 
BRANCH  30  31
ATOM     31  C   UNL     1       1.654   6.945  -2.245  1.00  0.00    -0.003 C 
ATOM     32  C   UNL     1       0.309   7.234  -1.587  1.00  0.00     0.004 C 
ENDBRANCH  30  31
ENDBRANCH  29  30
ENDBRANCH  28  29
ENDBRANCH  27  28
ENDBRANCH  26  27
ENDBRANCH  25  26
ENDBRANCH  24  25
ENDBRANCH  23  24
ENDBRANCH  22  23
ENDBRANCH  21  22
ENDBRANCH  20  21
ENDBRANCH  19  20
ENDBRANCH  18  19
ENDBRANCH   1  18
TORSDOF 28
ENDMDL
MODEL 2
REMARK VINA RESULT:    -2.907     11.570     13.795
REMARK INTER + INTRA:         -12.852
REMARK INTER:                  -7.043
REMARK INTRA:                  -5.809
REMARK UNBOUND:                -5.187
REMARK SMILES CCCCCCCCCCCCCCCCCCCCCCCCCCCCCC(=O)[O-]
REMARK SMILES IDX 16 1 17 2 18 3 19 4 20 5 21 6 22 7 23 8 24 9 25 10 26 11
REMARK SMILES IDX 27 12 28 13 29 14 30 15 31 16 32 17 15 18 14 19 13 20 12 21
REMARK SMILES IDX 11 22 10 23 9 24 8 25 7 26 6 27 5 28 4 29 3 30 2 31 1 32
REMARK H PARENT
REMARK Flexibility Score: inf
ROOT
ATOM      1  C   UNL     1      -4.087   3.566   8.040  1.00  0.00     0.000 C 
ENDROOT
BRANCH   1   2
ATOM      2  C   UNL     1      -2.877   2.607   8.086  1.00  0.00     0.000 C 
BRANCH   2   3
ATOM      3  C   UNL     1      -2.029   2.603   6.801  1.00  0.00     0.000 C 
BRANCH   3   4
ATOM      4  C   UNL     1      -0.538   2.331   7.063  1.00  0.00     0.000 C 
BRANCH   4   5
ATOM      5  C   UNL     1       0.030   1.216   6.174  1.00  0.00     0.000 C 
BRANCH   5   6
ATOM      6  C   UNL     1       1.133   0.397   6.869  1.00  0.00     0.000 C 
BRANCH   6   7
ATOM      7  C   UNL     1       1.153   0.607   8.400  1.00  0.00     0.000 C 
BRANCH   7   8
ATOM      8  C   UNL     1       0.432  -0.497   9.200  1.00  0.00     0.000 C 
BRANCH   8   9
ATOM      9  C   UNL     1      -0.974  -0.135   9.712  1.00  0.00     0.000 C 
BRANCH   9  10
ATOM     10  C   UNL     1      -2.108  -1.044   9.201  1.00  0.00     0.000 C 
BRANCH  10  11
ATOM     11  C   UNL     1      -2.197  -1.089   7.668  1.00  0.00     0.000 C 
BRANCH  11  12
ATOM     12  C   UNL     1      -2.152  -2.539   7.164  1.00  0.00     0.000 C 
BRANCH  12  13
ATOM     13  C   UNL     1      -0.722  -3.017   6.868  1.00  0.00     0.006 C 
BRANCH  13  14
ATOM     14  C   UNL     1      -0.515  -4.495   7.228  1.00  0.00     0.053 C 
BRANCH  14  15
ATOM     15  C   UNL     1       0.750  -4.674   8.006  1.00  0.00     0.041 C 
ATOM     16  O   UNL     1       1.101  -5.822   8.386  1.00  0.00    -0.550 OA
ATOM     17  O   UNL     1       1.561  -3.580   8.279  1.00  0.00    -0.550 OA
ENDBRANCH  14  15
ENDBRANCH  13  14
ENDBRANCH  12  13
ENDBRANCH  11  12
ENDBRANCH  10  11
ENDBRANCH   9  10
ENDBRANCH   8   9
ENDBRANCH   7   8
ENDBRANCH   6   7
ENDBRANCH   5   6
ENDBRANCH   4   5
ENDBRANCH   3   4
ENDBRANCH   2   3
ENDBRANCH   1   2
BRANCH   1  18
ATOM     18  C   UNL     1      -4.172   4.336   6.712  1.00  0.00     0.000 C 
BRANCH  18  19
ATOM     19  C   UNL     1      -5.532   4.177   6.013  1.00  0.00     0.000 C 
BRANCH  19  20
ATOM     20  C   UNL     1      -6.029   2.723   5.861  1.00  0.00     0.000 C 
BRANCH  20  21
ATOM     21  C   UNL     1      -5.196   1.839   4.914  1.00  0.00     0.000 C 
BRANCH  21  22
ATOM     22  C   UNL     1      -4.716   0.507   5.520  1.00  0.00     0.000 C 
BRANCH  22  23
ATOM     23  C   UNL     1      -5.678  -0.085   6.571  1.00  0.00     0.000 C 
BRANCH  23  24
ATOM     24  C   UNL     1      -6.661  -1.100   5.966  1.00  0.00    -0.000 C 
BRANCH  24  25
ATOM     25  C   UNL     1      -8.110  -0.583   5.925  1.00  0.00    -0.000 C 
BRANCH  25  26
ATOM     26  C   UNL     1      -8.704  -0.528   4.501  1.00  0.00    -0.000 C 
BRANCH  26  27
ATOM     27  C   UNL     1      -8.525   0.854   3.846  1.00  0.00    -0.000 C 
BRANCH  27  28
ATOM     28  C   UNL     1      -7.928   0.771   2.431  1.00  0.00    -0.000 C 
BRANCH  28  29
ATOM     29  C   UNL     1      -7.327  -0.599   2.062  1.00  0.00    -0.000 C 
BRANCH  29  30
ATOM     30  C   UNL     1      -5.796  -0.631   2.184  1.00  0.00    -0.000 C 
BRANCH  30  31
ATOM     31  C   UNL     1      -5.313  -2.012   2.641  1.00  0.00    -0.003 C 
ATOM     32  C   UNL     1      -6.467  -3.007   2.709  1.00  0.00     0.004 C 
ENDBRANCH  30  31
ENDBRANCH  29  30
ENDBRANCH  28  29
ENDBRANCH  27  28
ENDBRANCH  26  27
ENDBRANCH  25  26
ENDBRANCH  24  25
ENDBRANCH  23  24
ENDBRANCH  22  23
ENDBRANCH  21  22
ENDBRANCH  20  21
ENDBRANCH  19  20
ENDBRANCH  18  19
ENDBRANCH   1  18
TORSDOF 28
ENDMDL
MODEL 3
REMARK VINA RESULT:    -2.905     11.554     13.432
REMARK INTER + INTRA:         -12.846
REMARK INTER:                  -7.705
REMARK INTRA:                  -5.141
REMARK UNBOUND:                -5.187
REMARK SMILES CCCCCCCCCCCCCCCCCCCCCCCCCCCCCC(=O)[O-]
REMARK SMILES IDX 16 1 17 2 18 3 19 4 20 5 21 6 22 7 23 8 24 9 25 10 26 11
REMARK SMILES IDX 27 12 28 13 29 14 30 15 31 16 32 17 15 18 14 19 13 20 12 21
REMARK SMILES IDX 11 22 10 23 9 24 8 25 7 26 6 27 5 28 4 29 3 30 2 31 1 32
REMARK H PARENT
REMARK Flexibility Score: inf
ROOT
ATOM      1  C   UNL     1       0.827   0.363   6.442  1.00  0.00     0.000 C 
ENDROOT
BRANCH   1   2
ATOM      2  C   UNL     1       1.196   0.317   7.940  1.00  0.00     0.000 C 
BRANCH   2   3
ATOM      3  C   UNL     1       0.749  -0.969   8.659  1.00  0.00     0.000 C 
BRANCH   3   4
ATOM      4  C   UNL     1      -0.066  -0.695   9.934  1.00  0.00     0.000 C 
BRANCH   4   5
ATOM      5  C   UNL     1      -1.490  -1.268   9.866  1.00  0.00     0.000 C 
BRANCH   5   6
ATOM      6  C   UNL     1      -2.444  -0.405   9.020  1.00  0.00     0.000 C 
BRANCH   6   7
ATOM      7  C   UNL     1      -3.201  -1.229   7.955  1.00  0.00     0.000 C 
BRANCH   7   8
ATOM      8  C   UNL     1      -2.380  -1.525   6.683  1.00  0.00     0.000 C 
BRANCH   8   9
ATOM      9  C   UNL     1      -1.833  -2.960   6.565  1.00  0.00     0.000 C 
BRANCH   9  10
ATOM     10  C   UNL     1      -2.483  -3.985   7.512  1.00  0.00     0.000 C 
BRANCH  10  11
ATOM     11  C   UNL     1      -1.455  -4.820   8.292  1.00  0.00     0.000 C 
BRANCH  11  12
ATOM     12  C   UNL     1      -0.025  -4.375   7.952  1.00  0.00     0.000 C 
BRANCH  12  13
ATOM     13  C   UNL     1       0.832  -5.522   7.394  1.00  0.00     0.006 C 
BRANCH  13  14
ATOM     14  C   UNL     1       2.333  -5.202   7.437  1.00  0.00     0.053 C 
BRANCH  14  15
ATOM     15  C   UNL     1       3.127  -6.323   6.843  1.00  0.00     0.041 C 
ATOM     16  O   UNL     1       4.022  -6.893   7.521  1.00  0.00    -0.550 OA
ATOM     17  O   UNL     1       2.854  -6.764   5.554  1.00  0.00    -0.550 OA
ENDBRANCH  14  15
ENDBRANCH  13  14
ENDBRANCH  12  13
ENDBRANCH  11  12
ENDBRANCH  10  11
ENDBRANCH   9  10
ENDBRANCH   8   9
ENDBRANCH   7   8
ENDBRANCH   6   7
ENDBRANCH   5   6
ENDBRANCH   4   5
ENDBRANCH   3   4
ENDBRANCH   2   3
ENDBRANCH   1   2
BRANCH   1  18
ATOM     18  C   UNL     1      -0.271   1.398   6.142  1.00  0.00     0.000 C 
BRANCH  18  19
ATOM     19  C   UNL     1      -0.509   2.373   7.307  1.00  0.00     0.000 C 
BRANCH  19  20
ATOM     20  C   UNL     1      -1.968   2.843   7.486  1.00  0.00     0.000 C 
BRANCH  20  21
ATOM     21  C   UNL     1      -2.850   2.749   6.227  1.00  0.00     0.000 C 
BRANCH  21  22
ATOM     22  C   UNL     1      -4.211   2.060   6.433  1.00  0.00     0.000 C 
BRANCH  22  23
ATOM     23  C   UNL     1      -4.860   1.553   5.128  1.00  0.00     0.000 C 
BRANCH  23  24
ATOM     24  C   UNL     1      -6.362   1.268   5.287  1.00  0.00    -0.000 C 
BRANCH  24  25
ATOM     25  C   UNL     1      -6.947   0.456   4.118  1.00  0.00    -0.000 C 
BRANCH  25  26
ATOM     26  C   UNL     1      -6.053   0.454   2.860  1.00  0.00    -0.000 C 
BRANCH  26  27
ATOM     27  C   UNL     1      -6.468  -0.632   1.850  1.00  0.00    -0.000 C 
BRANCH  27  28
ATOM     28  C   UNL     1      -6.829  -1.968   2.524  1.00  0.00    -0.000 C 
BRANCH  28  29
ATOM     29  C   UNL     1      -5.645  -2.934   2.720  1.00  0.00    -0.000 C 
BRANCH  29  30
ATOM     30  C   UNL     1      -4.817  -2.615   3.974  1.00  0.00    -0.000 C 
BRANCH  30  31
ATOM     31  C   UNL     1      -5.316  -3.422   5.179  1.00  0.00    -0.003 C 
ATOM     32  C   UNL     1      -5.085  -4.917   4.977  1.00  0.00     0.004 C 
ENDBRANCH  30  31
ENDBRANCH  29  30
ENDBRANCH  28  29
ENDBRANCH  27  28
ENDBRANCH  26  27
ENDBRANCH  25  26
ENDBRANCH  24  25
ENDBRANCH  23  24
ENDBRANCH  22  23
ENDBRANCH  21  22
ENDBRANCH  20  21
ENDBRANCH  19  20
ENDBRANCH  18  19
ENDBRANCH   1  18
TORSDOF 28
ENDMDL
MODEL 4
REMARK VINA RESULT:    -2.896     12.041     14.867
REMARK INTER + INTRA:         -12.824
REMARK INTER:                  -6.969
REMARK INTRA:                  -5.856
REMARK UNBOUND:                -5.187
REMARK SMILES CCCCCCCCCCCCCCCCCCCCCCCCCCCCCC(=O)[O-]
REMARK SMILES IDX 16 1 17 2 18 3 19 4 20 5 21 6 22 7 23 8 24 9 25 10 26 11
REMARK SMILES IDX 27 12 28 13 29 14 30 15 31 16 32 17 15 18 14 19 13 20 12 21
REMARK SMILES IDX 11 22 10 23 9 24 8 25 7 26 6 27 5 28 4 29 3 30 2 31 1 32
REMARK H PARENT
REMARK Flexibility Score: inf
ROOT
ATOM      1  C   UNL     1       0.386   1.341   6.414  1.00  0.00     0.000 C 
ENDROOT
BRANCH   1   2
ATOM      2  C   UNL     1       0.016   2.096   7.709  1.00  0.00     0.000 C 
BRANCH   2   3
ATOM      3  C   UNL     1      -1.451   2.562   7.768  1.00  0.00     0.000 C 
BRANCH   3   4
ATOM      4  C   UNL     1      -2.187   2.406   6.426  1.00  0.00     0.000 C 
BRANCH   4   5
ATOM      5  C   UNL     1      -3.269   3.475   6.213  1.00  0.00     0.000 C 
BRANCH   5   6
ATOM      6  C   UNL     1      -3.594   4.265   7.493  1.00  0.00     0.000 C 
BRANCH   6   7
ATOM      7  C   UNL     1      -5.068   4.110   7.929  1.00  0.00     0.000 C 
BRANCH   7   8
ATOM      8  C   UNL     1      -5.336   2.890   8.834  1.00  0.00     0.000 C 
BRANCH   8   9
ATOM      9  C   UNL     1      -6.214   1.785   8.216  1.00  0.00     0.000 C 
BRANCH   9  10
ATOM     10  C   UNL     1      -6.775   2.104   6.818  1.00  0.00     0.000 C 
BRANCH  10  11
ATOM     11  C   UNL     1      -6.752   0.894   5.871  1.00  0.00     0.000 C 
BRANCH  11  12
ATOM     12  C   UNL     1      -5.596   1.013   4.867  1.00  0.00     0.000 C 
BRANCH  12  13
ATOM     13  C   UNL     1      -5.618  -0.099   3.807  1.00  0.00     0.006 C 
BRANCH  13  14
ATOM     14  C   UNL     1      -5.890  -1.481   4.418  1.00  0.00     0.053 C 
BRANCH  14  15
ATOM     15  C   UNL     1      -5.093  -2.534   3.712  1.00  0.00     0.041 C 
ATOM     16  O   UNL     1      -4.071  -3.025   4.258  1.00  0.00    -0.550 OA
ATOM     17  O   UNL     1      -5.501  -2.999   2.468  1.00  0.00    -0.550 OA
ENDBRANCH  14  15
ENDBRANCH  13  14
ENDBRANCH  12  13
ENDBRANCH  11  12
ENDBRANCH  10  11
ENDBRANCH   9  10
ENDBRANCH   8   9
ENDBRANCH   7   8
ENDBRANCH   6   7
ENDBRANCH   5   6
ENDBRANCH   4   5
ENDBRANCH   3   4
ENDBRANCH   2   3
ENDBRANCH   1   2
BRANCH   1  18
ATOM     18  C   UNL     1       0.754  -0.128   6.678  1.00  0.00     0.000 C 
BRANCH  18  19
ATOM     19  C   UNL     1       0.394  -0.589   8.101  1.00  0.00     0.000 C 
BRANCH  19  20
ATOM     20  C   UNL     1      -0.932  -1.369   8.226  1.00  0.00     0.000 C 
BRANCH  20  21
ATOM     21  C   UNL     1      -1.676  -1.619   6.901  1.00  0.00     0.000 C 
BRANCH  21  22
ATOM     22  C   UNL     1      -3.055  -0.944   6.789  1.00  0.00     0.000 C 
BRANCH  22  23
ATOM     23  C   UNL     1      -3.846  -0.915   8.114  1.00  0.00     0.000 C 
BRANCH  23  24
ATOM     24  C   UNL     1      -5.134  -1.752   8.050  1.00  0.00    -0.000 C 
BRANCH  24  25
ATOM     25  C   UNL     1      -5.181  -2.866   9.111  1.00  0.00    -0.000 C 
BRANCH  25  26
ATOM     26  C   UNL     1      -3.998  -3.854   9.018  1.00  0.00    -0.000 C 
BRANCH  26  27
ATOM     27  C   UNL     1      -3.945  -4.576   7.659  1.00  0.00    -0.000 C 
BRANCH  27  28
ATOM     28  C   UNL     1      -2.531  -5.061   7.296  1.00  0.00    -0.000 C 
BRANCH  28  29
ATOM     29  C   UNL     1      -1.899  -6.031   8.313  1.00  0.00    -0.000 C 
BRANCH  29  30
ATOM     30  C   UNL     1      -0.476  -5.621   8.722  1.00  0.00    -0.000 C 
BRANCH  30  31
ATOM     31  C   UNL     1       0.352  -5.220   7.496  1.00  0.00    -0.003 C 
ATOM     32  C   UNL     1       1.437  -4.214   7.866  1.00  0.00     0.004 C 
ENDBRANCH  30  31
ENDBRANCH  29  30
ENDBRANCH  28  29
ENDBRANCH  27  28
ENDBRANCH  26  27
ENDBRANCH  25  26
ENDBRANCH  24  25
ENDBRANCH  23  24
ENDBRANCH  22  23
ENDBRANCH  21  22
ENDBRANCH  20  21
ENDBRANCH  19  20
ENDBRANCH  18  19
ENDBRANCH   1  18
TORSDOF 28
ENDMDL
MODEL 5
REMARK VINA RESULT:    -2.896      5.224      7.758
REMARK INTER + INTRA:         -12.823
REMARK INTER:                  -6.914
REMARK INTRA:                  -5.909
REMARK UNBOUND:                -5.187
REMARK SMILES CCCCCCCCCCCCCCCCCCCCCCCCCCCCCC(=O)[O-]
REMARK SMILES IDX 16 1 17 2 18 3 19 4 20 5 21 6 22 7 23 8 24 9 25 10 26 11
REMARK SMILES IDX 27 12 28 13 29 14 30 15 31 16 32 17 15 18 14 19 13 20 12 21
REMARK SMILES IDX 11 22 10 23 9 24 8 25 7 26 6 27 5 28 4 29 3 30 2 31 1 32
REMARK H PARENT
REMARK Flexibility Score: inf
ROOT
ATOM      1  C   UNL     1       6.050   5.740  -0.352  1.00  0.00     0.000 C 
ENDROOT
BRANCH   1   2
ATOM      2  C   UNL     1       6.770   6.446   0.816  1.00  0.00     0.000 C 
BRANCH   2   3
ATOM      3  C   UNL     1       6.671   5.700   2.159  1.00  0.00     0.000 C 
BRANCH   3   4
ATOM      4  C   UNL     1       6.795   6.632   3.377  1.00  0.00     0.000 C 
BRANCH   4   5
ATOM      5  C   UNL     1       5.491   6.742   4.180  1.00  0.00     0.000 C 
BRANCH   5   6
ATOM      6  C   UNL     1       5.282   8.136   4.798  1.00  0.00     0.000 C 
BRANCH   6   7
ATOM      7  C   UNL     1       4.053   8.867   4.213  1.00  0.00     0.000 C 
BRANCH   7   8
ATOM      8  C   UNL     1       3.702   8.457   2.768  1.00  0.00     0.000 C 
BRANCH   8   9
ATOM      9  C   UNL     1       4.389   9.277   1.660  1.00  0.00     0.000 C 
BRANCH   9  10
ATOM     10  C   UNL     1       3.467   9.711   0.504  1.00  0.00     0.000 C 
BRANCH  10  11
ATOM     11  C   UNL     1       1.977   9.511   0.816  1.00  0.00     0.000 C 
BRANCH  11  12
ATOM     12  C   UNL     1       1.235   8.956  -0.409  1.00  0.00     0.000 C 
BRANCH  12  13
ATOM     13  C   UNL     1       0.301   7.788  -0.054  1.00  0.00     0.006 C 
BRANCH  13  14
ATOM     14  C   UNL     1       0.340   7.444   1.442  1.00  0.00     0.053 C 
BRANCH  14  15
ATOM     15  C   UNL     1      -0.971   7.763   2.089  1.00  0.00     0.041 C 
ATOM     16  O   UNL     1      -1.598   6.872   2.720  1.00  0.00    -0.550 OA
ATOM     17  O   UNL     1      -1.483   9.053   2.027  1.00  0.00    -0.550 OA
ENDBRANCH  14  15
ENDBRANCH  13  14
ENDBRANCH  12  13
ENDBRANCH  11  12
ENDBRANCH  10  11
ENDBRANCH   9  10
ENDBRANCH   8   9
ENDBRANCH   7   8
ENDBRANCH   6   7
ENDBRANCH   5   6
ENDBRANCH   4   5
ENDBRANCH   3   4
ENDBRANCH   2   3
ENDBRANCH   1   2
BRANCH   1  18
ATOM     18  C   UNL     1       4.745   6.450  -0.750  1.00  0.00     0.000 C 
BRANCH  18  19
ATOM     19  C   UNL     1       3.538   5.999   0.089  1.00  0.00     0.000 C 
BRANCH  19  20
ATOM     20  C   UNL     1       2.605   4.978  -0.594  1.00  0.00     0.000 C 
BRANCH  20  21
ATOM     21  C   UNL     1       2.322   5.239  -2.085  1.00  0.00     0.000 C 
BRANCH  21  22
ATOM     22  C   UNL     1       2.661   4.069  -3.028  1.00  0.00     0.000 C 
BRANCH  22  23
ATOM     23  C   UNL     1       3.291   4.507  -4.367  1.00  0.00     0.000 C 
BRANCH  23  24
ATOM     24  C   UNL     1       4.450   5.498  -4.176  1.00  0.00    -0.000 C 
BRANCH  24  25
ATOM     25  C   UNL     1       4.231   6.830  -4.917  1.00  0.00    -0.000 C 
BRANCH  25  26
ATOM     26  C   UNL     1       4.408   8.072  -4.017  1.00  0.00    -0.000 C 
BRANCH  26  27
ATOM     27  C   UNL     1       3.085   8.511  -3.361  1.00  0.00    -0.000 C 
BRANCH  27  28
ATOM     28  C   UNL     1       2.212   9.367  -4.293  1.00  0.00    -0.000 C 
BRANCH  28  29
ATOM     29  C   UNL     1       0.777   8.845  -4.497  1.00  0.00    -0.000 C 
BRANCH  29  30
ATOM     30  C   UNL     1       0.634   7.352  -4.165  1.00  0.00    -0.000 C 
BRANCH  30  31
ATOM     31  C   UNL     1       0.401   6.528  -5.437  1.00  0.00    -0.003 C 
ATOM     32  C   UNL     1       0.157   7.431  -6.642  1.00  0.00     0.004 C 
ENDBRANCH  30  31
ENDBRANCH  29  30
ENDBRANCH  28  29
ENDBRANCH  27  28
ENDBRANCH  26  27
ENDBRANCH  25  26
ENDBRANCH  24  25
ENDBRANCH  23  24
ENDBRANCH  22  23
ENDBRANCH  21  22
ENDBRANCH  20  21
ENDBRANCH  19  20
ENDBRANCH  18  19
ENDBRANCH   1  18
TORSDOF 28
ENDMDL
MODEL 6
REMARK VINA RESULT:    -2.894      1.095      2.838
REMARK INTER + INTRA:         -12.817
REMARK INTER:                  -7.967
REMARK INTRA:                  -4.850
REMARK UNBOUND:                -5.187
REMARK SMILES CCCCCCCCCCCCCCCCCCCCCCCCCCCCCC(=O)[O-]
REMARK SMILES IDX 16 1 17 2 18 3 19 4 20 5 21 6 22 7 23 8 24 9 25 10 26 11
REMARK SMILES IDX 27 12 28 13 29 14 30 15 31 16 32 17 15 18 14 19 13 20 12 21
REMARK SMILES IDX 11 22 10 23 9 24 8 25 7 26 6 27 5 28 4 29 3 30 2 31 1 32
REMARK H PARENT
REMARK Flexibility Score: inf
ROOT
ATOM      1  C   UNL     1       7.893   7.361   2.973  1.00  0.00     0.000 C 
ENDROOT
BRANCH   1   2
ATOM      2  C   UNL     1       9.205   6.558   3.106  1.00  0.00     0.000 C 
BRANCH   2   3
ATOM      3  C   UNL     1       9.860   6.198   1.761  1.00  0.00     0.000 C 
BRANCH   3   4
ATOM      4  C   UNL     1       9.798   4.694   1.444  1.00  0.00     0.000 C 
BRANCH   4   5
ATOM      5  C   UNL     1       9.502   3.835   2.682  1.00  0.00     0.000 C 
BRANCH   5   6
ATOM      6  C   UNL     1       8.534   2.674   2.389  1.00  0.00     0.000 C 
BRANCH   6   7
ATOM      7  C   UNL     1       8.587   2.214   0.916  1.00  0.00     0.000 C 
BRANCH   7   8
ATOM      8  C   UNL     1       9.711   1.204   0.608  1.00  0.00     0.000 C 
BRANCH   8   9
ATOM      9  C   UNL     1       9.297  -0.013  -0.241  1.00  0.00     0.000 C 
BRANCH   9  10
ATOM     10  C   UNL     1       7.925   0.110  -0.930  1.00  0.00     0.000 C 
BRANCH  10  11
ATOM     11  C   UNL     1       8.021   0.120  -2.463  1.00  0.00     0.000 C 
BRANCH  11  12
ATOM     12  C   UNL     1       6.783  -0.538  -3.089  1.00  0.00     0.000 C 
BRANCH  12  13
ATOM     13  C   UNL     1       6.367  -1.826  -2.360  1.00  0.00     0.006 C 
BRANCH  13  14
ATOM     14  C   UNL     1       5.256  -2.582  -3.101  1.00  0.00     0.053 C 
BRANCH  14  15
ATOM     15  C   UNL     1       5.634  -2.802  -4.532  1.00  0.00     0.041 C 
ATOM     16  O   UNL     1       6.585  -3.574  -4.824  1.00  0.00    -0.550 OA
ATOM     17  O   UNL     1       4.913  -2.185  -5.546  1.00  0.00    -0.550 OA
ENDBRANCH  14  15
ENDBRANCH  13  14
ENDBRANCH  12  13
ENDBRANCH  11  12
ENDBRANCH  10  11
ENDBRANCH   9  10
ENDBRANCH   8   9
ENDBRANCH   7   8
ENDBRANCH   6   7
ENDBRANCH   5   6
ENDBRANCH   4   5
ENDBRANCH   3   4
ENDBRANCH   2   3
ENDBRANCH   1   2
BRANCH   1  18
ATOM     18  C   UNL     1       6.659   6.534   3.371  1.00  0.00     0.000 C 
BRANCH  18  19
ATOM     19  C   UNL     1       6.226   5.541   2.279  1.00  0.00     0.000 C 
BRANCH  19  20
ATOM     20  C   UNL     1       5.728   6.181   0.966  1.00  0.00     0.000 C 
BRANCH  20  21
ATOM     21  C   UNL     1       6.340   5.601  -0.323  1.00  0.00     0.000 C 
BRANCH  21  22
ATOM     22  C   UNL     1       7.379   6.501  -1.016  1.00  0.00     0.000 C 
BRANCH  22  23
ATOM     23  C   UNL     1       8.421   5.727  -1.850  1.00  0.00     0.000 C 
BRANCH  23  24
ATOM     24  C   UNL     1       8.158   4.212  -1.864  1.00  0.00    -0.000 C 
BRANCH  24  25
ATOM     25  C   UNL     1       7.912   3.657  -3.278  1.00  0.00    -0.000 C 
BRANCH  25  26
ATOM     26  C   UNL     1       6.607   4.170  -3.923  1.00  0.00    -0.000 C 
BRANCH  26  27
ATOM     27  C   UNL     1       5.426   3.209  -3.696  1.00  0.00    -0.000 C 
BRANCH  27  28
ATOM     28  C   UNL     1       4.064   3.850  -4.016  1.00  0.00    -0.000 C 
BRANCH  28  29
ATOM     29  C   UNL     1       3.262   4.313  -2.786  1.00  0.00    -0.000 C 
BRANCH  29  30
ATOM     30  C   UNL     1       3.171   5.843  -2.675  1.00  0.00    -0.000 C 
BRANCH  30  31
ATOM     31  C   UNL     1       2.391   6.254  -1.420  1.00  0.00    -0.003 C 
ATOM     32  C   UNL     1       2.427   5.156  -0.362  1.00  0.00     0.004 C 
ENDBRANCH  30  31
ENDBRANCH  29  30
ENDBRANCH  28  29
ENDBRANCH  27  28
ENDBRANCH  26  27
ENDBRANCH  25  26
ENDBRANCH  24  25
ENDBRANCH  23  24
ENDBRANCH  22  23
ENDBRANCH  21  22
ENDBRANCH  20  21
ENDBRANCH  19  20
ENDBRANCH  18  19
ENDBRANCH   1  18
TORSDOF 28
ENDMDL
MODEL 7
REMARK VINA RESULT:    -2.853     11.893     13.516
REMARK INTER + INTRA:         -12.710
REMARK INTER:                  -7.473
REMARK INTRA:                  -5.237
REMARK UNBOUND:                -5.187
REMARK SMILES CCCCCCCCCCCCCCCCCCCCCCCCCCCCCC(=O)[O-]
REMARK SMILES IDX 16 1 17 2 18 3 19 4 20 5 21 6 22 7 23 8 24 9 25 10 26 11
REMARK SMILES IDX 27 12 28 13 29 14 30 15 31 16 32 17 15 18 14 19 13 20 12 21
REMARK SMILES IDX 11 22 10 23 9 24 8 25 7 26 6 27 5 28 4 29 3 30 2 31 1 32
REMARK H PARENT
REMARK Flexibility Score: inf
ROOT
ATOM      1  C   UNL     1      -0.048   1.102   6.085  1.00  0.00     0.000 C 
ENDROOT
BRANCH   1   2
ATOM      2  C   UNL     1       1.153   0.707   6.971  1.00  0.00     0.000 C 
BRANCH   2   3
ATOM      3  C   UNL     1       1.021   1.146   8.441  1.00  0.00     0.000 C 
BRANCH   3   4
ATOM      4  C   UNL     1       0.699  -0.019   9.392  1.00  0.00     0.000 C 
BRANCH   4   5
ATOM      5  C   UNL     1       1.067  -1.389   8.802  1.00  0.00     0.000 C 
BRANCH   5   6
ATOM      6  C   UNL     1      -0.162  -2.275   8.531  1.00  0.00     0.000 C 
BRANCH   6   7
ATOM      7  C   UNL     1      -0.422  -2.482   7.022  1.00  0.00     0.000 C 
BRANCH   7   8
ATOM      8  C   UNL     1      -1.434  -3.600   6.701  1.00  0.00     0.000 C 
BRANCH   8   9
ATOM      9  C   UNL     1      -2.221  -4.149   7.906  1.00  0.00     0.000 C 
BRANCH   9  10
ATOM     10  C   UNL     1      -1.955  -5.629   8.240  1.00  0.00     0.000 C 
BRANCH  10  11
ATOM     11  C   UNL     1      -0.530  -6.079   7.882  1.00  0.00     0.000 C 
BRANCH  11  12
ATOM     12  C   UNL     1       0.351  -6.140   9.138  1.00  0.00     0.000 C 
BRANCH  12  13
ATOM     13  C   UNL     1       1.657  -5.345   8.982  1.00  0.00     0.006 C 
BRANCH  13  14
ATOM     14  C   UNL     1       2.058  -5.166   7.511  1.00  0.00     0.053 C 
BRANCH  14  15
ATOM     15  C   UNL     1       3.169  -6.102   7.151  1.00  0.00     0.041 C 
ATOM     16  O   UNL     1       3.552  -6.200   5.956  1.00  0.00    -0.550 OA
ATOM     17  O   UNL     1       3.807  -6.839   8.141  1.00  0.00    -0.550 OA
ENDBRANCH  14  15
ENDBRANCH  13  14
ENDBRANCH  12  13
ENDBRANCH  11  12
ENDBRANCH  10  11
ENDBRANCH   9  10
ENDBRANCH   8   9
ENDBRANCH   7   8
ENDBRANCH   6   7
ENDBRANCH   5   6
ENDBRANCH   4   5
ENDBRANCH   3   4
ENDBRANCH   2   3
ENDBRANCH   1   2
BRANCH   1  18
ATOM     18  C   UNL     1      -1.030   2.036   6.812  1.00  0.00     0.000 C 
BRANCH  18  19
ATOM     19  C   UNL     1      -2.445   1.446   6.924  1.00  0.00     0.000 C 
BRANCH  19  20
ATOM     20  C   UNL     1      -2.617   0.340   7.987  1.00  0.00     0.000 C 
BRANCH  20  21
ATOM     21  C   UNL     1      -3.776  -0.642   7.735  1.00  0.00     0.000 C 
BRANCH  21  22
ATOM     22  C   UNL     1      -4.416  -0.552   6.337  1.00  0.00     0.000 C 
BRANCH  22  23
ATOM     23  C   UNL     1      -5.251  -1.790   5.950  1.00  0.00     0.000 C 
BRANCH  23  24
ATOM     24  C   UNL     1      -4.493  -2.743   5.012  1.00  0.00    -0.000 C 
BRANCH  24  25
ATOM     25  C   UNL     1      -5.424  -3.704   4.250  1.00  0.00    -0.000 C 
BRANCH  25  26
ATOM     26  C   UNL     1      -6.923  -3.391   4.443  1.00  0.00    -0.000 C 
BRANCH  26  27
ATOM     27  C   UNL     1      -7.700  -3.412   3.113  1.00  0.00    -0.000 C 
BRANCH  27  28
ATOM     28  C   UNL     1      -6.860  -2.916   1.923  1.00  0.00    -0.000 C 
BRANCH  28  29
ATOM     29  C   UNL     1      -6.948  -1.402   1.655  1.00  0.00    -0.000 C 
BRANCH  29  30
ATOM     30  C   UNL     1      -5.693  -0.642   2.110  1.00  0.00    -0.000 C 
BRANCH  30  31
ATOM     31  C   UNL     1      -6.047   0.426   3.151  1.00  0.00    -0.003 C 
ATOM     32  C   UNL     1      -7.555   0.647   3.225  1.00  0.00     0.004 C 
ENDBRANCH  30  31
ENDBRANCH  29  30
ENDBRANCH  28  29
ENDBRANCH  27  28
ENDBRANCH  26  27
ENDBRANCH  25  26
ENDBRANCH  24  25
ENDBRANCH  23  24
ENDBRANCH  22  23
ENDBRANCH  21  22
ENDBRANCH  20  21
ENDBRANCH  19  20
ENDBRANCH  18  19
ENDBRANCH   1  18
TORSDOF 28
ENDMDL
MODEL 8
REMARK VINA RESULT:    -2.851     11.855     14.072
REMARK INTER + INTRA:         -12.704
REMARK INTER:                  -6.617
REMARK INTRA:                  -6.087
REMARK UNBOUND:                -5.187
REMARK SMILES CCCCCCCCCCCCCCCCCCCCCCCCCCCCCC(=O)[O-]
REMARK SMILES IDX 16 1 17 2 18 3 19 4 20 5 21 6 22 7 23 8 24 9 25 10 26 11
REMARK SMILES IDX 27 12 28 13 29 14 30 15 31 16 32 17 15 18 14 19 13 20 12 21
REMARK SMILES IDX 11 22 10 23 9 24 8 25 7 26 6 27 5 28 4 29 3 30 2 31 1 32
REMARK H PARENT
REMARK Flexibility Score: inf
ROOT
ATOM      1  C   UNL     1      -4.121   3.506   8.042  1.00  0.00     0.000 C 
ENDROOT
BRANCH   1   2
ATOM      2  C   UNL     1      -2.933   2.520   8.044  1.00  0.00     0.000 C 
BRANCH   2   3
ATOM      3  C   UNL     1      -2.051   2.596   6.785  1.00  0.00     0.000 C 
BRANCH   3   4
ATOM      4  C   UNL     1      -0.579   2.245   7.057  1.00  0.00     0.000 C 
BRANCH   4   5
ATOM      5  C   UNL     1      -0.002   1.257   6.033  1.00  0.00     0.000 C 
BRANCH   5   6
ATOM      6  C   UNL     1       1.146   0.404   6.603  1.00  0.00     0.000 C 
BRANCH   6   7
ATOM      7  C   UNL     1       1.107   0.310   8.145  1.00  0.00     0.000 C 
BRANCH   7   8
ATOM      8  C   UNL     1       0.384  -0.940   8.686  1.00  0.00     0.000 C 
BRANCH   8   9
ATOM      9  C   UNL     1      -1.001  -0.688   9.311  1.00  0.00     0.000 C 
BRANCH   9  10
ATOM     10  C   UNL     1      -2.163  -1.451   8.647  1.00  0.00     0.000 C 
BRANCH  10  11
ATOM     11  C   UNL     1      -2.310  -1.139   7.150  1.00  0.00     0.000 C 
BRANCH  11  12
ATOM     12  C   UNL     1      -2.588  -2.423   6.354  1.00  0.00     0.000 C 
BRANCH  12  13
ATOM     13  C   UNL     1      -3.815  -3.186   6.875  1.00  0.00     0.006 C 
BRANCH  13  14
ATOM     14  C   UNL     1      -4.458  -4.065   5.793  1.00  0.00     0.053 C 
BRANCH  14  15
ATOM     15  C   UNL     1      -5.061  -5.292   6.401  1.00  0.00     0.041 C 
ATOM     16  O   UNL     1      -5.595  -6.164   5.667  1.00  0.00    -0.550 OA
ATOM     17  O   UNL     1      -5.002  -5.490   7.775  1.00  0.00    -0.550 OA
ENDBRANCH  14  15
ENDBRANCH  13  14
ENDBRANCH  12  13
ENDBRANCH  11  12
ENDBRANCH  10  11
ENDBRANCH   9  10
ENDBRANCH   8   9
ENDBRANCH   7   8
ENDBRANCH   6   7
ENDBRANCH   5   6
ENDBRANCH   4   5
ENDBRANCH   3   4
ENDBRANCH   2   3
ENDBRANCH   1   2
BRANCH   1  18
ATOM     18  C   UNL     1      -4.178   4.350   6.758  1.00  0.00     0.000 C 
BRANCH  18  19
ATOM     19  C   UNL     1      -5.530   4.245   6.032  1.00  0.00     0.000 C 
BRANCH  19  20
ATOM     20  C   UNL     1      -6.027   2.808   5.769  1.00  0.00     0.000 C 
BRANCH  20  21
ATOM     21  C   UNL     1      -5.125   1.955   4.857  1.00  0.00     0.000 C 
BRANCH  21  22
ATOM     22  C   UNL     1      -4.916   0.502   5.320  1.00  0.00     0.000 C 
BRANCH  22  23
ATOM     23  C   UNL     1      -5.816   0.087   6.503  1.00  0.00     0.000 C 
BRANCH  23  24
ATOM     24  C   UNL     1      -6.732  -1.099   6.160  1.00  0.00    -0.000 C 
BRANCH  24  25
ATOM     25  C   UNL     1      -8.198  -0.684   5.941  1.00  0.00    -0.000 C 
BRANCH  25  26
ATOM     26  C   UNL     1      -8.620  -0.670   4.456  1.00  0.00    -0.000 C 
BRANCH  26  27
ATOM     27  C   UNL     1      -8.446   0.718   3.812  1.00  0.00    -0.000 C 
BRANCH  27  28
ATOM     28  C   UNL     1      -7.835   0.650   2.402  1.00  0.00    -0.000 C 
BRANCH  28  29
ATOM     29  C   UNL     1      -7.237  -0.718   2.022  1.00  0.00    -0.000 C 
BRANCH  29  30
ATOM     30  C   UNL     1      -5.711  -0.768   2.186  1.00  0.00    -0.000 C 
BRANCH  30  31
ATOM     31  C   UNL     1      -5.258  -2.151   2.671  1.00  0.00    -0.003 C 
ATOM     32  C   UNL     1      -6.448  -3.086   2.863  1.00  0.00     0.004 C 
ENDBRANCH  30  31
ENDBRANCH  29  30
ENDBRANCH  28  29
ENDBRANCH  27  28
ENDBRANCH  26  27
ENDBRANCH  25  26
ENDBRANCH  24  25
ENDBRANCH  23  24
ENDBRANCH  22  23
ENDBRANCH  21  22
ENDBRANCH  20  21
ENDBRANCH  19  20
ENDBRANCH  18  19
ENDBRANCH   1  18
TORSDOF 28
ENDMDL
MODEL 9
REMARK VINA RESULT:    -2.831      3.681      6.956
REMARK INTER + INTRA:         -12.652
REMARK INTER:                  -6.493
REMARK INTRA:                  -6.159
REMARK UNBOUND:                -5.187
REMARK SMILES CCCCCCCCCCCCCCCCCCCCCCCCCCCCCC(=O)[O-]
REMARK SMILES IDX 16 1 17 2 18 3 19 4 20 5 21 6 22 7 23 8 24 9 25 10 26 11
REMARK SMILES IDX 27 12 28 13 29 14 30 15 31 16 32 17 15 18 14 19 13 20 12 21
REMARK SMILES IDX 11 22 10 23 9 24 8 25 7 26 6 27 5 28 4 29 3 30 2 31 1 32
REMARK H PARENT
REMARK Flexibility Score: inf
ROOT
ATOM      1  C   UNL     1       7.665   6.992   1.979  1.00  0.00     0.000 C 
ENDROOT
BRANCH   1   2
ATOM      2  C   UNL     1       6.832   6.025   2.848  1.00  0.00     0.000 C 
BRANCH   2   3
ATOM      3  C   UNL     1       5.988   6.721   3.931  1.00  0.00     0.000 C 
BRANCH   3   4
ATOM      4  C   UNL     1       6.275   8.228   4.042  1.00  0.00     0.000 C 
BRANCH   4   5
ATOM      5  C   UNL     1       5.090   9.096   3.592  1.00  0.00     0.000 C 
BRANCH   5   6
ATOM      6  C   UNL     1       3.803   8.283   3.364  1.00  0.00     0.000 C 
BRANCH   6   7
ATOM      7  C   UNL     1       3.274   8.402   1.918  1.00  0.00     0.000 C 
BRANCH   7   8
ATOM      8  C   UNL     1       4.319   8.903   0.900  1.00  0.00     0.000 C 
BRANCH   8   9
ATOM      9  C   UNL     1       4.794   7.862  -0.131  1.00  0.00     0.000 C 
BRANCH   9  10
ATOM     10  C   UNL     1       4.327   6.419   0.137  1.00  0.00     0.000 C 
BRANCH  10  11
ATOM     11  C   UNL     1       4.059   5.625  -1.150  1.00  0.00     0.000 C 
BRANCH  11  12
ATOM     12  C   UNL     1       2.639   5.041  -1.143  1.00  0.00     0.000 C 
BRANCH  12  13
ATOM     13  C   UNL     1       1.643   5.923  -0.374  1.00  0.00     0.006 C 
BRANCH  13  14
ATOM     14  C   UNL     1       0.751   6.749  -1.311  1.00  0.00     0.053 C 
BRANCH  14  15
ATOM     15  C   UNL     1       1.262   8.150  -1.425  1.00  0.00     0.041 C 
ATOM     16  O   UNL     1       2.111   8.444  -2.307  1.00  0.00    -0.550 OA
ATOM     17  O   UNL     1       0.775   9.141  -0.581  1.00  0.00    -0.550 OA
ENDBRANCH  14  15
ENDBRANCH  13  14
ENDBRANCH  12  13
ENDBRANCH  11  12
ENDBRANCH  10  11
ENDBRANCH   9  10
ENDBRANCH   8   9
ENDBRANCH   7   8
ENDBRANCH   6   7
ENDBRANCH   5   6
ENDBRANCH   4   5
ENDBRANCH   3   4
ENDBRANCH   2   3
ENDBRANCH   1   2
BRANCH   1  18
ATOM     18  C   UNL     1       9.160   6.630   1.971  1.00  0.00     0.000 C 
BRANCH  18  19
ATOM     19  C   UNL     1       9.528   5.582   3.035  1.00  0.00     0.000 C 
BRANCH  19  20
ATOM     20  C   UNL     1      10.046   4.237   2.483  1.00  0.00     0.000 C 
BRANCH  20  21
ATOM     21  C   UNL     1       9.076   3.049   2.624  1.00  0.00     0.000 C 
BRANCH  21  22
ATOM     22  C   UNL     1       8.252   2.725   1.364  1.00  0.00     0.000 C 
BRANCH  22  23
ATOM     23  C   UNL     1       8.818   3.347   0.070  1.00  0.00     0.000 C 
BRANCH  23  24
ATOM     24  C   UNL     1       7.847   4.346  -0.578  1.00  0.00    -0.000 C 
BRANCH  24  25
ATOM     25  C   UNL     1       8.520   5.241  -1.634  1.00  0.00    -0.000 C 
BRANCH  25  26
ATOM     26  C   UNL     1       7.833   6.613  -1.808  1.00  0.00    -0.000 C 
BRANCH  26  27
ATOM     27  C   UNL     1       7.512   6.922  -3.282  1.00  0.00    -0.000 C 
BRANCH  27  28
ATOM     28  C   UNL     1       6.263   6.182  -3.789  1.00  0.00    -0.000 C 
BRANCH  28  29
ATOM     29  C   UNL     1       6.541   4.813  -4.439  1.00  0.00    -0.000 C 
BRANCH  29  30
ATOM     30  C   UNL     1       5.786   3.664  -3.755  1.00  0.00    -0.000 C 
BRANCH  30  31
ATOM     31  C   UNL     1       6.382   2.307  -4.150  1.00  0.00    -0.003 C 
ATOM     32  C   UNL     1       7.577   1.951  -3.271  1.00  0.00     0.004 C 
ENDBRANCH  30  31
ENDBRANCH  29  30
ENDBRANCH  28  29
ENDBRANCH  27  28
ENDBRANCH  26  27
ENDBRANCH  25  26
ENDBRANCH  24  25
ENDBRANCH  23  24
ENDBRANCH  22  23
ENDBRANCH  21  22
ENDBRANCH  20  21
ENDBRANCH  19  20
ENDBRANCH  18  19
ENDBRANCH   1  18
TORSDOF 28
ENDMDL
