MODEL 1
REMARK VINA RESULT:    -3.446      0.000      0.000
REMARK INTER + INTRA:          -5.481
REMARK INTER:                  -4.654
REMARK INTRA:                  -0.827
REMARK UNBOUND:                -0.827
REMARK SMILES O=C[C@H](O)[C@H](O)[C@@H](O)CO
REMARK SMILES IDX 7 1 9 2 10 3 5 5 3 6 2 7 1 8 4 9 6 11 8 13
REMARK H PARENT 10 4 4 10 6 12 8 14
REMARK Flexibility Score: inf
ROOT
ATOM      1  C   UNL     1      17.912  34.796  13.961  1.00  0.00     0.171 C 
ENDROOT
BRANCH   1   2
ATOM      2  C   UNL     1      17.923  35.520  15.318  1.00  0.00     0.190 C 
BRANCH   2   3
ATOM      3  O   UNL     1      17.683  34.630  16.376  1.00  0.00    -0.394 OA
ATOM      4  H   UNL     1      16.770  34.264  16.239  1.00  0.00     0.210 HD
ENDBRANCH   2   3
ENDBRANCH   1   2
BRANCH   1   5
ATOM      5  C   UNL     1      16.584  34.035  13.665  1.00  0.00     0.181 C 
BRANCH   5   6
ATOM      6  C   UNL     1      15.294  34.896  13.772  1.00  0.00     0.209 C 
BRANCH   6   7
ATOM      7  C   UNL     1      14.390  34.438  14.887  1.00  0.00     0.258 C 
ATOM      8  O   UNL     1      14.663  34.689  16.049  1.00  0.00    -0.300 OA
ENDBRANCH   6   7
BRANCH   6   9
ATOM      9  O   UNL     1      14.600  34.891  12.552  1.00  0.00    -0.383 OA
ATOM     10  H   UNL     1      14.526  35.836  12.257  1.00  0.00     0.211 HD
ENDBRANCH   6   9
ENDBRANCH   5   6
BRANCH   5  11
ATOM     11  O   UNL     1      16.474  32.927  14.526  1.00  0.00    -0.387 OA
ATOM     12  H   UNL     1      17.121  33.060  15.268  1.00  0.00     0.211 HD
ENDBRANCH   5  11
ENDBRANCH   1   5
BRANCH   1  13
ATOM     13  O   UNL     1      18.139  35.749  12.953  1.00  0.00    -0.388 OA
ATOM     14  H   UNL     1      19.058  35.598  12.608  1.00  0.00     0.211 HD
ENDBRANCH   1  13
TORSDOF 8
ENDMDL
MODEL 2
REMARK VINA RESULT:    -3.429     11.167     12.034
REMARK INTER + INTRA:          -5.459
REMARK INTER:                  -4.729
REMARK INTRA:                  -0.730
REMARK UNBOUND:                -0.827
REMARK SMILES O=C[C@H](O)[C@H](O)[C@@H](O)CO
REMARK SMILES IDX 7 1 9 2 10 3 5 5 3 6 2 7 1 8 4 9 6 11 8 13
REMARK H PARENT 10 4 4 10 6 12 8 14
REMARK Flexibility Score: inf
ROOT
ATOM      1  C   UNL     1      26.963  36.356  19.616  1.00  0.00     0.171 C 
ENDROOT
BRANCH   1   2
ATOM      2  C   UNL     1      28.390  35.856  19.898  1.00  0.00     0.190 C 
BRANCH   2   3
ATOM      3  O   UNL     1      28.695  34.719  19.135  1.00  0.00    -0.394 OA
ATOM      4  H   UNL     1      29.351  34.191  19.660  1.00  0.00     0.210 HD
ENDBRANCH   2   3
ENDBRANCH   1   2
BRANCH   1   5
ATOM      5  C   UNL     1      25.854  35.528  20.336  1.00  0.00     0.181 C 
BRANCH   5   6
ATOM      6  C   UNL     1      25.852  35.639  21.886  1.00  0.00     0.209 C 
BRANCH   6   7
ATOM      7  C   UNL     1      25.064  34.534  22.540  1.00  0.00     0.258 C 
ATOM      8  O   UNL     1      23.933  34.272  22.162  1.00  0.00    -0.300 OA
ENDBRANCH   6   7
BRANCH   6   9
ATOM      9  O   UNL     1      25.354  36.890  22.287  1.00  0.00    -0.383 OA
ATOM     10  H   UNL     1      25.986  37.576  21.947  1.00  0.00     0.211 HD
ENDBRANCH   6   9
ENDBRANCH   5   6
BRANCH   5  11
ATOM     11  O   UNL     1      25.964  34.174  19.970  1.00  0.00    -0.387 OA
ATOM     12  H   UNL     1      26.103  34.141  18.987  1.00  0.00     0.211 HD
ENDBRANCH   5  11
ENDBRANCH   1   5
BRANCH   1  13
ATOM     13  O   UNL     1      26.880  37.699  20.021  1.00  0.00    -0.388 OA
ATOM     14  H   UNL     1      27.028  37.720  21.003  1.00  0.00     0.211 HD
ENDBRANCH   1  13
TORSDOF 8
ENDMDL
MODEL 3
REMARK VINA RESULT:    -3.408     11.716     12.874
REMARK INTER + INTRA:          -5.431
REMARK INTER:                  -5.013
REMARK INTRA:                  -0.418
REMARK UNBOUND:                -0.827
REMARK SMILES O=C[C@H](O)[C@H](O)[C@@H](O)CO
REMARK SMILES IDX 7 1 9 2 10 3 5 5 3 6 2 7 1 8 4 9 6 11 8 13
REMARK H PARENT 10 4 4 10 6 12 8 14
REMARK Flexibility Score: inf
ROOT
ATOM      1  C   UNL     1      17.520  21.385  16.084  1.00  0.00     0.171 C 
ENDROOT
BRANCH   1   2
ATOM      2  C   UNL     1      17.710  20.106  16.916  1.00  0.00     0.190 C 
BRANCH   2   3
ATOM      3  O   UNL     1      18.172  20.398  18.209  1.00  0.00    -0.394 OA
ATOM      4  H   UNL     1      17.980  19.600  18.767  1.00  0.00     0.210 HD
ENDBRANCH   2   3
ENDBRANCH   1   2
BRANCH   1   5
ATOM      5  C   UNL     1      16.075  21.965  16.144  1.00  0.00     0.181 C 
BRANCH   5   6
ATOM      6  C   UNL     1      15.786  23.120  15.144  1.00  0.00     0.209 C 
BRANCH   6   7
ATOM      7  C   UNL     1      15.480  22.616  13.757  1.00  0.00     0.258 C 
ATOM      8  O   UNL     1      16.129  23.005  12.800  1.00  0.00    -0.300 OA
ENDBRANCH   6   7
BRANCH   6   9
ATOM      9  O   UNL     1      16.868  24.015  15.105  1.00  0.00    -0.383 OA
ATOM     10  H   UNL     1      16.498  24.905  14.867  1.00  0.00     0.211 HD
ENDBRANCH   6   9
ENDBRANCH   5   6
BRANCH   5  11
ATOM     11  O   UNL     1      15.798  22.407  17.451  1.00  0.00    -0.387 OA
ATOM     12  H   UNL     1      15.323  23.276  17.378  1.00  0.00     0.211 HD
ENDBRANCH   5  11
ENDBRANCH   1   5
BRANCH   1  13
ATOM     13  O   UNL     1      18.431  22.350  16.548  1.00  0.00    -0.388 OA
ATOM     14  H   UNL     1      19.242  22.287  15.977  1.00  0.00     0.211 HD
ENDBRANCH   1  13
TORSDOF 8
ENDMDL
MODEL 4
REMARK VINA RESULT:    -3.378     11.269     12.270
REMARK INTER + INTRA:          -5.390
REMARK INTER:                  -5.001
REMARK INTRA:                  -0.389
REMARK UNBOUND:                -0.827
REMARK SMILES O=C[C@H](O)[C@H](O)[C@@H](O)CO
REMARK SMILES IDX 7 1 9 2 10 3 5 5 3 6 2 7 1 8 4 9 6 11 8 13
REMARK H PARENT 10 4 4 10 6 12 8 14
REMARK Flexibility Score: inf
ROOT
ATOM      1  C   UNL     1      27.515  36.998  20.338  1.00  0.00     0.171 C 
ENDROOT
BRANCH   1   2
ATOM      2  C   UNL     1      27.549  37.317  21.841  1.00  0.00     0.190 C 
BRANCH   2   3
ATOM      3  O   UNL     1      26.571  38.262  22.188  1.00  0.00    -0.394 OA
ATOM      4  H   UNL     1      25.951  38.327  21.416  1.00  0.00     0.210 HD
ENDBRANCH   2   3
ENDBRANCH   1   2
BRANCH   1   5
ATOM      5  C   UNL     1      26.760  35.679  19.992  1.00  0.00     0.181 C 
BRANCH   5   6
ATOM      6  C   UNL     1      25.868  35.112  21.133  1.00  0.00     0.209 C 
BRANCH   6   7
ATOM      7  C   UNL     1      25.583  33.643  20.963  1.00  0.00     0.258 C 
ATOM      8  O   UNL     1      26.354  32.807  21.409  1.00  0.00    -0.300 OA
ENDBRANCH   6   7
BRANCH   6   9
ATOM      9  O   UNL     1      24.665  35.832  21.217  1.00  0.00    -0.383 OA
ATOM     10  H   UNL     1      24.343  35.967  20.287  1.00  0.00     0.211 HD
ENDBRANCH   6   9
ENDBRANCH   5   6
BRANCH   5  11
ATOM     11  O   UNL     1      27.686  34.695  19.598  1.00  0.00    -0.387 OA
ATOM     12  H   UNL     1      28.244  35.083  18.874  1.00  0.00     0.211 HD
ENDBRANCH   5  11
ENDBRANCH   1   5
BRANCH   1  13
ATOM     13  O   UNL     1      26.902  38.075  19.674  1.00  0.00    -0.388 OA
ATOM     14  H   UNL     1      26.190  37.695  19.094  1.00  0.00     0.211 HD
ENDBRANCH   1  13
TORSDOF 8
ENDMDL
MODEL 5
REMARK VINA RESULT:    -3.341      1.426      3.015
REMARK INTER + INTRA:          -5.340
REMARK INTER:                  -4.883
REMARK INTRA:                  -0.456
REMARK UNBOUND:                -0.827
REMARK SMILES O=C[C@H](O)[C@H](O)[C@@H](O)CO
REMARK SMILES IDX 7 1 9 2 10 3 5 5 3 6 2 7 1 8 4 9 6 11 8 13
REMARK H PARENT 10 4 4 10 6 12 8 14
REMARK Flexibility Score: inf
ROOT
ATOM      1  C   UNL     1      15.082  34.876  15.218  1.00  0.00     0.171 C 
ENDROOT
BRANCH   1   2
ATOM      2  C   UNL     1      15.009  35.019  16.747  1.00  0.00     0.190 C 
BRANCH   2   3
ATOM      3  O   UNL     1      16.279  35.237  17.303  1.00  0.00    -0.394 OA
ATOM      4  H   UNL     1      16.917  34.684  16.782  1.00  0.00     0.210 HD
ENDBRANCH   2   3
ENDBRANCH   1   2
BRANCH   1   5
ATOM      5  C   UNL     1      16.427  34.278  14.705  1.00  0.00     0.181 C 
BRANCH   5   6
ATOM      6  C   UNL     1      17.210  35.177  13.708  1.00  0.00     0.209 C 
BRANCH   6   7
ATOM      7  C   UNL     1      18.355  35.902  14.365  1.00  0.00     0.258 C 
ATOM      8  O   UNL     1      18.401  36.015  15.580  1.00  0.00    -0.300 OA
ENDBRANCH   6   7
BRANCH   6   9
ATOM      9  O   UNL     1      16.344  36.097  13.095  1.00  0.00    -0.383 OA
ATOM     10  H   UNL     1      15.421  35.752  13.217  1.00  0.00     0.211 HD
ENDBRANCH   6   9
ENDBRANCH   5   6
BRANCH   5  11
ATOM     11  O   UNL     1      16.190  33.025  14.110  1.00  0.00    -0.387 OA
ATOM     12  H   UNL     1      15.742  33.189  13.238  1.00  0.00     0.211 HD
ENDBRANCH   5  11
ENDBRANCH   1   5
BRANCH   1  13
ATOM     13  O   UNL     1      14.018  34.056  14.803  1.00  0.00    -0.388 OA
ATOM     14  H   UNL     1      14.324  33.114  14.885  1.00  0.00     0.211 HD
ENDBRANCH   1  13
TORSDOF 8
ENDMDL
MODEL 6
REMARK VINA RESULT:    -3.311      1.413      2.824
REMARK INTER + INTRA:          -5.300
REMARK INTER:                  -4.325
REMARK INTRA:                  -0.975
REMARK UNBOUND:                -0.827
REMARK SMILES O=C[C@H](O)[C@H](O)[C@@H](O)CO
REMARK SMILES IDX 7 1 9 2 10 3 5 5 3 6 2 7 1 8 4 9 6 11 8 13
REMARK H PARENT 10 4 4 10 6 12 8 14
REMARK Flexibility Score: inf
ROOT
ATOM      1  C   UNL     1      16.030  34.836  13.071  1.00  0.00     0.171 C 
ENDROOT
BRANCH   1   2
ATOM      2  C   UNL     1      17.096  34.074  12.267  1.00  0.00     0.190 C 
BRANCH   2   3
ATOM      3  O   UNL     1      18.366  34.201  12.849  1.00  0.00    -0.394 OA
ATOM      4  H   UNL     1      19.024  34.176  12.106  1.00  0.00     0.210 HD
ENDBRANCH   2   3
ENDBRANCH   1   2
BRANCH   1   5
ATOM      5  C   UNL     1      15.695  34.184  14.447  1.00  0.00     0.181 C 
BRANCH   5   6
ATOM      6  C   UNL     1      15.961  35.085  15.685  1.00  0.00     0.209 C 
BRANCH   6   7
ATOM      7  C   UNL     1      17.331  34.863  16.272  1.00  0.00     0.258 C 
ATOM      8  O   UNL     1      18.331  35.182  15.649  1.00  0.00    -0.300 OA
ENDBRANCH   6   7
BRANCH   6   9
ATOM      9  O   UNL     1      14.975  34.876  16.664  1.00  0.00    -0.383 OA
ATOM     10  H   UNL     1      14.835  33.895  16.729  1.00  0.00     0.211 HD
ENDBRANCH   6   9
ENDBRANCH   5   6
BRANCH   5  11
ATOM     11  O   UNL     1      16.414  32.982  14.586  1.00  0.00    -0.387 OA
ATOM     12  H   UNL     1      15.920  32.278  14.090  1.00  0.00     0.211 HD
ENDBRANCH   5  11
ENDBRANCH   1   5
BRANCH   1  13
ATOM     13  O   UNL     1      16.489  36.149  13.276  1.00  0.00    -0.388 OA
ATOM     14  H   UNL     1      15.710  36.754  13.159  1.00  0.00     0.211 HD
ENDBRANCH   1  13
TORSDOF 8
ENDMDL
MODEL 7
REMARK VINA RESULT:    -3.308      1.503      3.494
REMARK INTER + INTRA:          -5.295
REMARK INTER:                  -4.525
REMARK INTRA:                  -0.770
REMARK UNBOUND:                -0.827
REMARK SMILES O=C[C@H](O)[C@H](O)[C@@H](O)CO
REMARK SMILES IDX 7 1 9 2 10 3 5 5 3 6 2 7 1 8 4 9 6 11 8 13
REMARK H PARENT 10 4 4 10 6 12 8 14
REMARK Flexibility Score: inf
ROOT
ATOM      1  C   UNL     1      15.963  34.355  15.924  1.00  0.00     0.171 C 
ENDROOT
BRANCH   1   2
ATOM      2  C   UNL     1      14.600  34.936  15.512  1.00  0.00     0.190 C 
BRANCH   2   3
ATOM      3  O   UNL     1      13.879  34.036  14.713  1.00  0.00    -0.394 OA
ATOM      4  H   UNL     1      12.943  34.049  15.043  1.00  0.00     0.210 HD
ENDBRANCH   2   3
ENDBRANCH   1   2
BRANCH   1   5
ATOM      5  C   UNL     1      16.914  34.070  14.722  1.00  0.00     0.181 C 
BRANCH   5   6
ATOM      6  C   UNL     1      17.112  35.261  13.743  1.00  0.00     0.209 C 
BRANCH   6   7
ATOM      7  C   UNL     1      17.757  34.839  12.448  1.00  0.00     0.258 C 
ATOM      8  O   UNL     1      18.674  34.033  12.448  1.00  0.00    -0.300 OA
ENDBRANCH   6   7
BRANCH   6   9
ATOM      9  O   UNL     1      17.868  36.276  14.352  1.00  0.00    -0.383 OA
ATOM     10  H   UNL     1      18.641  36.458  13.757  1.00  0.00     0.211 HD
ENDBRANCH   6   9
ENDBRANCH   5   6
BRANCH   5  11
ATOM     11  O   UNL     1      16.445  32.955  14.004  1.00  0.00    -0.387 OA
ATOM     12  H   UNL     1      15.492  33.122  13.781  1.00  0.00     0.211 HD
ENDBRANCH   5  11
ENDBRANCH   1   5
BRANCH   1  13
ATOM     13  O   UNL     1      16.580  35.263  16.803  1.00  0.00    -0.388 OA
ATOM     14  H   UNL     1      16.780  36.085  16.282  1.00  0.00     0.211 HD
ENDBRANCH   1  13
TORSDOF 8
ENDMDL
MODEL 8
REMARK VINA RESULT:    -3.223     11.659     12.687
REMARK INTER + INTRA:          -5.181
REMARK INTER:                  -4.206
REMARK INTRA:                  -0.975
REMARK UNBOUND:                -0.827
REMARK SMILES O=C[C@H](O)[C@H](O)[C@@H](O)CO
REMARK SMILES IDX 7 1 9 2 10 3 5 5 3 6 2 7 1 8 4 9 6 11 8 13
REMARK H PARENT 10 4 4 10 6 12 8 14
REMARK Flexibility Score: inf
ROOT
ATOM      1  C   UNL     1      26.210  34.296  20.167  1.00  0.00     0.171 C 
ENDROOT
BRANCH   1   2
ATOM      2  C   UNL     1      25.901  33.472  21.428  1.00  0.00     0.190 C 
BRANCH   2   3
ATOM      3  O   UNL     1      26.884  33.653  22.413  1.00  0.00    -0.394 OA
ATOM      4  H   UNL     1      27.704  33.201  22.084  1.00  0.00     0.210 HD
ENDBRANCH   2   3
ENDBRANCH   1   2
BRANCH   1   5
ATOM      5  C   UNL     1      25.981  35.828  20.346  1.00  0.00     0.181 C 
BRANCH   5   6
ATOM      6  C   UNL     1      27.254  36.706  20.190  1.00  0.00     0.209 C 
BRANCH   6   7
ATOM      7  C   UNL     1      27.942  36.959  21.506  1.00  0.00     0.258 C 
ATOM      8  O   UNL     1      28.444  36.037  22.130  1.00  0.00    -0.300 OA
ENDBRANCH   6   7
BRANCH   6   9
ATOM      9  O   UNL     1      26.935  37.924  19.568  1.00  0.00    -0.383 OA
ATOM     10  H   UNL     1      27.732  38.199  19.045  1.00  0.00     0.211 HD
ENDBRANCH   6   9
ENDBRANCH   5   6
BRANCH   5  11
ATOM     11  O   UNL     1      25.401  36.074  21.604  1.00  0.00    -0.387 OA
ATOM     12  H   UNL     1      24.712  36.779  21.483  1.00  0.00     0.211 HD
ENDBRANCH   5  11
ENDBRANCH   1   5
BRANCH   1  13
ATOM     13  O   UNL     1      27.548  34.062  19.806  1.00  0.00    -0.388 OA
ATOM     14  H   UNL     1      27.912  33.395  20.445  1.00  0.00     0.211 HD
ENDBRANCH   1  13
TORSDOF 8
ENDMDL
MODEL 9
REMARK VINA RESULT:    -3.204     15.168     16.278
REMARK INTER + INTRA:          -5.155
REMARK INTER:                  -4.620
REMARK INTRA:                  -0.535
REMARK UNBOUND:                -0.827
REMARK SMILES O=C[C@H](O)[C@H](O)[C@@H](O)CO
REMARK SMILES IDX 7 1 9 2 10 3 5 5 3 6 2 7 1 8 4 9 6 11 8 13
REMARK H PARENT 10 4 4 10 6 12 8 14
REMARK Flexibility Score: inf
ROOT
ATOM      1  C   UNL     1      16.304  25.468  26.187  1.00  0.00     0.171 C 
ENDROOT
BRANCH   1   2
ATOM      2  C   UNL     1      15.000  25.027  25.503  1.00  0.00     0.190 C 
BRANCH   2   3
ATOM      3  O   UNL     1      13.876  25.366  26.272  1.00  0.00    -0.394 OA
ATOM      4  H   UNL     1      13.096  24.921  25.849  1.00  0.00     0.210 HD
ENDBRANCH   2   3
ENDBRANCH   1   2
BRANCH   1   5
ATOM      5  C   UNL     1      16.283  25.314  27.738  1.00  0.00     0.181 C 
BRANCH   5   6
ATOM      6  C   UNL     1      16.249  26.650  28.532  1.00  0.00     0.209 C 
BRANCH   6   7
ATOM      7  C   UNL     1      16.355  26.437  30.020  1.00  0.00     0.258 C 
ATOM      8  O   UNL     1      17.442  26.249  30.542  1.00  0.00    -0.300 OA
ENDBRANCH   6   7
BRANCH   6   9
ATOM      9  O   UNL     1      15.083  27.371  28.228  1.00  0.00    -0.383 OA
ATOM     10  H   UNL     1      15.329  28.044  27.541  1.00  0.00     0.211 HD
ENDBRANCH   6   9
ENDBRANCH   5   6
BRANCH   5  11
ATOM     11  O   UNL     1      17.395  24.558  28.153  1.00  0.00    -0.387 OA
ATOM     12  H   UNL     1      17.179  24.172  29.042  1.00  0.00     0.211 HD
ENDBRANCH   5  11
ENDBRANCH   1   5
BRANCH   1  13
ATOM     13  O   UNL     1      17.358  24.704  25.657  1.00  0.00    -0.388 OA
ATOM     14  H   UNL     1      18.185  25.250  25.735  1.00  0.00     0.211 HD
ENDBRANCH   1  13
TORSDOF 8
ENDMDL
