MODEL 1
REMARK VINA RESULT:    -2.964      0.000      0.000
REMARK INTER + INTRA:          -3.320
REMARK INTER:                  -3.311
REMARK INTRA:                  -0.009
REMARK UNBOUND:                -0.009
REMARK SMILES CCCC(=O)[O-]
REMARK SMILES IDX 3 1 4 2 5 3 6 4 2 5 1 6
REMARK H PARENT
REMARK Flexibility Score: inf
ROOT
ATOM      1  C   UNL     1      28.502  43.263  25.981  1.00  0.00     0.052 C 
ENDROOT
BRANCH   1   2
ATOM      2  C   UNL     1      29.978  43.334  26.231  1.00  0.00     0.041 C 
ATOM      3  O   UNL     1      30.555  42.424  26.882  1.00  0.00    -0.550 OA
ATOM      4  O   UNL     1      30.709  44.422  25.772  1.00  0.00    -0.550 OA
ENDBRANCH   1   2
BRANCH   1   5
ATOM      5  C   UNL     1      27.775  42.496  27.092  1.00  0.00     0.003 C 
ATOM      6  C   UNL     1      26.260  42.702  27.045  1.00  0.00     0.004 C 
ENDBRANCH   1   5
TORSDOF 2
ENDMDL
MODEL 2
REMARK VINA RESULT:    -2.946      0.141      1.324
REMARK INTER + INTRA:          -3.299
REMARK INTER:                  -3.291
REMARK INTRA:                  -0.008
REMARK UNBOUND:                -0.009
REMARK SMILES CCCC(=O)[O-]
REMARK SMILES IDX 3 1 4 2 5 3 6 4 2 5 1 6
REMARK H PARENT
REMARK Flexibility Score: inf
ROOT
ATOM      1  C   UNL     1      28.487  43.237  25.931  1.00  0.00     0.052 C 
ENDROOT
BRANCH   1   2
ATOM      2  C   UNL     1      29.940  43.374  26.269  1.00  0.00     0.041 C 
ATOM      3  O   UNL     1      30.623  44.303  25.764  1.00  0.00    -0.550 OA
ATOM      4  O   UNL     1      30.547  42.456  27.116  1.00  0.00    -0.550 OA
ENDBRANCH   1   2
BRANCH   1   5
ATOM      5  C   UNL     1      27.710  42.527  27.046  1.00  0.00     0.003 C 
ATOM      6  C   UNL     1      26.217  42.859  27.017  1.00  0.00     0.004 C 
ENDBRANCH   1   5
TORSDOF 2
ENDMDL
MODEL 3
REMARK VINA RESULT:    -2.886      2.597      3.423
REMARK INTER + INTRA:          -3.233
REMARK INTER:                  -3.180
REMARK INTRA:                  -0.053
REMARK UNBOUND:                -0.009
REMARK SMILES CCCC(=O)[O-]
REMARK SMILES IDX 3 1 4 2 5 3 6 4 2 5 1 6
REMARK H PARENT
REMARK Flexibility Score: inf
ROOT
ATOM      1  C   UNL     1      28.230  42.504  27.122  1.00  0.00     0.052 C 
ENDROOT
BRANCH   1   2
ATOM      2  C   UNL     1      27.040  42.956  26.333  1.00  0.00     0.041 C 
ATOM      3  O   UNL     1      26.103  43.578  26.899  1.00  0.00    -0.550 OA
ATOM      4  O   UNL     1      26.950  42.661  24.979  1.00  0.00    -0.550 OA
ENDBRANCH   1   2
BRANCH   1   5
ATOM      5  C   UNL     1      29.530  42.645  26.319  1.00  0.00     0.003 C 
ATOM      6  C   UNL     1      30.062  44.078  26.323  1.00  0.00     0.004 C 
ENDBRANCH   1   5
TORSDOF 2
ENDMDL
MODEL 4
REMARK VINA RESULT:    -2.708     15.059     15.179
REMARK INTER + INTRA:          -3.034
REMARK INTER:                  -2.998
REMARK INTRA:                  -0.036
REMARK UNBOUND:                -0.009
REMARK SMILES CCCC(=O)[O-]
REMARK SMILES IDX 3 1 4 2 5 3 6 4 2 5 1 6
REMARK H PARENT
REMARK Flexibility Score: inf
ROOT
ATOM      1  C   UNL     1      30.468  51.261  38.495  1.00  0.00     0.052 C 
ENDROOT
BRANCH   1   2
ATOM      2  C   UNL     1      30.122  50.277  39.571  1.00  0.00     0.041 C 
ATOM      3  O   UNL     1      30.927  50.061  40.514  1.00  0.00    -0.550 OA
ATOM      4  O   UNL     1      28.925  49.575  39.513  1.00  0.00    -0.550 OA
ENDBRANCH   1   2
BRANCH   1   5
ATOM      5  C   UNL     1      29.808  52.623  38.739  1.00  0.00     0.003 C 
ATOM      6  C   UNL     1      28.458  52.750  38.032  1.00  0.00     0.004 C 
ENDBRANCH   1   5
TORSDOF 2
ENDMDL
MODEL 5
REMARK VINA RESULT:    -2.546     15.063     15.219
REMARK INTER + INTRA:          -2.853
REMARK INTER:                  -2.814
REMARK INTRA:                  -0.039
REMARK UNBOUND:                -0.009
REMARK SMILES CCCC(=O)[O-]
REMARK SMILES IDX 3 1 4 2 5 3 6 4 2 5 1 6
REMARK H PARENT
REMARK Flexibility Score: inf
ROOT
ATOM      1  C   UNL     1      29.191  51.627  40.040  1.00  0.00     0.052 C 
ENDROOT
BRANCH   1   2
ATOM      2  C   UNL     1      30.211  50.742  39.389  1.00  0.00     0.041 C 
ATOM      3  O   UNL     1      30.798  51.117  38.340  1.00  0.00    -0.550 OA
ATOM      4  O   UNL     1      30.488  49.491  39.923  1.00  0.00    -0.550 OA
ENDBRANCH   1   2
BRANCH   1   5
ATOM      5  C   UNL     1      27.815  51.489  39.377  1.00  0.00     0.003 C 
ATOM      6  C   UNL     1      27.528  52.622  38.391  1.00  0.00     0.004 C 
ENDBRANCH   1   5
TORSDOF 2
ENDMDL
MODEL 6
REMARK VINA RESULT:    -2.503      2.627      3.059
REMARK INTER + INTRA:          -2.804
REMARK INTER:                  -2.764
REMARK INTRA:                  -0.040
REMARK UNBOUND:                -0.009
REMARK SMILES CCCC(=O)[O-]
REMARK SMILES IDX 3 1 4 2 5 3 6 4 2 5 1 6
REMARK H PARENT
REMARK Flexibility Score: inf
ROOT
ATOM      1  C   UNL     1      26.370  42.700  26.977  1.00  0.00     0.052 C 
ENDROOT
BRANCH   1   2
ATOM      2  C   UNL     1      27.070  42.804  25.656  1.00  0.00     0.041 C 
ATOM      3  O   UNL     1      28.289  43.116  25.608  1.00  0.00    -0.550 OA
ATOM      4  O   UNL     1      26.367  42.590  24.478  1.00  0.00    -0.550 OA
ENDBRANCH   1   2
BRANCH   1   5
ATOM      5  C   UNL     1      26.280  41.247  27.457  1.00  0.00     0.003 C 
ATOM      6  C   UNL     1      24.938  40.602  27.109  1.00  0.00     0.004 C 
ENDBRANCH   1   5
TORSDOF 2
ENDMDL
MODEL 7
REMARK VINA RESULT:    -2.438      1.533      2.177
REMARK INTER + INTRA:          -2.732
REMARK INTER:                  -2.679
REMARK INTRA:                  -0.054
REMARK UNBOUND:                -0.009
REMARK SMILES CCCC(=O)[O-]
REMARK SMILES IDX 3 1 4 2 5 3 6 4 2 5 1 6
REMARK H PARENT
REMARK Flexibility Score: inf
ROOT
ATOM      1  C   UNL     1      27.387  42.461  27.560  1.00  0.00     0.052 C 
ENDROOT
BRANCH   1   2
ATOM      2  C   UNL     1      28.693  42.847  26.936  1.00  0.00     0.041 C 
ATOM      3  O   UNL     1      28.713  43.458  25.835  1.00  0.00    -0.550 OA
ATOM      4  O   UNL     1      29.888  42.503  27.554  1.00  0.00    -0.550 OA
ENDBRANCH   1   2
BRANCH   1   5
ATOM      5  C   UNL     1      26.397  41.924  26.519  1.00  0.00     0.003 C 
ATOM      6  C   UNL     1      26.738  40.502  26.071  1.00  0.00     0.004 C 
ENDBRANCH   1   5
TORSDOF 2
ENDMDL
MODEL 8
REMARK VINA RESULT:    -2.436     15.598     15.776
REMARK INTER + INTRA:          -2.730
REMARK INTER:                  -2.660
REMARK INTRA:                  -0.070
REMARK UNBOUND:                -0.009
REMARK SMILES CCCC(=O)[O-]
REMARK SMILES IDX 3 1 4 2 5 3 6 4 2 5 1 6
REMARK H PARENT
REMARK Flexibility Score: inf
ROOT
ATOM      1  C   UNL     1      29.802  52.704  38.779  1.00  0.00     0.052 C 
ENDROOT
BRANCH   1   2
ATOM      2  C   UNL     1      28.363  52.607  39.184  1.00  0.00     0.041 C 
ATOM      3  O   UNL     1      27.487  52.283  38.339  1.00  0.00    -0.550 OA
ATOM      4  O   UNL     1      27.985  52.906  40.486  1.00  0.00    -0.550 OA
ENDBRANCH   1   2
BRANCH   1   5
ATOM      5  C   UNL     1      30.395  51.326  38.457  1.00  0.00     0.003 C 
ATOM      6  C   UNL     1      30.347  50.378  39.655  1.00  0.00     0.004 C 
ENDBRANCH   1   5
TORSDOF 2
ENDMDL
MODEL 9
REMARK VINA RESULT:    -2.309     10.524     11.184
REMARK INTER + INTRA:          -2.588
REMARK INTER:                  -2.572
REMARK INTRA:                  -0.016
REMARK UNBOUND:                -0.009
REMARK SMILES CCCC(=O)[O-]
REMARK SMILES IDX 3 1 4 2 5 3 6 4 2 5 1 6
REMARK H PARENT
REMARK Flexibility Score: inf
ROOT
ATOM      1  C   UNL     1      32.746  39.371  35.353  1.00  0.00     0.052 C 
ENDROOT
BRANCH   1   2
ATOM      2  C   UNL     1      33.207  38.786  36.654  1.00  0.00     0.041 C 
ATOM      3  O   UNL     1      32.664  39.137  37.734  1.00  0.00    -0.550 OA
ATOM      4  O   UNL     1      34.258  37.879  36.675  1.00  0.00    -0.550 OA
ENDBRANCH   1   2
BRANCH   1   5
ATOM      5  C   UNL     1      31.992  38.340  34.504  1.00  0.00     0.003 C 
ATOM      6  C   UNL     1      32.415  38.377  33.035  1.00  0.00     0.004 C 
ENDBRANCH   1   5
TORSDOF 2
ENDMDL
