MODEL 1
REMARK VINA RESULT:    -4.229      0.000      0.000
REMARK INTER + INTRA:          -7.654
REMARK INTER:                  -6.454
REMARK INTRA:                  -1.201
REMARK UNBOUND:                -1.201
REMARK SMILES CCCCCCCCCC=CC(=O)[O-]
REMARK SMILES IDX 7 1 8 2 9 3 10 4 11 5 12 6 13 7 14 8 6 9 5 10 4 11 3 12 2 13
REMARK SMILES IDX 1 14
REMARK H PARENT
REMARK Flexibility Score: inf
ROOT
ATOM      1  C   UNL     1      -9.537  66.386  30.482  1.00  0.00     0.000 C 
ENDROOT
BRANCH   1   2
ATOM      2  C   UNL     1      -9.228  67.784  31.056  1.00  0.00     0.004 C 
BRANCH   2   3
ATOM      3  C   UNL     1      -8.044  67.822  32.039  1.00  0.00     0.027 C 
BRANCH   3   4
ATOM      4  C   UNL     1      -7.715  66.465  32.604  1.00  0.00    -0.025 C 
ATOM      5  C   UNL     1      -6.666  66.167  33.387  1.00  0.00     0.020 C 
BRANCH   5   6
ATOM      6  C   UNL     1      -5.659  67.113  33.907  1.00  0.00     0.064 C 
ATOM      7  O   UNL     1      -5.931  67.790  34.933  1.00  0.00    -0.545 OA
ATOM      8  O   UNL     1      -4.435  67.312  33.281  1.00  0.00    -0.545 OA
ENDBRANCH   5   6
ENDBRANCH   3   4
ENDBRANCH   2   3
ENDBRANCH   1   2
BRANCH   1   9
ATOM      9  C   UNL     1      -8.785  66.027  29.188  1.00  0.00     0.000 C 
BRANCH   9  10
ATOM     10  C   UNL     1      -8.082  67.234  28.550  1.00  0.00     0.000 C 
BRANCH  10  11
ATOM     11  C   UNL     1      -6.556  67.066  28.591  1.00  0.00    -0.000 C 
BRANCH  11  12
ATOM     12  C   UNL     1      -6.118  65.823  29.383  1.00  0.00    -0.000 C 
BRANCH  12  13
ATOM     13  C   UNL     1      -4.696  65.955  29.950  1.00  0.00    -0.003 C 
ATOM     14  C   UNL     1      -3.747  64.960  29.289  1.00  0.00     0.004 C 
ENDBRANCH  12  13
ENDBRANCH  11  12
ENDBRANCH  10  11
ENDBRANCH   9  10
ENDBRANCH   1   9
TORSDOF 9
ENDMDL
MODEL 2
REMARK VINA RESULT:    -4.204      3.366      5.461
REMARK INTER + INTRA:          -7.616
REMARK INTER:                  -6.133
REMARK INTRA:                  -1.483
REMARK UNBOUND:                -1.201
REMARK SMILES CCCCCCCCCC=CC(=O)[O-]
REMARK SMILES IDX 7 1 8 2 9 3 10 4 11 5 12 6 13 7 14 8 6 9 5 10 4 11 3 12 2 13
REMARK SMILES IDX 1 14
REMARK H PARENT
REMARK Flexibility Score: inf
ROOT
ATOM      1  C   UNL     1      -8.100  65.830  29.401  1.00  0.00     0.000 C 
ENDROOT
BRANCH   1   2
ATOM      2  C   UNL     1      -8.243  65.990  30.929  1.00  0.00     0.004 C 
BRANCH   2   3
ATOM      3  C   UNL     1      -8.222  67.448  31.422  1.00  0.00     0.027 C 
BRANCH   3   4
ATOM      4  C   UNL     1      -9.588  67.950  31.809  1.00  0.00    -0.025 C 
ATOM      5  C   UNL     1     -10.228  69.000  31.270  1.00  0.00     0.020 C 
BRANCH   5   6
ATOM      6  C   UNL     1      -9.758  69.836  30.147  1.00  0.00     0.064 C 
ATOM      7  O   UNL     1      -8.966  70.784  30.385  1.00  0.00    -0.545 OA
ATOM      8  O   UNL     1     -10.189  69.635  28.842  1.00  0.00    -0.545 OA
ENDBRANCH   5   6
ENDBRANCH   3   4
ENDBRANCH   2   3
ENDBRANCH   1   2
BRANCH   1   9
ATOM      9  C   UNL     1      -9.341  66.228  28.583  1.00  0.00     0.000 C 
BRANCH   9  10
ATOM     10  C   UNL     1     -10.630  65.563  29.087  1.00  0.00     0.000 C 
BRANCH  10  11
ATOM     11  C   UNL     1     -11.837  66.496  28.904  1.00  0.00    -0.000 C 
BRANCH  11  12
ATOM     12  C   UNL     1     -12.728  66.564  30.155  1.00  0.00    -0.000 C 
BRANCH  12  13
ATOM     13  C   UNL     1     -12.807  65.223  30.899  1.00  0.00    -0.003 C 
ATOM     14  C   UNL     1     -12.786  65.432  32.410  1.00  0.00     0.004 C 
ENDBRANCH  12  13
ENDBRANCH  11  12
ENDBRANCH  10  11
ENDBRANCH   9  10
ENDBRANCH   1   9
TORSDOF 9
ENDMDL
MODEL 3
REMARK VINA RESULT:    -4.196      2.898      4.529
REMARK INTER + INTRA:          -7.604
REMARK INTER:                  -6.725
REMARK INTRA:                  -0.879
REMARK UNBOUND:                -1.201
REMARK SMILES CCCCCCCCCC=CC(=O)[O-]
REMARK SMILES IDX 7 1 8 2 9 3 10 4 11 5 12 6 13 7 14 8 6 9 5 10 4 11 3 12 2 13
REMARK SMILES IDX 1 14
REMARK H PARENT
REMARK Flexibility Score: inf
ROOT
ATOM      1  C   UNL     1      -5.867  67.527  33.958  1.00  0.00     0.000 C 
ENDROOT
BRANCH   1   2
ATOM      2  C   UNL     1      -6.899  66.382  33.879  1.00  0.00     0.004 C 
BRANCH   2   3
ATOM      3  C   UNL     1      -7.696  66.334  32.563  1.00  0.00     0.027 C 
BRANCH   3   4
ATOM      4  C   UNL     1      -8.336  67.654  32.224  1.00  0.00    -0.025 C 
ATOM      5  C   UNL     1      -9.476  67.827  31.534  1.00  0.00     0.020 C 
BRANCH   5   6
ATOM      6  C   UNL     1     -10.367  66.765  31.026  1.00  0.00     0.064 C 
ATOM      7  O   UNL     1     -10.059  66.170  29.961  1.00  0.00    -0.545 OA
ATOM      8  O   UNL     1     -11.555  66.427  31.662  1.00  0.00    -0.545 OA
ENDBRANCH   5   6
ENDBRANCH   3   4
ENDBRANCH   2   3
ENDBRANCH   1   2
BRANCH   1   9
ATOM      9  C   UNL     1      -4.408  67.112  33.699  1.00  0.00     0.000 C 
BRANCH   9  10
ATOM     10  C   UNL     1      -3.831  67.721  32.413  1.00  0.00     0.000 C 
BRANCH  10  11
ATOM     11  C   UNL     1      -4.499  67.116  31.170  1.00  0.00    -0.000 C 
BRANCH  11  12
ATOM     12  C   UNL     1      -3.482  66.563  30.159  1.00  0.00    -0.000 C 
BRANCH  12  13
ATOM     13  C   UNL     1      -3.991  65.310  29.432  1.00  0.00    -0.003 C 
ATOM     14  C   UNL     1      -5.440  65.010  29.805  1.00  0.00     0.004 C 
ENDBRANCH  12  13
ENDBRANCH  11  12
ENDBRANCH  10  11
ENDBRANCH   9  10
ENDBRANCH   1   9
TORSDOF 9
ENDMDL
MODEL 4
REMARK VINA RESULT:    -4.179      1.884      4.049
REMARK INTER + INTRA:          -7.579
REMARK INTER:                  -6.167
REMARK INTRA:                  -1.411
REMARK UNBOUND:                -1.201
REMARK SMILES CCCCCCCCCC=CC(=O)[O-]
REMARK SMILES IDX 7 1 8 2 9 3 10 4 11 5 12 6 13 7 14 8 6 9 5 10 4 11 3 12 2 13
REMARK SMILES IDX 1 14
REMARK H PARENT
REMARK Flexibility Score: inf
ROOT
ATOM      1  C   UNL     1      -2.958  67.297  30.164  1.00  0.00     0.000 C 
ENDROOT
BRANCH   1   2
ATOM      2  C   UNL     1      -2.262  67.588  31.510  1.00  0.00     0.004 C 
BRANCH   2   3
ATOM      3  C   UNL     1      -3.225  67.823  32.687  1.00  0.00     0.027 C 
BRANCH   3   4
ATOM      4  C   UNL     1      -4.520  68.461  32.260  1.00  0.00    -0.025 C 
ATOM      5  C   UNL     1      -5.735  68.206  32.772  1.00  0.00     0.020 C 
BRANCH   5   6
ATOM      6  C   UNL     1      -6.044  67.302  33.898  1.00  0.00     0.064 C 
ATOM      7  O   UNL     1      -6.093  67.775  35.063  1.00  0.00    -0.545 OA
ATOM      8  O   UNL     1      -6.244  65.939  33.720  1.00  0.00    -0.545 OA
ENDBRANCH   5   6
ENDBRANCH   3   4
ENDBRANCH   2   3
ENDBRANCH   1   2
BRANCH   1   9
ATOM      9  C   UNL     1      -2.704  65.893  29.586  1.00  0.00     0.000 C 
BRANCH   9  10
ATOM     10  C   UNL     1      -3.998  65.152  29.222  1.00  0.00     0.000 C 
BRANCH  10  11
ATOM     11  C   UNL     1      -5.143  65.549  30.164  1.00  0.00    -0.000 C 
BRANCH  11  12
ATOM     12  C   UNL     1      -6.436  65.904  29.411  1.00  0.00    -0.000 C 
BRANCH  12  13
ATOM     13  C   UNL     1      -6.584  67.414  29.171  1.00  0.00    -0.003 C 
ATOM     14  C   UNL     1      -6.090  67.800  27.780  1.00  0.00     0.004 C 
ENDBRANCH  12  13
ENDBRANCH  11  12
ENDBRANCH  10  11
ENDBRANCH   9  10
ENDBRANCH   1   9
TORSDOF 9
ENDMDL
MODEL 5
REMARK VINA RESULT:    -4.174      1.250      3.545
REMARK INTER + INTRA:          -7.570
REMARK INTER:                  -6.019
REMARK INTRA:                  -1.552
REMARK UNBOUND:                -1.201
REMARK SMILES CCCCCCCCCC=CC(=O)[O-]
REMARK SMILES IDX 7 1 8 2 9 3 10 4 11 5 12 6 13 7 14 8 6 9 5 10 4 11 3 12 2 13
REMARK SMILES IDX 1 14
REMARK H PARENT
REMARK Flexibility Score: inf
ROOT
ATOM      1  C   UNL     1      -6.729  67.246  28.870  1.00  0.00     0.000 C 
ENDROOT
BRANCH   1   2
ATOM      2  C   UNL     1      -6.178  65.965  29.530  1.00  0.00     0.004 C 
BRANCH   2   3
ATOM      3  C   UNL     1      -5.729  66.143  30.991  1.00  0.00     0.027 C 
BRANCH   3   4
ATOM      4  C   UNL     1      -5.563  67.590  31.375  1.00  0.00    -0.025 C 
ATOM      5  C   UNL     1      -5.561  68.082  32.624  1.00  0.00     0.020 C 
BRANCH   5   6
ATOM      6  C   UNL     1      -5.656  67.305  33.877  1.00  0.00     0.064 C 
ATOM      7  O   UNL     1      -6.788  67.118  34.393  1.00  0.00    -0.545 OA
ATOM      8  O   UNL     1      -4.533  66.807  34.526  1.00  0.00    -0.545 OA
ENDBRANCH   5   6
ENDBRANCH   3   4
ENDBRANCH   2   3
ENDBRANCH   1   2
BRANCH   1   9
ATOM      9  C   UNL     1      -8.209  67.183  28.454  1.00  0.00     0.000 C 
BRANCH   9  10
ATOM     10  C   UNL     1      -8.949  65.977  29.049  1.00  0.00     0.000 C 
BRANCH  10  11
ATOM     11  C   UNL     1      -9.972  66.425  30.103  1.00  0.00    -0.000 C 
BRANCH  11  12
ATOM     12  C   UNL     1      -9.356  66.567  31.504  1.00  0.00    -0.000 C 
BRANCH  12  13
ATOM     13  C   UNL     1      -9.226  68.032  31.947  1.00  0.00    -0.003 C 
ATOM     14  C   UNL     1     -10.187  68.928  31.171  1.00  0.00     0.004 C 
ENDBRANCH  12  13
ENDBRANCH  11  12
ENDBRANCH  10  11
ENDBRANCH   9  10
ENDBRANCH   1   9
TORSDOF 9
ENDMDL
MODEL 6
REMARK VINA RESULT:    -4.153      1.974      2.692
REMARK INTER + INTRA:          -7.539
REMARK INTER:                  -5.958
REMARK INTRA:                  -1.581
REMARK UNBOUND:                -1.201
REMARK SMILES CCCCCCCCCC=CC(=O)[O-]
REMARK SMILES IDX 7 1 8 2 9 3 10 4 11 5 12 6 13 7 14 8 6 9 5 10 4 11 3 12 2 13
REMARK SMILES IDX 1 14
REMARK H PARENT
REMARK Flexibility Score: inf
ROOT
ATOM      1  C   UNL     1      -6.261  68.407  29.236  1.00  0.00     0.000 C 
ENDROOT
BRANCH   1   2
ATOM      2  C   UNL     1      -6.582  68.308  30.742  1.00  0.00     0.004 C 
BRANCH   2   3
ATOM      3  C   UNL     1      -5.525  68.944  31.662  1.00  0.00     0.027 C 
BRANCH   3   4
ATOM      4  C   UNL     1      -4.634  67.921  32.317  1.00  0.00    -0.025 C 
ATOM      5  C   UNL     1      -4.872  67.294  33.480  1.00  0.00     0.020 C 
BRANCH   5   6
ATOM      6  C   UNL     1      -6.079  67.425  34.321  1.00  0.00     0.064 C 
ATOM      7  O   UNL     1      -6.011  68.093  35.385  1.00  0.00    -0.545 OA
ATOM      8  O   UNL     1      -7.279  66.804  33.997  1.00  0.00    -0.545 OA
ENDBRANCH   5   6
ENDBRANCH   3   4
ENDBRANCH   2   3
ENDBRANCH   1   2
BRANCH   1   9
ATOM      9  C   UNL     1      -5.983  67.066  28.536  1.00  0.00     0.000 C 
BRANCH   9  10
ATOM     10  C   UNL     1      -6.188  65.854  29.457  1.00  0.00     0.000 C 
BRANCH  10  11
ATOM     11  C   UNL     1      -4.854  65.149  29.743  1.00  0.00    -0.000 C 
BRANCH  11  12
ATOM     12  C   UNL     1      -3.702  65.686  28.878  1.00  0.00    -0.000 C 
BRANCH  12  13
ATOM     13  C   UNL     1      -2.548  66.255  29.717  1.00  0.00    -0.003 C 
ATOM     14  C   UNL     1      -2.306  67.726  29.390  1.00  0.00     0.004 C 
ENDBRANCH  12  13
ENDBRANCH  11  12
ENDBRANCH  10  11
ENDBRANCH   9  10
ENDBRANCH   1   9
TORSDOF 9
ENDMDL
MODEL 7
REMARK VINA RESULT:    -4.145      2.243      4.289
REMARK INTER + INTRA:          -7.526
REMARK INTER:                  -5.844
REMARK INTRA:                  -1.682
REMARK UNBOUND:                -1.201
REMARK SMILES CCCCCCCCCC=CC(=O)[O-]
REMARK SMILES IDX 7 1 8 2 9 3 10 4 11 5 12 6 13 7 14 8 6 9 5 10 4 11 3 12 2 13
REMARK SMILES IDX 1 14
REMARK H PARENT
REMARK Flexibility Score: inf
ROOT
ATOM      1  C   UNL     1      -7.775  66.762  29.320  1.00  0.00     0.000 C 
ENDROOT
BRANCH   1   2
ATOM      2  C   UNL     1      -6.858  67.578  28.385  1.00  0.00     0.004 C 
BRANCH   2   3
ATOM      3  C   UNL     1      -5.422  67.037  28.271  1.00  0.00     0.027 C 
BRANCH   3   4
ATOM      4  C   UNL     1      -5.194  65.811  29.114  1.00  0.00    -0.025 C 
ATOM      5  C   UNL     1      -4.005  65.350  29.536  1.00  0.00     0.020 C 
BRANCH   5   6
ATOM      6  C   UNL     1      -2.689  65.982  29.318  1.00  0.00     0.064 C 
ATOM      7  O   UNL     1      -2.207  66.712  30.222  1.00  0.00    -0.545 OA
ATOM      8  O   UNL     1      -1.980  65.829  28.133  1.00  0.00    -0.545 OA
ENDBRANCH   5   6
ENDBRANCH   3   4
ENDBRANCH   2   3
ENDBRANCH   1   2
BRANCH   1   9
ATOM      9  C   UNL     1      -8.354  67.541  30.514  1.00  0.00     0.000 C 
BRANCH   9  10
ATOM     10  C   UNL     1      -8.473  66.689  31.786  1.00  0.00     0.000 C 
BRANCH  10  11
ATOM     11  C   UNL     1      -7.106  66.124  32.199  1.00  0.00    -0.000 C 
BRANCH  11  12
ATOM     12  C   UNL     1      -6.298  67.102  33.069  1.00  0.00    -0.000 C 
BRANCH  12  13
ATOM     13  C   UNL     1      -4.909  67.402  32.486  1.00  0.00    -0.003 C 
ATOM     14  C   UNL     1      -4.934  68.666  31.632  1.00  0.00     0.004 C 
ENDBRANCH  12  13
ENDBRANCH  11  12
ENDBRANCH  10  11
ENDBRANCH   9  10
ENDBRANCH   1   9
TORSDOF 9
ENDMDL
MODEL 8
REMARK VINA RESULT:    -4.089      2.820      5.250
REMARK INTER + INTRA:          -7.441
REMARK INTER:                  -6.070
REMARK INTRA:                  -1.371
REMARK UNBOUND:                -1.201
REMARK SMILES CCCCCCCCCC=CC(=O)[O-]
REMARK SMILES IDX 7 1 8 2 9 3 10 4 11 5 12 6 13 7 14 8 6 9 5 10 4 11 3 12 2 13
REMARK SMILES IDX 1 14
REMARK H PARENT
REMARK Flexibility Score: inf
ROOT
ATOM      1  C   UNL     1      -3.512  66.062  28.961  1.00  0.00     0.000 C 
ENDROOT
BRANCH   1   2
ATOM      2  C   UNL     1      -4.362  64.848  29.390  1.00  0.00     0.004 C 
BRANCH   2   3
ATOM      3  C   UNL     1      -5.816  65.188  29.765  1.00  0.00     0.027 C 
BRANCH   3   4
ATOM      4  C   UNL     1      -6.277  66.495  29.176  1.00  0.00    -0.025 C 
ATOM      5  C   UNL     1      -7.549  66.911  29.071  1.00  0.00     0.020 C 
BRANCH   5   6
ATOM      6  C   UNL     1      -8.749  66.208  29.568  1.00  0.00     0.064 C 
ATOM      7  O   UNL     1      -9.453  65.556  28.755  1.00  0.00    -0.545 OA
ATOM      8  O   UNL     1      -9.149  66.273  30.897  1.00  0.00    -0.545 OA
ENDBRANCH   5   6
ENDBRANCH   3   4
ENDBRANCH   2   3
ENDBRANCH   1   2
BRANCH   1   9
ATOM      9  C   UNL     1      -2.693  66.718  30.087  1.00  0.00     0.000 C 
BRANCH   9  10
ATOM     10  C   UNL     1      -3.254  68.080  30.522  1.00  0.00     0.000 C 
BRANCH  10  11
ATOM     11  C   UNL     1      -3.040  68.307  32.025  1.00  0.00    -0.000 C 
BRANCH  11  12
ATOM     12  C   UNL     1      -4.003  67.479  32.893  1.00  0.00    -0.000 C 
BRANCH  12  13
ATOM     13  C   UNL     1      -5.473  67.873  32.685  1.00  0.00    -0.003 C 
ATOM     14  C   UNL     1      -6.406  66.719  33.043  1.00  0.00     0.004 C 
ENDBRANCH  12  13
ENDBRANCH  11  12
ENDBRANCH  10  11
ENDBRANCH   9  10
ENDBRANCH   1   9
TORSDOF 9
ENDMDL
MODEL 9
REMARK VINA RESULT:    -4.068      3.360      4.504
REMARK INTER + INTRA:          -7.409
REMARK INTER:                  -5.694
REMARK INTRA:                  -1.715
REMARK UNBOUND:                -1.201
REMARK SMILES CCCCCCCCCC=CC(=O)[O-]
REMARK SMILES IDX 7 1 8 2 9 3 10 4 11 5 12 6 13 7 14 8 6 9 5 10 4 11 3 12 2 13
REMARK SMILES IDX 1 14
REMARK H PARENT
REMARK Flexibility Score: inf
ROOT
ATOM      1  C   UNL     1      -7.969  69.078  28.965  1.00  0.00     0.000 C 
ENDROOT
BRANCH   1   2
ATOM      2  C   UNL     1      -8.264  69.181  30.476  1.00  0.00     0.004 C 
BRANCH   2   3
ATOM      3  C   UNL     1      -9.727  68.894  30.860  1.00  0.00     0.027 C 
BRANCH   3   4
ATOM      4  C   UNL     1      -9.882  67.620  31.646  1.00  0.00    -0.025 C 
ATOM      5  C   UNL     1     -10.647  66.569  31.308  1.00  0.00     0.020 C 
BRANCH   5   6
ATOM      6  C   UNL     1     -11.439  66.419  30.071  1.00  0.00     0.064 C 
ATOM      7  O   UNL     1     -10.976  65.718  29.133  1.00  0.00    -0.545 OA
ATOM      8  O   UNL     1     -12.660  67.055  29.890  1.00  0.00    -0.545 OA
ENDBRANCH   5   6
ENDBRANCH   3   4
ENDBRANCH   2   3
ENDBRANCH   1   2
BRANCH   1   9
ATOM      9  C   UNL     1      -7.999  67.651  28.388  1.00  0.00     0.000 C 
BRANCH   9  10
ATOM     10  C   UNL     1      -6.904  66.745  28.970  1.00  0.00     0.000 C 
BRANCH  10  11
ATOM     11  C   UNL     1      -7.514  65.496  29.622  1.00  0.00    -0.000 C 
BRANCH  11  12
ATOM     12  C   UNL     1      -6.831  65.126  30.949  1.00  0.00    -0.000 C 
BRANCH  12  13
ATOM     13  C   UNL     1      -6.255  66.349  31.679  1.00  0.00    -0.003 C 
ATOM     14  C   UNL     1      -6.736  66.400  33.126  1.00  0.00     0.004 C 
ENDBRANCH  12  13
ENDBRANCH  11  12
ENDBRANCH  10  11
ENDBRANCH   9  10
ENDBRANCH   1   9
TORSDOF 9
ENDMDL
