MODEL 1
REMARK VINA RESULT:    -5.517      0.000      0.000
REMARK INTER + INTRA:         -13.468
REMARK INTER:                 -11.967
REMARK INTRA:                  -1.501
REMARK UNBOUND:                -1.501
REMARK SMILES CCCCCCCCCCCCCCCCCCCCCC(=O)[O-]
REMARK SMILES IDX 12 1 11 2 10 3 9 4 8 5 7 6 6 7 5 8 4 9 3 10 2 11 1 12 13 13
REMARK SMILES IDX 14 14 15 15 16 16 17 17 18 18 19 19 20 20 21 21 22 22 23 23
REMARK SMILES IDX 24 24
REMARK H PARENT
REMARK Flexibility Score: inf
ROOT
ATOM      1  C   UNL     1      10.551  52.169  21.894  1.00  0.00     0.000 C 
ENDROOT
BRANCH   1   2
ATOM      2  C   UNL     1      10.874  53.641  22.218  1.00  0.00     0.000 C 
BRANCH   2   3
ATOM      3  C   UNL     1      10.749  54.022  23.705  1.00  0.00     0.000 C 
BRANCH   3   4
ATOM      4  C   UNL     1       9.397  54.645  24.112  1.00  0.00    -0.000 C 
BRANCH   4   5
ATOM      5  C   UNL     1       8.155  53.811  23.749  1.00  0.00    -0.000 C 
BRANCH   5   6
ATOM      6  C   UNL     1       7.047  54.647  23.086  1.00  0.00    -0.000 C 
BRANCH   6   7
ATOM      7  C   UNL     1       7.157  54.661  21.553  1.00  0.00    -0.000 C 
BRANCH   7   8
ATOM      8  C   UNL     1       7.933  55.878  21.025  1.00  0.00    -0.000 C 
BRANCH   8   9
ATOM      9  C   UNL     1       7.905  55.925  19.493  1.00  0.00    -0.000 C 
BRANCH   9  10
ATOM     10  C   UNL     1       7.958  54.509  18.897  1.00  0.00    -0.000 C 
BRANCH  10  11
ATOM     11  C   UNL     1       7.027  54.341  17.687  1.00  0.00    -0.003 C 
ATOM     12  C   UNL     1       7.086  55.526  16.724  1.00  0.00     0.004 C 
ENDBRANCH  10  11
ENDBRANCH   9  10
ENDBRANCH   8   9
ENDBRANCH   7   8
ENDBRANCH   6   7
ENDBRANCH   5   6
ENDBRANCH   4   5
ENDBRANCH   3   4
ENDBRANCH   2   3
ENDBRANCH   1   2
BRANCH   1  13
ATOM     13  C   UNL     1      10.626  51.230  23.116  1.00  0.00     0.000 C 
BRANCH  13  14
ATOM     14  C   UNL     1      11.055  49.802  22.735  1.00  0.00     0.000 C 
BRANCH  14  15
ATOM     15  C   UNL     1      10.905  48.805  23.898  1.00  0.00     0.000 C 
BRANCH  15  16
ATOM     16  C   UNL     1      11.064  47.319  23.516  1.00  0.00     0.000 C 
BRANCH  16  17
ATOM     17  C   UNL     1      11.253  46.337  24.692  1.00  0.00     0.000 C 
BRANCH  17  18
ATOM     18  C   UNL     1      12.347  46.728  25.710  1.00  0.00     0.000 C 
BRANCH  18  19
ATOM     19  C   UNL     1      12.334  45.901  27.009  1.00  0.00     0.000 C 
BRANCH  19  20
ATOM     20  C   UNL     1      13.213  46.484  28.134  1.00  0.00     0.006 C 
BRANCH  20  21
ATOM     21  C   UNL     1      14.026  47.697  27.659  1.00  0.00     0.053 C 
BRANCH  21  22
ATOM     22  C   UNL     1      13.599  48.933  28.386  1.00  0.00     0.041 C 
ATOM     23  O   UNL     1      12.588  48.911  29.135  1.00  0.00    -0.550 OA
ATOM     24  O   UNL     1      14.292  50.123  28.201  1.00  0.00    -0.550 OA
ENDBRANCH  21  22
ENDBRANCH  20  21
ENDBRANCH  19  20
ENDBRANCH  18  19
ENDBRANCH  17  18
ENDBRANCH  16  17
ENDBRANCH  15  16
ENDBRANCH  14  15
ENDBRANCH  13  14
ENDBRANCH   1  13
TORSDOF 20
ENDMDL
MODEL 2
REMARK VINA RESULT:    -5.454      4.014     10.348
REMARK INTER + INTRA:         -13.330
REMARK INTER:                 -11.236
REMARK INTRA:                  -2.094
REMARK UNBOUND:                -1.501
REMARK SMILES CCCCCCCCCCCCCCCCCCCCCC(=O)[O-]
REMARK SMILES IDX 12 1 11 2 10 3 9 4 8 5 7 6 6 7 5 8 4 9 3 10 2 11 1 12 13 13
REMARK SMILES IDX 14 14 15 15 16 16 17 17 18 18 19 19 20 20 21 21 22 22 23 23
REMARK SMILES IDX 24 24
REMARK H PARENT
REMARK Flexibility Score: inf
ROOT
ATOM      1  C   UNL     1      10.613  51.541  22.822  1.00  0.00     0.000 C 
ENDROOT
BRANCH   1   2
ATOM      2  C   UNL     1      10.651  50.051  22.434  1.00  0.00     0.000 C 
BRANCH   2   3
ATOM      3  C   UNL     1      11.375  49.135  23.440  1.00  0.00     0.000 C 
BRANCH   3   4
ATOM      4  C   UNL     1      10.450  48.335  24.382  1.00  0.00    -0.000 C 
BRANCH   4   5
ATOM      5  C   UNL     1       9.909  47.015  23.804  1.00  0.00    -0.000 C 
BRANCH   5   6
ATOM      6  C   UNL     1      10.824  45.814  24.100  1.00  0.00    -0.000 C 
BRANCH   6   7
ATOM      7  C   UNL     1      10.574  45.211  25.492  1.00  0.00    -0.000 C 
BRANCH   7   8
ATOM      8  C   UNL     1      11.833  45.212  26.373  1.00  0.00    -0.000 C 
BRANCH   8   9
ATOM      9  C   UNL     1      12.941  46.067  25.746  1.00  0.00    -0.000 C 
BRANCH   9  10
ATOM     10  C   UNL     1      13.496  47.080  26.760  1.00  0.00    -0.000 C 
BRANCH  10  11
ATOM     11  C   UNL     1      12.561  47.288  27.961  1.00  0.00    -0.003 C 
ATOM     12  C   UNL     1      12.857  48.577  28.726  1.00  0.00     0.004 C 
ENDBRANCH  10  11
ENDBRANCH   9  10
ENDBRANCH   8   9
ENDBRANCH   7   8
ENDBRANCH   6   7
ENDBRANCH   5   6
ENDBRANCH   4   5
ENDBRANCH   3   4
ENDBRANCH   2   3
ENDBRANCH   1   2
BRANCH   1  13
ATOM     13  C   UNL     1      10.559  52.500  21.613  1.00  0.00     0.000 C 
BRANCH  13  14
ATOM     14  C   UNL     1      10.806  53.965  22.012  1.00  0.00     0.000 C 
BRANCH  14  15
ATOM     15  C   UNL     1      10.484  54.241  23.491  1.00  0.00     0.000 C 
BRANCH  15  16
ATOM     16  C   UNL     1       9.112  54.896  23.755  1.00  0.00     0.000 C 
BRANCH  16  17
ATOM     17  C   UNL     1       7.884  54.133  23.211  1.00  0.00     0.000 C 
BRANCH  17  18
ATOM     18  C   UNL     1       7.215  54.758  21.968  1.00  0.00     0.000 C 
BRANCH  18  19
ATOM     19  C   UNL     1       7.705  56.176  21.623  1.00  0.00     0.000 C 
BRANCH  19  20
ATOM     20  C   UNL     1       8.075  56.370  20.138  1.00  0.00     0.006 C 
BRANCH  20  21
ATOM     21  C   UNL     1       8.344  55.033  19.433  1.00  0.00     0.053 C 
BRANCH  21  22
ATOM     22  C   UNL     1       7.484  54.898  18.217  1.00  0.00     0.041 C 
ATOM     23  O   UNL     1       7.270  55.894  17.478  1.00  0.00    -0.550 OA
ATOM     24  O   UNL     1       6.880  53.681  17.922  1.00  0.00    -0.550 OA
ENDBRANCH  21  22
ENDBRANCH  20  21
ENDBRANCH  19  20
ENDBRANCH  18  19
ENDBRANCH  17  18
ENDBRANCH  16  17
ENDBRANCH  15  16
ENDBRANCH  14  15
ENDBRANCH  13  14
ENDBRANCH   1  13
TORSDOF 20
ENDMDL
MODEL 3
REMARK VINA RESULT:    -5.401      8.413     14.091
REMARK INTER + INTRA:         -13.216
REMARK INTER:                 -11.271
REMARK INTRA:                  -1.945
REMARK UNBOUND:                -1.501
REMARK SMILES CCCCCCCCCCCCCCCCCCCCCC(=O)[O-]
REMARK SMILES IDX 12 1 11 2 10 3 9 4 8 5 7 6 6 7 5 8 4 9 3 10 2 11 1 12 13 13
REMARK SMILES IDX 14 14 15 15 16 16 17 17 18 18 19 19 20 20 21 21 22 22 23 23
REMARK SMILES IDX 24 24
REMARK H PARENT
REMARK Flexibility Score: inf
ROOT
ATOM      1  C   UNL     1       2.523  58.988  20.874  1.00  0.00     0.000 C 
ENDROOT
BRANCH   1   2
ATOM      2  C   UNL     1       3.889  58.422  20.442  1.00  0.00     0.000 C 
BRANCH   2   3
ATOM      3  C   UNL     1       4.723  57.797  21.578  1.00  0.00     0.000 C 
BRANCH   3   4
ATOM      4  C   UNL     1       5.467  56.497  21.206  1.00  0.00    -0.000 C 
BRANCH   4   5
ATOM      5  C   UNL     1       7.002  56.607  21.170  1.00  0.00    -0.000 C 
BRANCH   5   6
ATOM      6  C   UNL     1       7.586  56.349  19.770  1.00  0.00    -0.000 C 
BRANCH   6   7
ATOM      7  C   UNL     1       8.306  54.994  19.673  1.00  0.00    -0.000 C 
BRANCH   7   8
ATOM      8  C   UNL     1       8.508  54.329  21.044  1.00  0.00    -0.000 C 
BRANCH   8   9
ATOM      9  C   UNL     1       9.858  53.605  21.109  1.00  0.00    -0.000 C 
BRANCH   9  10
ATOM     10  C   UNL     1      10.267  53.333  22.566  1.00  0.00    -0.000 C 
BRANCH  10  11
ATOM     11  C   UNL     1       9.448  54.154  23.573  1.00  0.00    -0.003 C 
ATOM     12  C   UNL     1      10.076  55.513  23.880  1.00  0.00     0.004 C 
ENDBRANCH  10  11
ENDBRANCH   9  10
ENDBRANCH   8   9
ENDBRANCH   7   8
ENDBRANCH   6   7
ENDBRANCH   5   6
ENDBRANCH   4   5
ENDBRANCH   3   4
ENDBRANCH   2   3
ENDBRANCH   1   2
BRANCH   1  13
ATOM     13  C   UNL     1       2.594  59.928  22.096  1.00  0.00     0.000 C 
BRANCH  13  14
ATOM     14  C   UNL     1       1.289  59.932  22.912  1.00  0.00     0.000 C 
BRANCH  14  15
ATOM     15  C   UNL     1       0.083  59.418  22.107  1.00  0.00     0.000 C 
BRANCH  15  16
ATOM     16  C   UNL     1      -0.873  60.509  21.581  1.00  0.00     0.000 C 
BRANCH  16  17
ATOM     17  C   UNL     1      -0.814  60.783  20.063  1.00  0.00     0.000 C 
BRANCH  17  18
ATOM     18  C   UNL     1      -0.024  62.044  19.649  1.00  0.00     0.000 C 
BRANCH  18  19
ATOM     19  C   UNL     1       1.199  61.767  18.756  1.00  0.00     0.000 C 
BRANCH  19  20
ATOM     20  C   UNL     1       1.094  60.468  17.932  1.00  0.00     0.006 C 
BRANCH  20  21
ATOM     21  C   UNL     1       2.317  60.260  17.029  1.00  0.00     0.053 C 
BRANCH  21  22
ATOM     22  C   UNL     1       2.048  60.777  15.651  1.00  0.00     0.041 C 
ATOM     23  O   UNL     1       0.866  60.987  15.273  1.00  0.00    -0.550 OA
ATOM     24  O   UNL     1       3.100  60.984  14.767  1.00  0.00    -0.550 OA
ENDBRANCH  21  22
ENDBRANCH  20  21
ENDBRANCH  19  20
ENDBRANCH  18  19
ENDBRANCH  17  18
ENDBRANCH  16  17
ENDBRANCH  15  16
ENDBRANCH  14  15
ENDBRANCH  13  14
ENDBRANCH   1  13
TORSDOF 20
ENDMDL
MODEL 4
REMARK VINA RESULT:    -5.350      8.247     13.881
REMARK INTER + INTRA:         -13.107
REMARK INTER:                 -10.993
REMARK INTRA:                  -2.114
REMARK UNBOUND:                -1.501
REMARK SMILES CCCCCCCCCCCCCCCCCCCCCC(=O)[O-]
REMARK SMILES IDX 12 1 11 2 10 3 9 4 8 5 7 6 6 7 5 8 4 9 3 10 2 11 1 12 13 13
REMARK SMILES IDX 14 14 15 15 16 16 17 17 18 18 19 19 20 20 21 21 22 22 23 23
REMARK SMILES IDX 24 24
REMARK H PARENT
REMARK Flexibility Score: inf
ROOT
ATOM      1  C   UNL     1       3.731  58.136  20.885  1.00  0.00     0.000 C 
ENDROOT
BRANCH   1   2
ATOM      2  C   UNL     1       5.182  57.715  21.186  1.00  0.00     0.000 C 
BRANCH   2   3
ATOM      3  C   UNL     1       5.374  56.220  21.507  1.00  0.00     0.000 C 
BRANCH   3   4
ATOM      4  C   UNL     1       6.838  55.776  21.712  1.00  0.00    -0.000 C 
BRANCH   4   5
ATOM      5  C   UNL     1       7.848  56.363  20.709  1.00  0.00    -0.000 C 
BRANCH   5   6
ATOM      6  C   UNL     1       8.846  55.316  20.186  1.00  0.00    -0.000 C 
BRANCH   6   7
ATOM      7  C   UNL     1       8.903  54.061  21.071  1.00  0.00    -0.000 C 
BRANCH   7   8
ATOM      8  C   UNL     1      10.339  53.667  21.450  1.00  0.00    -0.000 C 
BRANCH   8   9
ATOM      9  C   UNL     1      10.474  53.471  22.965  1.00  0.00    -0.000 C 
BRANCH   9  10
ATOM     10  C   UNL     1      10.362  54.813  23.705  1.00  0.00    -0.000 C 
BRANCH  10  11
ATOM     11  C   UNL     1       9.225  54.827  24.738  1.00  0.00    -0.003 C 
ATOM     12  C   UNL     1       8.209  53.706  24.516  1.00  0.00     0.004 C 
ENDBRANCH  10  11
ENDBRANCH   9  10
ENDBRANCH   8   9
ENDBRANCH   7   8
ENDBRANCH   6   7
ENDBRANCH   5   6
ENDBRANCH   4   5
ENDBRANCH   3   4
ENDBRANCH   2   3
ENDBRANCH   1   2
BRANCH   1  13
ATOM     13  C   UNL     1       3.524  59.664  20.818  1.00  0.00     0.000 C 
BRANCH  13  14
ATOM     14  C   UNL     1       2.795  60.214  22.056  1.00  0.00     0.000 C 
BRANCH  14  15
ATOM     15  C   UNL     1       1.370  59.655  22.205  1.00  0.00     0.000 C 
BRANCH  15  16
ATOM     16  C   UNL     1       0.275  60.706  22.489  1.00  0.00     0.000 C 
BRANCH  16  17
ATOM     17  C   UNL     1      -0.987  60.620  21.605  1.00  0.00     0.000 C 
BRANCH  17  18
ATOM     18  C   UNL     1      -0.731  60.638  20.082  1.00  0.00     0.000 C 
BRANCH  18  19
ATOM     19  C   UNL     1      -0.125  61.949  19.552  1.00  0.00     0.000 C 
BRANCH  19  20
ATOM     20  C   UNL     1       1.264  61.783  18.902  1.00  0.00     0.006 C 
BRANCH  20  21
ATOM     21  C   UNL     1       1.351  60.508  18.051  1.00  0.00     0.053 C 
BRANCH  21  22
ATOM     22  C   UNL     1       1.517  60.852  16.604  1.00  0.00     0.041 C 
ATOM     23  O   UNL     1       2.346  60.225  15.895  1.00  0.00    -0.550 OA
ATOM     24  O   UNL     1       0.788  61.897  16.049  1.00  0.00    -0.550 OA
ENDBRANCH  21  22
ENDBRANCH  20  21
ENDBRANCH  19  20
ENDBRANCH  18  19
ENDBRANCH  17  18
ENDBRANCH  16  17
ENDBRANCH  15  16
ENDBRANCH  14  15
ENDBRANCH  13  14
ENDBRANCH   1  13
TORSDOF 20
ENDMDL
MODEL 5
REMARK VINA RESULT:    -5.347      6.463      9.716
REMARK INTER + INTRA:         -13.099
REMARK INTER:                 -11.439
REMARK INTRA:                  -1.661
REMARK UNBOUND:                -1.501
REMARK SMILES CCCCCCCCCCCCCCCCCCCCCC(=O)[O-]
REMARK SMILES IDX 12 1 11 2 10 3 9 4 8 5 7 6 6 7 5 8 4 9 3 10 2 11 1 12 13 13
REMARK SMILES IDX 14 14 15 15 16 16 17 17 18 18 19 19 20 20 21 21 22 22 23 23
REMARK SMILES IDX 24 24
REMARK H PARENT
REMARK Flexibility Score: inf
ROOT
ATOM      1  C   UNL     1       3.611  59.430  20.407  1.00  0.00     0.000 C 
ENDROOT
BRANCH   1   2
ATOM      2  C   UNL     1       2.911  60.523  21.238  1.00  0.00     0.000 C 
BRANCH   2   3
ATOM      3  C   UNL     1       2.258  60.031  22.544  1.00  0.00     0.000 C 
BRANCH   3   4
ATOM      4  C   UNL     1       0.801  60.491  22.763  1.00  0.00    -0.000 C 
BRANCH   4   5
ATOM      5  C   UNL     1      -0.164  60.186  21.603  1.00  0.00    -0.000 C 
BRANCH   5   6
ATOM      6  C   UNL     1      -0.661  61.457  20.891  1.00  0.00    -0.000 C 
BRANCH   6   7
ATOM      7  C   UNL     1      -1.238  61.164  19.497  1.00  0.00    -0.000 C 
BRANCH   7   8
ATOM      8  C   UNL     1      -0.623  62.050  18.403  1.00  0.00    -0.000 C 
BRANCH   8   9
ATOM      9  C   UNL     1       0.900  61.883  18.353  1.00  0.00    -0.000 C 
BRANCH   9  10
ATOM     10  C   UNL     1       1.284  60.443  17.980  1.00  0.00    -0.000 C 
BRANCH  10  11
ATOM     11  C   UNL     1       1.931  60.343  16.590  1.00  0.00    -0.003 C 
ATOM     12  C   UNL     1       1.195  59.377  15.662  1.00  0.00     0.004 C 
ENDBRANCH  10  11
ENDBRANCH   9  10
ENDBRANCH   8   9
ENDBRANCH   7   8
ENDBRANCH   6   7
ENDBRANCH   5   6
ENDBRANCH   4   5
ENDBRANCH   3   4
ENDBRANCH   2   3
ENDBRANCH   1   2
BRANCH   1  13
ATOM     13  C   UNL     1       4.001  58.179  21.223  1.00  0.00     0.000 C 
BRANCH  13  14
ATOM     14  C   UNL     1       5.197  57.428  20.612  1.00  0.00     0.000 C 
BRANCH  14  15
ATOM     15  C   UNL     1       5.885  56.488  21.617  1.00  0.00     0.000 C 
BRANCH  15  16
ATOM     16  C   UNL     1       7.428  56.506  21.586  1.00  0.00     0.000 C 
BRANCH  16  17
ATOM     17  C   UNL     1       8.080  56.114  20.243  1.00  0.00     0.000 C 
BRANCH  17  18
ATOM     18  C   UNL     1       8.272  54.598  20.017  1.00  0.00     0.000 C 
BRANCH  18  19
ATOM     19  C   UNL     1       8.779  53.829  21.250  1.00  0.00     0.000 C 
BRANCH  19  20
ATOM     20  C   UNL     1      10.241  54.141  21.628  1.00  0.00     0.006 C 
BRANCH  20  21
ATOM     21  C   UNL     1      10.596  53.622  23.029  1.00  0.00     0.053 C 
BRANCH  21  22
ATOM     22  C   UNL     1      10.682  54.754  24.003  1.00  0.00     0.041 C 
ATOM     23  O   UNL     1      11.332  54.621  25.073  1.00  0.00    -0.550 OA
ATOM     24  O   UNL     1      10.006  55.942  23.752  1.00  0.00    -0.550 OA
ENDBRANCH  21  22
ENDBRANCH  20  21
ENDBRANCH  19  20
ENDBRANCH  18  19
ENDBRANCH  17  18
ENDBRANCH  16  17
ENDBRANCH  15  16
ENDBRANCH  14  15
ENDBRANCH  13  14
ENDBRANCH   1  13
TORSDOF 20
ENDMDL
MODEL 6
REMARK VINA RESULT:    -5.219      6.881     10.732
REMARK INTER + INTRA:         -12.822
REMARK INTER:                 -10.860
REMARK INTRA:                  -1.962
REMARK UNBOUND:                -1.501
REMARK SMILES CCCCCCCCCCCCCCCCCCCCCC(=O)[O-]
REMARK SMILES IDX 12 1 11 2 10 3 9 4 8 5 7 6 6 7 5 8 4 9 3 10 2 11 1 12 13 13
REMARK SMILES IDX 14 14 15 15 16 16 17 17 18 18 19 19 20 20 21 21 22 22 23 23
REMARK SMILES IDX 24 24
REMARK H PARENT
REMARK Flexibility Score: inf
ROOT
ATOM      1  C   UNL     1       1.615  59.587  22.954  1.00  0.00     0.000 C 
ENDROOT
BRANCH   1   2
ATOM      2  C   UNL     1       0.580  60.721  22.825  1.00  0.00     0.000 C 
BRANCH   2   3
ATOM      3  C   UNL     1      -0.688  60.358  22.028  1.00  0.00     0.000 C 
BRANCH   3   4
ATOM      4  C   UNL     1      -1.234  61.479  21.117  1.00  0.00    -0.000 C 
BRANCH   4   5
ATOM      5  C   UNL     1      -1.811  61.007  19.771  1.00  0.00    -0.000 C 
BRANCH   5   6
ATOM      6  C   UNL     1      -0.825  61.187  18.603  1.00  0.00    -0.000 C 
BRANCH   6   7
ATOM      7  C   UNL     1       0.302  62.180  18.931  1.00  0.00    -0.000 C 
BRANCH   7   8
ATOM      8  C   UNL     1       1.673  61.498  19.063  1.00  0.00    -0.000 C 
BRANCH   8   9
ATOM      9  C   UNL     1       1.712  60.186  18.271  1.00  0.00    -0.000 C 
BRANCH   9  10
ATOM     10  C   UNL     1       2.574  60.332  17.007  1.00  0.00    -0.000 C 
BRANCH  10  11
ATOM     11  C   UNL     1       1.787  60.048  15.718  1.00  0.00    -0.003 C 
ATOM     12  C   UNL     1       0.545  59.190  15.959  1.00  0.00     0.004 C 
ENDBRANCH  10  11
ENDBRANCH   9  10
ENDBRANCH   8   9
ENDBRANCH   7   8
ENDBRANCH   6   7
ENDBRANCH   5   6
ENDBRANCH   4   5
ENDBRANCH   3   4
ENDBRANCH   2   3
ENDBRANCH   1   2
BRANCH   1  13
ATOM     13  C   UNL     1       2.832  59.742  22.017  1.00  0.00     0.000 C 
BRANCH  13  14
ATOM     14  C   UNL     1       3.139  58.453  21.235  1.00  0.00     0.000 C 
BRANCH  14  15
ATOM     15  C   UNL     1       4.631  58.310  20.887  1.00  0.00     0.000 C 
BRANCH  15  16
ATOM     16  C   UNL     1       5.241  56.919  21.160  1.00  0.00     0.000 C 
BRANCH  16  17
ATOM     17  C   UNL     1       6.771  56.808  20.986  1.00  0.00     0.000 C 
BRANCH  17  18
ATOM     18  C   UNL     1       7.241  56.125  19.684  1.00  0.00     0.000 C 
BRANCH  18  19
ATOM     19  C   UNL     1       7.738  54.679  19.865  1.00  0.00     0.000 C 
BRANCH  19  20
ATOM     20  C   UNL     1       8.171  54.339  21.306  1.00  0.00     0.006 C 
BRANCH  20  21
ATOM     21  C   UNL     1       9.694  54.414  21.481  1.00  0.00     0.053 C 
BRANCH  21  22
ATOM     22  C   UNL     1      10.103  53.814  22.789  1.00  0.00     0.041 C 
ATOM     23  O   UNL     1      10.546  54.548  23.711  1.00  0.00    -0.550 OA
ATOM     24  O   UNL     1      10.039  52.439  22.975  1.00  0.00    -0.550 OA
ENDBRANCH  21  22
ENDBRANCH  20  21
ENDBRANCH  19  20
ENDBRANCH  18  19
ENDBRANCH  17  18
ENDBRANCH  16  17
ENDBRANCH  15  16
ENDBRANCH  14  15
ENDBRANCH  13  14
ENDBRANCH   1  13
TORSDOF 20
ENDMDL
MODEL 7
REMARK VINA RESULT:    -5.201      6.521     10.203
REMARK INTER + INTRA:         -12.782
REMARK INTER:                 -10.716
REMARK INTRA:                  -2.066
REMARK UNBOUND:                -1.501
REMARK SMILES CCCCCCCCCCCCCCCCCCCCCC(=O)[O-]
REMARK SMILES IDX 12 1 11 2 10 3 9 4 8 5 7 6 6 7 5 8 4 9 3 10 2 11 1 12 13 13
REMARK SMILES IDX 14 14 15 15 16 16 17 17 18 18 19 19 20 20 21 21 22 22 23 23
REMARK SMILES IDX 24 24
REMARK H PARENT
REMARK Flexibility Score: inf
ROOT
ATOM      1  C   UNL     1       1.884  58.820  22.086  1.00  0.00     0.000 C 
ENDROOT
BRANCH   1   2
ATOM      2  C   UNL     1       0.970  59.884  22.723  1.00  0.00     0.000 C 
BRANCH   2   3
ATOM      3  C   UNL     1       0.569  61.042  21.788  1.00  0.00     0.000 C 
BRANCH   3   4
ATOM      4  C   UNL     1      -0.409  60.661  20.656  1.00  0.00    -0.000 C 
BRANCH   4   5
ATOM      5  C   UNL     1       0.148  60.814  19.229  1.00  0.00    -0.000 C 
BRANCH   5   6
ATOM      6  C   UNL     1       1.634  61.208  19.208  1.00  0.00    -0.000 C 
BRANCH   6   7
ATOM      7  C   UNL     1       2.423  60.476  18.110  1.00  0.00    -0.000 C 
BRANCH   7   8
ATOM      8  C   UNL     1       1.511  59.790  17.081  1.00  0.00    -0.000 C 
BRANCH   8   9
ATOM      9  C   UNL     1       1.997  60.058  15.652  1.00  0.00    -0.000 C 
BRANCH   9  10
ATOM     10  C   UNL     1       1.678  61.499  15.223  1.00  0.00    -0.000 C 
BRANCH  10  11
ATOM     11  C   UNL     1       0.207  61.875  15.460  1.00  0.00    -0.003 C 
ATOM     12  C   UNL     1       0.048  63.188  16.226  1.00  0.00     0.004 C 
ENDBRANCH  10  11
ENDBRANCH   9  10
ENDBRANCH   8   9
ENDBRANCH   7   8
ENDBRANCH   6   7
ENDBRANCH   5   6
ENDBRANCH   4   5
ENDBRANCH   3   4
ENDBRANCH   2   3
ENDBRANCH   1   2
BRANCH   1  13
ATOM     13  C   UNL     1       3.338  59.292  21.873  1.00  0.00     0.000 C 
BRANCH  13  14
ATOM     14  C   UNL     1       4.071  58.471  20.797  1.00  0.00     0.000 C 
BRANCH  14  15
ATOM     15  C   UNL     1       4.978  57.382  21.396  1.00  0.00     0.000 C 
BRANCH  15  16
ATOM     16  C   UNL     1       6.219  57.021  20.553  1.00  0.00     0.000 C 
BRANCH  16  17
ATOM     17  C   UNL     1       7.440  56.498  21.340  1.00  0.00     0.000 C 
BRANCH  17  18
ATOM     18  C   UNL     1       7.412  54.992  21.681  1.00  0.00     0.000 C 
BRANCH  18  19
ATOM     19  C   UNL     1       8.557  54.175  21.056  1.00  0.00     0.000 C 
BRANCH  19  20
ATOM     20  C   UNL     1       9.935  54.430  21.699  1.00  0.00     0.006 C 
BRANCH  20  21
ATOM     21  C   UNL     1      10.184  53.515  22.907  1.00  0.00     0.053 C 
BRANCH  21  22
ATOM     22  C   UNL     1      10.267  54.318  24.167  1.00  0.00     0.041 C 
ATOM     23  O   UNL     1       9.216  54.703  24.743  1.00  0.00    -0.550 OA
ATOM     24  O   UNL     1      11.506  54.680  24.681  1.00  0.00    -0.550 OA
ENDBRANCH  21  22
ENDBRANCH  20  21
ENDBRANCH  19  20
ENDBRANCH  18  19
ENDBRANCH  17  18
ENDBRANCH  16  17
ENDBRANCH  15  16
ENDBRANCH  14  15
ENDBRANCH  13  14
ENDBRANCH   1  13
TORSDOF 20
ENDMDL
MODEL 8
REMARK VINA RESULT:    -5.171      6.986     10.900
REMARK INTER + INTRA:         -12.717
REMARK INTER:                 -10.689
REMARK INTRA:                  -2.028
REMARK UNBOUND:                -1.501
REMARK SMILES CCCCCCCCCCCCCCCCCCCCCC(=O)[O-]
REMARK SMILES IDX 12 1 11 2 10 3 9 4 8 5 7 6 6 7 5 8 4 9 3 10 2 11 1 12 13 13
REMARK SMILES IDX 14 14 15 15 16 16 17 17 18 18 19 19 20 20 21 21 22 22 23 23
REMARK SMILES IDX 24 24
REMARK H PARENT
REMARK Flexibility Score: inf
ROOT
ATOM      1  C   UNL     1       2.976  60.675  20.455  1.00  0.00     0.000 C 
ENDROOT
BRANCH   1   2
ATOM      2  C   UNL     1       2.720  61.111  19.000  1.00  0.00     0.000 C 
BRANCH   2   3
ATOM      3  C   UNL     1       2.312  59.975  18.042  1.00  0.00     0.000 C 
BRANCH   3   4
ATOM      4  C   UNL     1       2.350  60.337  16.542  1.00  0.00    -0.000 C 
BRANCH   4   5
ATOM      5  C   UNL     1       1.031  60.117  15.780  1.00  0.00    -0.000 C 
BRANCH   5   6
ATOM      6  C   UNL     1      -0.182  59.975  16.716  1.00  0.00    -0.000 C 
BRANCH   6   7
ATOM      7  C   UNL     1      -1.376  60.835  16.270  1.00  0.00    -0.000 C 
BRANCH   7   8
ATOM      8  C   UNL     1      -1.854  61.800  17.366  1.00  0.00    -0.000 C 
BRANCH   8   9
ATOM      9  C   UNL     1      -0.700  62.185  18.300  1.00  0.00    -0.000 C 
BRANCH   9  10
ATOM     10  C   UNL     1      -1.138  62.118  19.772  1.00  0.00    -0.000 C 
BRANCH  10  11
ATOM     11  C   UNL     1      -0.793  60.774  20.432  1.00  0.00    -0.003 C 
ATOM     12  C   UNL     1      -0.505  60.905  21.927  1.00  0.00     0.004 C 
ENDBRANCH  10  11
ENDBRANCH   9  10
ENDBRANCH   8   9
ENDBRANCH   7   8
ENDBRANCH   6   7
ENDBRANCH   5   6
ENDBRANCH   4   5
ENDBRANCH   3   4
ENDBRANCH   2   3
ENDBRANCH   1   2
BRANCH   1  13
ATOM     13  C   UNL     1       2.577  59.213  20.748  1.00  0.00     0.000 C 
BRANCH  13  14
ATOM     14  C   UNL     1       3.624  58.477  21.603  1.00  0.00     0.000 C 
BRANCH  14  15
ATOM     15  C   UNL     1       4.765  57.879  20.761  1.00  0.00     0.000 C 
BRANCH  15  16
ATOM     16  C   UNL     1       5.386  56.581  21.320  1.00  0.00     0.000 C 
BRANCH  16  17
ATOM     17  C   UNL     1       6.920  56.461  21.198  1.00  0.00     0.000 C 
BRANCH  17  18
ATOM     18  C   UNL     1       7.432  55.167  20.529  1.00  0.00     0.000 C 
BRANCH  18  19
ATOM     19  C   UNL     1       8.177  54.210  21.477  1.00  0.00     0.000 C 
BRANCH  19  20
ATOM     20  C   UNL     1       9.701  54.438  21.529  1.00  0.00     0.006 C 
BRANCH  20  21
ATOM     21  C   UNL     1      10.340  53.771  22.756  1.00  0.00     0.053 C 
BRANCH  21  22
ATOM     22  C   UNL     1      10.517  54.762  23.862  1.00  0.00     0.041 C 
ATOM     23  O   UNL     1       9.927  55.874  23.816  1.00  0.00    -0.550 OA
ATOM     24  O   UNL     1      11.368  54.478  24.922  1.00  0.00    -0.550 OA
ENDBRANCH  21  22
ENDBRANCH  20  21
ENDBRANCH  19  20
ENDBRANCH  18  19
ENDBRANCH  17  18
ENDBRANCH  16  17
ENDBRANCH  15  16
ENDBRANCH  14  15
ENDBRANCH  13  14
ENDBRANCH   1  13
TORSDOF 20
ENDMDL
MODEL 9
REMARK VINA RESULT:    -5.160      4.591     10.108
REMARK INTER + INTRA:         -12.694
REMARK INTER:                 -10.644
REMARK INTRA:                  -2.051
REMARK UNBOUND:                -1.501
REMARK SMILES CCCCCCCCCCCCCCCCCCCCCC(=O)[O-]
REMARK SMILES IDX 12 1 11 2 10 3 9 4 8 5 7 6 6 7 5 8 4 9 3 10 2 11 1 12 13 13
REMARK SMILES IDX 14 14 15 15 16 16 17 17 18 18 19 19 20 20 21 21 22 22 23 23
REMARK SMILES IDX 24 24
REMARK H PARENT
REMARK Flexibility Score: inf
ROOT
ATOM      1  C   UNL     1      10.203  51.230  22.767  1.00  0.00     0.000 C 
ENDROOT
BRANCH   1   2
ATOM      2  C   UNL     1      11.377  50.232  22.755  1.00  0.00     0.000 C 
BRANCH   2   3
ATOM      3  C   UNL     1      10.980  48.757  22.964  1.00  0.00     0.000 C 
BRANCH   3   4
ATOM      4  C   UNL     1      10.508  48.401  24.390  1.00  0.00    -0.000 C 
BRANCH   4   5
ATOM      5  C   UNL     1      10.552  46.903  24.740  1.00  0.00    -0.000 C 
BRANCH   5   6
ATOM      6  C   UNL     1      10.517  45.998  23.497  1.00  0.00    -0.000 C 
BRANCH   6   7
ATOM      7  C   UNL     1      10.550  44.503  23.854  1.00  0.00    -0.000 C 
BRANCH   7   8
ATOM      8  C   UNL     1       9.581  44.143  24.990  1.00  0.00    -0.000 C 
BRANCH   8   9
ATOM      9  C   UNL     1       8.144  44.025  24.469  1.00  0.00    -0.000 C 
BRANCH   9  10
ATOM     10  C   UNL     1       7.144  44.622  25.472  1.00  0.00    -0.000 C 
BRANCH  10  11
ATOM     11  C   UNL     1       7.026  46.149  25.351  1.00  0.00    -0.003 C 
ATOM     12  C   UNL     1       6.956  46.625  23.900  1.00  0.00     0.004 C 
ENDBRANCH  10  11
ENDBRANCH   9  10
ENDBRANCH   8   9
ENDBRANCH   7   8
ENDBRANCH   6   7
ENDBRANCH   5   6
ENDBRANCH   4   5
ENDBRANCH   3   4
ENDBRANCH   2   3
ENDBRANCH   1   2
BRANCH   1  13
ATOM     13  C   UNL     1      10.254  52.268  21.625  1.00  0.00     0.000 C 
BRANCH  13  14
ATOM     14  C   UNL     1      11.005  53.549  22.028  1.00  0.00     0.000 C 
BRANCH  14  15
ATOM     15  C   UNL     1      10.845  53.888  23.520  1.00  0.00     0.000 C 
BRANCH  15  16
ATOM     16  C   UNL     1       9.824  55.000  23.838  1.00  0.00     0.000 C 
BRANCH  16  17
ATOM     17  C   UNL     1       8.948  55.469  22.656  1.00  0.00     0.000 C 
BRANCH  17  18
ATOM     18  C   UNL     1       7.611  54.716  22.484  1.00  0.00     0.000 C 
BRANCH  18  19
ATOM     19  C   UNL     1       6.997  54.820  21.076  1.00  0.00     0.000 C 
BRANCH  19  20
ATOM     20  C   UNL     1       8.004  54.585  19.932  1.00  0.00     0.006 C 
BRANCH  20  21
ATOM     21  C   UNL     1       7.312  54.117  18.644  1.00  0.00     0.053 C 
BRANCH  21  22
ATOM     22  C   UNL     1       7.209  55.242  17.663  1.00  0.00     0.041 C 
ATOM     23  O   UNL     1       7.526  56.412  18.005  1.00  0.00    -0.550 OA
ATOM     24  O   UNL     1       6.721  55.008  16.384  1.00  0.00    -0.550 OA
ENDBRANCH  21  22
ENDBRANCH  20  21
ENDBRANCH  19  20
ENDBRANCH  18  19
ENDBRANCH  17  18
ENDBRANCH  16  17
ENDBRANCH  15  16
ENDBRANCH  14  15
ENDBRANCH  13  14
ENDBRANCH   1  13
TORSDOF 20
ENDMDL
