MODEL 1
REMARK VINA RESULT:    -2.515      0.000      0.000
REMARK INTER + INTRA:          -2.515
REMARK INTER:                  -2.515
REMARK INTRA:                   0.000
REMARK UNBOUND:                 0.000
REMARK SMILES C=C1CCC[C@@]2(C)CC(=O)C(=C(C)C)C[C@@H]12
REMARK SMILES IDX 13 1 12 2 11 3 15 4 16 5 2 6 1 7 3 8 4 9 5 10 6 11 8 12 9 13
REMARK SMILES IDX 10 14 7 15 14 16
REMARK H PARENT
REMARK Flexibility Score: inf
ROOT
ATOM      1  C   UNL     1       9.711  -4.177  -7.568  1.00  0.00     0.039 C 
ATOM      2  C   UNL     1      10.252  -4.692  -6.255  1.00  0.00    -0.070 C 
ATOM      3  C   UNL     1       9.939  -4.090  -5.071  1.00  0.00    -0.006 C 
ATOM      4  C   UNL     1      10.445  -4.612  -3.742  1.00  0.00     0.047 C 
ATOM      5  C   UNL     1       9.437  -4.418  -2.579  1.00  0.00     0.025 C 
ATOM      6  C   UNL     1      10.134  -4.749  -1.270  1.00  0.00    -0.073 C 
ATOM      7  C   UNL     1       9.982  -5.956  -0.702  1.00  0.00     0.008 C 
ATOM      8  C   UNL     1      11.125  -3.755  -0.701  1.00  0.00     0.031 C 
ATOM      9  C   UNL     1      10.564  -2.326  -0.716  1.00  0.00     0.005 C 
ATOM     10  C   UNL     1       9.909  -1.958  -2.060  1.00  0.00     0.008 C 
ATOM     11  C   UNL     1       8.824  -2.983  -2.507  1.00  0.00    -0.018 C 
ATOM     12  C   UNL     1       8.239  -2.576  -3.885  1.00  0.00     0.088 C 
ATOM     13  C   UNL     1       9.199  -2.809  -5.007  1.00  0.00     0.159 C 
ATOM     14  O   UNL     1       9.362  -1.913  -5.879  1.00  0.00    -0.295 OA
ATOM     15  C   UNL     1       7.644  -2.970  -1.497  1.00  0.00     0.012 C 
ATOM     16  C   UNL     1      11.125  -5.924  -6.301  1.00  0.00     0.039 C 
ENDROOT
TORSDOF 0
ENDMDL
MODEL 2
REMARK VINA RESULT:    -2.439     16.353     18.107
REMARK INTER + INTRA:          -2.439
REMARK INTER:                  -2.439
REMARK INTRA:                   0.000
REMARK UNBOUND:                 0.000
REMARK SMILES C=C1CCC[C@@]2(C)CC(=O)C(=C(C)C)C[C@@H]12
REMARK SMILES IDX 13 1 12 2 11 3 15 4 16 5 2 6 1 7 3 8 4 9 5 10 6 11 8 12 9 13
REMARK SMILES IDX 10 14 7 15 14 16
REMARK H PARENT
REMARK Flexibility Score: inf
ROOT
ATOM      1  C   UNL     1      -8.408  -4.042  -7.869  1.00  0.00     0.039 C 
ATOM      2  C   UNL     1      -8.630  -3.320  -6.560  1.00  0.00    -0.070 C 
ATOM      3  C   UNL     1      -8.364  -3.919  -5.364  1.00  0.00    -0.006 C 
ATOM      4  C   UNL     1      -8.550  -3.200  -4.043  1.00  0.00     0.047 C 
ATOM      5  C   UNL     1      -7.509  -3.608  -2.967  1.00  0.00     0.025 C 
ATOM      6  C   UNL     1      -7.932  -3.018  -1.632  1.00  0.00    -0.073 C 
ATOM      7  C   UNL     1      -7.386  -1.875  -1.188  1.00  0.00     0.008 C 
ATOM      8  C   UNL     1      -9.089  -3.653  -0.889  1.00  0.00     0.031 C 
ATOM      9  C   UNL     1      -8.953  -5.181  -0.833  1.00  0.00     0.005 C 
ATOM     10  C   UNL     1      -8.585  -5.797  -2.196  1.00  0.00     0.008 C 
ATOM     11  C   UNL     1      -7.316  -5.152  -2.829  1.00  0.00    -0.018 C 
ATOM     12  C   UNL     1      -7.029  -5.787  -4.215  1.00  0.00     0.088 C 
ATOM     13  C   UNL     1      -8.008  -5.353  -5.259  1.00  0.00     0.159 C 
ATOM     14  O   UNL     1      -8.512  -6.212  -6.030  1.00  0.00    -0.295 OA
ATOM     15  C   UNL     1      -6.079  -5.445  -1.937  1.00  0.00     0.012 C 
ATOM     16  C   UNL     1      -9.125  -1.894  -6.631  1.00  0.00     0.039 C 
ENDROOT
TORSDOF 0
ENDMDL
MODEL 3
REMARK VINA RESULT:    -2.362     16.603     18.033
REMARK INTER + INTRA:          -2.362
REMARK INTER:                  -2.362
REMARK INTRA:                   0.000
REMARK UNBOUND:                 0.000
REMARK SMILES C=C1CCC[C@@]2(C)CC(=O)C(=C(C)C)C[C@@H]12
REMARK SMILES IDX 13 1 12 2 11 3 15 4 16 5 2 6 1 7 3 8 4 9 5 10 6 11 8 12 9 13
REMARK SMILES IDX 10 14 7 15 14 16
REMARK H PARENT
REMARK Flexibility Score: inf
ROOT
ATOM      1  C   UNL     1      -9.037  -4.442  -7.391  1.00  0.00     0.039 C 
ATOM      2  C   UNL     1      -8.789  -5.244  -6.134  1.00  0.00    -0.070 C 
ATOM      3  C   UNL     1      -8.506  -4.636  -4.947  1.00  0.00    -0.006 C 
ATOM      4  C   UNL     1      -8.288  -5.422  -3.670  1.00  0.00     0.047 C 
ATOM      5  C   UNL     1      -8.797  -4.691  -2.401  1.00  0.00     0.025 C 
ATOM      6  C   UNL     1      -8.315  -5.449  -1.174  1.00  0.00    -0.073 C 
ATOM      7  C   UNL     1      -9.125  -6.314  -0.545  1.00  0.00     0.008 C 
ATOM      8  C   UNL     1      -6.859  -5.332  -0.773  1.00  0.00     0.031 C 
ATOM      9  C   UNL     1      -6.388  -3.871  -0.776  1.00  0.00     0.005 C 
ATOM     10  C   UNL     1      -6.819  -3.109  -2.043  1.00  0.00     0.008 C 
ATOM     11  C   UNL     1      -8.351  -3.196  -2.311  1.00  0.00    -0.018 C 
ATOM     12  C   UNL     1      -8.708  -2.447  -3.621  1.00  0.00     0.088 C 
ATOM     13  C   UNL     1      -8.256  -3.180  -4.843  1.00  0.00     0.159 C 
ATOM     14  O   UNL     1      -7.670  -2.548  -5.764  1.00  0.00    -0.295 OA
ATOM     15  C   UNL     1      -9.125  -2.489  -1.165  1.00  0.00     0.012 C 
ATOM     16  C   UNL     1      -8.905  -6.747  -6.239  1.00  0.00     0.039 C 
ENDROOT
TORSDOF 0
ENDMDL
MODEL 4
REMARK VINA RESULT:    -1.906      2.559      4.270
REMARK INTER + INTRA:          -1.906
REMARK INTER:                  -1.906
REMARK INTRA:                   0.000
REMARK UNBOUND:                 0.000
REMARK SMILES C=C1CCC[C@@]2(C)CC(=O)C(=C(C)C)C[C@@H]12
REMARK SMILES IDX 13 1 12 2 11 3 15 4 16 5 2 6 1 7 3 8 4 9 5 10 6 11 8 12 9 13
REMARK SMILES IDX 10 14 7 15 14 16
REMARK H PARENT
REMARK Flexibility Score: inf
ROOT
ATOM      1  C   UNL     1      11.090  -8.339  -1.462  1.00  0.00     0.039 C 
ATOM      2  C   UNL     1      10.840  -7.270  -2.500  1.00  0.00    -0.070 C 
ATOM      3  C   UNL     1      10.408  -6.024  -2.149  1.00  0.00    -0.006 C 
ATOM      4  C   UNL     1      10.185  -4.930  -3.173  1.00  0.00     0.047 C 
ATOM      5  C   UNL     1      10.519  -3.511  -2.642  1.00  0.00     0.025 C 
ATOM      6  C   UNL     1      10.034  -2.486  -3.654  1.00  0.00    -0.073 C 
ATOM      7  C   UNL     1      10.885  -1.946  -4.540  1.00  0.00     0.008 C 
ATOM      8  C   UNL     1       8.549  -2.202  -3.748  1.00  0.00     0.031 C 
ATOM      9  C   UNL     1       7.925  -1.993  -2.362  1.00  0.00     0.005 C 
ATOM     10  C   UNL     1       8.361  -3.062  -1.344  1.00  0.00     0.008 C 
ATOM     11  C   UNL     1       9.909  -3.202  -1.237  1.00  0.00    -0.018 C 
ATOM     12  C   UNL     1      10.277  -4.324  -0.231  1.00  0.00     0.088 C 
ATOM     13  C   UNL     1       9.996  -5.691  -0.767  1.00  0.00     0.159 C 
ATOM     14  O   UNL     1       9.413  -6.536  -0.034  1.00  0.00    -0.295 OA
ATOM     15  C   UNL     1      10.518  -1.885  -0.683  1.00  0.00     0.012 C 
ATOM     16  C   UNL     1      11.125  -7.624  -3.941  1.00  0.00     0.039 C 
ENDROOT
TORSDOF 0
ENDMDL
MODEL 5
REMARK VINA RESULT:    -1.551      1.623      3.329
REMARK INTER + INTRA:          -1.551
REMARK INTER:                  -1.551
REMARK INTRA:                   0.000
REMARK UNBOUND:                 0.000
REMARK SMILES C=C1CCC[C@@]2(C)CC(=O)C(=C(C)C)C[C@@H]12
REMARK SMILES IDX 13 1 12 2 11 3 15 4 16 5 2 6 1 7 3 8 4 9 5 10 6 11 8 12 9 13
REMARK SMILES IDX 10 14 7 15 14 16
REMARK H PARENT
REMARK Flexibility Score: inf
ROOT
ATOM      1  C   UNL     1      10.396  -3.557  -6.392  1.00  0.00     0.039 C 
ATOM      2  C   UNL     1       9.459  -3.154  -5.278  1.00  0.00    -0.070 C 
ATOM      3  C   UNL     1       9.555  -3.705  -4.033  1.00  0.00    -0.006 C 
ATOM      4  C   UNL     1       8.647  -3.289  -2.894  1.00  0.00     0.047 C 
ATOM      5  C   UNL     1       9.342  -3.318  -1.508  1.00  0.00     0.025 C 
ATOM      6  C   UNL     1       8.288  -3.123  -0.430  1.00  0.00    -0.073 C 
ATOM      7  C   UNL     1       8.086  -1.913   0.115  1.00  0.00     0.008 C 
ATOM      8  C   UNL     1       7.366  -4.277  -0.097  1.00  0.00     0.031 C 
ATOM      9  C   UNL     1       8.144  -5.588   0.080  1.00  0.00     0.005 C 
ATOM     10  C   UNL     1       9.172  -5.827  -1.040  1.00  0.00     0.008 C 
ATOM     11  C   UNL     1      10.148  -4.628  -1.233  1.00  0.00    -0.018 C 
ATOM     12  C   UNL     1      11.125  -4.917  -2.403  1.00  0.00     0.088 C 
ATOM     13  C   UNL     1      10.458  -4.841  -3.739  1.00  0.00     0.159 C 
ATOM     14  O   UNL     1      10.676  -5.744  -4.592  1.00  0.00    -0.295 OA
ATOM     15  C   UNL     1      11.016  -4.448   0.042  1.00  0.00     0.012 C 
ATOM     16  C   UNL     1       8.433  -2.088  -5.587  1.00  0.00     0.039 C 
ENDROOT
TORSDOF 0
ENDMDL
MODEL 6
REMARK VINA RESULT:    -0.708      2.372      4.642
REMARK INTER + INTRA:          -0.708
REMARK INTER:                  -0.708
REMARK INTRA:                   0.000
REMARK UNBOUND:                 0.000
REMARK SMILES C=C1CCC[C@@]2(C)CC(=O)C(=C(C)C)C[C@@H]12
REMARK SMILES IDX 13 1 12 2 11 3 15 4 16 5 2 6 1 7 3 8 4 9 5 10 6 11 8 12 9 13
REMARK SMILES IDX 10 14 7 15 14 16
REMARK H PARENT
REMARK Flexibility Score: inf
ROOT
ATOM      1  C   UNL     1       4.634  -3.208  -0.104  1.00  0.00     0.039 C 
ATOM      2  C   UNL     1       5.727  -4.237  -0.280  1.00  0.00    -0.070 C 
ATOM      3  C   UNL     1       6.960  -3.892  -0.751  1.00  0.00    -0.006 C 
ATOM      4  C   UNL     1       8.078  -4.903  -0.902  1.00  0.00     0.047 C 
ATOM      5  C   UNL     1       9.485  -4.313  -0.624  1.00  0.00     0.025 C 
ATOM      6  C   UNL     1      10.533  -5.335  -1.036  1.00  0.00    -0.073 C 
ATOM      7  C   UNL     1      11.100  -6.136  -0.122  1.00  0.00     0.008 C 
ATOM      8  C   UNL     1      10.807  -5.541  -2.511  1.00  0.00     0.031 C 
ATOM      9  C   UNL     1      10.977  -4.205  -3.247  1.00  0.00     0.005 C 
ATOM     10  C   UNL     1       9.886  -3.182  -2.883  1.00  0.00     0.008 C 
ATOM     11  C   UNL     1       9.755  -2.954  -1.348  1.00  0.00    -0.018 C 
ATOM     12  C   UNL     1       8.611  -1.949  -1.052  1.00  0.00     0.088 C 
ATOM     13  C   UNL     1       7.256  -2.539  -1.276  1.00  0.00     0.159 C 
ATOM     14  O   UNL     1       6.389  -1.877  -1.907  1.00  0.00    -0.295 OA
ATOM     15  C   UNL     1      11.062  -2.321  -0.798  1.00  0.00     0.012 C 
ATOM     16  C   UNL     1       5.411  -5.659   0.122  1.00  0.00     0.039 C 
ENDROOT
TORSDOF 0
ENDMDL
MODEL 7
REMARK VINA RESULT:    -0.692     16.995     18.808
REMARK INTER + INTRA:          -0.692
REMARK INTER:                  -0.692
REMARK INTRA:                   0.000
REMARK UNBOUND:                 0.000
REMARK SMILES C=C1CCC[C@@]2(C)CC(=O)C(=C(C)C)C[C@@H]12
REMARK SMILES IDX 13 1 12 2 11 3 15 4 16 5 2 6 1 7 3 8 4 9 5 10 6 11 8 12 9 13
REMARK SMILES IDX 10 14 7 15 14 16
REMARK H PARENT
REMARK Flexibility Score: inf
ROOT
ATOM      1  C   UNL     1      -9.123  -3.918  -0.783  1.00  0.00     0.039 C 
ATOM      2  C   UNL     1      -8.835  -3.508  -2.208  1.00  0.00    -0.070 C 
ATOM      3  C   UNL     1      -8.540  -4.432  -3.168  1.00  0.00    -0.006 C 
ATOM      4  C   UNL     1      -8.281  -4.043  -4.610  1.00  0.00     0.047 C 
ATOM      5  C   UNL     1      -8.779  -5.098  -5.632  1.00  0.00     0.025 C 
ATOM      6  C   UNL     1      -8.257  -4.725  -7.010  1.00  0.00    -0.073 C 
ATOM      7  C   UNL     1      -9.038  -4.064  -7.879  1.00  0.00     0.008 C 
ATOM      8  C   UNL     1      -6.797  -4.970  -7.326  1.00  0.00     0.031 C 
ATOM      9  C   UNL     1      -6.355  -6.376  -6.897  1.00  0.00     0.005 C 
ATOM     10  C   UNL     1      -6.825  -6.742  -5.478  1.00  0.00     0.008 C 
ATOM     11  C   UNL     1      -8.361  -6.562  -5.284  1.00  0.00    -0.018 C 
ATOM     12  C   UNL     1      -8.758  -6.904  -3.823  1.00  0.00     0.088 C 
ATOM     13  C   UNL     1      -8.316  -5.861  -2.849  1.00  0.00     0.159 C 
ATOM     14  O   UNL     1      -7.761  -6.213  -1.773  1.00  0.00    -0.295 OA
ATOM     15  C   UNL     1      -9.125  -7.555  -6.201  1.00  0.00     0.012 C 
ATOM     16  C   UNL     1      -8.924  -2.036  -2.537  1.00  0.00     0.039 C 
ENDROOT
TORSDOF 0
ENDMDL
