MODEL 1
REMARK VINA RESULT:    -7.018      0.000      0.000
REMARK INTER + INTRA:          -8.915
REMARK INTER:                  -8.659
REMARK INTRA:                  -0.255
REMARK UNBOUND:                -0.255
REMARK SMILES Oc1cc(O)c2cc(O)c(-c3cc(O)c(O)c(O)c3)[o+]c2c1.[Cl-]
REMARK SMILES IDX 10 1 20 2 21 3 22 4 2 5 3 6 4 7 6 8 7 9 8 10 11 11 12 12
REMARK SMILES IDX 13 13 19 14 15 15 17 16 14 17 16 19 18 21 9 23 1 25 5 27
REMARK H PARENT 14 18 16 20 18 22 9 24 1 26 5 28
REMARK Flexibility Score: inf
ROOT
ATOM      1  C   UNL     1      27.679  13.093  65.495  1.00  0.00     0.402 A 
ATOM      2  O   UNL     1      27.078  13.746  64.503  1.00  0.00    -0.202 OA
ATOM      3  C   UNL     1      26.058  14.577  64.691  1.00  0.00     0.368 A 
ATOM      4  C   UNL     1      25.494  15.221  63.586  1.00  0.00     0.162 A 
ATOM      5  C   UNL     1      24.425  16.100  63.752  1.00  0.00     0.128 A 
ATOM      6  C   UNL     1      23.914  16.343  65.033  1.00  0.00     0.093 A 
ATOM      7  C   UNL     1      24.462  15.711  66.156  1.00  0.00     0.136 A 
ATOM      8  C   UNL     1      25.549  14.812  65.990  1.00  0.00     0.125 A 
ATOM      9  C   UNL     1      26.151  14.125  67.056  1.00  0.00     0.078 A 
ATOM     10  C   UNL     1      27.215  13.252  66.814  1.00  0.00     0.223 A 
ENDROOT
BRANCH   1  11
ATOM     11  C   UNL     1      28.813  12.201  65.159  1.00  0.00     0.091 A 
ATOM     12  C   UNL     1      28.602  11.107  64.310  1.00  0.00     0.068 A 
ATOM     13  C   UNL     1      29.656  10.259  63.962  1.00  0.00     0.162 A 
ATOM     14  C   UNL     1      30.111  12.460  65.628  1.00  0.00     0.068 A 
ATOM     15  C   UNL     1      30.953  10.504  64.450  1.00  0.00     0.200 A 
ATOM     16  C   UNL     1      31.181  11.624  65.286  1.00  0.00     0.162 A 
BRANCH  13  17
ATOM     17  O   UNL     1      29.394   9.173  63.127  1.00  0.00    -0.504 OA
ATOM     18  H   UNL     1      29.647   9.171  62.145  1.00  0.00     0.293 HD
ENDBRANCH  13  17
BRANCH  15  19
ATOM     19  O   UNL     1      31.979   9.627  64.085  1.00  0.00    -0.502 OA
ATOM     20  H   UNL     1      32.342   9.538  63.148  1.00  0.00     0.293 HD
ENDBRANCH  15  19
BRANCH  16  21
ATOM     21  O   UNL     1      32.442  11.946  65.791  1.00  0.00    -0.504 OA
ATOM     22  H   UNL     1      32.688  11.908  66.769  1.00  0.00     0.293 HD
ENDBRANCH  16  21
ENDBRANCH   1  11
BRANCH  10  23
ATOM     23  O   UNL     1      27.782  12.531  67.865  1.00  0.00    -0.500 OA
ATOM     24  H   UNL     1      28.025  11.552  67.770  1.00  0.00     0.294 HD
ENDBRANCH  10  23
BRANCH   5  25
ATOM     25  O   UNL     1      23.876  16.732  62.638  1.00  0.00    -0.507 OA
ATOM     26  H   UNL     1      23.990  17.727  62.484  1.00  0.00     0.293 HD
ENDBRANCH   5  25
BRANCH   7  27
ATOM     27  O   UNL     1      23.898  16.007  67.400  1.00  0.00    -0.507 OA
ATOM     28  H   UNL     1      24.346  15.827  68.286  1.00  0.00     0.293 HD
ENDBRANCH   7  27
TORSDOF 7
ENDMDL
MODEL 2
REMARK VINA RESULT:    -6.768      2.826      7.699
REMARK INTER + INTRA:          -8.606
REMARK INTER:                  -8.231
REMARK INTRA:                  -0.376
REMARK UNBOUND:                -0.255
REMARK SMILES Oc1cc(O)c2cc(O)c(-c3cc(O)c(O)c(O)c3)[o+]c2c1.[Cl-]
REMARK SMILES IDX 10 1 20 2 21 3 22 4 2 5 3 6 4 7 6 8 7 9 8 10 11 11 12 12
REMARK SMILES IDX 13 13 19 14 15 15 17 16 14 17 16 19 18 21 9 23 1 25 5 27
REMARK H PARENT 14 18 16 20 18 22 9 24 1 26 5 28
REMARK Flexibility Score: inf
ROOT
ATOM      1  C   UNL     1      30.191  10.910  64.175  1.00  0.00     0.402 A 
ATOM      2  O   UNL     1      31.403  11.386  63.897  1.00  0.00    -0.202 OA
ATOM      3  C   UNL     1      32.142  10.949  62.884  1.00  0.00     0.368 A 
ATOM      4  C   UNL     1      33.403  11.513  62.668  1.00  0.00     0.162 A 
ATOM      5  C   UNL     1      34.200  11.077  61.611  1.00  0.00     0.128 A 
ATOM      6  C   UNL     1      33.735  10.070  60.757  1.00  0.00     0.093 A 
ATOM      7  C   UNL     1      32.475   9.489  60.950  1.00  0.00     0.136 A 
ATOM      8  C   UNL     1      31.663   9.928  62.028  1.00  0.00     0.125 A 
ATOM      9  C   UNL     1      30.394   9.394  62.305  1.00  0.00     0.078 A 
ATOM     10  C   UNL     1      29.653   9.875  63.389  1.00  0.00     0.223 A 
ENDROOT
BRANCH   1  11
ATOM     11  C   UNL     1      29.461  11.486  65.328  1.00  0.00     0.091 A 
ATOM     12  C   UNL     1      29.792  11.078  66.627  1.00  0.00     0.068 A 
ATOM     13  C   UNL     1      29.132  11.617  67.734  1.00  0.00     0.162 A 
ATOM     14  C   UNL     1      28.482  12.476  65.153  1.00  0.00     0.068 A 
ATOM     15  C   UNL     1      28.133  12.593  67.559  1.00  0.00     0.200 A 
ATOM     16  C   UNL     1      27.813  13.031  66.250  1.00  0.00     0.162 A 
BRANCH  13  17
ATOM     17  O   UNL     1      29.484  11.168  69.008  1.00  0.00    -0.504 OA
ATOM     18  H   UNL     1      30.440  11.182  69.341  1.00  0.00     0.293 HD
ENDBRANCH  13  17
BRANCH  15  19
ATOM     19  O   UNL     1      27.492  13.101  68.692  1.00  0.00    -0.502 OA
ATOM     20  H   UNL     1      27.398  14.084  68.898  1.00  0.00     0.293 HD
ENDBRANCH  15  19
BRANCH  16  21
ATOM     21  O   UNL     1      26.851  14.011  65.997  1.00  0.00    -0.504 OA
ATOM     22  H   UNL     1      26.838  14.592  65.171  1.00  0.00     0.293 HD
ENDBRANCH  16  21
ENDBRANCH   1  11
BRANCH  10  23
ATOM     23  O   UNL     1      28.414   9.312  63.694  1.00  0.00    -0.500 OA
ATOM     24  H   UNL     1      28.113   9.174  64.652  1.00  0.00     0.294 HD
ENDBRANCH  10  23
BRANCH   5  25
ATOM     25  O   UNL     1      35.454  11.652  61.414  1.00  0.00    -0.507 OA
ATOM     26  H   UNL     1      36.223  11.122  61.021  1.00  0.00     0.293 HD
ENDBRANCH   5  25
BRANCH   7  27
ATOM     27  O   UNL     1      32.082   8.491  60.054  1.00  0.00    -0.507 OA
ATOM     28  H   UNL     1      31.909   8.643  59.071  1.00  0.00     0.293 HD
ENDBRANCH   7  27
TORSDOF 7
ENDMDL
MODEL 3
REMARK VINA RESULT:    -6.758      6.831      8.814
REMARK INTER + INTRA:          -8.594
REMARK INTER:                  -8.227
REMARK INTRA:                  -0.367
REMARK UNBOUND:                -0.255
REMARK SMILES Oc1cc(O)c2cc(O)c(-c3cc(O)c(O)c(O)c3)[o+]c2c1.[Cl-]
REMARK SMILES IDX 10 1 20 2 21 3 22 4 2 5 3 6 4 7 6 8 7 9 8 10 11 11 12 12
REMARK SMILES IDX 13 13 19 14 15 15 17 16 14 17 16 19 18 21 9 23 1 25 5 27
REMARK H PARENT 14 18 16 20 18 22 9 24 1 26 5 28
REMARK Flexibility Score: inf
ROOT
ATOM      1  C   UNL     1      34.276  12.248  63.552  1.00  0.00     0.402 A 
ATOM      2  O   UNL     1      35.356  12.883  63.104  1.00  0.00    -0.202 OA
ATOM      3  C   UNL     1      36.030  13.773  63.824  1.00  0.00     0.368 A 
ATOM      4  C   UNL     1      37.156  14.387  63.268  1.00  0.00     0.162 A 
ATOM      5  C   UNL     1      37.885  15.322  64.001  1.00  0.00     0.128 A 
ATOM      6  C   UNL     1      37.490  15.647  65.304  1.00  0.00     0.093 A 
ATOM      7  C   UNL     1      36.366  15.046  65.885  1.00  0.00     0.136 A 
ATOM      8  C   UNL     1      35.619  14.096  65.140  1.00  0.00     0.125 A 
ATOM      9  C   UNL     1      34.473  13.454  65.636  1.00  0.00     0.078 A 
ATOM     10  C   UNL     1      33.787  12.532  64.841  1.00  0.00     0.223 A 
ENDROOT
BRANCH   1  11
ATOM     11  C   UNL     1      33.616  11.271  62.656  1.00  0.00     0.091 A 
ATOM     12  C   UNL     1      33.887   9.904  62.807  1.00  0.00     0.068 A 
ATOM     13  C   UNL     1      33.266   8.958  61.988  1.00  0.00     0.162 A 
ATOM     14  C   UNL     1      32.677  11.678  61.695  1.00  0.00     0.068 A 
ATOM     15  C   UNL     1      32.342   9.367  61.008  1.00  0.00     0.200 A 
ATOM     16  C   UNL     1      32.041  10.744  60.868  1.00  0.00     0.162 A 
BRANCH  13  17
ATOM     17  O   UNL     1      33.580   7.611  62.164  1.00  0.00    -0.504 OA
ATOM     18  H   UNL     1      33.306   7.095  62.992  1.00  0.00     0.293 HD
ENDBRANCH  13  17
BRANCH  15  19
ATOM     19  O   UNL     1      31.749   8.389  60.204  1.00  0.00    -0.502 OA
ATOM     20  H   UNL     1      32.256   7.797  59.563  1.00  0.00     0.293 HD
ENDBRANCH  15  19
BRANCH  16  21
ATOM     21  O   UNL     1      31.120  11.224  59.935  1.00  0.00    -0.504 OA
ATOM     22  H   UNL     1      31.188  12.124  59.484  1.00  0.00     0.293 HD
ENDBRANCH  16  21
ENDBRANCH   1  11
BRANCH  10  23
ATOM     23  O   UNL     1      32.620  11.931  65.314  1.00  0.00    -0.500 OA
ATOM     24  H   UNL     1      31.861  12.476  65.705  1.00  0.00     0.294 HD
ENDBRANCH  10  23
BRANCH   5  25
ATOM     25  O   UNL     1      39.004  15.922  63.428  1.00  0.00    -0.507 OA
ATOM     26  H   UNL     1      39.650  15.396  62.852  1.00  0.00     0.293 HD
ENDBRANCH   5  25
BRANCH   7  27
ATOM     27  O   UNL     1      36.037  15.422  67.191  1.00  0.00    -0.507 OA
ATOM     28  H   UNL     1      35.096  15.475  67.549  1.00  0.00     0.293 HD
ENDBRANCH   7  27
TORSDOF 7
ENDMDL
MODEL 4
REMARK VINA RESULT:    -6.735      4.903      9.144
REMARK INTER + INTRA:          -8.565
REMARK INTER:                  -8.495
REMARK INTRA:                  -0.070
REMARK UNBOUND:                -0.255
REMARK SMILES Oc1cc(O)c2cc(O)c(-c3cc(O)c(O)c(O)c3)[o+]c2c1.[Cl-]
REMARK SMILES IDX 10 1 20 2 21 3 22 4 2 5 3 6 4 7 6 8 7 9 8 10 11 11 12 12
REMARK SMILES IDX 13 13 19 14 15 15 17 16 14 17 16 19 18 21 9 23 1 25 5 27
REMARK H PARENT 14 18 16 20 18 22 9 24 1 26 5 28
REMARK Flexibility Score: inf
ROOT
ATOM      1  C   UNL     1      32.510   9.948  62.736  1.00  0.00     0.402 A 
ATOM      2  O   UNL     1      33.388  10.941  62.619  1.00  0.00    -0.202 OA
ATOM      3  C   UNL     1      34.339  10.968  61.692  1.00  0.00     0.368 A 
ATOM      4  C   UNL     1      35.213  12.057  61.646  1.00  0.00     0.162 A 
ATOM      5  C   UNL     1      36.219  12.114  60.681  1.00  0.00     0.128 A 
ATOM      6  C   UNL     1      36.352  11.077  59.751  1.00  0.00     0.093 A 
ATOM      7  C   UNL     1      35.487   9.975  59.774  1.00  0.00     0.136 A 
ATOM      8  C   UNL     1      34.465   9.912  60.757  1.00  0.00     0.125 A 
ATOM      9  C   UNL     1      33.563   8.841  60.864  1.00  0.00     0.078 A 
ATOM     10  C   UNL     1      32.584   8.847  61.863  1.00  0.00     0.223 A 
ENDROOT
BRANCH   1  11
ATOM     11  C   UNL     1      31.490  10.037  63.807  1.00  0.00     0.091 A 
ATOM     12  C   UNL     1      31.876  10.429  65.096  1.00  0.00     0.068 A 
ATOM     13  C   UNL     1      30.933  10.539  66.121  1.00  0.00     0.162 A 
ATOM     14  C   UNL     1      30.133   9.794  63.546  1.00  0.00     0.068 A 
ATOM     15  C   UNL     1      29.575  10.273  65.867  1.00  0.00     0.200 A 
ATOM     16  C   UNL     1      29.173   9.904  64.560  1.00  0.00     0.162 A 
BRANCH  13  17
ATOM     17  O   UNL     1      31.368  10.916  67.392  1.00  0.00    -0.504 OA
ATOM     18  H   UNL     1      30.782  10.824  68.214  1.00  0.00     0.293 HD
ENDBRANCH  13  17
BRANCH  15  19
ATOM     19  O   UNL     1      28.666  10.386  66.922  1.00  0.00    -0.502 OA
ATOM     20  H   UNL     1      28.192  11.241  67.173  1.00  0.00     0.293 HD
ENDBRANCH  15  19
BRANCH  16  21
ATOM     21  O   UNL     1      27.843   9.646  64.224  1.00  0.00    -0.504 OA
ATOM     22  H   UNL     1      27.178   9.200  64.840  1.00  0.00     0.293 HD
ENDBRANCH  16  21
ENDBRANCH   1  11
BRANCH  10  23
ATOM     23  O   UNL     1      31.719   7.762  62.001  1.00  0.00    -0.500 OA
ATOM     24  H   UNL     1      31.624   7.265  62.879  1.00  0.00     0.294 HD
ENDBRANCH  10  23
BRANCH   5  25
ATOM     25  O   UNL     1      37.081  13.208  60.653  1.00  0.00    -0.507 OA
ATOM     26  H   UNL     1      36.917  13.995  60.036  1.00  0.00     0.293 HD
ENDBRANCH   5  25
BRANCH   7  27
ATOM     27  O   UNL     1      35.683   8.982  58.811  1.00  0.00    -0.507 OA
ATOM     28  H   UNL     1      36.532   8.865  58.278  1.00  0.00     0.293 HD
ENDBRANCH   7  27
TORSDOF 7
ENDMDL
MODEL 5
REMARK VINA RESULT:    -6.701      4.725      8.181
REMARK INTER + INTRA:          -8.523
REMARK INTER:                  -8.144
REMARK INTRA:                  -0.379
REMARK UNBOUND:                -0.255
REMARK SMILES Oc1cc(O)c2cc(O)c(-c3cc(O)c(O)c(O)c3)[o+]c2c1.[Cl-]
REMARK SMILES IDX 10 1 20 2 21 3 22 4 2 5 3 6 4 7 6 8 7 9 8 10 11 11 12 12
REMARK SMILES IDX 13 13 19 14 15 15 17 16 14 17 16 19 18 21 9 23 1 25 5 27
REMARK H PARENT 14 18 16 20 18 22 9 24 1 26 5 28
REMARK Flexibility Score: inf
ROOT
ATOM      1  C   UNL     1      33.104  11.345  65.300  1.00  0.00     0.402 A 
ATOM      2  O   UNL     1      33.425  12.590  64.956  1.00  0.00    -0.202 OA
ATOM      3  C   UNL     1      34.633  13.109  65.143  1.00  0.00     0.368 A 
ATOM      4  C   UNL     1      34.876  14.427  64.745  1.00  0.00     0.162 A 
ATOM      5  C   UNL     1      36.135  14.998  64.926  1.00  0.00     0.128 A 
ATOM      6  C   UNL     1      37.164  14.248  65.506  1.00  0.00     0.093 A 
ATOM      7  C   UNL     1      36.947  12.925  65.913  1.00  0.00     0.136 A 
ATOM      8  C   UNL     1      35.665  12.342  65.733  1.00  0.00     0.125 A 
ATOM      9  C   UNL     1      35.354  11.029  66.123  1.00  0.00     0.078 A 
ATOM     10  C   UNL     1      34.066  10.524  65.918  1.00  0.00     0.223 A 
ENDROOT
BRANCH   1  11
ATOM     11  C   UNL     1      31.724  10.878  65.032  1.00  0.00     0.091 A 
ATOM     12  C   UNL     1      31.434  10.248  63.814  1.00  0.00     0.068 A 
ATOM     13  C   UNL     1      30.146   9.781  63.541  1.00  0.00     0.162 A 
ATOM     14  C   UNL     1      30.711  10.998  65.996  1.00  0.00     0.068 A 
ATOM     15  C   UNL     1      29.123   9.922  64.497  1.00  0.00     0.200 A 
ATOM     16  C   UNL     1      29.415  10.532  65.742  1.00  0.00     0.162 A 
BRANCH  13  17
ATOM     17  O   UNL     1      29.900   9.176  62.308  1.00  0.00    -0.504 OA
ATOM     18  H   UNL     1      29.854   8.170  62.199  1.00  0.00     0.293 HD
ENDBRANCH  13  17
BRANCH  15  19
ATOM     19  O   UNL     1      27.846   9.449  64.182  1.00  0.00    -0.502 OA
ATOM     20  H   UNL     1      27.664   8.560  63.741  1.00  0.00     0.293 HD
ENDBRANCH  15  19
BRANCH  16  21
ATOM     21  O   UNL     1      28.461  10.688  66.749  1.00  0.00    -0.504 OA
ATOM     22  H   UNL     1      27.894  11.514  66.870  1.00  0.00     0.293 HD
ENDBRANCH  16  21
ENDBRANCH   1  11
BRANCH  10  23
ATOM     23  O   UNL     1      33.742   9.238  66.348  1.00  0.00    -0.500 OA
ATOM     24  H   UNL     1      34.435   8.501  66.394  1.00  0.00     0.294 HD
ENDBRANCH  10  23
BRANCH   5  25
ATOM     25  O   UNL     1      36.356  16.313  64.523  1.00  0.00    -0.507 OA
ATOM     26  H   UNL     1      37.217  16.589  64.064  1.00  0.00     0.293 HD
ENDBRANCH   5  25
BRANCH   7  27
ATOM     27  O   UNL     1      38.025  12.241  66.482  1.00  0.00    -0.507 OA
ATOM     28  H   UNL     1      38.859  11.974  65.981  1.00  0.00     0.293 HD
ENDBRANCH   7  27
TORSDOF 7
ENDMDL
MODEL 6
REMARK VINA RESULT:    -6.676      7.358     10.379
REMARK INTER + INTRA:          -8.492
REMARK INTER:                  -8.239
REMARK INTRA:                  -0.254
REMARK UNBOUND:                -0.255
REMARK SMILES Oc1cc(O)c2cc(O)c(-c3cc(O)c(O)c(O)c3)[o+]c2c1.[Cl-]
REMARK SMILES IDX 10 1 20 2 21 3 22 4 2 5 3 6 4 7 6 8 7 9 8 10 11 11 12 12
REMARK SMILES IDX 13 13 19 14 15 15 17 16 14 17 16 19 18 21 9 23 1 25 5 27
REMARK H PARENT 14 18 16 20 18 22 9 24 1 26 5 28
REMARK Flexibility Score: inf
ROOT
ATOM      1  C   UNL     1      35.637  13.342  62.005  1.00  0.00     0.402 A 
ATOM      2  O   UNL     1      35.780  12.311  61.177  1.00  0.00    -0.202 OA
ATOM      3  C   UNL     1      34.973  11.256  61.180  1.00  0.00     0.368 A 
ATOM      4  C   UNL     1      35.201  10.222  60.268  1.00  0.00     0.162 A 
ATOM      5  C   UNL     1      34.369   9.103  60.246  1.00  0.00     0.128 A 
ATOM      6  C   UNL     1      33.295   9.016  61.140  1.00  0.00     0.093 A 
ATOM      7  C   UNL     1      33.044  10.039  62.063  1.00  0.00     0.136 A 
ATOM      8  C   UNL     1      33.892  11.177  62.091  1.00  0.00     0.125 A 
ATOM      9  C   UNL     1      33.724  12.242  62.990  1.00  0.00     0.078 A 
ATOM     10  C   UNL     1      34.603  13.329  62.960  1.00  0.00     0.223 A 
ENDROOT
BRANCH   1  11
ATOM     11  C   UNL     1      36.597  14.465  61.898  1.00  0.00     0.091 A 
ATOM     12  C   UNL     1      37.536  14.670  62.919  1.00  0.00     0.068 A 
ATOM     13  C   UNL     1      38.465  15.710  62.836  1.00  0.00     0.162 A 
ATOM     14  C   UNL     1      36.627  15.296  60.767  1.00  0.00     0.068 A 
ATOM     15  C   UNL     1      38.481  16.559  61.713  1.00  0.00     0.200 A 
ATOM     16  C   UNL     1      37.554  16.341  60.665  1.00  0.00     0.162 A 
BRANCH  13  17
ATOM     17  O   UNL     1      39.369  15.884  63.884  1.00  0.00    -0.504 OA
ATOM     18  H   UNL     1      39.254  15.426  64.780  1.00  0.00     0.293 HD
ENDBRANCH  13  17
BRANCH  15  19
ATOM     19  O   UNL     1      39.421  17.592  61.673  1.00  0.00    -0.502 OA
ATOM     20  H   UNL     1      39.707  18.130  62.478  1.00  0.00     0.293 HD
ENDBRANCH  15  19
BRANCH  16  21
ATOM     21  O   UNL     1      37.522  17.125  59.511  1.00  0.00    -0.504 OA
ATOM     22  H   UNL     1      37.119  18.050  59.464  1.00  0.00     0.293 HD
ENDBRANCH  16  21
ENDBRANCH   1  11
BRANCH  10  23
ATOM     23  O   UNL     1      34.467  14.365  63.884  1.00  0.00    -0.500 OA
ATOM     24  H   UNL     1      34.804  14.277  64.835  1.00  0.00     0.294 HD
ENDBRANCH  10  23
BRANCH   5  25
ATOM     25  O   UNL     1      34.614   8.083  59.329  1.00  0.00    -0.507 OA
ATOM     26  H   UNL     1      34.907   7.161  59.629  1.00  0.00     0.293 HD
ENDBRANCH   5  25
BRANCH   7  27
ATOM     27  O   UNL     1      31.952   9.878  62.921  1.00  0.00    -0.507 OA
ATOM     28  H   UNL     1      31.130   9.337  62.701  1.00  0.00     0.293 HD
ENDBRANCH   7  27
TORSDOF 7
ENDMDL
MODEL 7
REMARK VINA RESULT:    -6.576      4.695      9.587
REMARK INTER + INTRA:          -8.369
REMARK INTER:                  -8.000
REMARK INTRA:                  -0.369
REMARK UNBOUND:                -0.255
REMARK SMILES Oc1cc(O)c2cc(O)c(-c3cc(O)c(O)c(O)c3)[o+]c2c1.[Cl-]
REMARK SMILES IDX 10 1 20 2 21 3 22 4 2 5 3 6 4 7 6 8 7 9 8 10 11 11 12 12
REMARK SMILES IDX 13 13 19 14 15 15 17 16 14 17 16 19 18 21 9 23 1 25 5 27
REMARK H PARENT 14 18 16 20 18 22 9 24 1 26 5 28
REMARK Flexibility Score: inf
ROOT
ATOM      1  C   UNL     1      32.551  10.049  62.561  1.00  0.00     0.402 A 
ATOM      2  O   UNL     1      33.390   9.029  62.730  1.00  0.00    -0.202 OA
ATOM      3  C   UNL     1      34.364   8.738  61.875  1.00  0.00     0.368 A 
ATOM      4  C   UNL     1      35.198   7.647  62.140  1.00  0.00     0.162 A 
ATOM      5  C   UNL     1      36.231   7.320  61.263  1.00  0.00     0.128 A 
ATOM      6  C   UNL     1      36.438   8.088  60.111  1.00  0.00     0.093 A 
ATOM      7  C   UNL     1      35.617   9.187  59.823  1.00  0.00     0.136 A 
ATOM      8  C   UNL     1      34.563   9.521  60.712  1.00  0.00     0.125 A 
ATOM      9  C   UNL     1      33.684  10.595  60.498  1.00  0.00     0.078 A 
ATOM     10  C   UNL     1      32.664  10.860  61.417  1.00  0.00     0.223 A 
ENDROOT
BRANCH   1  11
ATOM     11  C   UNL     1      31.510  10.277  63.589  1.00  0.00     0.091 A 
ATOM     12  C   UNL     1      30.237   9.718  63.417  1.00  0.00     0.068 A 
ATOM     13  C   UNL     1      29.240   9.902  64.380  1.00  0.00     0.162 A 
ATOM     14  C   UNL     1      31.788  10.992  64.765  1.00  0.00     0.068 A 
ATOM     15  C   UNL     1      29.510  10.639  65.547  1.00  0.00     0.200 A 
ATOM     16  C   UNL     1      30.803  11.183  65.742  1.00  0.00     0.162 A 
BRANCH  13  17
ATOM     17  O   UNL     1      27.983   9.341  64.156  1.00  0.00    -0.504 OA
ATOM     18  H   UNL     1      27.865   8.386  63.838  1.00  0.00     0.293 HD
ENDBRANCH  13  17
BRANCH  15  19
ATOM     19  O   UNL     1      28.484  10.806  66.481  1.00  0.00    -0.502 OA
ATOM     20  H   UNL     1      28.341  10.207  67.280  1.00  0.00     0.293 HD
ENDBRANCH  15  19
BRANCH  16  21
ATOM     21  O   UNL     1      31.154  11.906  66.884  1.00  0.00    -0.504 OA
ATOM     22  H   UNL     1      31.759  11.557  67.613  1.00  0.00     0.293 HD
ENDBRANCH  16  21
ENDBRANCH   1  11
BRANCH  10  23
ATOM     23  O   UNL     1      31.761  11.896  61.180  1.00  0.00    -0.500 OA
ATOM     24  H   UNL     1      30.917  12.003  61.729  1.00  0.00     0.294 HD
ENDBRANCH  10  23
BRANCH   5  25
ATOM     25  O   UNL     1      37.050   6.229  61.544  1.00  0.00    -0.507 OA
ATOM     26  H   UNL     1      38.006   6.351  61.857  1.00  0.00     0.293 HD
ENDBRANCH   5  25
BRANCH   7  27
ATOM     27  O   UNL     1      35.890   9.905  58.656  1.00  0.00    -0.507 OA
ATOM     28  H   UNL     1      36.335  10.810  58.634  1.00  0.00     0.293 HD
ENDBRANCH   7  27
TORSDOF 7
ENDMDL
MODEL 8
REMARK VINA RESULT:    -6.526      9.919     11.849
REMARK INTER + INTRA:          -8.307
REMARK INTER:                  -7.926
REMARK INTRA:                  -0.381
REMARK UNBOUND:                -0.255
REMARK SMILES Oc1cc(O)c2cc(O)c(-c3cc(O)c(O)c(O)c3)[o+]c2c1.[Cl-]
REMARK SMILES IDX 10 1 20 2 21 3 22 4 2 5 3 6 4 7 6 8 7 9 8 10 11 11 12 12
REMARK SMILES IDX 13 13 19 14 15 15 17 16 14 17 16 19 18 21 9 23 1 25 5 27
REMARK H PARENT 14 18 16 20 18 22 9 24 1 26 5 28
REMARK Flexibility Score: inf
ROOT
ATOM      1  C   UNL     1      38.002  14.768  62.703  1.00  0.00     0.402 A 
ATOM      2  O   UNL     1      37.442  15.850  62.168  1.00  0.00    -0.202 OA
ATOM      3  C   UNL     1      37.325  16.038  60.858  1.00  0.00     0.368 A 
ATOM      4  C   UNL     1      36.718  17.207  60.391  1.00  0.00     0.162 A 
ATOM      5  C   UNL     1      36.578  17.430  59.021  1.00  0.00     0.128 A 
ATOM      6  C   UNL     1      37.045  16.477  58.108  1.00  0.00     0.093 A 
ATOM      7  C   UNL     1      37.655  15.297  58.551  1.00  0.00     0.136 A 
ATOM      8  C   UNL     1      37.803  15.068  59.944  1.00  0.00     0.125 A 
ATOM      9  C   UNL     1      38.413  13.922  60.477  1.00  0.00     0.078 A 
ATOM     10  C   UNL     1      38.526  13.768  61.863  1.00  0.00     0.223 A 
ENDROOT
BRANCH   1  11
ATOM     11  C   UNL     1      38.066  14.670  64.179  1.00  0.00     0.091 A 
ATOM     12  C   UNL     1      39.178  15.188  64.857  1.00  0.00     0.068 A 
ATOM     13  C   UNL     1      39.257  15.126  66.251  1.00  0.00     0.162 A 
ATOM     14  C   UNL     1      37.010  14.120  64.923  1.00  0.00     0.068 A 
ATOM     15  C   UNL     1      38.209  14.554  66.996  1.00  0.00     0.200 A 
ATOM     16  C   UNL     1      37.070  14.053  66.320  1.00  0.00     0.162 A 
BRANCH  13  17
ATOM     17  O   UNL     1      40.391  15.640  66.880  1.00  0.00    -0.504 OA
ATOM     18  H   UNL     1      41.329  15.442  66.553  1.00  0.00     0.293 HD
ENDBRANCH  13  17
BRANCH  15  19
ATOM     19  O   UNL     1      38.331  14.503  68.387  1.00  0.00    -0.502 OA
ATOM     20  H   UNL     1      39.202  14.620  68.885  1.00  0.00     0.293 HD
ENDBRANCH  15  19
BRANCH  16  21
ATOM     21  O   UNL     1      35.981  13.492  66.990  1.00  0.00    -0.504 OA
ATOM     22  H   UNL     1      35.701  13.742  67.927  1.00  0.00     0.293 HD
ENDBRANCH  16  21
ENDBRANCH   1  11
BRANCH  10  23
ATOM     23  O   UNL     1      39.176  12.653  62.392  1.00  0.00    -0.500 OA
ATOM     24  H   UNL     1      39.960  12.219  61.920  1.00  0.00     0.294 HD
ENDBRANCH  10  23
BRANCH   5  25
ATOM     25  O   UNL     1      35.971  18.602  58.576  1.00  0.00    -0.507 OA
ATOM     26  H   UNL     1      35.756  19.362  59.211  1.00  0.00     0.293 HD
ENDBRANCH   5  25
BRANCH   7  27
ATOM     27  O   UNL     1      38.092  14.394  57.578  1.00  0.00    -0.507 OA
ATOM     28  H   UNL     1      38.966  14.472  57.080  1.00  0.00     0.293 HD
ENDBRANCH   7  27
TORSDOF 7
ENDMDL
MODEL 9
REMARK VINA RESULT:    -6.519      4.883      8.037
REMARK INTER + INTRA:          -8.299
REMARK INTER:                  -7.922
REMARK INTRA:                  -0.377
REMARK UNBOUND:                -0.255
REMARK SMILES Oc1cc(O)c2cc(O)c(-c3cc(O)c(O)c(O)c3)[o+]c2c1.[Cl-]
REMARK SMILES IDX 10 1 20 2 21 3 22 4 2 5 3 6 4 7 6 8 7 9 8 10 11 11 12 12
REMARK SMILES IDX 13 13 19 14 15 15 17 16 14 17 16 19 18 21 9 23 1 25 5 27
REMARK H PARENT 14 18 16 20 18 22 9 24 1 26 5 28
REMARK Flexibility Score: inf
ROOT
ATOM      1  C   UNL     1      33.068   9.702  61.768  1.00  0.00     0.402 A 
ATOM      2  O   UNL     1      33.001  10.346  62.930  1.00  0.00    -0.202 OA
ATOM      3  C   UNL     1      31.892  10.422  63.658  1.00  0.00     0.368 A 
ATOM      4  C   UNL     1      31.920  11.119  64.870  1.00  0.00     0.162 A 
ATOM      5  C   UNL     1      30.773  11.213  65.657  1.00  0.00     0.128 A 
ATOM      6  C   UNL     1      29.586  10.603  65.234  1.00  0.00     0.093 A 
ATOM      7  C   UNL     1      29.532   9.898  64.024  1.00  0.00     0.136 A 
ATOM      8  C   UNL     1      30.697   9.804  63.220  1.00  0.00     0.125 A 
ATOM      9  C   UNL     1      30.731   9.130  61.988  1.00  0.00     0.078 A 
ATOM     10  C   UNL     1      31.916   9.083  61.248  1.00  0.00     0.223 A 
ENDROOT
BRANCH   1  11
ATOM     11  C   UNL     1      34.365   9.681  61.053  1.00  0.00     0.091 A 
ATOM     12  C   UNL     1      35.225   8.586  61.216  1.00  0.00     0.068 A 
ATOM     13  C   UNL     1      36.446   8.531  60.540  1.00  0.00     0.162 A 
ATOM     14  C   UNL     1      34.729  10.708  60.168  1.00  0.00     0.068 A 
ATOM     15  C   UNL     1      36.823   9.571  59.670  1.00  0.00     0.200 A 
ATOM     16  C   UNL     1      35.947  10.668  59.478  1.00  0.00     0.162 A 
BRANCH  13  17
ATOM     17  O   UNL     1      37.276   7.429  60.746  1.00  0.00    -0.504 OA
ATOM     18  H   UNL     1      38.108   7.478  61.323  1.00  0.00     0.293 HD
ENDBRANCH  13  17
BRANCH  15  19
ATOM     19  O   UNL     1      38.057   9.481  59.020  1.00  0.00    -0.502 OA
ATOM     20  H   UNL     1      38.950   9.564  59.483  1.00  0.00     0.293 HD
ENDBRANCH  15  19
BRANCH  16  21
ATOM     21  O   UNL     1      36.240  11.726  58.616  1.00  0.00    -0.504 OA
ATOM     22  H   UNL     1      37.175  12.039  58.400  1.00  0.00     0.293 HD
ENDBRANCH  16  21
ENDBRANCH   1  11
BRANCH  10  23
ATOM     23  O   UNL     1      31.939   8.456  60.002  1.00  0.00    -0.500 OA
ATOM     24  H   UNL     1      32.760   8.479  59.409  1.00  0.00     0.294 HD
ENDBRANCH  10  23
BRANCH   5  25
ATOM     25  O   UNL     1      30.822  11.912  66.860  1.00  0.00    -0.507 OA
ATOM     26  H   UNL     1      31.131  12.876  66.900  1.00  0.00     0.293 HD
ENDBRANCH   5  25
BRANCH   7  27
ATOM     27  O   UNL     1      28.311   9.316  63.673  1.00  0.00    -0.507 OA
ATOM     28  H   UNL     1      28.075   9.002  62.744  1.00  0.00     0.293 HD
ENDBRANCH   7  27
TORSDOF 7
ENDMDL
