MODEL 1
REMARK VINA RESULT:    -5.359      0.000      0.000
REMARK INTER + INTRA:          -6.185
REMARK INTER:                  -5.986
REMARK INTRA:                  -0.199
REMARK UNBOUND:                -0.199
REMARK SMILES CC(C)c1ccc(C(=O)[O-])cc1
REMARK SMILES IDX 7 1 6 2 11 3 5 4 12 5 4 6 8 7 9 8 10 9 2 10 1 11 3 12
REMARK H PARENT
REMARK Flexibility Score: inf
ROOT
ATOM      1  C   UNL     1      98.875  90.550  89.905  1.00  0.00    -0.003 A 
ATOM      2  C   UNL     1      98.623  91.793  89.301  1.00  0.00     0.010 A 
ATOM      3  C   UNL     1      99.572  89.569  89.178  1.00  0.00     0.010 A 
ATOM      4  C   UNL     1      99.058  92.050  87.998  1.00  0.00     0.004 A 
ATOM      5  C   UNL     1     100.007  89.827  87.875  1.00  0.00     0.004 A 
ATOM      6  C   UNL     1      99.755  91.072  87.270  1.00  0.00    -0.045 A 
ENDROOT
BRANCH   1   7
ATOM      7  C   UNL     1      98.413  90.281  91.284  1.00  0.00     0.071 C 
ATOM      8  O   UNL     1      97.214  89.966  91.508  1.00  0.00    -0.545 OA
ATOM      9  O   UNL     1      99.297  90.371  92.354  1.00  0.00    -0.545 OA
ENDBRANCH   1   7
BRANCH   6  10
ATOM     10  C   UNL     1     100.221  91.365  85.856  1.00  0.00     0.013 C 
ATOM     11  C   UNL     1     101.735  91.601  85.811  1.00  0.00     0.012 C 
ATOM     12  C   UNL     1      99.808  90.245  84.894  1.00  0.00     0.012 C 
ENDBRANCH   6  10
TORSDOF 2
ENDMDL
MODEL 2
REMARK VINA RESULT:    -5.060      1.091      2.160
REMARK INTER + INTRA:          -5.851
REMARK INTER:                  -5.641
REMARK INTRA:                  -0.209
REMARK UNBOUND:                -0.199
REMARK SMILES CC(C)c1ccc(C(=O)[O-])cc1
REMARK SMILES IDX 7 1 6 2 11 3 5 4 12 5 4 6 8 7 9 8 10 9 2 10 1 11 3 12
REMARK H PARENT
REMARK Flexibility Score: inf
ROOT
ATOM      1  C   UNL     1      99.604  90.066  90.549  1.00  0.00    -0.003 A 
ATOM      2  C   UNL     1     100.111  89.055  89.716  1.00  0.00     0.010 A 
ATOM      3  C   UNL     1      99.176  91.274  89.971  1.00  0.00     0.010 A 
ATOM      4  C   UNL     1     100.188  89.247  88.333  1.00  0.00     0.004 A 
ATOM      5  C   UNL     1      99.252  91.465  88.589  1.00  0.00     0.004 A 
ATOM      6  C   UNL     1      99.759  90.453  87.753  1.00  0.00    -0.045 A 
ENDROOT
BRANCH   1   7
ATOM      7  C   UNL     1      99.526  89.860  92.012  1.00  0.00     0.071 C 
ATOM      8  O   UNL     1     100.242  88.991  92.576  1.00  0.00    -0.545 OA
ATOM      9  O   UNL     1      98.659  90.624  92.786  1.00  0.00    -0.545 OA
ENDBRANCH   1   7
BRANCH   6  10
ATOM     10  C   UNL     1      99.849  90.648  86.252  1.00  0.00     0.013 C 
ATOM     11  C   UNL     1      98.719  91.550  85.742  1.00  0.00     0.012 C 
ATOM     12  C   UNL     1     101.221  91.200  85.846  1.00  0.00     0.012 C 
ENDBRANCH   6  10
TORSDOF 2
ENDMDL
MODEL 3
REMARK VINA RESULT:    -4.976      2.940      4.931
REMARK INTER + INTRA:          -5.757
REMARK INTER:                  -5.549
REMARK INTRA:                  -0.209
REMARK UNBOUND:                -0.199
REMARK SMILES CC(C)c1ccc(C(=O)[O-])cc1
REMARK SMILES IDX 7 1 6 2 11 3 5 4 12 5 4 6 8 7 9 8 10 9 2 10 1 11 3 12
REMARK H PARENT
REMARK Flexibility Score: inf
ROOT
ATOM      1  C   UNL     1      99.623  90.866  87.720  1.00  0.00    -0.003 A 
ATOM      2  C   UNL     1      99.172  91.701  88.756  1.00  0.00     0.010 A 
ATOM      3  C   UNL     1     100.052  89.564  88.033  1.00  0.00     0.010 A 
ATOM      4  C   UNL     1      99.150  91.245  90.077  1.00  0.00     0.004 A 
ATOM      5  C   UNL     1     100.029  89.108  89.354  1.00  0.00     0.004 A 
ATOM      6  C   UNL     1      99.577  89.943  90.392  1.00  0.00    -0.045 A 
ENDROOT
BRANCH   1   7
ATOM      7  C   UNL     1      99.646  91.353  86.323  1.00  0.00     0.071 C 
ATOM      8  O   UNL     1      98.579  91.688  85.744  1.00  0.00    -0.545 OA
ATOM      9  O   UNL     1     100.848  91.449  85.631  1.00  0.00    -0.545 OA
ENDBRANCH   1   7
BRANCH   6  10
ATOM     10  C   UNL     1      99.548  89.462  91.830  1.00  0.00     0.013 C 
ATOM     11  C   UNL     1     100.966  89.234  92.366  1.00  0.00     0.012 C 
ATOM     12  C   UNL     1      98.770  90.436  92.724  1.00  0.00     0.012 C 
ENDBRANCH   6  10
TORSDOF 2
ENDMDL
MODEL 4
REMARK VINA RESULT:    -4.853      2.915      4.896
REMARK INTER + INTRA:          -5.620
REMARK INTER:                  -5.404
REMARK INTRA:                  -0.215
REMARK UNBOUND:                -0.199
REMARK SMILES CC(C)c1ccc(C(=O)[O-])cc1
REMARK SMILES IDX 7 1 6 2 11 3 5 4 12 5 4 6 8 7 9 8 10 9 2 10 1 11 3 12
REMARK H PARENT
REMARK Flexibility Score: inf
ROOT
ATOM      1  C   UNL     1      99.299  90.964  88.357  1.00  0.00    -0.003 A 
ATOM      2  C   UNL     1      99.941  89.750  88.060  1.00  0.00     0.010 A 
ATOM      3  C   UNL     1      99.005  91.269  89.698  1.00  0.00     0.010 A 
ATOM      4  C   UNL     1     100.282  88.859  89.083  1.00  0.00     0.004 A 
ATOM      5  C   UNL     1      99.347  90.379  90.719  1.00  0.00     0.004 A 
ATOM      6  C   UNL     1      99.990  89.163  90.423  1.00  0.00    -0.045 A 
ENDROOT
BRANCH   1   7
ATOM      7  C   UNL     1      98.939  91.904  87.273  1.00  0.00     0.071 C 
ATOM      8  O   UNL     1      97.843  92.524  87.300  1.00  0.00    -0.545 OA
ATOM      9  O   UNL     1      99.808  92.117  86.208  1.00  0.00    -0.545 OA
ENDBRANCH   1   7
BRANCH   6  10
ATOM     10  C   UNL     1     100.365  88.187  91.522  1.00  0.00     0.013 C 
ATOM     11  C   UNL     1     101.171  87.007  90.962  1.00  0.00     0.012 C 
ATOM     12  C   UNL     1     101.129  88.890  92.650  1.00  0.00     0.012 C 
ENDBRANCH   6  10
TORSDOF 2
ENDMDL
MODEL 5
REMARK VINA RESULT:    -4.681      2.195      3.243
REMARK INTER + INTRA:          -5.427
REMARK INTER:                  -5.215
REMARK INTRA:                  -0.213
REMARK UNBOUND:                -0.199
REMARK SMILES CC(C)c1ccc(C(=O)[O-])cc1
REMARK SMILES IDX 7 1 6 2 11 3 5 4 12 5 4 6 8 7 9 8 10 9 2 10 1 11 3 12
REMARK H PARENT
REMARK Flexibility Score: inf
ROOT
ATOM      1  C   UNL     1     100.371  88.546  91.008  1.00  0.00    -0.003 A 
ATOM      2  C   UNL     1     100.595  88.360  89.634  1.00  0.00     0.010 A 
ATOM      3  C   UNL     1      99.670  89.687  91.435  1.00  0.00     0.010 A 
ATOM      4  C   UNL     1     100.127  89.295  88.705  1.00  0.00     0.004 A 
ATOM      5  C   UNL     1      99.202  90.621  90.507  1.00  0.00     0.004 A 
ATOM      6  C   UNL     1      99.425  90.436  89.130  1.00  0.00    -0.045 A 
ENDROOT
BRANCH   1   7
ATOM      7  C   UNL     1     100.868  87.555  91.987  1.00  0.00     0.071 C 
ATOM      8  O   UNL     1     100.084  87.030  92.821  1.00  0.00    -0.545 OA
ATOM      9  O   UNL     1     102.210  87.188  91.999  1.00  0.00    -0.545 OA
ENDBRANCH   1   7
BRANCH   6  10
ATOM     10  C   UNL     1      98.923  91.441  88.112  1.00  0.00     0.013 C 
ATOM     11  C   UNL     1      99.372  92.863  88.471  1.00  0.00     0.012 C 
ATOM     12  C   UNL     1      99.370  91.064  86.694  1.00  0.00     0.012 C 
ENDBRANCH   6  10
TORSDOF 2
ENDMDL
MODEL 6
REMARK VINA RESULT:    -4.627     12.212     13.333
REMARK INTER + INTRA:          -5.368
REMARK INTER:                  -5.165
REMARK INTRA:                  -0.203
REMARK UNBOUND:                -0.199
REMARK SMILES CC(C)c1ccc(C(=O)[O-])cc1
REMARK SMILES IDX 7 1 6 2 11 3 5 4 12 5 4 6 8 7 9 8 10 9 2 10 1 11 3 12
REMARK H PARENT
REMARK Flexibility Score: inf
ROOT
ATOM      1  C   UNL     1     106.232  98.649  96.167  1.00  0.00    -0.003 A 
ATOM      2  C   UNL     1     105.466  99.451  97.029  1.00  0.00     0.010 A 
ATOM      3  C   UNL     1     105.945  97.276  96.079  1.00  0.00     0.010 A 
ATOM      4  C   UNL     1     104.433  98.892  97.788  1.00  0.00     0.004 A 
ATOM      5  C   UNL     1     104.912  96.718  96.837  1.00  0.00     0.004 A 
ATOM      6  C   UNL     1     104.143  97.520  97.700  1.00  0.00    -0.045 A 
ENDROOT
BRANCH   1   7
ATOM      7  C   UNL     1     107.325  99.245  95.367  1.00  0.00     0.071 C 
ATOM      8  O   UNL     1     108.509  99.242  95.798  1.00  0.00    -0.545 OA
ATOM      9  O   UNL     1     107.060  99.814  94.126  1.00  0.00    -0.545 OA
ENDBRANCH   1   7
BRANCH   6  10
ATOM     10  C   UNL     1     103.020  96.927  98.529  1.00  0.00     0.013 C 
ATOM     11  C   UNL     1     101.656  97.181  97.875  1.00  0.00     0.012 C 
ATOM     12  C   UNL     1     103.243  95.430  98.775  1.00  0.00     0.012 C 
ENDBRANCH   6  10
TORSDOF 2
ENDMDL
MODEL 7
REMARK VINA RESULT:    -4.627     12.199     13.353
REMARK INTER + INTRA:          -5.367
REMARK INTER:                  -5.163
REMARK INTRA:                  -0.204
REMARK UNBOUND:                -0.199
REMARK SMILES CC(C)c1ccc(C(=O)[O-])cc1
REMARK SMILES IDX 7 1 6 2 11 3 5 4 12 5 4 6 8 7 9 8 10 9 2 10 1 11 3 12
REMARK H PARENT
REMARK Flexibility Score: inf
ROOT
ATOM      1  C   UNL     1     106.163  98.645  96.141  1.00  0.00    -0.003 A 
ATOM      2  C   UNL     1     105.911  97.264  96.110  1.00  0.00     0.010 A 
ATOM      3  C   UNL     1     105.372  99.464  96.967  1.00  0.00     0.010 A 
ATOM      4  C   UNL     1     104.889  96.712  96.889  1.00  0.00     0.004 A 
ATOM      5  C   UNL     1     104.352  98.912  97.745  1.00  0.00     0.004 A 
ATOM      6  C   UNL     1     104.098  97.528  97.715  1.00  0.00    -0.045 A 
ENDROOT
BRANCH   1   7
ATOM      7  C   UNL     1     107.245  99.226  95.315  1.00  0.00     0.071 C 
ATOM      8  O   UNL     1     106.993  99.716  94.182  1.00  0.00    -0.545 OA
ATOM      9  O   UNL     1     108.555  99.241  95.780  1.00  0.00    -0.545 OA
ENDBRANCH   1   7
BRANCH   6  10
ATOM     10  C   UNL     1     102.993  96.915  98.554  1.00  0.00     0.013 C 
ATOM     11  C   UNL     1     101.621  97.133  97.905  1.00  0.00     0.012 C 
ATOM     12  C   UNL     1     103.252  95.425  98.807  1.00  0.00     0.012 C 
ENDBRANCH   6  10
TORSDOF 2
ENDMDL
MODEL 8
REMARK VINA RESULT:    -4.568     11.125     12.308
REMARK INTER + INTRA:          -5.302
REMARK INTER:                  -5.101
REMARK INTRA:                  -0.200
REMARK UNBOUND:                -0.199
REMARK SMILES CC(C)c1ccc(C(=O)[O-])cc1
REMARK SMILES IDX 7 1 6 2 11 3 5 4 12 5 4 6 8 7 9 8 10 9 2 10 1 11 3 12
REMARK H PARENT
REMARK Flexibility Score: inf
ROOT
ATOM      1  C   UNL     1     104.539  97.661  96.019  1.00  0.00    -0.003 A 
ATOM      2  C   UNL     1     104.569  96.970  97.242  1.00  0.00     0.010 A 
ATOM      3  C   UNL     1     103.324  98.216  95.580  1.00  0.00     0.010 A 
ATOM      4  C   UNL     1     103.408  96.836  98.010  1.00  0.00     0.004 A 
ATOM      5  C   UNL     1     102.165  98.082  96.348  1.00  0.00     0.004 A 
ATOM      6  C   UNL     1     102.193  97.391  97.573  1.00  0.00    -0.045 A 
ENDROOT
BRANCH   1   7
ATOM      7  C   UNL     1     105.769  97.800  95.209  1.00  0.00     0.071 C 
ATOM      8  O   UNL     1     105.984  97.032  94.234  1.00  0.00    -0.545 OA
ATOM      9  O   UNL     1     106.705  98.783  95.512  1.00  0.00    -0.545 OA
ENDBRANCH   1   7
BRANCH   6  10
ATOM     10  C   UNL     1     100.942  97.237  98.416  1.00  0.00     0.013 C 
ATOM     11  C   UNL     1     100.169  98.558  98.504  1.00  0.00     0.012 C 
ATOM     12  C   UNL     1     100.049  96.110  97.883  1.00  0.00     0.012 C 
ENDBRANCH   6  10
TORSDOF 2
ENDMDL
MODEL 9
REMARK VINA RESULT:    -4.495     10.937     11.738
REMARK INTER + INTRA:          -5.219
REMARK INTER:                  -5.019
REMARK INTRA:                  -0.201
REMARK UNBOUND:                -0.199
REMARK SMILES CC(C)c1ccc(C(=O)[O-])cc1
REMARK SMILES IDX 7 1 6 2 11 3 5 4 12 5 4 6 8 7 9 8 10 9 2 10 1 11 3 12
REMARK H PARENT
REMARK Flexibility Score: inf
ROOT
ATOM      1  C   UNL     1     101.391  97.100  97.767  1.00  0.00    -0.003 A 
ATOM      2  C   UNL     1     102.411  96.436  98.469  1.00  0.00     0.010 A 
ATOM      3  C   UNL     1     101.733  97.896  96.660  1.00  0.00     0.010 A 
ATOM      4  C   UNL     1     103.745  96.565  98.072  1.00  0.00     0.004 A 
ATOM      5  C   UNL     1     103.066  98.025  96.263  1.00  0.00     0.004 A 
ATOM      6  C   UNL     1     104.089  97.360  96.965  1.00  0.00    -0.045 A 
ENDROOT
BRANCH   1   7
ATOM      7  C   UNL     1      99.980  96.961  98.190  1.00  0.00     0.071 C 
ATOM      8  O   UNL     1      99.361  97.939  98.687  1.00  0.00    -0.545 OA
ATOM      9  O   UNL     1      99.317  95.748  98.045  1.00  0.00    -0.545 OA
ENDBRANCH   1   7
BRANCH   6  10
ATOM     10  C   UNL     1     105.541  97.491  96.546  1.00  0.00     0.013 C 
ATOM     11  C   UNL     1     105.700  97.295  95.034  1.00  0.00     0.012 C 
ATOM     12  C   UNL     1     106.126  98.837  96.992  1.00  0.00     0.012 C 
ENDBRANCH   6  10
TORSDOF 2
ENDMDL
