MODEL 1
REMARK VINA RESULT:    -3.313      0.000      0.000
REMARK INTER + INTRA:         -14.344
REMARK INTER:                  -8.736
REMARK INTRA:                  -5.607
REMARK UNBOUND:                -5.607
REMARK SMILES CCCCCCCCCCCCCCCCCCCCCCCCCCCCCC(=O)[O-]
REMARK SMILES IDX 16 1 17 2 18 3 19 4 20 5 21 6 22 7 23 8 24 9 25 10 26 11
REMARK SMILES IDX 27 12 28 13 29 14 30 15 31 16 32 17 15 18 14 19 13 20 12 21
REMARK SMILES IDX 11 22 10 23 9 24 8 25 7 26 6 27 5 28 4 29 3 30 2 31 1 32
REMARK H PARENT
REMARK Flexibility Score: inf
ROOT
ATOM      1  C   UNL     1      -6.794   5.325  -6.772  1.00  0.00     0.000 C 
ENDROOT
BRANCH   1   2
ATOM      2  C   UNL     1      -6.196   5.860  -8.079  1.00  0.00     0.000 C 
BRANCH   2   3
ATOM      3  C   UNL     1      -5.146   6.948  -7.804  1.00  0.00     0.000 C 
BRANCH   3   4
ATOM      4  C   UNL     1      -5.683   8.367  -8.055  1.00  0.00     0.000 C 
BRANCH   4   5
ATOM      5  C   UNL     1      -5.929   9.201  -6.782  1.00  0.00     0.000 C 
BRANCH   5   6
ATOM      6  C   UNL     1      -7.408   9.340  -6.365  1.00  0.00     0.000 C 
BRANCH   6   7
ATOM      7  C   UNL     1      -8.426   8.777  -7.375  1.00  0.00     0.000 C 
BRANCH   7   8
ATOM      8  C   UNL     1      -9.435   7.769  -6.793  1.00  0.00     0.000 C 
BRANCH   8   9
ATOM      9  C   UNL     1      -9.592   7.853  -5.259  1.00  0.00     0.000 C 
BRANCH   9  10
ATOM     10  C   UNL     1      -9.457   6.482  -4.574  1.00  0.00     0.000 C 
BRANCH  10  11
ATOM     11  C   UNL     1      -9.040   6.595  -3.096  1.00  0.00     0.000 C 
BRANCH  11  12
ATOM     12  C   UNL     1      -8.013   7.705  -2.787  1.00  0.00     0.000 C 
BRANCH  12  13
ATOM     13  C   UNL     1      -6.847   7.284  -1.870  1.00  0.00     0.006 C 
BRANCH  13  14
ATOM     14  C   UNL     1      -6.579   8.248  -0.703  1.00  0.00     0.053 C 
BRANCH  14  15
ATOM     15  C   UNL     1      -6.695   7.565   0.624  1.00  0.00     0.041 C 
ATOM     16  O   UNL     1      -6.627   6.309   0.702  1.00  0.00    -0.550 OA
ATOM     17  O   UNL     1      -6.841   8.320   1.784  1.00  0.00    -0.550 OA
ENDBRANCH  14  15
ENDBRANCH  13  14
ENDBRANCH  12  13
ENDBRANCH  11  12
ENDBRANCH  10  11
ENDBRANCH   9  10
ENDBRANCH   8   9
ENDBRANCH   7   8
ENDBRANCH   6   7
ENDBRANCH   5   6
ENDBRANCH   4   5
ENDBRANCH   3   4
ENDBRANCH   2   3
ENDBRANCH   1   2
BRANCH   1  18
ATOM     18  C   UNL     1      -5.995   5.824  -5.558  1.00  0.00     0.000 C 
BRANCH  18  19
ATOM     19  C   UNL     1      -5.984   4.815  -4.399  1.00  0.00     0.000 C 
BRANCH  19  20
ATOM     20  C   UNL     1      -5.879   3.357  -4.885  1.00  0.00     0.000 C 
BRANCH  20  21
ATOM     21  C   UNL     1      -6.777   2.397  -4.084  1.00  0.00     0.000 C 
BRANCH  21  22
ATOM     22  C   UNL     1      -7.828   3.088  -3.194  1.00  0.00     0.000 C 
BRANCH  22  23
ATOM     23  C   UNL     1      -9.280   2.922  -3.696  1.00  0.00     0.000 C 
BRANCH  23  24
ATOM     24  C   UNL     1      -9.393   2.166  -5.038  1.00  0.00    -0.000 C 
BRANCH  24  25
ATOM     25  C   UNL     1      -9.618   3.076  -6.263  1.00  0.00    -0.000 C 
BRANCH  25  26
ATOM     26  C   UNL     1      -9.266   2.413  -7.609  1.00  0.00    -0.000 C 
BRANCH  26  27
ATOM     27  C   UNL     1      -7.961   1.604  -7.544  1.00  0.00    -0.000 C 
BRANCH  27  28
ATOM     28  C   UNL     1      -6.959   2.097  -8.595  1.00  0.00    -0.000 C 
BRANCH  28  29
ATOM     29  C   UNL     1      -5.977   0.985  -8.990  1.00  0.00    -0.000 C 
BRANCH  29  30
ATOM     30  C   UNL     1      -5.867  -0.122  -7.924  1.00  0.00    -0.000 C 
BRANCH  30  31
ATOM     31  C   UNL     1      -5.811  -1.554  -8.485  1.00  0.00    -0.003 C 
ATOM     32  C   UNL     1      -5.752  -1.595 -10.012  1.00  0.00     0.004 C 
ENDBRANCH  30  31
ENDBRANCH  29  30
ENDBRANCH  28  29
ENDBRANCH  27  28
ENDBRANCH  26  27
ENDBRANCH  25  26
ENDBRANCH  24  25
ENDBRANCH  23  24
ENDBRANCH  22  23
ENDBRANCH  21  22
ENDBRANCH  20  21
ENDBRANCH  19  20
ENDBRANCH  18  19
ENDBRANCH   1  18
TORSDOF 28
ENDMDL
MODEL 2
REMARK VINA RESULT:    -2.532      4.043      9.709
REMARK INTER + INTRA:         -12.284
REMARK INTER:                  -8.792
REMARK INTRA:                  -3.492
REMARK UNBOUND:                -5.607
REMARK SMILES CCCCCCCCCCCCCCCCCCCCCCCCCCCCCC(=O)[O-]
REMARK SMILES IDX 16 1 17 2 18 3 19 4 20 5 21 6 22 7 23 8 24 9 25 10 26 11
REMARK SMILES IDX 27 12 28 13 29 14 30 15 31 16 32 17 15 18 14 19 13 20 12 21
REMARK SMILES IDX 11 22 10 23 9 24 8 25 7 26 6 27 5 28 4 29 3 30 2 31 1 32
REMARK H PARENT
REMARK Flexibility Score: inf
ROOT
ATOM      1  C   UNL     1      -6.675   2.943  -4.165  1.00  0.00     0.000 C 
ENDROOT
BRANCH   1   2
ATOM      2  C   UNL     1      -8.207   2.954  -4.081  1.00  0.00     0.000 C 
BRANCH   2   3
ATOM      3  C   UNL     1      -8.792   1.581  -4.443  1.00  0.00     0.000 C 
BRANCH   3   4
ATOM      4  C   UNL     1      -9.659   1.621  -5.712  1.00  0.00     0.000 C 
BRANCH   4   5
ATOM      5  C   UNL     1      -8.894   1.370  -7.027  1.00  0.00     0.000 C 
BRANCH   5   6
ATOM      6  C   UNL     1      -7.677   0.430  -6.909  1.00  0.00     0.000 C 
BRANCH   6   7
ATOM      7  C   UNL     1      -6.661   0.531  -8.063  1.00  0.00     0.000 C 
BRANCH   7   8
ATOM      8  C   UNL     1      -5.755  -0.702  -8.246  1.00  0.00     0.000 C 
BRANCH   8   9
ATOM      9  C   UNL     1      -6.452  -1.895  -8.935  1.00  0.00     0.000 C 
BRANCH   9  10
ATOM     10  C   UNL     1      -7.606  -1.457  -9.854  1.00  0.00     0.000 C 
BRANCH  10  11
ATOM     11  C   UNL     1      -8.743  -2.494  -9.915  1.00  0.00     0.000 C 
BRANCH  11  12
ATOM     12  C   UNL     1      -8.355  -3.919  -9.468  1.00  0.00     0.000 C 
BRANCH  12  13
ATOM     13  C   UNL     1      -9.066  -4.426  -8.197  1.00  0.00     0.006 C 
BRANCH  13  14
ATOM     14  C   UNL     1      -8.313  -5.540  -7.451  1.00  0.00     0.053 C 
BRANCH  14  15
ATOM     15  C   UNL     1      -8.906  -5.808  -6.102  1.00  0.00     0.041 C 
ATOM     16  O   UNL     1      -9.884  -5.129  -5.690  1.00  0.00    -0.550 OA
ATOM     17  O   UNL     1      -8.399  -6.836  -5.314  1.00  0.00    -0.550 OA
ENDBRANCH  14  15
ENDBRANCH  13  14
ENDBRANCH  12  13
ENDBRANCH  11  12
ENDBRANCH  10  11
ENDBRANCH   9  10
ENDBRANCH   8   9
ENDBRANCH   7   8
ENDBRANCH   6   7
ENDBRANCH   5   6
ENDBRANCH   4   5
ENDBRANCH   3   4
ENDBRANCH   2   3
ENDBRANCH   1   2
BRANCH   1  18
ATOM     18  C   UNL     1      -6.166   4.083  -5.061  1.00  0.00     0.000 C 
BRANCH  18  19
ATOM     19  C   UNL     1      -6.850   4.106  -6.438  1.00  0.00     0.000 C 
BRANCH  19  20
ATOM     20  C   UNL     1      -6.375   5.280  -7.315  1.00  0.00     0.000 C 
BRANCH  20  21
ATOM     21  C   UNL     1      -5.553   6.315  -6.527  1.00  0.00     0.000 C 
BRANCH  21  22
ATOM     22  C   UNL     1      -5.599   7.746  -7.098  1.00  0.00     0.000 C 
BRANCH  22  23
ATOM     23  C   UNL     1      -7.019   8.219  -7.485  1.00  0.00     0.000 C 
BRANCH  23  24
ATOM     24  C   UNL     1      -7.478   9.490  -6.737  1.00  0.00    -0.000 C 
BRANCH  24  25
ATOM     25  C   UNL     1      -8.542   9.237  -5.650  1.00  0.00    -0.000 C 
BRANCH  25  26
ATOM     26  C   UNL     1      -8.498   7.818  -5.049  1.00  0.00    -0.000 C 
BRANCH  26  27
ATOM     27  C   UNL     1      -8.268   7.828  -3.530  1.00  0.00    -0.000 C 
BRANCH  27  28
ATOM     28  C   UNL     1      -7.158   6.843  -3.139  1.00  0.00    -0.000 C 
BRANCH  28  29
ATOM     29  C   UNL     1      -7.566   6.005  -1.920  1.00  0.00    -0.000 C 
BRANCH  29  30
ATOM     30  C   UNL     1      -7.928   6.866  -0.695  1.00  0.00    -0.000 C 
BRANCH  30  31
ATOM     31  C   UNL     1      -6.763   7.123   0.278  1.00  0.00    -0.003 C 
ATOM     32  C   UNL     1      -6.004   8.414  -0.027  1.00  0.00     0.004 C 
ENDBRANCH  30  31
ENDBRANCH  29  30
ENDBRANCH  28  29
ENDBRANCH  27  28
ENDBRANCH  26  27
ENDBRANCH  25  26
ENDBRANCH  24  25
ENDBRANCH  23  24
ENDBRANCH  22  23
ENDBRANCH  21  22
ENDBRANCH  20  21
ENDBRANCH  19  20
ENDBRANCH  18  19
ENDBRANCH   1  18
TORSDOF 28
ENDMDL
MODEL 3
REMARK VINA RESULT:    -2.469      1.578      5.162
REMARK INTER + INTRA:         -12.119
REMARK INTER:                  -8.011
REMARK INTRA:                  -4.108
REMARK UNBOUND:                -5.607
REMARK SMILES CCCCCCCCCCCCCCCCCCCCCCCCCCCCCC(=O)[O-]
REMARK SMILES IDX 16 1 17 2 18 3 19 4 20 5 21 6 22 7 23 8 24 9 25 10 26 11
REMARK SMILES IDX 27 12 28 13 29 14 30 15 31 16 32 17 15 18 14 19 13 20 12 21
REMARK SMILES IDX 11 22 10 23 9 24 8 25 7 26 6 27 5 28 4 29 3 30 2 31 1 32
REMARK H PARENT
REMARK Flexibility Score: inf
ROOT
ATOM      1  C   UNL     1      -6.076   3.482  -4.888  1.00  0.00     0.000 C 
ENDROOT
BRANCH   1   2
ATOM      2  C   UNL     1      -6.939   4.225  -3.860  1.00  0.00     0.000 C 
BRANCH   2   3
ATOM      3  C   UNL     1      -7.998   3.294  -3.248  1.00  0.00     0.000 C 
BRANCH   3   4
ATOM      4  C   UNL     1      -8.474   3.765  -1.864  1.00  0.00     0.000 C 
BRANCH   4   5
ATOM      5  C   UNL     1      -8.247   5.262  -1.575  1.00  0.00     0.000 C 
BRANCH   5   6
ATOM      6  C   UNL     1      -9.510   6.144  -1.657  1.00  0.00     0.000 C 
BRANCH   6   7
ATOM      7  C   UNL     1     -10.061   6.365  -3.079  1.00  0.00     0.000 C 
BRANCH   7   8
ATOM      8  C   UNL     1      -9.701   7.720  -3.716  1.00  0.00     0.000 C 
BRANCH   8   9
ATOM      9  C   UNL     1      -8.202   8.081  -3.618  1.00  0.00     0.000 C 
BRANCH   9  10
ATOM     10  C   UNL     1      -7.967   9.471  -3.003  1.00  0.00     0.000 C 
BRANCH  10  11
ATOM     11  C   UNL     1      -8.696   9.657  -1.659  1.00  0.00     0.000 C 
BRANCH  11  12
ATOM     12  C   UNL     1      -7.793   9.596  -0.409  1.00  0.00     0.000 C 
BRANCH  12  13
ATOM     13  C   UNL     1      -6.509   8.757  -0.566  1.00  0.00     0.006 C 
BRANCH  13  14
ATOM     14  C   UNL     1      -6.389   7.590   0.427  1.00  0.00     0.053 C 
BRANCH  14  15
ATOM     15  C   UNL     1      -7.316   7.750   1.592  1.00  0.00     0.041 C 
ATOM     16  O   UNL     1      -8.433   7.166   1.603  1.00  0.00    -0.550 OA
ATOM     17  O   UNL     1      -6.929   8.517   2.686  1.00  0.00    -0.550 OA
ENDBRANCH  14  15
ENDBRANCH  13  14
ENDBRANCH  12  13
ENDBRANCH  11  12
ENDBRANCH  10  11
ENDBRANCH   9  10
ENDBRANCH   8   9
ENDBRANCH   7   8
ENDBRANCH   6   7
ENDBRANCH   5   6
ENDBRANCH   4   5
ENDBRANCH   3   4
ENDBRANCH   2   3
ENDBRANCH   1   2
BRANCH   1  18
ATOM     18  C   UNL     1      -6.379   1.976  -4.872  1.00  0.00     0.000 C 
BRANCH  18  19
ATOM     19  C   UNL     1      -7.207   1.525  -6.087  1.00  0.00     0.000 C 
BRANCH  19  20
ATOM     20  C   UNL     1      -6.418   0.592  -7.026  1.00  0.00     0.000 C 
BRANCH  20  21
ATOM     21  C   UNL     1      -7.317  -0.103  -8.065  1.00  0.00     0.000 C 
BRANCH  21  22
ATOM     22  C   UNL     1      -8.808   0.275  -7.984  1.00  0.00     0.000 C 
BRANCH  22  23
ATOM     23  C   UNL     1      -9.330   1.031  -9.227  1.00  0.00     0.000 C 
BRANCH  23  24
ATOM     24  C   UNL     1      -9.250   2.568  -9.101  1.00  0.00    -0.000 C 
BRANCH  24  25
ATOM     25  C   UNL     1      -8.108   3.214  -9.912  1.00  0.00    -0.000 C 
BRANCH  25  26
ATOM     26  C   UNL     1      -6.878   3.597  -9.065  1.00  0.00    -0.000 C 
BRANCH  26  27
ATOM     27  C   UNL     1      -7.146   4.802  -8.150  1.00  0.00    -0.000 C 
BRANCH  27  28
ATOM     28  C   UNL     1      -6.141   5.929  -8.423  1.00  0.00    -0.000 C 
BRANCH  28  29
ATOM     29  C   UNL     1      -5.452   6.382  -7.128  1.00  0.00    -0.000 C 
BRANCH  29  30
ATOM     30  C   UNL     1      -6.129   7.608  -6.488  1.00  0.00    -0.000 C 
BRANCH  30  31
ATOM     31  C   UNL     1      -6.539   8.710  -7.481  1.00  0.00    -0.003 C 
ATOM     32  C   UNL     1      -7.577   9.675  -6.908  1.00  0.00     0.004 C 
ENDBRANCH  30  31
ENDBRANCH  29  30
ENDBRANCH  28  29
ENDBRANCH  27  28
ENDBRANCH  26  27
ENDBRANCH  25  26
ENDBRANCH  24  25
ENDBRANCH  23  24
ENDBRANCH  22  23
ENDBRANCH  21  22
ENDBRANCH  20  21
ENDBRANCH  19  20
ENDBRANCH  18  19
ENDBRANCH   1  18
TORSDOF 28
ENDMDL
MODEL 4
REMARK VINA RESULT:    -2.009     17.726     21.574
REMARK INTER + INTRA:         -10.906
REMARK INTER:                  -9.950
REMARK INTRA:                  -0.956
REMARK UNBOUND:                -5.607
REMARK SMILES CCCCCCCCCCCCCCCCCCCCCCCCCCCCCC(=O)[O-]
REMARK SMILES IDX 16 1 17 2 18 3 19 4 20 5 21 6 22 7 23 8 24 9 25 10 26 11
REMARK SMILES IDX 27 12 28 13 29 14 30 15 31 16 32 17 15 18 14 19 13 20 12 21
REMARK SMILES IDX 11 22 10 23 9 24 8 25 7 26 6 27 5 28 4 29 3 30 2 31 1 32
REMARK H PARENT
REMARK Flexibility Score: inf
ROOT
ATOM      1  C   UNL     1       3.334  -0.675  10.123  1.00  0.00     0.000 C 
ENDROOT
BRANCH   1   2
ATOM      2  C   UNL     1       3.516  -1.959   9.304  1.00  0.00     0.000 C 
BRANCH   2   3
ATOM      3  C   UNL     1       3.069  -3.194  10.102  1.00  0.00     0.000 C 
BRANCH   3   4
ATOM      4  C   UNL     1       3.311  -4.510   9.344  1.00  0.00     0.000 C 
BRANCH   4   5
ATOM      5  C   UNL     1       2.077  -5.426   9.227  1.00  0.00     0.000 C 
BRANCH   5   6
ATOM      6  C   UNL     1       0.758  -4.820   9.748  1.00  0.00     0.000 C 
BRANCH   6   7
ATOM      7  C   UNL     1      -0.523  -5.493   9.218  1.00  0.00     0.000 C 
BRANCH   7   8
ATOM      8  C   UNL     1      -0.336  -6.346   7.949  1.00  0.00     0.000 C 
BRANCH   8   9
ATOM      9  C   UNL     1      -1.598  -7.129   7.527  1.00  0.00     0.000 C 
BRANCH   9  10
ATOM     10  C   UNL     1      -2.271  -7.849   8.709  1.00  0.00     0.000 C 
BRANCH  10  11
ATOM     11  C   UNL     1      -3.352  -8.849   8.258  1.00  0.00     0.000 C 
BRANCH  11  12
ATOM     12  C   UNL     1      -4.683  -8.215   7.802  1.00  0.00     0.000 C 
BRANCH  12  13
ATOM     13  C   UNL     1      -5.858  -9.200   7.637  1.00  0.00     0.006 C 
BRANCH  13  14
ATOM     14  C   UNL     1      -6.986  -9.020   8.666  1.00  0.00     0.053 C 
BRANCH  14  15
ATOM     15  C   UNL     1      -8.338  -9.053   8.024  1.00  0.00     0.041 C 
ATOM     16  O   UNL     1      -8.695 -10.051   7.344  1.00  0.00    -0.550 OA
ATOM     17  O   UNL     1      -9.220  -7.993   8.210  1.00  0.00    -0.550 OA
ENDBRANCH  14  15
ENDBRANCH  13  14
ENDBRANCH  12  13
ENDBRANCH  11  12
ENDBRANCH  10  11
ENDBRANCH   9  10
ENDBRANCH   8   9
ENDBRANCH   7   8
ENDBRANCH   6   7
ENDBRANCH   5   6
ENDBRANCH   4   5
ENDBRANCH   3   4
ENDBRANCH   2   3
ENDBRANCH   1   2
BRANCH   1  18
ATOM     18  C   UNL     1       4.380   0.380   9.729  1.00  0.00     0.000 C 
BRANCH  18  19
ATOM     19  C   UNL     1       5.651  -0.241   9.126  1.00  0.00     0.000 C 
BRANCH  19  20
ATOM     20  C   UNL     1       6.901   0.630   9.353  1.00  0.00     0.000 C 
BRANCH  20  21
ATOM     21  C   UNL     1       8.203  -0.079   8.941  1.00  0.00     0.000 C 
BRANCH  21  22
ATOM     22  C   UNL     1       8.795   0.389   7.598  1.00  0.00     0.000 C 
BRANCH  22  23
ATOM     23  C   UNL     1       9.653   1.670   7.704  1.00  0.00     0.000 C 
BRANCH  23  24
ATOM     24  C   UNL     1       9.194   2.637   8.817  1.00  0.00    -0.000 C 
BRANCH  24  25
ATOM     25  C   UNL     1      10.124   3.848   9.029  1.00  0.00    -0.000 C 
BRANCH  25  26
ATOM     26  C   UNL     1      10.106   4.863   7.869  1.00  0.00    -0.000 C 
BRANCH  26  27
ATOM     27  C   UNL     1      10.125   6.319   8.360  1.00  0.00    -0.000 C 
BRANCH  27  28
ATOM     28  C   UNL     1       9.000   6.569   9.373  1.00  0.00    -0.000 C 
BRANCH  28  29
ATOM     29  C   UNL     1       8.375   7.957   9.176  1.00  0.00    -0.000 C 
BRANCH  29  30
ATOM     30  C   UNL     1       7.589   8.077   7.857  1.00  0.00    -0.000 C 
BRANCH  30  31
ATOM     31  C   UNL     1       6.513   9.178   7.846  1.00  0.00    -0.003 C 
ATOM     32  C   UNL     1       5.581   9.091   6.637  1.00  0.00     0.004 C 
ENDBRANCH  30  31
ENDBRANCH  29  30
ENDBRANCH  28  29
ENDBRANCH  27  28
ENDBRANCH  26  27
ENDBRANCH  25  26
ENDBRANCH  24  25
ENDBRANCH  23  24
ENDBRANCH  22  23
ENDBRANCH  21  22
ENDBRANCH  20  21
ENDBRANCH  19  20
ENDBRANCH  18  19
ENDBRANCH   1  18
TORSDOF 28
ENDMDL
MODEL 5
REMARK VINA RESULT:    -1.806      4.381      9.212
REMARK INTER + INTRA:         -10.369
REMARK INTER:                  -6.740
REMARK INTRA:                  -3.630
REMARK UNBOUND:                -5.607
REMARK SMILES CCCCCCCCCCCCCCCCCCCCCCCCCCCCCC(=O)[O-]
REMARK SMILES IDX 16 1 17 2 18 3 19 4 20 5 21 6 22 7 23 8 24 9 25 10 26 11
REMARK SMILES IDX 27 12 28 13 29 14 30 15 31 16 32 17 15 18 14 19 13 20 12 21
REMARK SMILES IDX 11 22 10 23 9 24 8 25 7 26 6 27 5 28 4 29 3 30 2 31 1 32
REMARK H PARENT
REMARK Flexibility Score: inf
ROOT
ATOM      1  C   UNL     1      -6.747   2.935  -3.913  1.00  0.00     0.000 C 
ENDROOT
BRANCH   1   2
ATOM      2  C   UNL     1      -7.754   1.934  -4.494  1.00  0.00     0.000 C 
BRANCH   2   3
ATOM      3  C   UNL     1      -7.746   1.969  -6.030  1.00  0.00     0.000 C 
BRANCH   3   4
ATOM      4  C   UNL     1      -9.101   2.391  -6.621  1.00  0.00     0.000 C 
BRANCH   4   5
ATOM      5  C   UNL     1      -9.885   1.261  -7.319  1.00  0.00     0.000 C 
BRANCH   5   6
ATOM      6  C   UNL     1      -9.021   0.110  -7.874  1.00  0.00     0.000 C 
BRANCH   6   7
ATOM      7  C   UNL     1      -9.478  -0.450  -9.234  1.00  0.00     0.000 C 
BRANCH   7   8
ATOM      8  C   UNL     1      -8.366  -1.096 -10.082  1.00  0.00     0.000 C 
BRANCH   8   9
ATOM      9  C   UNL     1      -7.764  -2.374  -9.458  1.00  0.00     0.000 C 
BRANCH   9  10
ATOM     10  C   UNL     1      -8.383  -3.661 -10.031  1.00  0.00     0.000 C 
BRANCH  10  11
ATOM     11  C   UNL     1      -8.968  -4.576  -8.939  1.00  0.00     0.000 C 
BRANCH  11  12
ATOM     12  C   UNL     1     -10.049  -3.926  -8.049  1.00  0.00     0.000 C 
BRANCH  12  13
ATOM     13  C   UNL     1      -9.769  -3.976  -6.534  1.00  0.00     0.006 C 
BRANCH  13  14
ATOM     14  C   UNL     1     -10.125  -5.315  -5.867  1.00  0.00     0.053 C 
BRANCH  14  15
ATOM     15  C   UNL     1      -8.908  -6.035  -5.377  1.00  0.00     0.041 C 
ATOM     16  O   UNL     1      -8.922  -6.625  -4.263  1.00  0.00    -0.550 OA
ATOM     17  O   UNL     1      -7.765  -6.087  -6.169  1.00  0.00    -0.550 OA
ENDBRANCH  14  15
ENDBRANCH  13  14
ENDBRANCH  12  13
ENDBRANCH  11  12
ENDBRANCH  10  11
ENDBRANCH   9  10
ENDBRANCH   8   9
ENDBRANCH   7   8
ENDBRANCH   6   7
ENDBRANCH   5   6
ENDBRANCH   4   5
ENDBRANCH   3   4
ENDBRANCH   2   3
ENDBRANCH   1   2
BRANCH   1  18
ATOM     18  C   UNL     1      -7.176   4.380  -4.210  1.00  0.00     0.000 C 
BRANCH  18  19
ATOM     19  C   UNL     1      -7.493   5.179  -2.935  1.00  0.00     0.000 C 
BRANCH  19  20
ATOM     20  C   UNL     1      -8.400   6.394  -3.208  1.00  0.00     0.000 C 
BRANCH  20  21
ATOM     21  C   UNL     1      -9.002   6.379  -4.625  1.00  0.00     0.000 C 
BRANCH  21  22
ATOM     22  C   UNL     1      -8.616   7.586  -5.502  1.00  0.00     0.000 C 
BRANCH  22  23
ATOM     23  C   UNL     1      -7.450   8.426  -4.933  1.00  0.00     0.000 C 
BRANCH  23  24
ATOM     24  C   UNL     1      -6.704   9.259  -5.998  1.00  0.00    -0.000 C 
BRANCH  24  25
ATOM     25  C   UNL     1      -7.623   9.938  -7.033  1.00  0.00    -0.000 C 
BRANCH  25  26
ATOM     26  C   UNL     1      -7.093   9.872  -8.479  1.00  0.00    -0.000 C 
BRANCH  26  27
ATOM     27  C   UNL     1      -5.699   9.233  -8.567  1.00  0.00    -0.000 C 
BRANCH  27  28
ATOM     28  C   UNL     1      -5.631   8.228  -9.724  1.00  0.00    -0.000 C 
BRANCH  28  29
ATOM     29  C   UNL     1      -5.043   6.888  -9.260  1.00  0.00    -0.000 C 
BRANCH  29  30
ATOM     30  C   UNL     1      -5.049   6.730  -7.728  1.00  0.00    -0.000 C 
BRANCH  30  31
ATOM     31  C   UNL     1      -5.917   5.573  -7.203  1.00  0.00    -0.003 C 
ATOM     32  C   UNL     1      -7.185   5.354  -8.029  1.00  0.00     0.004 C 
ENDBRANCH  30  31
ENDBRANCH  29  30
ENDBRANCH  28  29
ENDBRANCH  27  28
ENDBRANCH  26  27
ENDBRANCH  25  26
ENDBRANCH  24  25
ENDBRANCH  23  24
ENDBRANCH  22  23
ENDBRANCH  21  22
ENDBRANCH  20  21
ENDBRANCH  19  20
ENDBRANCH  18  19
ENDBRANCH   1  18
TORSDOF 28
ENDMDL
MODEL 6
REMARK VINA RESULT:    -1.802      1.952      5.958
REMARK INTER + INTRA:         -10.359
REMARK INTER:                  -6.438
REMARK INTRA:                  -3.921
REMARK UNBOUND:                -5.607
REMARK SMILES CCCCCCCCCCCCCCCCCCCCCCCCCCCCCC(=O)[O-]
REMARK SMILES IDX 16 1 17 2 18 3 19 4 20 5 21 6 22 7 23 8 24 9 25 10 26 11
REMARK SMILES IDX 27 12 28 13 29 14 30 15 31 16 32 17 15 18 14 19 13 20 12 21
REMARK SMILES IDX 11 22 10 23 9 24 8 25 7 26 6 27 5 28 4 29 3 30 2 31 1 32
REMARK H PARENT
REMARK Flexibility Score: inf
ROOT
ATOM      1  C   UNL     1      -6.141   2.842  -5.179  1.00  0.00     0.000 C 
ENDROOT
BRANCH   1   2
ATOM      2  C   UNL     1      -7.313   3.741  -4.766  1.00  0.00     0.000 C 
BRANCH   2   3
ATOM      3  C   UNL     1      -7.630   3.586  -3.270  1.00  0.00     0.000 C 
BRANCH   3   4
ATOM      4  C   UNL     1      -8.350   4.812  -2.686  1.00  0.00     0.000 C 
BRANCH   4   5
ATOM      5  C   UNL     1      -7.512   6.106  -2.662  1.00  0.00     0.000 C 
BRANCH   5   6
ATOM      6  C   UNL     1      -8.325   7.416  -2.719  1.00  0.00     0.000 C 
BRANCH   6   7
ATOM      7  C   UNL     1      -7.600   8.658  -2.166  1.00  0.00     0.000 C 
BRANCH   7   8
ATOM      8  C   UNL     1      -8.500   9.885  -1.923  1.00  0.00     0.000 C 
BRANCH   8   9
ATOM      9  C   UNL     1      -8.860  10.114  -0.439  1.00  0.00     0.000 C 
BRANCH   9  10
ATOM     10  C   UNL     1      -9.678   8.956   0.158  1.00  0.00     0.000 C 
BRANCH  10  11
ATOM     11  C   UNL     1      -8.959   8.263   1.330  1.00  0.00     0.000 C 
BRANCH  11  12
ATOM     12  C   UNL     1      -8.451   9.208   2.439  1.00  0.00     0.000 C 
BRANCH  12  13
ATOM     13  C   UNL     1      -6.947   9.095   2.761  1.00  0.00     0.006 C 
BRANCH  13  14
ATOM     14  C   UNL     1      -6.064  10.118   2.028  1.00  0.00     0.053 C 
BRANCH  14  15
ATOM     15  C   UNL     1      -5.343   9.503   0.868  1.00  0.00     0.041 C 
ATOM     16  O   UNL     1      -4.407  10.125   0.298  1.00  0.00    -0.550 OA
ATOM     17  O   UNL     1      -5.682   8.224   0.439  1.00  0.00    -0.550 OA
ENDBRANCH  14  15
ENDBRANCH  13  14
ENDBRANCH  12  13
ENDBRANCH  11  12
ENDBRANCH  10  11
ENDBRANCH   9  10
ENDBRANCH   8   9
ENDBRANCH   7   8
ENDBRANCH   6   7
ENDBRANCH   5   6
ENDBRANCH   4   5
ENDBRANCH   3   4
ENDBRANCH   2   3
ENDBRANCH   1   2
BRANCH   1  18
ATOM     18  C   UNL     1      -6.647   1.498  -5.726  1.00  0.00     0.000 C 
BRANCH  18  19
ATOM     19  C   UNL     1      -7.676   1.667  -6.856  1.00  0.00     0.000 C 
BRANCH  19  20
ATOM     20  C   UNL     1      -7.077   1.390  -8.248  1.00  0.00     0.000 C 
BRANCH  20  21
ATOM     21  C   UNL     1      -7.391   2.504  -9.263  1.00  0.00     0.000 C 
BRANCH  21  22
ATOM     22  C   UNL     1      -8.480   3.497  -8.814  1.00  0.00     0.000 C 
BRANCH  22  23
ATOM     23  C   UNL     1      -7.949   4.919  -8.523  1.00  0.00     0.000 C 
BRANCH  23  24
ATOM     24  C   UNL     1      -9.060   5.980  -8.365  1.00  0.00    -0.000 C 
BRANCH  24  25
ATOM     25  C   UNL     1      -8.692   7.372  -8.916  1.00  0.00    -0.000 C 
BRANCH  25  26
ATOM     26  C   UNL     1      -9.763   8.450  -8.660  1.00  0.00    -0.000 C 
BRANCH  26  27
ATOM     27  C   UNL     1      -9.943   8.759  -7.165  1.00  0.00    -0.000 C 
BRANCH  27  28
ATOM     28  C   UNL     1      -9.095   9.969  -6.752  1.00  0.00    -0.000 C 
BRANCH  28  29
ATOM     29  C   UNL     1      -8.029   9.572  -5.721  1.00  0.00    -0.000 C 
BRANCH  29  30
ATOM     30  C   UNL     1      -6.592   9.764  -6.242  1.00  0.00    -0.000 C 
BRANCH  30  31
ATOM     31  C   UNL     1      -5.919   8.482  -6.763  1.00  0.00    -0.003 C 
ATOM     32  C   UNL     1      -6.370   7.225  -6.020  1.00  0.00     0.004 C 
ENDBRANCH  30  31
ENDBRANCH  29  30
ENDBRANCH  28  29
ENDBRANCH  27  28
ENDBRANCH  26  27
ENDBRANCH  25  26
ENDBRANCH  24  25
ENDBRANCH  23  24
ENDBRANCH  22  23
ENDBRANCH  21  22
ENDBRANCH  20  21
ENDBRANCH  19  20
ENDBRANCH  18  19
ENDBRANCH   1  18
TORSDOF 28
ENDMDL
MODEL 7
REMARK VINA RESULT:    -1.629      4.315      9.198
REMARK INTER + INTRA:          -9.904
REMARK INTER:                  -7.089
REMARK INTRA:                  -2.815
REMARK UNBOUND:                -5.607
REMARK SMILES CCCCCCCCCCCCCCCCCCCCCCCCCCCCCC(=O)[O-]
REMARK SMILES IDX 16 1 17 2 18 3 19 4 20 5 21 6 22 7 23 8 24 9 25 10 26 11
REMARK SMILES IDX 27 12 28 13 29 14 30 15 31 16 32 17 15 18 14 19 13 20 12 21
REMARK SMILES IDX 11 22 10 23 9 24 8 25 7 26 6 27 5 28 4 29 3 30 2 31 1 32
REMARK H PARENT
REMARK Flexibility Score: inf
ROOT
ATOM      1  C   UNL     1      -6.579   5.093  -3.739  1.00  0.00     0.000 C 
ENDROOT
BRANCH   1   2
ATOM      2  C   UNL     1      -7.314   3.768  -3.984  1.00  0.00     0.000 C 
BRANCH   2   3
ATOM      3  C   UNL     1      -7.256   3.368  -5.466  1.00  0.00     0.000 C 
BRANCH   3   4
ATOM      4  C   UNL     1      -8.624   2.933  -6.017  1.00  0.00     0.000 C 
BRANCH   4   5
ATOM      5  C   UNL     1      -8.687   1.477  -6.519  1.00  0.00     0.000 C 
BRANCH   5   6
ATOM      6  C   UNL     1      -7.517   1.045  -7.428  1.00  0.00     0.000 C 
BRANCH   6   7
ATOM      7  C   UNL     1      -7.554  -0.427  -7.882  1.00  0.00     0.000 C 
BRANCH   7   8
ATOM      8  C   UNL     1      -7.642  -0.638  -9.406  1.00  0.00     0.000 C 
BRANCH   8   9
ATOM      9  C   UNL     1      -7.515  -2.114  -9.842  1.00  0.00     0.000 C 
BRANCH   9  10
ATOM     10  C   UNL     1      -8.880  -2.773 -10.108  1.00  0.00     0.000 C 
BRANCH  10  11
ATOM     11  C   UNL     1      -8.925  -4.246  -9.662  1.00  0.00     0.000 C 
BRANCH  11  12
ATOM     12  C   UNL     1     -10.060  -4.599  -8.679  1.00  0.00     0.000 C 
BRANCH  12  13
ATOM     13  C   UNL     1      -9.667  -4.584  -7.188  1.00  0.00     0.006 C 
BRANCH  13  14
ATOM     14  C   UNL     1      -8.499  -5.518  -6.831  1.00  0.00     0.053 C 
BRANCH  14  15
ATOM     15  C   UNL     1      -8.660  -6.117  -5.468  1.00  0.00     0.041 C 
ATOM     16  O   UNL     1      -9.080  -5.416  -4.509  1.00  0.00    -0.550 OA
ATOM     17  O   UNL     1      -8.382  -7.465  -5.266  1.00  0.00    -0.550 OA
ENDBRANCH  14  15
ENDBRANCH  13  14
ENDBRANCH  12  13
ENDBRANCH  11  12
ENDBRANCH  10  11
ENDBRANCH   9  10
ENDBRANCH   8   9
ENDBRANCH   7   8
ENDBRANCH   6   7
ENDBRANCH   5   6
ENDBRANCH   4   5
ENDBRANCH   3   4
ENDBRANCH   2   3
ENDBRANCH   1   2
BRANCH   1  18
ATOM     18  C   UNL     1      -7.345   6.269  -4.362  1.00  0.00     0.000 C 
BRANCH  18  19
ATOM     19  C   UNL     1      -7.615   7.401  -3.358  1.00  0.00     0.000 C 
BRANCH  19  20
ATOM     20  C   UNL     1      -7.944   8.739  -4.048  1.00  0.00     0.000 C 
BRANCH  20  21
ATOM     21  C   UNL     1      -8.568   8.551  -5.442  1.00  0.00     0.000 C 
BRANCH  21  22
ATOM     22  C   UNL     1      -7.796   9.228  -6.591  1.00  0.00     0.000 C 
BRANCH  22  23
ATOM     23  C   UNL     1      -6.401   9.753  -6.184  1.00  0.00     0.000 C 
BRANCH  23  24
ATOM     24  C   UNL     1      -5.362   9.714  -7.326  1.00  0.00    -0.000 C 
BRANCH  24  25
ATOM     25  C   UNL     1      -5.974   9.658  -8.740  1.00  0.00    -0.000 C 
BRANCH  25  26
ATOM     26  C   UNL     1      -6.183   8.228  -9.275  1.00  0.00    -0.000 C 
BRANCH  26  27
ATOM     27  C   UNL     1      -5.039   7.280  -8.886  1.00  0.00    -0.000 C 
BRANCH  27  28
ATOM     28  C   UNL     1      -5.434   6.411  -7.685  1.00  0.00    -0.000 C 
BRANCH  28  29
ATOM     29  C   UNL     1      -6.402   5.295  -8.102  1.00  0.00    -0.000 C 
BRANCH  29  30
ATOM     30  C   UNL     1      -7.860   5.779  -8.215  1.00  0.00    -0.000 C 
BRANCH  30  31
ATOM     31  C   UNL     1      -8.594   5.322  -9.487  1.00  0.00    -0.003 C 
ATOM     32  C   UNL     1      -8.905   3.825  -9.493  1.00  0.00     0.004 C 
ENDBRANCH  30  31
ENDBRANCH  29  30
ENDBRANCH  28  29
ENDBRANCH  27  28
ENDBRANCH  26  27
ENDBRANCH  25  26
ENDBRANCH  24  25
ENDBRANCH  23  24
ENDBRANCH  22  23
ENDBRANCH  21  22
ENDBRANCH  20  21
ENDBRANCH  19  20
ENDBRANCH  18  19
ENDBRANCH   1  18
TORSDOF 28
ENDMDL
MODEL 8
REMARK VINA RESULT:    -1.543     13.401     16.322
REMARK INTER + INTRA:          -9.677
REMARK INTER:                  -7.466
REMARK INTRA:                  -2.212
REMARK UNBOUND:                -5.607
REMARK SMILES CCCCCCCCCCCCCCCCCCCCCCCCCCCCCC(=O)[O-]
REMARK SMILES IDX 16 1 17 2 18 3 19 4 20 5 21 6 22 7 23 8 24 9 25 10 26 11
REMARK SMILES IDX 27 12 28 13 29 14 30 15 31 16 32 17 15 18 14 19 13 20 12 21
REMARK SMILES IDX 11 22 10 23 9 24 8 25 7 26 6 27 5 28 4 29 3 30 2 31 1 32
REMARK H PARENT
REMARK Flexibility Score: inf
ROOT
ATOM      1  C   UNL     1       8.532  -0.747  -8.899  1.00  0.00     0.000 C 
ENDROOT
BRANCH   1   2
ATOM      2  C   UNL     1       9.061   0.181  -7.798  1.00  0.00     0.000 C 
BRANCH   2   3
ATOM      3  C   UNL     1       9.652   1.468  -8.395  1.00  0.00     0.000 C 
BRANCH   3   4
ATOM      4  C   UNL     1       8.928   2.735  -7.909  1.00  0.00     0.000 C 
BRANCH   4   5
ATOM      5  C   UNL     1       7.525   2.951  -8.512  1.00  0.00     0.000 C 
BRANCH   5   6
ATOM      6  C   UNL     1       6.370   2.983  -7.490  1.00  0.00     0.000 C 
BRANCH   6   7
ATOM      7  C   UNL     1       5.723   4.366  -7.281  1.00  0.00     0.000 C 
BRANCH   7   8
ATOM      8  C   UNL     1       6.453   5.285  -6.284  1.00  0.00     0.000 C 
BRANCH   8   9
ATOM      9  C   UNL     1       7.502   6.211  -6.936  1.00  0.00     0.000 C 
BRANCH   9  10
ATOM     10  C   UNL     1       7.331   7.684  -6.523  1.00  0.00     0.000 C 
BRANCH  10  11
ATOM     11  C   UNL     1       6.539   8.503  -7.559  1.00  0.00     0.000 C 
BRANCH  11  12
ATOM     12  C   UNL     1       6.243   7.772  -8.886  1.00  0.00     0.000 C 
BRANCH  12  13
ATOM     13  C   UNL     1       4.841   8.026  -9.477  1.00  0.00     0.006 C 
BRANCH  13  14
ATOM     14  C   UNL     1       3.756   7.059  -8.974  1.00  0.00     0.053 C 
BRANCH  14  15
ATOM     15  C   UNL     1       2.678   7.773  -8.220  1.00  0.00     0.041 C 
ATOM     16  O   UNL     1       2.524   9.017  -8.354  1.00  0.00    -0.550 OA
ATOM     17  O   UNL     1       1.816   7.057  -7.396  1.00  0.00    -0.550 OA
ENDBRANCH  14  15
ENDBRANCH  13  14
ENDBRANCH  12  13
ENDBRANCH  11  12
ENDBRANCH  10  11
ENDBRANCH   9  10
ENDBRANCH   8   9
ENDBRANCH   7   8
ENDBRANCH   6   7
ENDBRANCH   5   6
ENDBRANCH   4   5
ENDBRANCH   3   4
ENDBRANCH   2   3
ENDBRANCH   1   2
BRANCH   1  18
ATOM     18  C   UNL     1       9.684  -1.496  -9.586  1.00  0.00     0.000 C 
BRANCH  18  19
ATOM     19  C   UNL     1      10.046  -2.809  -8.874  1.00  0.00     0.000 C 
BRANCH  19  20
ATOM     20  C   UNL     1       9.102  -3.967  -9.251  1.00  0.00     0.000 C 
BRANCH  20  21
ATOM     21  C   UNL     1       9.639  -5.340  -8.808  1.00  0.00     0.000 C 
BRANCH  21  22
ATOM     22  C   UNL     1       8.887  -5.975  -7.622  1.00  0.00     0.000 C 
BRANCH  22  23
ATOM     23  C   UNL     1       8.114  -7.262  -7.988  1.00  0.00     0.000 C 
BRANCH  23  24
ATOM     24  C   UNL     1       6.768  -7.000  -8.700  1.00  0.00    -0.000 C 
BRANCH  24  25
ATOM     25  C   UNL     1       5.859  -8.240  -8.816  1.00  0.00    -0.000 C 
BRANCH  25  26
ATOM     26  C   UNL     1       4.721  -8.281  -7.777  1.00  0.00    -0.000 C 
BRANCH  26  27
ATOM     27  C   UNL     1       5.080  -9.121  -6.542  1.00  0.00    -0.000 C 
BRANCH  27  28
ATOM     28  C   UNL     1       4.063  -8.898  -5.415  1.00  0.00    -0.000 C 
BRANCH  28  29
ATOM     29  C   UNL     1       4.594  -7.896  -4.380  1.00  0.00    -0.000 C 
BRANCH  29  30
ATOM     30  C   UNL     1       6.122  -7.717  -4.449  1.00  0.00    -0.000 C 
BRANCH  30  31
ATOM     31  C   UNL     1       6.709  -6.773  -3.384  1.00  0.00    -0.003 C 
ATOM     32  C   UNL     1       7.518  -7.508  -2.316  1.00  0.00     0.004 C 
ENDBRANCH  30  31
ENDBRANCH  29  30
ENDBRANCH  28  29
ENDBRANCH  27  28
ENDBRANCH  26  27
ENDBRANCH  25  26
ENDBRANCH  24  25
ENDBRANCH  23  24
ENDBRANCH  22  23
ENDBRANCH  21  22
ENDBRANCH  20  21
ENDBRANCH  19  20
ENDBRANCH  18  19
ENDBRANCH   1  18
TORSDOF 28
ENDMDL
MODEL 9
REMARK VINA RESULT:    -1.439     12.929     15.418
REMARK INTER + INTRA:          -9.402
REMARK INTER:                  -6.415
REMARK INTRA:                  -2.987
REMARK UNBOUND:                -5.607
REMARK SMILES CCCCCCCCCCCCCCCCCCCCCCCCCCCCCC(=O)[O-]
REMARK SMILES IDX 16 1 17 2 18 3 19 4 20 5 21 6 22 7 23 8 24 9 25 10 26 11
REMARK SMILES IDX 27 12 28 13 29 14 30 15 31 16 32 17 15 18 14 19 13 20 12 21
REMARK SMILES IDX 11 22 10 23 9 24 8 25 7 26 6 27 5 28 4 29 3 30 2 31 1 32
REMARK H PARENT
REMARK Flexibility Score: inf
ROOT
ATOM      1  C   UNL     1       7.151   2.377  -8.194  1.00  0.00     0.000 C 
ENDROOT
BRANCH   1   2
ATOM      2  C   UNL     1       8.262   3.435  -8.205  1.00  0.00     0.000 C 
BRANCH   2   3
ATOM      3  C   UNL     1       7.824   4.691  -8.975  1.00  0.00     0.000 C 
BRANCH   3   4
ATOM      4  C   UNL     1       8.438   5.980  -8.405  1.00  0.00     0.000 C 
BRANCH   4   5
ATOM      5  C   UNL     1       7.996   7.276  -9.113  1.00  0.00     0.000 C 
BRANCH   5   6
ATOM      6  C   UNL     1       6.481   7.392  -9.382  1.00  0.00     0.000 C 
BRANCH   6   7
ATOM      7  C   UNL     1       5.779   8.562  -8.667  1.00  0.00     0.000 C 
BRANCH   7   8
ATOM      8  C   UNL     1       4.265   8.381  -8.449  1.00  0.00     0.000 C 
BRANCH   8   9
ATOM      9  C   UNL     1       3.629   7.291  -9.339  1.00  0.00     0.000 C 
BRANCH   9  10
ATOM     10  C   UNL     1       2.866   6.232  -8.525  1.00  0.00     0.000 C 
BRANCH  10  11
ATOM     11  C   UNL     1       3.495   5.978  -7.142  1.00  0.00     0.000 C 
BRANCH  11  12
ATOM     12  C   UNL     1       4.574   4.875  -7.105  1.00  0.00     0.000 C 
BRANCH  12  13
ATOM     13  C   UNL     1       5.597   4.995  -5.957  1.00  0.00     0.006 C 
BRANCH  13  14
ATOM     14  C   UNL     1       5.934   6.440  -5.556  1.00  0.00     0.053 C 
BRANCH  14  15
ATOM     15  C   UNL     1       6.705   6.498  -4.274  1.00  0.00     0.041 C 
ATOM     16  O   UNL     1       7.618   5.661  -4.041  1.00  0.00    -0.550 OA
ATOM     17  O   UNL     1       6.440   7.503  -3.349  1.00  0.00    -0.550 OA
ENDBRANCH  14  15
ENDBRANCH  13  14
ENDBRANCH  12  13
ENDBRANCH  11  12
ENDBRANCH  10  11
ENDBRANCH   9  10
ENDBRANCH   8   9
ENDBRANCH   7   8
ENDBRANCH   6   7
ENDBRANCH   5   6
ENDBRANCH   4   5
ENDBRANCH   3   4
ENDBRANCH   2   3
ENDBRANCH   1   2
BRANCH   1  18
ATOM     18  C   UNL     1       7.315   1.396  -9.365  1.00  0.00     0.000 C 
BRANCH  18  19
ATOM     19  C   UNL     1       8.167   0.170  -8.999  1.00  0.00     0.000 C 
BRANCH  19  20
ATOM     20  C   UNL     1       8.167  -0.902 -10.105  1.00  0.00     0.000 C 
BRANCH  20  21
ATOM     21  C   UNL     1       9.439  -1.769 -10.092  1.00  0.00     0.000 C 
BRANCH  21  22
ATOM     22  C   UNL     1       9.779  -2.395  -8.726  1.00  0.00     0.000 C 
BRANCH  22  23
ATOM     23  C   UNL     1       9.667  -3.936  -8.698  1.00  0.00     0.000 C 
BRANCH  23  24
ATOM     24  C   UNL     1       8.570  -4.498  -9.629  1.00  0.00    -0.000 C 
BRANCH  24  25
ATOM     25  C   UNL     1       7.657  -5.551  -8.970  1.00  0.00    -0.000 C 
BRANCH  25  26
ATOM     26  C   UNL     1       8.417  -6.740  -8.349  1.00  0.00    -0.000 C 
BRANCH  26  27
ATOM     27  C   UNL     1       7.474  -7.801  -7.763  1.00  0.00    -0.000 C 
BRANCH  27  28
ATOM     28  C   UNL     1       6.123  -7.792  -8.489  1.00  0.00    -0.000 C 
BRANCH  28  29
ATOM     29  C   UNL     1       5.163  -8.826  -7.885  1.00  0.00    -0.000 C 
BRANCH  29  30
ATOM     30  C   UNL     1       4.168  -8.207  -6.885  1.00  0.00    -0.000 C 
BRANCH  30  31
ATOM     31  C   UNL     1       4.295  -8.730  -5.443  1.00  0.00    -0.003 C 
ATOM     32  C   UNL     1       4.024  -7.654  -4.391  1.00  0.00     0.004 C 
ENDBRANCH  30  31
ENDBRANCH  29  30
ENDBRANCH  28  29
ENDBRANCH  27  28
ENDBRANCH  26  27
ENDBRANCH  25  26
ENDBRANCH  24  25
ENDBRANCH  23  24
ENDBRANCH  22  23
ENDBRANCH  21  22
ENDBRANCH  20  21
ENDBRANCH  19  20
ENDBRANCH  18  19
ENDBRANCH   1  18
TORSDOF 28
ENDMDL
