MODEL 1
REMARK VINA RESULT:    -6.774      0.000      0.000
REMARK INTER + INTRA:          -8.992
REMARK INTER:                  -9.349
REMARK INTRA:                   0.357
REMARK UNBOUND:                 0.357
REMARK SMILES O=C([O-])[C@@H]1O[C@@H](Oc2cc3oc(-c4ccccc4)cc(=O)c3c(O)c2O)[C@H](O)[C@@H](O)[C@H]1O
REMARK SMILES IDX 7 1 6 2 4 3 31 4 5 5 29 6 27 7 2 8 1 9 3 10 32 11 30 13
REMARK SMILES IDX 28 15 8 17 25 18 9 19 23 20 10 21 22 22 11 23 20 24 12 25
REMARK SMILES IDX 19 26 21 27 26 28 24 30 13 32 14 33 18 34 15 35 17 36 16 37
REMARK H PARENT 32 12 30 14 28 16 26 29 24 31
REMARK Flexibility Score: inf
ROOT
ATOM      1  O   UNL     1     -13.843   5.868   5.627  1.00  0.00    -0.458 OA
ENDROOT
BRANCH   1   2
ATOM      2  C   UNL     1     -13.179   4.942   6.494  1.00  0.00     0.339 C 
ATOM      3  C   UNL     1     -11.215   4.931   5.203  1.00  0.00     0.199 C 
ATOM      4  C   UNL     1     -11.389   3.463   4.761  1.00  0.00     0.180 C 
ATOM      5  O   UNL     1     -11.772   5.142   6.491  1.00  0.00    -0.328 OA
ATOM      6  C   UNL     1     -12.882   3.084   4.768  1.00  0.00     0.181 C 
ATOM      7  C   UNL     1     -13.545   3.492   6.101  1.00  0.00     0.214 C 
BRANCH   3   8
ATOM      8  C   UNL     1      -9.758   5.281   5.263  1.00  0.00     0.073 C 
ATOM      9  O   UNL     1      -9.212   5.538   6.369  1.00  0.00    -0.547 OA
ATOM     10  O   UNL     1      -9.002   5.326   4.098  1.00  0.00    -0.547 OA
ENDBRANCH   3   8
BRANCH   4  11
ATOM     11  O   UNL     1     -10.853   3.289   3.474  1.00  0.00    -0.387 OA
ATOM     12  H   UNL     1     -11.585   2.930   2.906  1.00  0.00     0.211 HD
ENDBRANCH   4  11
BRANCH   6  13
ATOM     13  O   UNL     1     -13.532   3.718   3.694  1.00  0.00    -0.387 OA
ATOM     14  H   UNL     1     -12.893   4.384   3.325  1.00  0.00     0.211 HD
ENDBRANCH   6  13
BRANCH   7  15
ATOM     15  O   UNL     1     -13.207   2.587   7.126  1.00  0.00    -0.384 OA
ATOM     16  H   UNL     1     -14.038   2.344   7.611  1.00  0.00     0.211 HD
ENDBRANCH   7  15
ENDBRANCH   1   2
BRANCH   1  17
ATOM     17  C   UNL     1     -13.550   7.234   5.454  1.00  0.00     0.172 A 
ATOM     18  C   UNL     1     -14.491   8.206   5.036  1.00  0.00     0.201 A 
ATOM     19  C   UNL     1     -12.234   7.618   5.713  1.00  0.00     0.098 A 
ATOM     20  C   UNL     1     -14.105   9.572   4.957  1.00  0.00     0.176 A 
ATOM     21  C   UNL     1     -11.833   8.946   5.596  1.00  0.00     0.146 A 
ATOM     22  C   UNL     1     -12.763   9.939   5.223  1.00  0.00     0.111 A 
ATOM     23  O   UNL     1     -10.566   9.261   5.847  1.00  0.00    -0.456 OA
ATOM     24  C   UNL     1     -12.296  11.270   5.146  1.00  0.00     0.197 A 
ATOM     25  C   UNL     1     -10.091  10.501   5.769  1.00  0.00     0.138 A 
ATOM     26  C   UNL     1     -10.958  11.550   5.422  1.00  0.00     0.100 A 
ATOM     27  O   UNL     1     -13.063  12.221   4.831  1.00  0.00    -0.289 OA
BRANCH  18  28
ATOM     28  O   UNL     1     -15.779   7.802   4.679  1.00  0.00    -0.502 OA
ATOM     29  H   UNL     1     -16.587   7.862   5.282  1.00  0.00     0.293 HD
ENDBRANCH  18  28
BRANCH  20  30
ATOM     30  O   UNL     1     -15.031  10.569   4.634  1.00  0.00    -0.504 OA
ATOM     31  H   UNL     1     -16.026  10.500   4.790  1.00  0.00     0.293 HD
ENDBRANCH  20  30
BRANCH  25  32
ATOM     32  C   UNL     1      -8.656  10.736   6.069  1.00  0.00     0.017 A 
ATOM     33  C   UNL     1      -7.633  10.264   5.222  1.00  0.00     0.012 A 
ATOM     34  C   UNL     1      -8.298  11.417   7.247  1.00  0.00     0.012 A 
ATOM     35  C   UNL     1      -6.290  10.490   5.538  1.00  0.00     0.001 A 
ATOM     36  C   UNL     1      -6.953  11.640   7.559  1.00  0.00     0.001 A 
ATOM     37  C   UNL     1      -5.950  11.179   6.705  1.00  0.00     0.000 A 
ENDBRANCH  25  32
ENDBRANCH   1  17
TORSDOF 9
ENDMDL
MODEL 2
REMARK VINA RESULT:    -6.345      2.643      6.853
REMARK INTER + INTRA:          -8.400
REMARK INTER:                  -8.180
REMARK INTRA:                  -0.220
REMARK UNBOUND:                 0.357
REMARK SMILES O=C([O-])[C@@H]1O[C@@H](Oc2cc3oc(-c4ccccc4)cc(=O)c3c(O)c2O)[C@H](O)[C@@H](O)[C@H]1O
REMARK SMILES IDX 7 1 6 2 4 3 31 4 5 5 29 6 27 7 2 8 1 9 3 10 32 11 30 13
REMARK SMILES IDX 28 15 8 17 25 18 9 19 23 20 10 21 22 22 11 23 20 24 12 25
REMARK SMILES IDX 19 26 21 27 26 28 24 30 13 32 14 33 18 34 15 35 17 36 16 37
REMARK H PARENT 32 12 30 14 28 16 26 29 24 31
REMARK Flexibility Score: inf
ROOT
ATOM      1  O   UNL     1     -12.632  11.804   3.164  1.00  0.00    -0.458 OA
ENDROOT
BRANCH   1   2
ATOM      2  C   UNL     1     -13.816  12.427   3.674  1.00  0.00     0.339 C 
ATOM      3  C   UNL     1     -14.428  10.543   4.939  1.00  0.00     0.199 C 
ATOM      4  C   UNL     1     -15.679  10.247   4.085  1.00  0.00     0.180 C 
ATOM      5  O   UNL     1     -14.151  11.934   4.965  1.00  0.00    -0.328 OA
ATOM      6  C   UNL     1     -15.479  10.779   2.654  1.00  0.00     0.181 C 
ATOM      7  C   UNL     1     -14.984  12.242   2.678  1.00  0.00     0.214 C 
BRANCH   3   8
ATOM      8  C   UNL     1     -14.648  10.086   6.351  1.00  0.00     0.073 C 
ATOM      9  O   UNL     1     -15.789   9.702   6.722  1.00  0.00    -0.547 OA
ATOM     10  O   UNL     1     -13.595  10.088   7.257  1.00  0.00    -0.547 OA
ENDBRANCH   3   8
BRANCH   4  11
ATOM     11  O   UNL     1     -15.914   8.862   4.056  1.00  0.00    -0.387 OA
ATOM     12  H   UNL     1     -15.245   8.471   3.434  1.00  0.00     0.211 HD
ENDBRANCH   4  11
BRANCH   6  13
ATOM     13  O   UNL     1     -14.550   9.969   1.977  1.00  0.00    -0.387 OA
ATOM     14  H   UNL     1     -13.675  10.095   2.431  1.00  0.00     0.211 HD
ENDBRANCH   6  13
BRANCH   7  15
ATOM     15  O   UNL     1     -16.043  13.124   2.966  1.00  0.00    -0.384 OA
ATOM     16  H   UNL     1     -15.688  14.050   2.950  1.00  0.00     0.211 HD
ENDBRANCH   7  15
ENDBRANCH   1   2
BRANCH   1  17
ATOM     17  C   UNL     1     -11.633  11.142   3.902  1.00  0.00     0.172 A 
ATOM     18  C   UNL     1     -10.448  11.760   4.373  1.00  0.00     0.201 A 
ATOM     19  C   UNL     1     -11.853   9.790   4.162  1.00  0.00     0.098 A 
ATOM     20  C   UNL     1      -9.533  11.015   5.166  1.00  0.00     0.176 A 
ATOM     21  C   UNL     1     -10.942   9.039   4.901  1.00  0.00     0.146 A 
ATOM     22  C   UNL     1      -9.776   9.642   5.416  1.00  0.00     0.111 A 
ATOM     23  O   UNL     1     -11.194   7.751   5.116  1.00  0.00    -0.456 OA
ATOM     24  C   UNL     1      -8.907   8.828   6.177  1.00  0.00     0.197 A 
ATOM     25  C   UNL     1     -10.389   6.955   5.814  1.00  0.00     0.138 A 
ATOM     26  C   UNL     1      -9.217   7.483   6.377  1.00  0.00     0.100 A 
ATOM     27  O   UNL     1      -7.848   9.290   6.684  1.00  0.00    -0.289 OA
BRANCH  18  28
ATOM     28  O   UNL     1     -10.182  13.085   4.024  1.00  0.00    -0.502 OA
ATOM     29  H   UNL     1     -10.724  13.879   4.332  1.00  0.00     0.293 HD
ENDBRANCH  18  28
BRANCH  20  30
ATOM     30  O   UNL     1      -8.398  11.615   5.721  1.00  0.00    -0.504 OA
ATOM     31  H   UNL     1      -7.971  12.462   5.376  1.00  0.00     0.293 HD
ENDBRANCH  20  30
BRANCH  25  32
ATOM     32  C   UNL     1     -10.771   5.530   5.988  1.00  0.00     0.017 A 
ATOM     33  C   UNL     1     -11.272   4.760   4.919  1.00  0.00     0.012 A 
ATOM     34  C   UNL     1     -10.663   4.935   7.259  1.00  0.00     0.012 A 
ATOM     35  C   UNL     1     -11.635   3.424   5.118  1.00  0.00     0.001 A 
ATOM     36  C   UNL     1     -11.027   3.599   7.451  1.00  0.00     0.001 A 
ATOM     37  C   UNL     1     -11.510   2.843   6.382  1.00  0.00     0.000 A 
ENDBRANCH  25  32
ENDBRANCH   1  17
TORSDOF 9
ENDMDL
MODEL 3
REMARK VINA RESULT:    -5.426      1.549      2.720
REMARK INTER + INTRA:          -7.131
REMARK INTER:                  -6.590
REMARK INTRA:                  -0.541
REMARK UNBOUND:                 0.357
REMARK SMILES O=C([O-])[C@@H]1O[C@@H](Oc2cc3oc(-c4ccccc4)cc(=O)c3c(O)c2O)[C@H](O)[C@@H](O)[C@H]1O
REMARK SMILES IDX 7 1 6 2 4 3 31 4 5 5 29 6 27 7 2 8 1 9 3 10 32 11 30 13
REMARK SMILES IDX 28 15 8 17 25 18 9 19 23 20 10 21 22 22 11 23 20 24 12 25
REMARK SMILES IDX 19 26 21 27 26 28 24 30 13 32 14 33 18 34 15 35 17 36 16 37
REMARK H PARENT 32 12 30 14 28 16 26 29 24 31
REMARK Flexibility Score: inf
ROOT
ATOM      1  O   UNL     1     -11.669   6.127   5.214  1.00  0.00    -0.458 OA
ENDROOT
BRANCH   1   2
ATOM      2  C   UNL     1     -12.879   5.362   5.204  1.00  0.00     0.339 C 
ATOM      3  C   UNL     1     -12.071   3.806   6.768  1.00  0.00     0.199 C 
ATOM      4  C   UNL     1     -12.039   2.645   5.752  1.00  0.00     0.180 C 
ATOM      5  O   UNL     1     -13.105   4.725   6.454  1.00  0.00    -0.328 OA
ATOM      6  C   UNL     1     -11.850   3.196   4.326  1.00  0.00     0.181 C 
ATOM      7  C   UNL     1     -12.850   4.339   4.045  1.00  0.00     0.214 C 
BRANCH   3   8
ATOM      8  C   UNL     1     -12.323   3.275   8.148  1.00  0.00     0.073 C 
ATOM      9  O   UNL     1     -12.766   2.107   8.308  1.00  0.00    -0.547 OA
ATOM     10  O   UNL     1     -12.071   4.071   9.259  1.00  0.00    -0.547 OA
ENDBRANCH   3   8
BRANCH   4  11
ATOM     11  O   UNL     1     -10.991   1.765   6.071  1.00  0.00    -0.387 OA
ATOM     12  H   UNL     1     -10.294   1.885   5.373  1.00  0.00     0.211 HD
ENDBRANCH   4  11
BRANCH   6  13
ATOM     13  O   UNL     1     -10.532   3.661   4.174  1.00  0.00    -0.387 OA
ATOM     14  H   UNL     1     -10.390   3.809   3.202  1.00  0.00     0.211 HD
ENDBRANCH   6  13
BRANCH   7  15
ATOM     15  O   UNL     1     -14.135   3.827   3.785  1.00  0.00    -0.384 OA
ATOM     16  H   UNL     1     -14.644   3.822   4.637  1.00  0.00     0.211 HD
ENDBRANCH   7  15
ENDBRANCH   1   2
BRANCH   1  17
ATOM     17  C   UNL     1     -11.532   7.501   5.494  1.00  0.00     0.172 A 
ATOM     18  C   UNL     1     -12.617   8.405   5.600  1.00  0.00     0.201 A 
ATOM     19  C   UNL     1     -10.229   7.967   5.663  1.00  0.00     0.098 A 
ATOM     20  C   UNL     1     -12.371   9.761   5.950  1.00  0.00     0.176 A 
ATOM     21  C   UNL     1      -9.973   9.303   5.963  1.00  0.00     0.146 A 
ATOM     22  C   UNL     1     -11.039  10.213   6.116  1.00  0.00     0.111 A 
ATOM     23  O   UNL     1      -8.713   9.700   6.109  1.00  0.00    -0.456 OA
ATOM     24  C   UNL     1     -10.711  11.548   6.444  1.00  0.00     0.197 A 
ATOM     25  C   UNL     1      -8.370  10.951   6.402  1.00  0.00     0.138 A 
ATOM     26  C   UNL     1      -9.373  11.915   6.589  1.00  0.00     0.100 A 
ATOM     27  O   UNL     1     -11.603  12.424   6.610  1.00  0.00    -0.289 OA
BRANCH  18  28
ATOM     28  O   UNL     1     -13.910   7.956   5.328  1.00  0.00    -0.502 OA
ATOM     29  H   UNL     1     -14.202   7.540   4.455  1.00  0.00     0.293 HD
ENDBRANCH  18  28
BRANCH  20  30
ATOM     30  O   UNL     1     -13.424  10.660   6.150  1.00  0.00    -0.504 OA
ATOM     31  H   UNL     1     -13.442  11.372   6.865  1.00  0.00     0.293 HD
ENDBRANCH  20  30
BRANCH  25  32
ATOM     32  C   UNL     1      -6.929  11.283   6.538  1.00  0.00     0.017 A 
ATOM     33  C   UNL     1      -6.450  12.103   7.581  1.00  0.00     0.012 A 
ATOM     34  C   UNL     1      -6.013  10.797   5.586  1.00  0.00     0.012 A 
ATOM     35  C   UNL     1      -5.088  12.408   7.675  1.00  0.00     0.001 A 
ATOM     36  C   UNL     1      -4.653  11.105   5.685  1.00  0.00     0.001 A 
ATOM     37  C   UNL     1      -4.190  11.907   6.729  1.00  0.00     0.000 A 
ENDBRANCH  25  32
ENDBRANCH   1  17
TORSDOF 9
ENDMDL
MODEL 4
REMARK VINA RESULT:    -5.081      2.732      7.352
REMARK INTER + INTRA:          -6.655
REMARK INTER:                  -5.763
REMARK INTRA:                  -0.891
REMARK UNBOUND:                 0.357
REMARK SMILES O=C([O-])[C@@H]1O[C@@H](Oc2cc3oc(-c4ccccc4)cc(=O)c3c(O)c2O)[C@H](O)[C@@H](O)[C@H]1O
REMARK SMILES IDX 7 1 6 2 4 3 31 4 5 5 29 6 27 7 2 8 1 9 3 10 32 11 30 13
REMARK SMILES IDX 28 15 8 17 25 18 9 19 23 20 10 21 22 22 11 23 20 24 12 25
REMARK SMILES IDX 19 26 21 27 26 28 24 30 13 32 14 33 18 34 15 35 17 36 16 37
REMARK H PARENT 32 12 30 14 28 16 26 29 24 31
REMARK Flexibility Score: inf
ROOT
ATOM      1  O   UNL     1     -12.742  11.189   6.064  1.00  0.00    -0.458 OA
ENDROOT
BRANCH   1   2
ATOM      2  C   UNL     1     -14.158  11.364   5.953  1.00  0.00     0.339 C 
ATOM      3  C   UNL     1     -14.228  10.525   3.758  1.00  0.00     0.199 C 
ATOM      4  C   UNL     1     -14.618  11.883   3.140  1.00  0.00     0.180 C 
ATOM      5  O   UNL     1     -14.736  10.405   5.078  1.00  0.00    -0.328 OA
ATOM      6  C   UNL     1     -14.097  13.034   4.022  1.00  0.00     0.181 C 
ATOM      7  C   UNL     1     -14.480  12.807   5.500  1.00  0.00     0.214 C 
BRANCH   3   8
ATOM      8  C   UNL     1     -14.794   9.404   2.938  1.00  0.00     0.073 C 
ATOM      9  O   UNL     1     -15.524   8.530   3.476  1.00  0.00    -0.547 OA
ATOM     10  O   UNL     1     -14.513   9.321   1.580  1.00  0.00    -0.547 OA
ENDBRANCH   3   8
BRANCH   4  11
ATOM     11  O   UNL     1     -14.081  11.986   1.846  1.00  0.00    -0.387 OA
ATOM     12  H   UNL     1     -14.623  12.666   1.364  1.00  0.00     0.211 HD
ENDBRANCH   4  11
BRANCH   6  13
ATOM     13  O   UNL     1     -12.699  13.125   3.895  1.00  0.00    -0.387 OA
ATOM     14  H   UNL     1     -12.390  12.267   3.500  1.00  0.00     0.211 HD
ENDBRANCH   6  13
BRANCH   7  15
ATOM     15  O   UNL     1     -15.835  13.119   5.720  1.00  0.00    -0.384 OA
ATOM     16  H   UNL     1     -16.111  13.791   5.044  1.00  0.00     0.211 HD
ENDBRANCH   7  15
ENDBRANCH   1   2
BRANCH   1  17
ATOM     17  C   UNL     1     -12.001  10.030   5.761  1.00  0.00     0.172 A 
ATOM     18  C   UNL     1     -11.029   9.951   4.733  1.00  0.00     0.201 A 
ATOM     19  C   UNL     1     -12.273   8.905   6.538  1.00  0.00     0.098 A 
ATOM     20  C   UNL     1     -10.291   8.749   4.554  1.00  0.00     0.176 A 
ATOM     21  C   UNL     1     -11.587   7.709   6.343  1.00  0.00     0.146 A 
ATOM     22  C   UNL     1     -10.585   7.618   5.354  1.00  0.00     0.111 A 
ATOM     23  O   UNL     1     -11.886   6.662   7.105  1.00  0.00    -0.456 OA
ATOM     24  C   UNL     1      -9.912   6.383   5.223  1.00  0.00     0.197 A 
ATOM     25  C   UNL     1     -11.283   5.482   6.998  1.00  0.00     0.138 A 
ATOM     26  C   UNL     1     -10.261   5.315   6.050  1.00  0.00     0.100 A 
ATOM     27  O   UNL     1      -8.996   6.218   4.373  1.00  0.00    -0.289 OA
BRANCH  18  28
ATOM     28  O   UNL     1     -10.834  11.047   3.890  1.00  0.00    -0.502 OA
ATOM     29  H   UNL     1     -10.772  10.993   2.884  1.00  0.00     0.293 HD
ENDBRANCH  18  28
BRANCH  20  30
ATOM     30  O   UNL     1      -9.265   8.664   3.607  1.00  0.00    -0.504 OA
ATOM     31  H   UNL     1      -8.331   9.024   3.740  1.00  0.00     0.293 HD
ENDBRANCH  20  30
BRANCH  25  32
ATOM     32  C   UNL     1     -11.702   4.381   7.902  1.00  0.00     0.017 A 
ATOM     33  C   UNL     1     -11.794   4.561   9.298  1.00  0.00     0.012 A 
ATOM     34  C   UNL     1     -11.984   3.112   7.364  1.00  0.00     0.012 A 
ATOM     35  C   UNL     1     -12.180   3.501  10.125  1.00  0.00     0.001 A 
ATOM     36  C   UNL     1     -12.369   2.056   8.195  1.00  0.00     0.001 A 
ATOM     37  C   UNL     1     -12.469   2.250   9.574  1.00  0.00     0.000 A 
ENDBRANCH  25  32
ENDBRANCH   1  17
TORSDOF 9
ENDMDL
MODEL 5
REMARK VINA RESULT:    -4.819      2.383      7.004
REMARK INTER + INTRA:          -6.293
REMARK INTER:                  -6.943
REMARK INTRA:                   0.649
REMARK UNBOUND:                 0.357
REMARK SMILES O=C([O-])[C@@H]1O[C@@H](Oc2cc3oc(-c4ccccc4)cc(=O)c3c(O)c2O)[C@H](O)[C@@H](O)[C@H]1O
REMARK SMILES IDX 7 1 6 2 4 3 31 4 5 5 29 6 27 7 2 8 1 9 3 10 32 11 30 13
REMARK SMILES IDX 28 15 8 17 25 18 9 19 23 20 10 21 22 22 11 23 20 24 12 25
REMARK SMILES IDX 19 26 21 27 26 28 24 30 13 32 14 33 18 34 15 35 17 36 16 37
REMARK H PARENT 32 12 30 14 28 16 26 29 24 31
REMARK Flexibility Score: inf
ROOT
ATOM      1  O   UNL     1     -11.735  11.573   7.905  1.00  0.00    -0.458 OA
ENDROOT
BRANCH   1   2
ATOM      2  C   UNL     1     -10.806  12.543   7.411  1.00  0.00     0.339 C 
ATOM      3  C   UNL     1     -10.853  11.677   5.226  1.00  0.00     0.199 C 
ATOM      4  C   UNL     1      -9.389  11.189   5.278  1.00  0.00     0.180 C 
ATOM      5  O   UNL     1     -11.031  12.828   6.036  1.00  0.00    -0.328 OA
ATOM      6  C   UNL     1      -8.984  10.888   6.733  1.00  0.00     0.181 C 
ATOM      7  C   UNL     1      -9.357  12.066   7.659  1.00  0.00     0.214 C 
BRANCH   3   8
ATOM      8  C   UNL     1     -11.227  12.035   3.819  1.00  0.00     0.073 C 
ATOM      9  O   UNL     1     -10.638  12.977   3.226  1.00  0.00    -0.547 OA
ATOM     10  O   UNL     1     -12.229  11.331   3.162  1.00  0.00    -0.547 OA
ENDBRANCH   3   8
BRANCH   4  11
ATOM     11  O   UNL     1      -9.247  10.035   4.489  1.00  0.00    -0.387 OA
ATOM     12  H   UNL     1      -8.603  10.259   3.766  1.00  0.00     0.211 HD
ENDBRANCH   4  11
BRANCH   6  13
ATOM     13  O   UNL     1      -9.625   9.714   7.165  1.00  0.00    -0.387 OA
ATOM     14  H   UNL     1     -10.603   9.886   7.116  1.00  0.00     0.211 HD
ENDBRANCH   6  13
BRANCH   7  15
ATOM     15  O   UNL     1      -8.440  13.125   7.517  1.00  0.00    -0.384 OA
ATOM     16  H   UNL     1      -7.724  13.008   8.193  1.00  0.00     0.211 HD
ENDBRANCH   7  15
ENDBRANCH   1   2
BRANCH   1  17
ATOM     17  C   UNL     1     -12.625  10.784   7.151  1.00  0.00     0.172 A 
ATOM     18  C   UNL     1     -13.786  11.282   6.510  1.00  0.00     0.201 A 
ATOM     19  C   UNL     1     -12.317   9.427   7.057  1.00  0.00     0.098 A 
ATOM     20  C   UNL     1     -14.582  10.411   5.718  1.00  0.00     0.176 A 
ATOM     21  C   UNL     1     -13.114   8.555   6.321  1.00  0.00     0.146 A 
ATOM     22  C   UNL     1     -14.251   9.036   5.638  1.00  0.00     0.111 A 
ATOM     23  O   UNL     1     -12.782   7.269   6.266  1.00  0.00    -0.456 OA
ATOM     24  C   UNL     1     -15.003   8.102   4.890  1.00  0.00     0.197 A 
ATOM     25  C   UNL     1     -13.476   6.362   5.584  1.00  0.00     0.138 A 
ATOM     26  C   UNL     1     -14.611   6.763   4.863  1.00  0.00     0.100 A 
ATOM     27  O   UNL     1     -16.027   8.449   4.241  1.00  0.00    -0.289 OA
BRANCH  18  28
ATOM     28  O   UNL     1     -14.147  12.619   6.692  1.00  0.00    -0.502 OA
ATOM     29  H   UNL     1     -14.116  13.106   7.576  1.00  0.00     0.293 HD
ENDBRANCH  18  28
BRANCH  20  30
ATOM     30  O   UNL     1     -15.684  10.887   5.001  1.00  0.00    -0.504 OA
ATOM     31  H   UNL     1     -16.562  11.161   5.415  1.00  0.00     0.293 HD
ENDBRANCH  20  30
BRANCH  25  32
ATOM     32  C   UNL     1     -13.013   4.951   5.598  1.00  0.00     0.017 A 
ATOM     33  C   UNL     1     -13.111   4.148   6.752  1.00  0.00     0.012 A 
ATOM     34  C   UNL     1     -12.428   4.403   4.441  1.00  0.00     0.012 A 
ATOM     35  C   UNL     1     -12.654   2.826   6.737  1.00  0.00     0.001 A 
ATOM     36  C   UNL     1     -11.974   3.081   4.431  1.00  0.00     0.001 A 
ATOM     37  C   UNL     1     -12.088   2.292   5.577  1.00  0.00     0.000 A 
ENDBRANCH  25  32
ENDBRANCH   1  17
TORSDOF 9
ENDMDL
MODEL 6
REMARK VINA RESULT:    -4.815      2.365      5.523
REMARK INTER + INTRA:          -6.288
REMARK INTER:                  -7.472
REMARK INTRA:                   1.184
REMARK UNBOUND:                 0.357
REMARK SMILES O=C([O-])[C@@H]1O[C@@H](Oc2cc3oc(-c4ccccc4)cc(=O)c3c(O)c2O)[C@H](O)[C@@H](O)[C@H]1O
REMARK SMILES IDX 7 1 6 2 4 3 31 4 5 5 29 6 27 7 2 8 1 9 3 10 32 11 30 13
REMARK SMILES IDX 28 15 8 17 25 18 9 19 23 20 10 21 22 22 11 23 20 24 12 25
REMARK SMILES IDX 19 26 21 27 26 28 24 30 13 32 14 33 18 34 15 35 17 36 16 37
REMARK H PARENT 32 12 30 14 28 16 26 29 24 31
REMARK Flexibility Score: inf
ROOT
ATOM      1  O   UNL     1      -9.366   6.715   5.256  1.00  0.00    -0.458 OA
ENDROOT
BRANCH   1   2
ATOM      2  C   UNL     1     -10.332   5.730   4.872  1.00  0.00     0.339 C 
ATOM      3  C   UNL     1     -12.019   6.661   6.219  1.00  0.00     0.199 C 
ATOM      4  C   UNL     1     -12.061   5.455   7.180  1.00  0.00     0.180 C 
ATOM      5  O   UNL     1     -11.653   6.252   4.910  1.00  0.00    -0.328 OA
ATOM      6  C   UNL     1     -10.692   4.749   7.202  1.00  0.00     0.181 C 
ATOM      7  C   UNL     1     -10.194   4.476   5.766  1.00  0.00     0.214 C 
BRANCH   3   8
ATOM      8  C   UNL     1     -13.370   7.308   6.144  1.00  0.00     0.073 C 
ATOM      9  O   UNL     1     -13.538   8.477   6.581  1.00  0.00    -0.547 OA
ATOM     10  O   UNL     1     -14.444   6.619   5.595  1.00  0.00    -0.547 OA
ENDBRANCH   3   8
BRANCH   4  11
ATOM     11  O   UNL     1     -12.399   5.891   8.472  1.00  0.00    -0.387 OA
ATOM     12  H   UNL     1     -12.538   5.075   9.022  1.00  0.00     0.211 HD
ENDBRANCH   4  11
BRANCH   6  13
ATOM     13  O   UNL     1      -9.763   5.549   7.889  1.00  0.00    -0.387 OA
ATOM     14  H   UNL     1      -9.864   6.473   7.538  1.00  0.00     0.211 HD
ENDBRANCH   6  13
BRANCH   7  15
ATOM     15  O   UNL     1     -10.866   3.374   5.204  1.00  0.00    -0.384 OA
ATOM     16  H   UNL     1     -11.475   3.710   4.497  1.00  0.00     0.211 HD
ENDBRANCH   7  15
ENDBRANCH   1   2
BRANCH   1  17
ATOM     17  C   UNL     1      -9.562   8.106   5.355  1.00  0.00     0.172 A 
ATOM     18  C   UNL     1      -8.687   8.988   6.036  1.00  0.00     0.201 A 
ATOM     19  C   UNL     1     -10.706   8.612   4.739  1.00  0.00     0.098 A 
ATOM     20  C   UNL     1      -8.945  10.386   6.020  1.00  0.00     0.176 A 
ATOM     21  C   UNL     1     -10.992   9.974   4.755  1.00  0.00     0.146 A 
ATOM     22  C   UNL     1     -10.114  10.877   5.389  1.00  0.00     0.111 A 
ATOM     23  O   UNL     1     -12.099  10.407   4.158  1.00  0.00    -0.456 OA
ATOM     24  C   UNL     1     -10.452  12.249   5.348  1.00  0.00     0.197 A 
ATOM     25  C   UNL     1     -12.453  11.689   4.114  1.00  0.00     0.138 A 
ATOM     26  C   UNL     1     -11.623  12.653   4.707  1.00  0.00     0.100 A 
ATOM     27  O   UNL     1      -9.717  13.125   5.880  1.00  0.00    -0.289 OA
BRANCH  18  28
ATOM     28  O   UNL     1      -7.600   8.466   6.738  1.00  0.00    -0.502 OA
ATOM     29  H   UNL     1      -7.389   8.670   7.705  1.00  0.00     0.293 HD
ENDBRANCH  18  28
BRANCH  20  30
ATOM     30  O   UNL     1      -8.056  11.293   6.606  1.00  0.00    -0.504 OA
ATOM     31  H   UNL     1      -8.323  12.183   7.000  1.00  0.00     0.293 HD
ENDBRANCH  20  30
BRANCH  25  32
ATOM     32  C   UNL     1     -13.714  12.057   3.422  1.00  0.00     0.017 A 
ATOM     33  C   UNL     1     -14.729  12.792   4.069  1.00  0.00     0.012 A 
ATOM     34  C   UNL     1     -13.924  11.636   2.096  1.00  0.00     0.012 A 
ATOM     35  C   UNL     1     -15.911  13.113   3.394  1.00  0.00     0.001 A 
ATOM     36  C   UNL     1     -15.108  11.959   1.426  1.00  0.00     0.001 A 
ATOM     37  C   UNL     1     -16.100  12.699   2.073  1.00  0.00     0.000 A 
ENDBRANCH  25  32
ENDBRANCH   1  17
TORSDOF 9
ENDMDL
MODEL 7
REMARK VINA RESULT:    -4.785      1.390      2.056
REMARK INTER + INTRA:          -6.246
REMARK INTER:                  -6.384
REMARK INTRA:                   0.138
REMARK UNBOUND:                 0.357
REMARK SMILES O=C([O-])[C@@H]1O[C@@H](Oc2cc3oc(-c4ccccc4)cc(=O)c3c(O)c2O)[C@H](O)[C@@H](O)[C@H]1O
REMARK SMILES IDX 7 1 6 2 4 3 31 4 5 5 29 6 27 7 2 8 1 9 3 10 32 11 30 13
REMARK SMILES IDX 28 15 8 17 25 18 9 19 23 20 10 21 22 22 11 23 20 24 12 25
REMARK SMILES IDX 19 26 21 27 26 28 24 30 13 32 14 33 18 34 15 35 17 36 16 37
REMARK H PARENT 32 12 30 14 28 16 26 29 24 31
REMARK Flexibility Score: inf
ROOT
ATOM      1  O   UNL     1     -13.243   5.187   4.550  1.00  0.00    -0.458 OA
ENDROOT
BRANCH   1   2
ATOM      2  C   UNL     1     -13.260   3.992   5.337  1.00  0.00     0.339 C 
ATOM      3  C   UNL     1     -11.793   4.869   6.951  1.00  0.00     0.199 C 
ATOM      4  C   UNL     1     -10.650   3.897   6.591  1.00  0.00     0.180 C 
ATOM      5  O   UNL     1     -13.059   4.271   6.716  1.00  0.00    -0.328 OA
ATOM      6  C   UNL     1     -10.772   3.461   5.118  1.00  0.00     0.181 C 
ATOM      7  C   UNL     1     -12.209   2.991   4.804  1.00  0.00     0.214 C 
BRANCH   3   8
ATOM      8  C   UNL     1     -11.716   5.241   8.402  1.00  0.00     0.073 C 
ATOM      9  O   UNL     1     -12.584   6.000   8.909  1.00  0.00    -0.547 OA
ATOM     10  O   UNL     1     -10.684   4.752   9.194  1.00  0.00    -0.547 OA
ENDBRANCH   3   8
BRANCH   4  11
ATOM     11  O   UNL     1      -9.411   4.523   6.807  1.00  0.00    -0.387 OA
ATOM     12  H   UNL     1      -8.719   3.811   6.756  1.00  0.00     0.211 HD
ENDBRANCH   4  11
BRANCH   6  13
ATOM     13  O   UNL     1     -10.423   4.535   4.281  1.00  0.00    -0.387 OA
ATOM     14  H   UNL     1     -10.725   4.295   3.365  1.00  0.00     0.211 HD
ENDBRANCH   6  13
BRANCH   7  15
ATOM     15  O   UNL     1     -12.435   1.697   5.311  1.00  0.00    -0.384 OA
ATOM     16  H   UNL     1     -11.564   1.322   5.601  1.00  0.00     0.211 HD
ENDBRANCH   7  15
ENDBRANCH   1   2
BRANCH   1  17
ATOM     17  C   UNL     1     -13.169   6.514   5.018  1.00  0.00     0.172 A 
ATOM     18  C   UNL     1     -14.296   7.319   5.316  1.00  0.00     0.201 A 
ATOM     19  C   UNL     1     -11.887   7.039   5.178  1.00  0.00     0.098 A 
ATOM     20  C   UNL     1     -14.108   8.624   5.845  1.00  0.00     0.176 A 
ATOM     21  C   UNL     1     -11.691   8.333   5.654  1.00  0.00     0.146 A 
ATOM     22  C   UNL     1     -12.797   9.138   5.998  1.00  0.00     0.111 A 
ATOM     23  O   UNL     1     -10.450   8.790   5.784  1.00  0.00    -0.456 OA
ATOM     24  C   UNL     1     -12.527  10.432   6.497  1.00  0.00     0.197 A 
ATOM     25  C   UNL     1     -10.162  10.008   6.235  1.00  0.00     0.138 A 
ATOM     26  C   UNL     1     -11.206  10.865   6.617  1.00  0.00     0.100 A 
ATOM     27  O   UNL     1     -13.455  11.214   6.839  1.00  0.00    -0.289 OA
BRANCH  18  28
ATOM     28  O   UNL     1     -15.576   6.826   5.056  1.00  0.00    -0.502 OA
ATOM     29  H   UNL     1     -15.958   5.981   5.456  1.00  0.00     0.293 HD
ENDBRANCH  18  28
BRANCH  20  30
ATOM     30  O   UNL     1     -15.196   9.413   6.233  1.00  0.00    -0.504 OA
ATOM     31  H   UNL     1     -16.164   9.161   6.097  1.00  0.00     0.293 HD
ENDBRANCH  20  30
BRANCH  25  32
ATOM     32  C   UNL     1      -8.737  10.413   6.335  1.00  0.00     0.017 A 
ATOM     33  C   UNL     1      -7.787  10.034   5.365  1.00  0.00     0.012 A 
ATOM     34  C   UNL     1      -8.308  11.168   7.443  1.00  0.00     0.012 A 
ATOM     35  C   UNL     1      -6.449  10.420   5.494  1.00  0.00     0.001 A 
ATOM     36  C   UNL     1      -6.970  11.552   7.567  1.00  0.00     0.001 A 
ATOM     37  C   UNL     1      -6.041  11.181   6.593  1.00  0.00     0.000 A 
ENDBRANCH  25  32
ENDBRANCH   1  17
TORSDOF 9
ENDMDL
MODEL 8
REMARK VINA RESULT:    -4.550      1.774      5.692
REMARK INTER + INTRA:          -5.923
REMARK INTER:                  -6.025
REMARK INTRA:                   0.102
REMARK UNBOUND:                 0.357
REMARK SMILES O=C([O-])[C@@H]1O[C@@H](Oc2cc3oc(-c4ccccc4)cc(=O)c3c(O)c2O)[C@H](O)[C@@H](O)[C@H]1O
REMARK SMILES IDX 7 1 6 2 4 3 31 4 5 5 29 6 27 7 2 8 1 9 3 10 32 11 30 13
REMARK SMILES IDX 28 15 8 17 25 18 9 19 23 20 10 21 22 22 11 23 20 24 12 25
REMARK SMILES IDX 19 26 21 27 26 28 24 30 13 32 14 33 18 34 15 35 17 36 16 37
REMARK H PARENT 32 12 30 14 28 16 26 29 24 31
REMARK Flexibility Score: inf
ROOT
ATOM      1  O   UNL     1     -14.450   8.765   4.380  1.00  0.00    -0.458 OA
ENDROOT
BRANCH   1   2
ATOM      2  C   UNL     1     -14.520   9.624   3.237  1.00  0.00     0.339 C 
ATOM      3  C   UNL     1     -13.433  11.398   4.332  1.00  0.00     0.199 C 
ATOM      4  C   UNL     1     -14.685  12.300   4.334  1.00  0.00     0.180 C 
ATOM      5  O   UNL     1     -13.431  10.538   3.203  1.00  0.00    -0.328 OA
ATOM      6  C   UNL     1     -15.959  11.435   4.318  1.00  0.00     0.181 C 
ATOM      7  C   UNL     1     -15.878  10.362   3.210  1.00  0.00     0.214 C 
BRANCH   3   8
ATOM      8  C   UNL     1     -12.192  12.238   4.278  1.00  0.00     0.073 C 
ATOM      9  O   UNL     1     -11.717  12.736   5.334  1.00  0.00    -0.547 OA
ATOM     10  O   UNL     1     -11.560  12.474   3.064  1.00  0.00    -0.547 OA
ENDBRANCH   3   8
BRANCH   4  11
ATOM     11  O   UNL     1     -14.674  13.122   5.474  1.00  0.00    -0.387 OA
ATOM     12  H   UNL     1     -13.723  13.344   5.657  1.00  0.00     0.211 HD
ENDBRANCH   4  11
BRANCH   6  13
ATOM     13  O   UNL     1     -16.125  10.821   5.571  1.00  0.00    -0.387 OA
ATOM     14  H   UNL     1     -16.536   9.932   5.404  1.00  0.00     0.211 HD
ENDBRANCH   6  13
BRANCH   7  15
ATOM     15  O   UNL     1     -16.125  10.928   1.945  1.00  0.00    -0.384 OA
ATOM     16  H   UNL     1     -15.254  11.055   1.487  1.00  0.00     0.211 HD
ENDBRANCH   7  15
ENDBRANCH   1   2
BRANCH   1  17
ATOM     17  C   UNL     1     -13.311   8.105   4.881  1.00  0.00     0.172 A 
ATOM     18  C   UNL     1     -13.250   6.717   5.156  1.00  0.00     0.201 A 
ATOM     19  C   UNL     1     -12.192   8.903   5.118  1.00  0.00     0.098 A 
ATOM     20  C   UNL     1     -12.028   6.140   5.599  1.00  0.00     0.176 A 
ATOM     21  C   UNL     1     -11.003   8.356   5.594  1.00  0.00     0.146 A 
ATOM     22  C   UNL     1     -10.905   6.970   5.834  1.00  0.00     0.111 A 
ATOM     23  O   UNL     1      -9.966   9.159   5.810  1.00  0.00    -0.456 OA
ATOM     24  C   UNL     1      -9.663   6.477   6.294  1.00  0.00     0.197 A 
ATOM     25  C   UNL     1      -8.789   8.730   6.256  1.00  0.00     0.138 A 
ATOM     26  C   UNL     1      -8.603   7.360   6.503  1.00  0.00     0.100 A 
ATOM     27  O   UNL     1      -9.484   5.250   6.523  1.00  0.00    -0.289 OA
BRANCH  18  28
ATOM     28  O   UNL     1     -14.402   5.941   5.016  1.00  0.00    -0.502 OA
ATOM     29  H   UNL     1     -14.643   5.416   4.187  1.00  0.00     0.293 HD
ENDBRANCH  18  28
BRANCH  20  30
ATOM     30  O   UNL     1     -11.907   4.761   5.795  1.00  0.00    -0.504 OA
ATOM     31  H   UNL     1     -11.080   4.302   6.147  1.00  0.00     0.293 HD
ENDBRANCH  20  30
BRANCH  25  32
ATOM     32  C   UNL     1      -7.701   9.719   6.464  1.00  0.00     0.017 A 
ATOM     33  C   UNL     1      -6.554   9.746   5.644  1.00  0.00     0.012 A 
ATOM     34  C   UNL     1      -7.793  10.636   7.528  1.00  0.00     0.012 A 
ATOM     35  C   UNL     1      -5.540  10.681   5.873  1.00  0.00     0.001 A 
ATOM     36  C   UNL     1      -6.776  11.569   7.752  1.00  0.00     0.001 A 
ATOM     37  C   UNL     1      -5.652  11.594   6.925  1.00  0.00     0.000 A 
ENDBRANCH  25  32
ENDBRANCH   1  17
TORSDOF 9
ENDMDL
