MODEL 1
REMARK VINA RESULT:    -4.534      0.000      0.000
REMARK INTER + INTRA:          -8.766
REMARK INTER:                  -7.185
REMARK INTRA:                  -1.581
REMARK UNBOUND:                -1.581
REMARK SMILES CCCCCCCCCCCC(=O)[O-]
REMARK SMILES IDX 7 1 8 2 9 3 10 4 11 5 12 6 13 7 14 8 6 9 5 10 4 11 3 12 2 13
REMARK SMILES IDX 1 14
REMARK H PARENT
REMARK Flexibility Score: inf
ROOT
ATOM      1  C   UNL     1      58.002  39.584  34.217  1.00  0.00     0.000 C 
ENDROOT
BRANCH   1   2
ATOM      2  C   UNL     1      57.247  38.634  35.162  1.00  0.00     0.000 C 
BRANCH   2   3
ATOM      3  C   UNL     1      58.038  37.352  35.469  1.00  0.00     0.000 C 
BRANCH   3   4
ATOM      4  C   UNL     1      58.477  37.268  36.941  1.00  0.00     0.006 C 
BRANCH   4   5
ATOM      5  C   UNL     1      57.956  38.450  37.769  1.00  0.00     0.053 C 
BRANCH   5   6
ATOM      6  C   UNL     1      57.051  37.998  38.875  1.00  0.00     0.041 C 
ATOM      7  O   UNL     1      57.277  38.348  40.062  1.00  0.00    -0.550 OA
ATOM      8  O   UNL     1      55.940  37.215  38.587  1.00  0.00    -0.550 OA
ENDBRANCH   5   6
ENDBRANCH   4   5
ENDBRANCH   3   4
ENDBRANCH   2   3
ENDBRANCH   1   2
BRANCH   1   9
ATOM      9  C   UNL     1      58.658  40.765  34.955  1.00  0.00     0.000 C 
BRANCH   9  10
ATOM     10  C   UNL     1      60.196  40.726  35.007  1.00  0.00    -0.000 C 
BRANCH  10  11
ATOM     11  C   UNL     1      60.738  40.304  36.384  1.00  0.00    -0.000 C 
BRANCH  11  12
ATOM     12  C   UNL     1      61.790  39.187  36.286  1.00  0.00    -0.000 C 
BRANCH  12  13
ATOM     13  C   UNL     1      61.842  38.542  34.893  1.00  0.00    -0.003 C 
ATOM     14  C   UNL     1      61.546  37.048  34.968  1.00  0.00     0.004 C 
ENDBRANCH  12  13
ENDBRANCH  11  12
ENDBRANCH  10  11
ENDBRANCH   9  10
ENDBRANCH   1   9
TORSDOF 10
ENDMDL
MODEL 2
REMARK VINA RESULT:    -4.460      1.813      3.666
REMARK INTER + INTRA:          -8.648
REMARK INTER:                  -7.554
REMARK INTRA:                  -1.094
REMARK UNBOUND:                -1.581
REMARK SMILES CCCCCCCCCCCC(=O)[O-]
REMARK SMILES IDX 7 1 8 2 9 3 10 4 11 5 12 6 13 7 14 8 6 9 5 10 4 11 3 12 2 13
REMARK SMILES IDX 1 14
REMARK H PARENT
REMARK Flexibility Score: inf
ROOT
ATOM      1  C   UNL     1      60.435  37.445  37.199  1.00  0.00     0.000 C 
ENDROOT
BRANCH   1   2
ATOM      2  C   UNL     1      59.776  38.284  38.309  1.00  0.00     0.000 C 
BRANCH   2   3
ATOM      3  C   UNL     1      58.284  38.545  38.046  1.00  0.00     0.000 C 
BRANCH   3   4
ATOM      4  C   UNL     1      57.440  38.491  39.331  1.00  0.00     0.006 C 
BRANCH   4   5
ATOM      5  C   UNL     1      56.240  37.544  39.195  1.00  0.00     0.053 C 
BRANCH   5   6
ATOM      6  C   UNL     1      55.493  37.404  40.486  1.00  0.00     0.041 C 
ATOM      7  O   UNL     1      55.980  36.734  41.433  1.00  0.00    -0.550 OA
ATOM      8  O   UNL     1      54.269  38.041  40.653  1.00  0.00    -0.550 OA
ENDBRANCH   5   6
ENDBRANCH   4   5
ENDBRANCH   3   4
ENDBRANCH   2   3
ENDBRANCH   1   2
BRANCH   1   9
ATOM      9  C   UNL     1      59.412  36.668  36.351  1.00  0.00     0.000 C 
BRANCH   9  10
ATOM     10  C   UNL     1      59.366  37.062  34.864  1.00  0.00    -0.000 C 
BRANCH  10  11
ATOM     11  C   UNL     1      57.931  37.245  34.337  1.00  0.00    -0.000 C 
BRANCH  11  12
ATOM     12  C   UNL     1      57.528  38.724  34.229  1.00  0.00    -0.000 C 
BRANCH  12  13
ATOM     13  C   UNL     1      58.733  39.655  34.027  1.00  0.00    -0.003 C 
ATOM     14  C   UNL     1      58.742  40.774  35.064  1.00  0.00     0.004 C 
ENDBRANCH  12  13
ENDBRANCH  11  12
ENDBRANCH  10  11
ENDBRANCH   9  10
ENDBRANCH   1   9
TORSDOF 10
ENDMDL
MODEL 3
REMARK VINA RESULT:    -4.439      7.971     10.841
REMARK INTER + INTRA:          -8.615
REMARK INTER:                  -7.628
REMARK INTRA:                  -0.987
REMARK UNBOUND:                -1.581
REMARK SMILES CCCCCCCCCCCC(=O)[O-]
REMARK SMILES IDX 7 1 8 2 9 3 10 4 11 5 12 6 13 7 14 8 6 9 5 10 4 11 3 12 2 13
REMARK SMILES IDX 1 14
REMARK H PARENT
REMARK Flexibility Score: inf
ROOT
ATOM      1  C   UNL     1      52.437  34.475  44.049  1.00  0.00     0.000 C 
ENDROOT
BRANCH   1   2
ATOM      2  C   UNL     1      51.886  33.770  42.797  1.00  0.00     0.000 C 
BRANCH   2   3
ATOM      3  C   UNL     1      50.728  32.810  43.120  1.00  0.00     0.000 C 
BRANCH   3   4
ATOM      4  C   UNL     1      50.528  31.741  42.032  1.00  0.00     0.006 C 
BRANCH   4   5
ATOM      5  C   UNL     1      50.756  30.321  42.568  1.00  0.00     0.053 C 
BRANCH   5   6
ATOM      6  C   UNL     1      52.073  29.762  42.121  1.00  0.00     0.041 C 
ATOM      7  O   UNL     1      52.152  29.102  41.053  1.00  0.00    -0.550 OA
ATOM      8  O   UNL     1      53.218  29.996  42.872  1.00  0.00    -0.550 OA
ENDBRANCH   5   6
ENDBRANCH   4   5
ENDBRANCH   3   4
ENDBRANCH   2   3
ENDBRANCH   1   2
BRANCH   1   9
ATOM      9  C   UNL     1      53.933  34.197  44.281  1.00  0.00     0.000 C 
BRANCH   9  10
ATOM     10  C   UNL     1      54.586  33.251  43.257  1.00  0.00    -0.000 C 
BRANCH  10  11
ATOM     11  C   UNL     1      55.618  33.959  42.361  1.00  0.00    -0.000 C 
BRANCH  11  12
ATOM     12  C   UNL     1      55.970  35.368  42.867  1.00  0.00    -0.000 C 
BRANCH  12  13
ATOM     13  C   UNL     1      55.697  36.459  41.821  1.00  0.00    -0.003 C 
ATOM     14  C   UNL     1      54.333  37.104  42.045  1.00  0.00     0.004 C 
ENDBRANCH  12  13
ENDBRANCH  11  12
ENDBRANCH  10  11
ENDBRANCH   9  10
ENDBRANCH   1   9
TORSDOF 10
ENDMDL
MODEL 4
REMARK VINA RESULT:    -4.347      7.831     11.190
REMARK INTER + INTRA:          -8.470
REMARK INTER:                  -7.627
REMARK INTRA:                  -0.844
REMARK UNBOUND:                -1.581
REMARK SMILES CCCCCCCCCCCC(=O)[O-]
REMARK SMILES IDX 7 1 8 2 9 3 10 4 11 5 12 6 13 7 14 8 6 9 5 10 4 11 3 12 2 13
REMARK SMILES IDX 1 14
REMARK H PARENT
REMARK Flexibility Score: inf
ROOT
ATOM      1  C   UNL     1      50.827  32.832  43.052  1.00  0.00     0.000 C 
ENDROOT
BRANCH   1   2
ATOM      2  C   UNL     1      51.939  33.784  42.578  1.00  0.00     0.000 C 
BRANCH   2   3
ATOM      3  C   UNL     1      52.986  34.060  43.668  1.00  0.00     0.000 C 
BRANCH   3   4
ATOM      4  C   UNL     1      53.849  35.296  43.358  1.00  0.00     0.006 C 
BRANCH   4   5
ATOM      5  C   UNL     1      55.225  34.915  42.796  1.00  0.00     0.053 C 
BRANCH   5   6
ATOM      6  C   UNL     1      56.070  36.122  42.528  1.00  0.00     0.041 C 
ATOM      7  O   UNL     1      55.885  36.808  41.489  1.00  0.00    -0.550 OA
ATOM      8  O   UNL     1      57.044  36.505  43.441  1.00  0.00    -0.550 OA
ENDBRANCH   5   6
ENDBRANCH   4   5
ENDBRANCH   3   4
ENDBRANCH   2   3
ENDBRANCH   1   2
BRANCH   1   9
ATOM      9  C   UNL     1      50.556  31.687  42.060  1.00  0.00     0.000 C 
BRANCH   9  10
ATOM     10  C   UNL     1      50.902  30.280  42.580  1.00  0.00    -0.000 C 
BRANCH  10  11
ATOM     11  C   UNL     1      52.295  29.801  42.131  1.00  0.00    -0.000 C 
BRANCH  11  12
ATOM     12  C   UNL     1      53.309  29.777  43.286  1.00  0.00    -0.000 C 
BRANCH  12  13
ATOM     13  C   UNL     1      54.739  30.101  42.827  1.00  0.00    -0.003 C 
ATOM     14  C   UNL     1      55.298  31.303  43.581  1.00  0.00     0.004 C 
ENDBRANCH  12  13
ENDBRANCH  11  12
ENDBRANCH  10  11
ENDBRANCH   9  10
ENDBRANCH   1   9
TORSDOF 10
ENDMDL
MODEL 5
REMARK VINA RESULT:    -4.345      8.629     11.519
REMARK INTER + INTRA:          -8.467
REMARK INTER:                  -7.624
REMARK INTRA:                  -0.843
REMARK UNBOUND:                -1.581
REMARK SMILES CCCCCCCCCCCC(=O)[O-]
REMARK SMILES IDX 7 1 8 2 9 3 10 4 11 5 12 6 13 7 14 8 6 9 5 10 4 11 3 12 2 13
REMARK SMILES IDX 1 14
REMARK H PARENT
REMARK Flexibility Score: inf
ROOT
ATOM      1  C   UNL     1      55.280  31.205  43.633  1.00  0.00     0.000 C 
ENDROOT
BRANCH   1   2
ATOM      2  C   UNL     1      54.754  32.647  43.525  1.00  0.00     0.000 C 
BRANCH   2   3
ATOM      3  C   UNL     1      55.586  33.510  42.562  1.00  0.00     0.000 C 
BRANCH   3   4
ATOM      4  C   UNL     1      55.075  34.958  42.475  1.00  0.00     0.006 C 
BRANCH   4   5
ATOM      5  C   UNL     1      54.047  35.275  43.570  1.00  0.00     0.053 C 
BRANCH   5   6
ATOM      6  C   UNL     1      53.266  36.515  43.257  1.00  0.00     0.041 C 
ATOM      7  O   UNL     1      52.501  36.548  42.258  1.00  0.00    -0.550 OA
ATOM      8  O   UNL     1      53.361  37.624  44.088  1.00  0.00    -0.550 OA
ENDBRANCH   5   6
ENDBRANCH   4   5
ENDBRANCH   3   4
ENDBRANCH   2   3
ENDBRANCH   1   2
BRANCH   1   9
ATOM      9  C   UNL     1      54.567  30.236  42.673  1.00  0.00     0.000 C 
BRANCH   9  10
ATOM     10  C   UNL     1      53.205  29.714  43.167  1.00  0.00    -0.000 C 
BRANCH  10  11
ATOM     11  C   UNL     1      52.106  29.798  42.093  1.00  0.00    -0.000 C 
BRANCH  11  12
ATOM     12  C   UNL     1      50.775  30.328  42.652  1.00  0.00    -0.000 C 
BRANCH  12  13
ATOM     13  C   UNL     1      50.389  31.694  42.068  1.00  0.00    -0.003 C 
ATOM     14  C   UNL     1      51.145  32.822  42.763  1.00  0.00     0.004 C 
ENDBRANCH  12  13
ENDBRANCH  11  12
ENDBRANCH  10  11
ENDBRANCH   9  10
ENDBRANCH   1   9
TORSDOF 10
ENDMDL
MODEL 6
REMARK VINA RESULT:    -4.299     10.474     11.776
REMARK INTER + INTRA:          -8.393
REMARK INTER:                  -7.387
REMARK INTRA:                  -1.006
REMARK UNBOUND:                -1.581
REMARK SMILES CCCCCCCCCCCC(=O)[O-]
REMARK SMILES IDX 7 1 8 2 9 3 10 4 11 5 12 6 13 7 14 8 6 9 5 10 4 11 3 12 2 13
REMARK SMILES IDX 1 14
REMARK H PARENT
REMARK Flexibility Score: inf
ROOT
ATOM      1  C   UNL     1      50.880  32.833  43.115  1.00  0.00     0.000 C 
ENDROOT
BRANCH   1   2
ATOM      2  C   UNL     1      51.798  33.924  42.538  1.00  0.00     0.000 C 
BRANCH   2   3
ATOM      3  C   UNL     1      53.270  33.732  42.939  1.00  0.00     0.000 C 
BRANCH   3   4
ATOM      4  C   UNL     1      53.577  34.286  44.341  1.00  0.00     0.006 C 
BRANCH   4   5
ATOM      5  C   UNL     1      53.473  35.816  44.395  1.00  0.00     0.053 C 
BRANCH   5   6
ATOM      6  C   UNL     1      52.565  36.275  45.494  1.00  0.00     0.041 C 
ATOM      7  O   UNL     1      53.014  36.977  46.437  1.00  0.00    -0.550 OA
ATOM      8  O   UNL     1      51.215  35.949  45.461  1.00  0.00    -0.550 OA
ENDBRANCH   5   6
ENDBRANCH   4   5
ENDBRANCH   3   4
ENDBRANCH   2   3
ENDBRANCH   1   2
BRANCH   1   9
ATOM      9  C   UNL     1      50.512  31.754  42.081  1.00  0.00     0.000 C 
BRANCH   9  10
ATOM     10  C   UNL     1      50.821  30.308  42.510  1.00  0.00    -0.000 C 
BRANCH  10  11
ATOM     11  C   UNL     1      52.220  29.838  42.072  1.00  0.00    -0.000 C 
BRANCH  11  12
ATOM     12  C   UNL     1      53.225  29.815  43.234  1.00  0.00    -0.000 C 
BRANCH  12  13
ATOM     13  C   UNL     1      54.666  30.091  42.779  1.00  0.00    -0.003 C 
ATOM     14  C   UNL     1      55.361  31.070  43.720  1.00  0.00     0.004 C 
ENDBRANCH  12  13
ENDBRANCH  11  12
ENDBRANCH  10  11
ENDBRANCH   9  10
ENDBRANCH   1   9
TORSDOF 10
ENDMDL
MODEL 7
REMARK VINA RESULT:    -4.286      9.668     11.719
REMARK INTER + INTRA:          -8.374
REMARK INTER:                  -7.554
REMARK INTRA:                  -0.820
REMARK UNBOUND:                -1.581
REMARK SMILES CCCCCCCCCCCC(=O)[O-]
REMARK SMILES IDX 7 1 8 2 9 3 10 4 11 5 12 6 13 7 14 8 6 9 5 10 4 11 3 12 2 13
REMARK SMILES IDX 1 14
REMARK H PARENT
REMARK Flexibility Score: inf
ROOT
ATOM      1  C   UNL     1      55.170  32.760  43.057  1.00  0.00     0.000 C 
ENDROOT
BRANCH   1   2
ATOM      2  C   UNL     1      53.948  33.555  43.549  1.00  0.00     0.000 C 
BRANCH   2   3
ATOM      3  C   UNL     1      53.990  35.031  43.120  1.00  0.00     0.000 C 
BRANCH   3   4
ATOM      4  C   UNL     1      52.587  35.629  42.924  1.00  0.00     0.006 C 
BRANCH   4   5
ATOM      5  C   UNL     1      51.708  35.465  44.171  1.00  0.00     0.053 C 
BRANCH   5   6
ATOM      6  C   UNL     1      52.005  36.510  45.203  1.00  0.00     0.041 C 
ATOM      7  O   UNL     1      52.246  37.695  44.854  1.00  0.00    -0.550 OA
ATOM      8  O   UNL     1      51.985  36.180  46.552  1.00  0.00    -0.550 OA
ENDBRANCH   5   6
ENDBRANCH   4   5
ENDBRANCH   3   4
ENDBRANCH   2   3
ENDBRANCH   1   2
BRANCH   1   9
ATOM      9  C   UNL     1      55.290  31.377  43.722  1.00  0.00     0.000 C 
BRANCH   9  10
ATOM     10  C   UNL     1      54.835  30.193  42.849  1.00  0.00    -0.000 C 
BRANCH  10  11
ATOM     11  C   UNL     1      53.450  29.652  43.247  1.00  0.00    -0.000 C 
BRANCH  11  12
ATOM     12  C   UNL     1      52.429  29.749  42.102  1.00  0.00    -0.000 C 
BRANCH  12  13
ATOM     13  C   UNL     1      51.045  30.213  42.580  1.00  0.00    -0.003 C 
ATOM     14  C   UNL     1      50.828  31.693  42.281  1.00  0.00     0.004 C 
ENDBRANCH  12  13
ENDBRANCH  11  12
ENDBRANCH  10  11
ENDBRANCH   9  10
ENDBRANCH   1   9
TORSDOF 10
ENDMDL
MODEL 8
REMARK VINA RESULT:    -4.232     10.405     11.998
REMARK INTER + INTRA:          -8.288
REMARK INTER:                  -7.254
REMARK INTRA:                  -1.034
REMARK UNBOUND:                -1.581
REMARK SMILES CCCCCCCCCCCC(=O)[O-]
REMARK SMILES IDX 7 1 8 2 9 3 10 4 11 5 12 6 13 7 14 8 6 9 5 10 4 11 3 12 2 13
REMARK SMILES IDX 1 14
REMARK H PARENT
REMARK Flexibility Score: inf
ROOT
ATOM      1  C   UNL     1      53.436  33.372  42.852  1.00  0.00     0.000 C 
ENDROOT
BRANCH   1   2
ATOM      2  C   UNL     1      51.995  33.869  42.640  1.00  0.00     0.000 C 
BRANCH   2   3
ATOM      3  C   UNL     1      50.943  32.826  43.049  1.00  0.00     0.000 C 
BRANCH   3   4
ATOM      4  C   UNL     1      50.704  31.769  41.958  1.00  0.00     0.006 C 
BRANCH   4   5
ATOM      5  C   UNL     1      50.887  30.340  42.486  1.00  0.00     0.053 C 
BRANCH   5   6
ATOM      6  C   UNL     1      52.182  29.739  42.031  1.00  0.00     0.041 C 
ATOM      7  O   UNL     1      52.240  29.107  40.945  1.00  0.00    -0.550 OA
ATOM      8  O   UNL     1      53.331  29.905  42.793  1.00  0.00    -0.550 OA
ENDBRANCH   5   6
ENDBRANCH   4   5
ENDBRANCH   3   4
ENDBRANCH   2   3
ENDBRANCH   1   2
BRANCH   1   9
ATOM      9  C   UNL     1      54.285  34.343  43.693  1.00  0.00     0.000 C 
BRANCH   9  10
ATOM     10  C   UNL     1      53.573  35.646  44.099  1.00  0.00    -0.000 C 
BRANCH  10  11
ATOM     11  C   UNL     1      53.485  35.830  45.625  1.00  0.00    -0.000 C 
BRANCH  11  12
ATOM     12  C   UNL     1      52.175  36.505  46.063  1.00  0.00    -0.000 C 
BRANCH  12  13
ATOM     13  C   UNL     1      51.159  36.628  44.917  1.00  0.00    -0.003 C 
ATOM     14  C   UNL     1      49.925  35.772  45.183  1.00  0.00     0.004 C 
ENDBRANCH  12  13
ENDBRANCH  11  12
ENDBRANCH  10  11
ENDBRANCH   9  10
ENDBRANCH   1   9
TORSDOF 10
ENDMDL
MODEL 9
REMARK VINA RESULT:    -4.228      2.184      3.196
REMARK INTER + INTRA:          -8.282
REMARK INTER:                  -7.554
REMARK INTRA:                  -0.728
REMARK UNBOUND:                -1.581
REMARK SMILES CCCCCCCCCCCC(=O)[O-]
REMARK SMILES IDX 7 1 8 2 9 3 10 4 11 5 12 6 13 7 14 8 6 9 5 10 4 11 3 12 2 13
REMARK SMILES IDX 1 14
REMARK H PARENT
REMARK Flexibility Score: inf
ROOT
ATOM      1  C   UNL     1      58.522  38.747  38.183  1.00  0.00     0.000 C 
ENDROOT
BRANCH   1   2
ATOM      2  C   UNL     1      57.575  37.752  37.491  1.00  0.00     0.000 C 
BRANCH   2   3
ATOM      3  C   UNL     1      56.368  37.376  38.366  1.00  0.00     0.000 C 
BRANCH   3   4
ATOM      4  C   UNL     1      56.428  38.021  39.762  1.00  0.00     0.006 C 
BRANCH   4   5
ATOM      5  C   UNL     1      55.979  37.054  40.865  1.00  0.00     0.053 C 
BRANCH   5   6
ATOM      6  C   UNL     1      54.744  37.538  41.561  1.00  0.00     0.041 C 
ATOM      7  O   UNL     1      53.840  38.126  40.913  1.00  0.00    -0.550 OA
ATOM      8  O   UNL     1      54.580  37.312  42.922  1.00  0.00    -0.550 OA
ENDBRANCH   5   6
ENDBRANCH   4   5
ENDBRANCH   3   4
ENDBRANCH   2   3
ENDBRANCH   1   2
BRANCH   1   9
ATOM      9  C   UNL     1      59.927  38.167  38.425  1.00  0.00     0.000 C 
BRANCH   9  10
ATOM     10  C   UNL     1      61.090  39.135  38.142  1.00  0.00    -0.000 C 
BRANCH  10  11
ATOM     11  C   UNL     1      61.019  39.762  36.738  1.00  0.00    -0.000 C 
BRANCH  11  12
ATOM     12  C   UNL     1      62.143  39.266  35.814  1.00  0.00    -0.000 C 
BRANCH  12  13
ATOM     13  C   UNL     1      61.618  38.428  34.639  1.00  0.00    -0.003 C 
ATOM     14  C   UNL     1      61.240  37.022  35.092  1.00  0.00     0.004 C 
ENDBRANCH  12  13
ENDBRANCH  11  12
ENDBRANCH  10  11
ENDBRANCH   9  10
ENDBRANCH   1   9
TORSDOF 10
ENDMDL
