MODEL 1
REMARK VINA RESULT:    -3.327      0.000      0.000
REMARK INTER + INTRA:          -3.951
REMARK INTER:                  -3.911
REMARK INTRA:                  -0.040
REMARK UNBOUND:                -0.040
REMARK SMILES CCCCC(=O)[O-]
REMARK SMILES IDX 4 1 5 2 6 3 7 4 3 5 2 6 1 7
REMARK H PARENT
REMARK Flexibility Score: inf
ROOT
ATOM      1  C   UNL     1      38.990  74.184  73.774  1.00  0.00     0.053 C 
ENDROOT
BRANCH   1   2
ATOM      2  C   UNL     1      40.101  75.180  73.668  1.00  0.00     0.041 C 
ATOM      3  O   UNL     1      40.821  75.436  74.669  1.00  0.00    -0.550 OA
ATOM      4  O   UNL     1      40.373  75.791  72.450  1.00  0.00    -0.550 OA
ENDBRANCH   1   2
BRANCH   1   5
ATOM      5  C   UNL     1      38.202  74.116  72.463  1.00  0.00     0.006 C 
BRANCH   5   6
ATOM      6  C   UNL     1      36.892  73.344  72.649  1.00  0.00    -0.003 C 
ATOM      7  C   UNL     1      36.745  72.844  74.083  1.00  0.00     0.004 C 
ENDBRANCH   5   6
ENDBRANCH   1   5
TORSDOF 3
ENDMDL
MODEL 2
REMARK VINA RESULT:    -3.324      1.188      2.016
REMARK INTER + INTRA:          -3.947
REMARK INTER:                  -3.925
REMARK INTRA:                  -0.022
REMARK UNBOUND:                -0.040
REMARK SMILES CCCCC(=O)[O-]
REMARK SMILES IDX 4 1 5 2 6 3 7 4 3 5 2 6 1 7
REMARK H PARENT
REMARK Flexibility Score: inf
ROOT
ATOM      1  C   UNL     1      38.554  74.157  73.265  1.00  0.00     0.053 C 
ENDROOT
BRANCH   1   2
ATOM      2  C   UNL     1      39.740  75.056  73.420  1.00  0.00     0.041 C 
ATOM      3  O   UNL     1      40.233  75.633  72.415  1.00  0.00    -0.550 OA
ATOM      4  O   UNL     1      40.271  75.296  74.681  1.00  0.00    -0.550 OA
ENDBRANCH   1   2
BRANCH   1   5
ATOM      5  C   UNL     1      38.104  74.109  71.802  1.00  0.00     0.006 C 
BRANCH   5   6
ATOM      6  C   UNL     1      37.087  72.985  71.577  1.00  0.00    -0.003 C 
ATOM      7  C   UNL     1      37.341  72.268  70.255  1.00  0.00     0.004 C 
ENDBRANCH   5   6
ENDBRANCH   1   5
TORSDOF 3
ENDMDL
MODEL 3
REMARK VINA RESULT:    -3.317      4.038      4.973
REMARK INTER + INTRA:          -3.939
REMARK INTER:                  -3.923
REMARK INTRA:                  -0.016
REMARK UNBOUND:                -0.040
REMARK SMILES CCCCC(=O)[O-]
REMARK SMILES IDX 4 1 5 2 6 3 7 4 3 5 2 6 1 7
REMARK H PARENT
REMARK Flexibility Score: inf
ROOT
ATOM      1  C   UNL     1      36.620  72.050  75.446  1.00  0.00     0.053 C 
ENDROOT
BRANCH   1   2
ATOM      2  C   UNL     1      36.638  70.594  75.789  1.00  0.00     0.041 C 
ATOM      3  O   UNL     1      37.396  70.166  76.699  1.00  0.00    -0.550 OA
ATOM      4  O   UNL     1      35.780  69.715  75.138  1.00  0.00    -0.550 OA
ENDBRANCH   1   2
BRANCH   1   5
ATOM      5  C   UNL     1      36.970  72.257  73.969  1.00  0.00     0.006 C 
BRANCH   5   6
ATOM      6  C   UNL     1      36.979  73.747  73.611  1.00  0.00    -0.003 C 
ATOM      7  C   UNL     1      38.253  74.127  72.863  1.00  0.00     0.004 C 
ENDBRANCH   5   6
ENDBRANCH   1   5
TORSDOF 3
ENDMDL
MODEL 4
REMARK VINA RESULT:    -3.286      2.677      3.806
REMARK INTER + INTRA:          -3.903
REMARK INTER:                  -3.947
REMARK INTRA:                   0.044
REMARK UNBOUND:                -0.040
REMARK SMILES CCCCC(=O)[O-]
REMARK SMILES IDX 4 1 5 2 6 3 7 4 3 5 2 6 1 7
REMARK H PARENT
REMARK Flexibility Score: inf
ROOT
ATOM      1  C   UNL     1      37.772  73.478  72.261  1.00  0.00     0.053 C 
ENDROOT
BRANCH   1   2
ATOM      2  C   UNL     1      36.895  73.391  73.470  1.00  0.00     0.041 C 
ATOM      3  O   UNL     1      36.082  74.317  73.730  1.00  0.00    -0.550 OA
ATOM      4  O   UNL     1      36.940  72.266  74.282  1.00  0.00    -0.550 OA
ENDBRANCH   1   2
BRANCH   1   5
ATOM      5  C   UNL     1      38.851  74.548  72.455  1.00  0.00     0.006 C 
BRANCH   5   6
ATOM      6  C   UNL     1      39.383  74.537  73.892  1.00  0.00    -0.003 C 
ATOM      7  C   UNL     1      40.676  75.340  74.007  1.00  0.00     0.004 C 
ENDBRANCH   5   6
ENDBRANCH   1   5
TORSDOF 3
ENDMDL
MODEL 5
REMARK VINA RESULT:    -3.236      2.220      3.102
REMARK INTER + INTRA:          -3.844
REMARK INTER:                  -3.827
REMARK INTRA:                  -0.017
REMARK UNBOUND:                -0.040
REMARK SMILES CCCCC(=O)[O-]
REMARK SMILES IDX 4 1 5 2 6 3 7 4 3 5 2 6 1 7
REMARK H PARENT
REMARK Flexibility Score: inf
ROOT
ATOM      1  C   UNL     1      36.873  73.595  73.647  1.00  0.00     0.053 C 
ENDROOT
BRANCH   1   2
ATOM      2  C   UNL     1      37.747  73.826  72.455  1.00  0.00     0.041 C 
ATOM      3  O   UNL     1      38.845  74.429  72.582  1.00  0.00    -0.550 OA
ATOM      4  O   UNL     1      37.372  73.332  71.211  1.00  0.00    -0.550 OA
ENDBRANCH   1   2
BRANCH   1   5
ATOM      5  C   UNL     1      36.895  72.117  74.050  1.00  0.00     0.006 C 
BRANCH   5   6
ATOM      6  C   UNL     1      36.727  71.959  75.564  1.00  0.00    -0.003 C 
ATOM      7  C   UNL     1      36.784  70.490  75.975  1.00  0.00     0.004 C 
ENDBRANCH   5   6
ENDBRANCH   1   5
TORSDOF 3
ENDMDL
MODEL 6
REMARK VINA RESULT:    -3.007     15.310     15.751
REMARK INTER + INTRA:          -3.574
REMARK INTER:                  -3.556
REMARK INTRA:                  -0.018
REMARK UNBOUND:                -0.040
REMARK SMILES CCCCC(=O)[O-]
REMARK SMILES IDX 4 1 5 2 6 3 7 4 3 5 2 6 1 7
REMARK H PARENT
REMARK Flexibility Score: inf
ROOT
ATOM      1  C   UNL     1      25.924  67.739  75.924  1.00  0.00     0.053 C 
ENDROOT
BRANCH   1   2
ATOM      2  C   UNL     1      24.625  68.402  76.256  1.00  0.00     0.041 C 
ATOM      3  O   UNL     1      24.189  68.386  77.437  1.00  0.00    -0.550 OA
ATOM      4  O   UNL     1      23.919  69.080  75.270  1.00  0.00    -0.550 OA
ENDBRANCH   1   2
BRANCH   1   5
ATOM      5  C   UNL     1      25.759  66.217  75.894  1.00  0.00     0.006 C 
BRANCH   5   6
ATOM      6  C   UNL     1      26.795  65.569  74.969  1.00  0.00    -0.003 C 
ATOM      7  C   UNL     1      26.146  65.061  73.685  1.00  0.00     0.004 C 
ENDBRANCH   5   6
ENDBRANCH   1   5
TORSDOF 3
ENDMDL
MODEL 7
REMARK VINA RESULT:    -2.994     15.359     16.032
REMARK INTER + INTRA:          -3.560
REMARK INTER:                  -3.517
REMARK INTRA:                  -0.042
REMARK UNBOUND:                -0.040
REMARK SMILES CCCCC(=O)[O-]
REMARK SMILES IDX 4 1 5 2 6 3 7 4 3 5 2 6 1 7
REMARK H PARENT
REMARK Flexibility Score: inf
ROOT
ATOM      1  C   UNL     1      26.728  65.477  75.031  1.00  0.00     0.053 C 
ENDROOT
BRANCH   1   2
ATOM      2  C   UNL     1      26.038  64.792  73.894  1.00  0.00     0.041 C 
ATOM      3  O   UNL     1      25.698  65.446  72.872  1.00  0.00    -0.550 OA
ATOM      4  O   UNL     1      25.812  63.422  73.941  1.00  0.00    -0.550 OA
ENDBRANCH   1   2
BRANCH   1   5
ATOM      5  C   UNL     1      25.708  66.156  75.949  1.00  0.00     0.006 C 
BRANCH   5   6
ATOM      6  C   UNL     1      25.918  67.673  75.978  1.00  0.00    -0.003 C 
ATOM      7  C   UNL     1      24.667  68.394  76.472  1.00  0.00     0.004 C 
ENDBRANCH   5   6
ENDBRANCH   1   5
TORSDOF 3
ENDMDL
MODEL 8
REMARK VINA RESULT:    -2.923     15.167     15.957
REMARK INTER + INTRA:          -3.476
REMARK INTER:                  -3.384
REMARK INTRA:                  -0.091
REMARK UNBOUND:                -0.040
REMARK SMILES CCCCC(=O)[O-]
REMARK SMILES IDX 4 1 5 2 6 3 7 4 3 5 2 6 1 7
REMARK H PARENT
REMARK Flexibility Score: inf
ROOT
ATOM      1  C   UNL     1      25.822  65.986  75.678  1.00  0.00     0.053 C 
ENDROOT
BRANCH   1   2
ATOM      2  C   UNL     1      25.763  65.629  74.226  1.00  0.00     0.041 C 
ATOM      3  O   UNL     1      26.573  64.792  73.747  1.00  0.00    -0.550 OA
ATOM      4  O   UNL     1      24.783  66.183  73.413  1.00  0.00    -0.550 OA
ENDBRANCH   1   2
BRANCH   1   5
ATOM      5  C   UNL     1      26.134  67.476  75.852  1.00  0.00     0.006 C 
BRANCH   5   6
ATOM      6  C   UNL     1      24.984  68.198  76.562  1.00  0.00    -0.003 C 
ATOM      7  C   UNL     1      24.060  67.208  77.264  1.00  0.00     0.004 C 
ENDBRANCH   5   6
ENDBRANCH   1   5
TORSDOF 3
ENDMDL
MODEL 9
REMARK VINA RESULT:    -2.795     21.941     23.384
REMARK INTER + INTRA:          -3.326
REMARK INTER:                  -3.310
REMARK INTRA:                  -0.015
REMARK UNBOUND:                -0.040
REMARK SMILES CCCCC(=O)[O-]
REMARK SMILES IDX 4 1 5 2 6 3 7 4 3 5 2 6 1 7
REMARK H PARENT
REMARK Flexibility Score: inf
ROOT
ATOM      1  C   UNL     1      28.415  59.747  87.105  1.00  0.00     0.053 C 
ENDROOT
BRANCH   1   2
ATOM      2  C   UNL     1      27.851  61.126  86.972  1.00  0.00     0.041 C 
ATOM      3  O   UNL     1      27.182  61.442  85.952  1.00  0.00    -0.550 OA
ATOM      4  O   UNL     1      28.021  62.049  87.996  1.00  0.00    -0.550 OA
ENDBRANCH   1   2
BRANCH   1   5
ATOM      5  C   UNL     1      27.616  58.937  88.130  1.00  0.00     0.006 C 
BRANCH   5   6
ATOM      6  C   UNL     1      28.129  57.496  88.212  1.00  0.00    -0.003 C 
ATOM      7  C   UNL     1      28.573  57.148  89.630  1.00  0.00     0.004 C 
ENDBRANCH   5   6
ENDBRANCH   1   5
TORSDOF 3
ENDMDL
