MODEL 1
REMARK VINA RESULT:    -3.728      0.000      0.000
REMARK INTER + INTRA:          -3.843
REMARK INTER:                  -4.600
REMARK INTRA:                   0.756
REMARK UNBOUND:                 0.756
REMARK SMILES CC1=CC=CC(C)(C)CC1=O
REMARK SMILES IDX 1 1 2 2 3 3 10 4 11 5 9 6 4 8 5 9 6 10 7 11 8 12
REMARK H PARENT
REMARK Flexibility Score: 80.00
ROOT
ATOM      1  C   UNL     1     123.852 177.690 119.903  1.00  0.00     0.048 C 
ATOM      2  C   UNL     1     124.586 177.243 121.145  1.00  0.00    -0.008 C 
ATOM      3  C   UNL     1     123.924 177.308 122.320  1.00  0.00     0.007 C 
ENDROOT
BRANCH   2   4
ATOM      4  C   UNL     1     126.005 176.838 120.982  1.00  0.00     0.159 C 
ATOM      5  O   UNL     1     126.586 177.084 119.890  1.00  0.00    -0.295 OA
BRANCH   4   6
ATOM      6  C   UNL     1     126.791 176.136 122.046  1.00  0.00     0.091 CG0
ATOM      7  G   UNL     1     126.915 176.954 123.351  1.00  0.00     0.000 G0
ENDBRANCH   4   6
ENDBRANCH   2   4
BRANCH   3   8
ATOM      8  C   UNL     1     124.381 176.969 123.689  1.00  0.00    -0.003 C 
ATOM      9  C   UNL     1     125.630 176.826 124.151  1.00  0.00    -0.020 C 
BRANCH   9  10
ATOM     10  C   UNL     1     126.903 176.953 123.349  1.00  0.00    -0.010 CG0
ATOM     11  C   UNL     1     128.061 176.354 124.180  1.00  0.00     0.016 C 
ATOM     12  C   UNL     1     127.221 178.444 123.095  1.00  0.00     0.016 C 
ATOM     13  G   UNL     1     126.778 176.140 122.041  1.00  0.00     0.000 G0
ENDBRANCH   9  10
ENDBRANCH   3   8
TORSDOF 0
ENDMDL
MODEL 2
REMARK VINA RESULT:    -3.706      7.811      9.040
REMARK INTER + INTRA:          -3.817
REMARK INTER:                  -4.582
REMARK INTRA:                   0.765
REMARK UNBOUND:                 0.756
REMARK SMILES CC1=CC=CC(C)(C)CC1=O
REMARK SMILES IDX 1 1 2 2 3 3 10 4 11 5 9 6 4 8 5 9 6 10 7 11 8 12
REMARK H PARENT
REMARK Flexibility Score: 80.00
ROOT
ATOM      1  C   UNL     1     114.825 179.200 126.329  1.00  0.00     0.048 C 
ATOM      2  C   UNL     1     116.142 178.618 125.872  1.00  0.00    -0.008 C 
ATOM      3  C   UNL     1     116.725 177.692 126.663  1.00  0.00     0.007 C 
ENDROOT
BRANCH   2   4
ATOM      4  C   UNL     1     116.726 179.169 124.623  1.00  0.00     0.159 C 
ATOM      5  O   UNL     1     116.198 180.190 124.104  1.00  0.00    -0.295 OA
BRANCH   4   6
ATOM      6  C   UNL     1     117.911 178.569 123.931  1.00  0.00     0.091 CG0
ATOM      7  G   UNL     1     119.173 178.515 124.820  1.00  0.00     0.000 G0
ENDBRANCH   4   6
ENDBRANCH   2   4
BRANCH   3   8
ATOM      8  C   UNL     1     118.010 176.972 126.496  1.00  0.00    -0.003 C 
ATOM      9  C   UNL     1     119.064 177.291 125.733  1.00  0.00    -0.020 C 
BRANCH   9  10
ATOM     10  C   UNL     1     119.179 178.485 124.816  1.00  0.00    -0.010 CG0
ATOM     11  C   UNL     1     120.402 178.272 123.895  1.00  0.00     0.016 C 
ATOM     12  C   UNL     1     119.423 179.767 125.644  1.00  0.00     0.016 C 
ATOM     13  G   UNL     1     117.918 178.581 123.927  1.00  0.00     0.000 G0
ENDBRANCH   9  10
ENDBRANCH   3   8
TORSDOF 0
ENDMDL
MODEL 3
REMARK VINA RESULT:    -3.690      6.779      7.777
REMARK INTER + INTRA:          -3.797
REMARK INTER:                  -4.556
REMARK INTRA:                   0.759
REMARK UNBOUND:                 0.756
REMARK SMILES CC1=CC=CC(C)(C)CC1=O
REMARK SMILES IDX 1 1 2 2 3 3 10 4 11 5 9 6 4 8 5 9 6 10 7 11 8 12
REMARK H PARENT
REMARK Flexibility Score: 80.00
ROOT
ATOM      1  C   UNL     1     116.707 178.786 124.195  1.00  0.00     0.048 C 
ATOM      2  C   UNL     1     117.632 178.058 125.142  1.00  0.00    -0.008 C 
ATOM      3  C   UNL     1     117.137 177.698 126.346  1.00  0.00     0.007 C 
ENDROOT
BRANCH   2   4
ATOM      4  C   UNL     1     119.035 177.864 124.700  1.00  0.00     0.159 C 
ATOM      5  O   UNL     1     119.442 178.482 123.678  1.00  0.00    -0.295 OA
BRANCH   4   6
ATOM      6  C   UNL     1     120.003 176.957 125.396  1.00  0.00     0.091 CG0
ATOM      7  G   UNL     1     120.253 177.349 126.870  1.00  0.00     0.000 G0
ENDBRANCH   4   6
ENDBRANCH   2   4
BRANCH   3   8
ATOM      8  C   UNL     1     117.799 177.007 127.478  1.00  0.00    -0.003 C 
ATOM      9  C   UNL     1     119.107 176.857 127.728  1.00  0.00    -0.020 C 
BRANCH   9  10
ATOM     10  C   UNL     1     120.246 177.353 126.870  1.00  0.00    -0.010 CG0
ATOM     11  C   UNL     1     121.545 176.656 127.340  1.00  0.00     0.016 C 
ATOM     12  C   UNL     1     120.427 178.876 127.058  1.00  0.00     0.016 C 
ATOM     13  G   UNL     1     119.997 176.960 125.396  1.00  0.00     0.000 G0
ENDBRANCH   9  10
ENDBRANCH   3   8
TORSDOF 0
ENDMDL
MODEL 4
REMARK VINA RESULT:    -3.632      1.808      3.060
REMARK INTER + INTRA:          -3.725
REMARK INTER:                  -4.484
REMARK INTRA:                   0.759
REMARK UNBOUND:                 0.756
REMARK SMILES CC1=CC=CC(C)(C)CC1=O
REMARK SMILES IDX 1 1 2 2 3 3 10 4 11 5 9 6 4 8 5 9 6 10 7 11 8 12
REMARK H PARENT
REMARK Flexibility Score: 80.00
ROOT
ATOM      1  C   UNL     1     122.985 177.230 123.135  1.00  0.00     0.048 C 
ATOM      2  C   UNL     1     124.158 177.380 122.196  1.00  0.00    -0.008 C 
ATOM      3  C   UNL     1     123.889 177.581 120.887  1.00  0.00     0.007 C 
ENDROOT
BRANCH   2   4
ATOM      4  C   UNL     1     125.514 177.219 122.777  1.00  0.00     0.159 C 
ATOM      5  O   UNL     1     125.623 176.766 123.949  1.00  0.00    -0.295 OA
BRANCH   4   6
ATOM      6  C   UNL     1     126.773 177.578 122.049  1.00  0.00     0.091 CG0
ATOM      7  G   UNL     1     126.963 176.787 120.735  1.00  0.00     0.000 G0
ENDBRANCH   4   6
ENDBRANCH   2   4
BRANCH   3   8
ATOM      8  C   UNL     1     124.814 177.737 119.740  1.00  0.00    -0.003 C 
ATOM      9  C   UNL     1     126.107 177.400 119.645  1.00  0.00    -0.020 C 
BRANCH   9  10
ATOM     10  C   UNL     1     126.956 176.787 120.734  1.00  0.00    -0.010 CG0
ATOM     11  C   UNL     1     128.439 176.900 120.312  1.00  0.00     0.016 C 
ATOM     12  C   UNL     1     126.617 175.287 120.886  1.00  0.00     0.016 C 
ATOM     13  G   UNL     1     126.767 177.577 122.048  1.00  0.00     0.000 G0
ENDBRANCH   9  10
ENDBRANCH   3   8
TORSDOF 0
ENDMDL
MODEL 5
REMARK VINA RESULT:    -3.592      6.130      7.815
REMARK INTER + INTRA:          -3.676
REMARK INTER:                  -4.429
REMARK INTRA:                   0.753
REMARK UNBOUND:                 0.756
REMARK SMILES CC1=CC=CC(C)(C)CC1=O
REMARK SMILES IDX 1 1 2 2 3 3 10 4 11 5 9 6 4 8 5 9 6 10 7 11 8 12
REMARK H PARENT
REMARK Flexibility Score: 80.00
ROOT
ATOM      1  C   UNL     1     123.388 178.336 127.392  1.00  0.00     0.048 C 
ATOM      2  C   UNL     1     122.132 178.064 126.598  1.00  0.00    -0.008 C 
ATOM      3  C   UNL     1     122.273 177.770 125.287  1.00  0.00     0.007 C 
ENDROOT
BRANCH   2   4
ATOM      4  C   UNL     1     120.838 178.215 127.308  1.00  0.00     0.159 C 
ATOM      5  O   UNL     1     120.832 178.729 128.460  1.00  0.00    -0.295 OA
BRANCH   4   6
ATOM      6  C   UNL     1     119.525 177.777 126.735  1.00  0.00     0.091 CG0
ATOM      7  G   UNL     1     119.183 178.470 125.397  1.00  0.00     0.000 G0
ENDBRANCH   4   6
ENDBRANCH   2   4
BRANCH   3   8
ATOM      8  C   UNL     1     121.242 177.485 124.260  1.00  0.00    -0.003 C 
ATOM      9  C   UNL     1     119.934 177.775 124.274  1.00  0.00    -0.020 C 
BRANCH   9  10
ATOM     10  C   UNL     1     119.179 178.458 125.388  1.00  0.00    -0.010 CG0
ATOM     11  C   UNL     1     117.665 178.270 125.133  1.00  0.00     0.016 C 
ATOM     12  C   UNL     1     119.478 179.974 125.379  1.00  0.00     0.016 C 
ATOM     13  G   UNL     1     119.525 177.791 126.738  1.00  0.00     0.000 G0
ENDBRANCH   9  10
ENDBRANCH   3   8
TORSDOF 0
ENDMDL
MODEL 6
REMARK VINA RESULT:    -3.486      1.963      3.396
REMARK INTER + INTRA:          -3.545
REMARK INTER:                  -4.291
REMARK INTRA:                   0.746
REMARK UNBOUND:                 0.756
REMARK SMILES CC1=CC=CC(C)(C)CC1=O
REMARK SMILES IDX 1 1 2 2 3 3 10 4 11 5 9 6 4 8 5 9 6 10 7 11 8 12
REMARK H PARENT
REMARK Flexibility Score: 80.00
ROOT
ATOM      1  C   UNL     1     125.281 177.375 124.310  1.00  0.00     0.048 C 
ATOM      2  C   UNL     1     125.721 177.419 122.866  1.00  0.00    -0.008 C 
ATOM      3  C   UNL     1     124.790 177.168 121.920  1.00  0.00     0.007 C 
ENDROOT
BRANCH   2   4
ATOM      4  C   UNL     1     127.163 177.660 122.606  1.00  0.00     0.159 C 
ATOM      5  O   UNL     1     127.971 177.617 123.573  1.00  0.00    -0.295 OA
BRANCH   4   6
ATOM      6  C   UNL     1     127.718 177.966 121.249  1.00  0.00     0.091 CG0
ATOM      7  G   UNL     1     127.432 176.859 120.210  1.00  0.00     0.000 G0
ENDBRANCH   4   6
ENDBRANCH   2   4
BRANCH   3   8
ATOM      8  C   UNL     1     124.923 177.115 120.445  1.00  0.00    -0.003 C 
ATOM      9  C   UNL     1     126.028 176.972 119.701  1.00  0.00    -0.020 C 
BRANCH   9  10
ATOM     10  C   UNL     1     127.444 176.856 120.213  1.00  0.00    -0.010 CG0
ATOM     11  C   UNL     1     128.408 177.088 119.025  1.00  0.00     0.016 C 
ATOM     12  C   UNL     1     127.695 175.433 120.759  1.00  0.00     0.016 C 
ATOM     13  G   UNL     1     127.709 177.954 121.267  1.00  0.00     0.000 G0
ENDBRANCH   9  10
ENDBRANCH   3   8
TORSDOF 0
ENDMDL
MODEL 7
REMARK VINA RESULT:    -3.439      5.703      7.183
REMARK INTER + INTRA:          -3.487
REMARK INTER:                  -4.245
REMARK INTRA:                   0.758
REMARK UNBOUND:                 0.756
REMARK SMILES CC1=CC=CC(C)(C)CC1=O
REMARK SMILES IDX 1 1 2 2 3 3 10 4 11 5 9 6 4 8 5 9 6 10 7 11 8 12
REMARK H PARENT
REMARK Flexibility Score: 80.00
ROOT
ATOM      1  C   UNL     1     120.759 173.628 125.640  1.00  0.00     0.048 C 
ATOM      2  C   UNL     1     120.730 175.089 125.259  1.00  0.00    -0.008 C 
ATOM      3  C   UNL     1     121.778 175.574 124.560  1.00  0.00     0.007 C 
ENDROOT
BRANCH   2   4
ATOM      4  C   UNL     1     119.583 175.894 125.751  1.00  0.00     0.159 C 
ATOM      5  O   UNL     1     118.800 175.382 126.597  1.00  0.00    -0.295 OA
BRANCH   4   6
ATOM      6  C   UNL     1     119.292 177.287 125.287  1.00  0.00     0.091 CG0
ATOM      7  G   UNL     1     120.451 178.273 125.555  1.00  0.00     0.000 G0
ENDBRANCH   4   6
ENDBRANCH   2   4
BRANCH   3   8
ATOM      8  C   UNL     1     122.043 176.949 124.072  1.00  0.00    -0.003 C 
ATOM      9  C   UNL     1     121.506 178.107 124.479  1.00  0.00    -0.020 C 
BRANCH   9  10
ATOM     10  C   UNL     1     120.451 178.281 125.546  1.00  0.00    -0.010 CG0
ATOM     11  C   UNL     1     119.884 179.715 125.437  1.00  0.00     0.016 C 
ATOM     12  C   UNL     1     121.085 178.125 126.947  1.00  0.00     0.016 C 
ATOM     13  G   UNL     1     119.294 177.286 125.301  1.00  0.00     0.000 G0
ENDBRANCH   9  10
ENDBRANCH   3   8
TORSDOF 0
ENDMDL
MODEL 8
REMARK VINA RESULT:    -3.439      4.750      6.180
REMARK INTER + INTRA:          -3.486
REMARK INTER:                  -4.250
REMARK INTRA:                   0.764
REMARK UNBOUND:                 0.756
REMARK SMILES CC1=CC=CC(C)(C)CC1=O
REMARK SMILES IDX 1 1 2 2 3 3 10 4 11 5 9 6 4 8 5 9 6 10 7 11 8 12
REMARK H PARENT
REMARK Flexibility Score: 80.00
ROOT
ATOM      1  C   UNL     1     123.926 177.002 123.473  1.00  0.00     0.048 C 
ATOM      2  C   UNL     1     123.123 177.338 124.707  1.00  0.00    -0.008 C 
ATOM      3  C   UNL     1     123.753 178.001 125.701  1.00  0.00     0.007 C 
ENDROOT
BRANCH   2   4
ATOM      4  C   UNL     1     121.724 176.845 124.759  1.00  0.00     0.159 C 
ATOM      5  O   UNL     1     121.340 176.014 123.891  1.00  0.00    -0.295 OA
BRANCH   4   6
ATOM      6  C   UNL     1     120.729 177.289 125.786  1.00  0.00     0.091 CG0
ATOM      7  G   UNL     1     121.168 176.979 127.234  1.00  0.00     0.000 G0
ENDBRANCH   4   6
ENDBRANCH   2   4
BRANCH   3   8
ATOM      8  C   UNL     1     123.245 178.440 127.023  1.00  0.00    -0.003 C 
ATOM      9  C   UNL     1     122.168 178.016 127.697  1.00  0.00    -0.020 C 
BRANCH   9  10
ATOM     10  C   UNL     1     121.174 176.977 127.236  1.00  0.00    -0.010 CG0
ATOM     11  C   UNL     1     119.927 177.063 128.147  1.00  0.00     0.016 C 
ATOM     12  C   UNL     1     121.778 175.563 127.388  1.00  0.00     0.016 C 
ATOM     13  G   UNL     1     120.732 177.285 125.787  1.00  0.00     0.000 G0
ENDBRANCH   9  10
ENDBRANCH   3   8
TORSDOF 0
ENDMDL
MODEL 9
REMARK VINA RESULT:    -3.390      5.771      6.538
REMARK INTER + INTRA:          -3.426
REMARK INTER:                  -4.177
REMARK INTRA:                   0.751
REMARK UNBOUND:                 0.756
REMARK SMILES CC1=CC=CC(C)(C)CC1=O
REMARK SMILES IDX 1 1 2 2 3 3 10 4 11 5 9 6 4 8 5 9 6 10 7 11 8 12
REMARK H PARENT
REMARK Flexibility Score: 80.00
ROOT
ATOM      1  C   UNL     1     120.732 178.869 123.723  1.00  0.00     0.048 C 
ATOM      2  C   UNL     1     121.200 177.813 124.696  1.00  0.00    -0.008 C 
ATOM      3  C   UNL     1     121.311 176.547 124.238  1.00  0.00     0.007 C 
ENDROOT
BRANCH   2   4
ATOM      4  C   UNL     1     121.427 178.239 126.099  1.00  0.00     0.159 C 
ATOM      5  O   UNL     1     121.052 179.390 126.453  1.00  0.00    -0.295 OA
BRANCH   4   6
ATOM      6  C   UNL     1     122.093 177.378 127.127  1.00  0.00     0.091 CG0
ATOM      7  G   UNL     1     121.369 176.033 127.357  1.00  0.00     0.000 G0
ENDBRANCH   4   6
ENDBRANCH   2   4
BRANCH   3   8
ATOM      8  C   UNL     1     121.714 175.310 124.950  1.00  0.00    -0.003 C 
ATOM      9  C   UNL     1     121.739 175.064 126.266  1.00  0.00    -0.020 C 
BRANCH   9  10
ATOM     10  C   UNL     1     121.375 176.031 127.367  1.00  0.00    -0.010 CG0
ATOM     11  C   UNL     1     121.888 175.455 128.707  1.00  0.00     0.016 C 
ATOM     12  C   UNL     1     119.839 176.169 127.464  1.00  0.00     0.016 C 
ATOM     13  G   UNL     1     122.081 177.385 127.125  1.00  0.00     0.000 G0
ENDBRANCH   9  10
ENDBRANCH   3   8
TORSDOF 0
ENDMDL
