MODEL 1
REMARK VINA RESULT:    -3.620      0.000      0.000
REMARK INTER + INTRA:          -4.110
REMARK INTER:                  -4.043
REMARK INTRA:                  -0.067
REMARK UNBOUND:                -0.067
REMARK SMILES CCCC(=O)[O-]
REMARK SMILES IDX 3 1 4 2 5 3 6 4 2 5 1 6
REMARK H PARENT
REMARK Flexibility Score: inf
ROOT
ATOM      1  C   UNL     1      18.251  -8.250  22.700  1.00  0.00     0.052 C 
ENDROOT
BRANCH   1   2
ATOM      2  C   UNL     1      19.640  -8.175  23.259  1.00  0.00     0.041 C 
ATOM      3  O   UNL     1      20.505  -9.024  22.921  1.00  0.00    -0.550 OA
ATOM      4  O   UNL     1      19.987  -7.146  24.125  1.00  0.00    -0.550 OA
ENDBRANCH   1   2
BRANCH   1   5
ATOM      5  C   UNL     1      18.255  -8.260  21.166  1.00  0.00     0.003 C 
ATOM      6  C   UNL     1      18.657  -6.909  20.576  1.00  0.00     0.004 C 
ENDBRANCH   1   5
TORSDOF 2
ENDMDL
MODEL 2
REMARK VINA RESULT:    -3.522      2.213      3.053
REMARK INTER + INTRA:          -4.001
REMARK INTER:                  -3.967
REMARK INTRA:                  -0.033
REMARK UNBOUND:                -0.067
REMARK SMILES CCCC(=O)[O-]
REMARK SMILES IDX 3 1 4 2 5 3 6 4 2 5 1 6
REMARK H PARENT
REMARK Flexibility Score: inf
ROOT
ATOM      1  C   UNL     1      18.730  -8.170  22.247  1.00  0.00     0.052 C 
ENDROOT
BRANCH   1   2
ATOM      2  C   UNL     1      18.851  -7.303  21.032  1.00  0.00     0.041 C 
ATOM      3  O   UNL     1      18.182  -7.565  19.997  1.00  0.00    -0.550 OA
ATOM      4  O   UNL     1      19.676  -6.186  21.052  1.00  0.00    -0.550 OA
ENDBRANCH   1   2
BRANCH   1   5
ATOM      5  C   UNL     1      20.103  -8.523  22.833  1.00  0.00     0.003 C 
ATOM      6  C   UNL     1      20.398  -7.762  24.125  1.00  0.00     0.004 C 
ENDBRANCH   1   5
TORSDOF 2
ENDMDL
MODEL 3
REMARK VINA RESULT:    -3.432      1.510      2.200
REMARK INTER + INTRA:          -3.900
REMARK INTER:                  -3.871
REMARK INTRA:                  -0.029
REMARK UNBOUND:                -0.067
REMARK SMILES CCCC(=O)[O-]
REMARK SMILES IDX 3 1 4 2 5 3 6 4 2 5 1 6
REMARK H PARENT
REMARK Flexibility Score: inf
ROOT
ATOM      1  C   UNL     1      19.684  -8.598  22.097  1.00  0.00     0.052 C 
ENDROOT
BRANCH   1   2
ATOM      2  C   UNL     1      20.600  -7.507  22.561  1.00  0.00     0.041 C 
ATOM      3  O   UNL     1      21.134  -7.568  23.700  1.00  0.00    -0.550 OA
ATOM      4  O   UNL     1      20.892  -6.439  21.722  1.00  0.00    -0.550 OA
ENDBRANCH   1   2
BRANCH   1   5
ATOM      5  C   UNL     1      18.209  -8.228  22.304  1.00  0.00     0.003 C 
ATOM      6  C   UNL     1      17.763  -8.404  23.755  1.00  0.00     0.004 C 
ENDBRANCH   1   5
TORSDOF 2
ENDMDL
MODEL 4
REMARK VINA RESULT:    -3.371      2.181      3.169
REMARK INTER + INTRA:          -3.832
REMARK INTER:                  -3.817
REMARK INTRA:                  -0.015
REMARK UNBOUND:                -0.067
REMARK SMILES CCCC(=O)[O-]
REMARK SMILES IDX 3 1 4 2 5 3 6 4 2 5 1 6
REMARK H PARENT
REMARK Flexibility Score: inf
ROOT
ATOM      1  C   UNL     1      20.020  -8.545  21.849  1.00  0.00     0.052 C 
ENDROOT
BRANCH   1   2
ATOM      2  C   UNL     1      18.560  -8.257  21.670  1.00  0.00     0.041 C 
ATOM      3  O   UNL     1      17.770  -8.358  22.645  1.00  0.00    -0.550 OA
ATOM      4  O   UNL     1      18.078  -7.844  20.434  1.00  0.00    -0.550 OA
ENDBRANCH   1   2
BRANCH   1   5
ATOM      5  C   UNL     1      20.728  -7.430  22.629  1.00  0.00     0.003 C 
ATOM      6  C   UNL     1      20.815  -7.731  24.125  1.00  0.00     0.004 C 
ENDBRANCH   1   5
TORSDOF 2
ENDMDL
MODEL 5
REMARK VINA RESULT:    -2.568     19.479     20.290
REMARK INTER + INTRA:          -2.935
REMARK INTER:                  -2.915
REMARK INTRA:                  -0.020
REMARK UNBOUND:                -0.067
REMARK SMILES CCCC(=O)[O-]
REMARK SMILES IDX 3 1 4 2 5 3 6 4 2 5 1 6
REMARK H PARENT
REMARK Flexibility Score: inf
ROOT
ATOM      1  C   UNL     1       7.096  -8.376   6.336  1.00  0.00     0.052 C 
ENDROOT
BRANCH   1   2
ATOM      2  C   UNL     1       6.329  -7.097   6.194  1.00  0.00     0.041 C 
ATOM      3  O   UNL     1       6.289  -6.273   7.145  1.00  0.00    -0.550 OA
ATOM      4  O   UNL     1       5.688  -6.799   4.998  1.00  0.00    -0.550 OA
ENDBRANCH   1   2
BRANCH   1   5
ATOM      5  C   UNL     1       7.635  -8.561   7.760  1.00  0.00     0.003 C 
ATOM      6  C   UNL     1       7.428  -9.982   8.281  1.00  0.00     0.004 C 
ENDBRANCH   1   5
TORSDOF 2
ENDMDL
MODEL 6
REMARK VINA RESULT:    -2.399     14.431     15.263
REMARK INTER + INTRA:          -2.747
REMARK INTER:                  -2.739
REMARK INTRA:                  -0.007
REMARK UNBOUND:                -0.067
REMARK SMILES CCCC(=O)[O-]
REMARK SMILES IDX 3 1 4 2 5 3 6 4 2 5 1 6
REMARK H PARENT
REMARK Flexibility Score: inf
ROOT
ATOM      1  C   UNL     1      18.295  -7.595   6.640  1.00  0.00     0.052 C 
ENDROOT
BRANCH   1   2
ATOM      2  C   UNL     1      19.100  -7.596   7.903  1.00  0.00     0.041 C 
ATOM      3  O   UNL     1      19.180  -6.553   8.604  1.00  0.00    -0.550 OA
ATOM      4  O   UNL     1      19.733  -8.758   8.326  1.00  0.00    -0.550 OA
ENDBRANCH   1   2
BRANCH   1   5
ATOM      5  C   UNL     1      16.835  -7.203   6.896  1.00  0.00     0.003 C 
ATOM      6  C   UNL     1      16.045  -7.023   5.600  1.00  0.00     0.004 C 
ENDBRANCH   1   5
TORSDOF 2
ENDMDL
MODEL 7
REMARK VINA RESULT:    -2.362     18.035     18.290
REMARK INTER + INTRA:          -2.705
REMARK INTER:                  -2.673
REMARK INTRA:                  -0.032
REMARK UNBOUND:                -0.067
REMARK SMILES CCCC(=O)[O-]
REMARK SMILES IDX 3 1 4 2 5 3 6 4 2 5 1 6
REMARK H PARENT
REMARK Flexibility Score: inf
ROOT
ATOM      1  C   UNL     1      12.442   9.646  21.658  1.00  0.00     0.052 C 
ENDROOT
BRANCH   1   2
ATOM      2  C   UNL     1      12.225   8.906  22.942  1.00  0.00     0.041 C 
ATOM      3  O   UNL     1      13.053   9.016  23.885  1.00  0.00    -0.550 OA
ATOM      4  O   UNL     1      11.090   8.122  23.112  1.00  0.00    -0.550 OA
ENDBRANCH   1   2
BRANCH   1   5
ATOM      5  C   UNL     1      13.535   8.993  20.803  1.00  0.00     0.003 C 
ATOM      6  C   UNL     1      14.887   9.689  20.955  1.00  0.00     0.004 C 
ENDBRANCH   1   5
TORSDOF 2
ENDMDL
MODEL 8
REMARK VINA RESULT:    -2.324     20.952     21.710
REMARK INTER + INTRA:          -2.662
REMARK INTER:                  -2.601
REMARK INTRA:                  -0.061
REMARK UNBOUND:                -0.067
REMARK SMILES CCCC(=O)[O-]
REMARK SMILES IDX 3 1 4 2 5 3 6 4 2 5 1 6
REMARK H PARENT
REMARK Flexibility Score: inf
ROOT
ATOM      1  C   UNL     1       3.521   6.666  21.722  1.00  0.00     0.052 C 
ENDROOT
BRANCH   1   2
ATOM      2  C   UNL     1       4.083   7.998  22.113  1.00  0.00     0.041 C 
ATOM      3  O   UNL     1       3.315   8.971  22.332  1.00  0.00    -0.550 OA
ATOM      4  O   UNL     1       5.455   8.156  22.271  1.00  0.00    -0.550 OA
ENDBRANCH   1   2
BRANCH   1   5
ATOM      5  C   UNL     1       3.882   5.575  22.738  1.00  0.00     0.003 C 
ATOM      6  C   UNL     1       3.036   5.660  24.008  1.00  0.00     0.004 C 
ENDBRANCH   1   5
TORSDOF 2
ENDMDL
MODEL 9
REMARK VINA RESULT:    -2.238     14.736     15.834
REMARK INTER + INTRA:          -2.567
REMARK INTER:                  -2.528
REMARK INTRA:                  -0.039
REMARK UNBOUND:                -0.067
REMARK SMILES CCCC(=O)[O-]
REMARK SMILES IDX 3 1 4 2 5 3 6 4 2 5 1 6
REMARK H PARENT
REMARK Flexibility Score: inf
ROOT
ATOM      1  C   UNL     1      19.094  -7.357   6.084  1.00  0.00     0.052 C 
ENDROOT
BRANCH   1   2
ATOM      2  C   UNL     1      19.294  -7.652   7.539  1.00  0.00     0.041 C 
ATOM      3  O   UNL     1      19.014  -6.783   8.407  1.00  0.00    -0.550 OA
ATOM      4  O   UNL     1      19.757  -8.899   7.940  1.00  0.00    -0.550 OA
ENDBRANCH   1   2
BRANCH   1   5
ATOM      5  C   UNL     1      20.430  -7.193   5.348  1.00  0.00     0.003 C 
ATOM      6  C   UNL     1      20.885  -5.735   5.288  1.00  0.00     0.004 C 
ENDBRANCH   1   5
TORSDOF 2
ENDMDL
