MODEL 1
REMARK VINA RESULT:    -0.508      0.000      0.000
REMARK INTER + INTRA:          -0.647
REMARK INTER:                  -0.597
REMARK INTRA:                  -0.050
REMARK UNBOUND:                -0.050
REMARK SMILES CCCCC(=O)[O-]
REMARK SMILES IDX 4 1 5 2 6 3 7 4 3 5 2 6 1 7
REMARK H PARENT
REMARK Flexibility Score: inf
ROOT
ATOM      1  C   UNL     1      34.538  29.651  -0.061  1.00  0.00     0.053 C 
ENDROOT
BRANCH   1   2
ATOM      2  C   UNL     1      35.452  30.427   0.834  1.00  0.00     0.041 C 
ATOM      3  O   UNL     1      34.983  31.281   1.631  1.00  0.00    -0.550 OA
ATOM      4  O   UNL     1      36.817  30.171   0.823  1.00  0.00    -0.550 OA
ENDBRANCH   1   2
BRANCH   1   5
ATOM      5  C   UNL     1      35.050  28.219  -0.241  1.00  0.00     0.006 C 
BRANCH   5   6
ATOM      6  C   UNL     1      35.213  27.876  -1.726  1.00  0.00    -0.003 C 
ATOM      7  C   UNL     1      33.879  27.972  -2.463  1.00  0.00     0.004 C 
ENDBRANCH   5   6
ENDBRANCH   1   5
TORSDOF 3
ENDMDL
MODEL 2
REMARK VINA RESULT:    -0.022     17.154     17.552
REMARK INTER + INTRA:          -0.076
REMARK INTER:                  -0.059
REMARK INTRA:                  -0.017
REMARK UNBOUND:                -0.050
REMARK SMILES CCCCC(=O)[O-]
REMARK SMILES IDX 4 1 5 2 6 3 7 4 3 5 2 6 1 7
REMARK H PARENT
REMARK Flexibility Score: inf
ROOT
ATOM      1  C   UNL     1      26.409  43.651   4.715  1.00  0.00     0.053 C 
ENDROOT
BRANCH   1   2
ATOM      2  C   UNL     1      27.479  44.649   4.401  1.00  0.00     0.041 C 
ATOM      3  O   UNL     1      28.372  44.377   3.556  1.00  0.00    -0.550 OA
ATOM      4  O   UNL     1      27.461  45.900   5.006  1.00  0.00    -0.550 OA
ENDBRANCH   1   2
BRANCH   1   5
ATOM      5  C   UNL     1      25.646  43.265   3.444  1.00  0.00     0.006 C 
BRANCH   5   6
ATOM      6  C   UNL     1      24.377  42.476   3.785  1.00  0.00    -0.003 C 
ATOM      7  C   UNL     1      23.572  42.159   2.527  1.00  0.00     0.004 C 
ENDBRANCH   5   6
ENDBRANCH   1   5
TORSDOF 3
ENDMDL
MODEL 3
REMARK VINA RESULT:     0.255     17.410     17.907
REMARK INTER + INTRA:           0.250
REMARK INTER:                   0.268
REMARK INTRA:                  -0.018
REMARK UNBOUND:                -0.050
REMARK SMILES CCCCC(=O)[O-]
REMARK SMILES IDX 4 1 5 2 6 3 7 4 3 5 2 6 1 7
REMARK H PARENT
REMARK Flexibility Score: inf
ROOT
ATOM      1  C   UNL     1      24.906  42.236   4.096  1.00  0.00     0.053 C 
ENDROOT
BRANCH   1   2
ATOM      2  C   UNL     1      23.456  42.293   3.732  1.00  0.00     0.041 C 
ATOM      3  O   UNL     1      22.581  42.419   4.629  1.00  0.00    -0.550 OA
ATOM      4  O   UNL     1      23.073  42.258   2.397  1.00  0.00    -0.550 OA
ENDBRANCH   1   2
BRANCH   1   5
ATOM      5  C   UNL     1      25.640  43.475   3.576  1.00  0.00     0.006 C 
BRANCH   5   6
ATOM      6  C   UNL     1      26.683  43.960   4.588  1.00  0.00    -0.003 C 
ATOM      7  C   UNL     1      27.892  44.572   3.883  1.00  0.00     0.004 C 
ENDBRANCH   5   6
ENDBRANCH   1   5
TORSDOF 3
ENDMDL
MODEL 4
REMARK VINA RESULT:     0.390      2.153      3.692
REMARK INTER + INTRA:           0.409
REMARK INTER:                   0.500
REMARK INTRA:                  -0.092
REMARK UNBOUND:                -0.050
REMARK SMILES CCCCC(=O)[O-]
REMARK SMILES IDX 4 1 5 2 6 3 7 4 3 5 2 6 1 7
REMARK H PARENT
REMARK Flexibility Score: inf
ROOT
ATOM      1  C   UNL     1      34.230  29.995  -0.100  1.00  0.00     0.053 C 
ENDROOT
BRANCH   1   2
ATOM      2  C   UNL     1      34.651  28.658  -0.622  1.00  0.00     0.041 C 
ATOM      3  O   UNL     1      35.318  27.875   0.105  1.00  0.00    -0.550 OA
ATOM      4  O   UNL     1      34.267  28.256  -1.895  1.00  0.00    -0.550 OA
ENDBRANCH   1   2
BRANCH   1   5
ATOM      5  C   UNL     1      35.044  30.367   1.143  1.00  0.00     0.006 C 
BRANCH   5   6
ATOM      6  C   UNL     1      36.325  31.115   0.757  1.00  0.00    -0.003 C 
ATOM      7  C   UNL     1      37.565  30.382   1.263  1.00  0.00     0.004 C 
ENDBRANCH   5   6
ENDBRANCH   1   5
TORSDOF 3
ENDMDL
MODEL 5
REMARK VINA RESULT:     2.404     18.161     19.021
REMARK INTER + INTRA:           2.775
REMARK INTER:                   2.820
REMARK INTRA:                  -0.045
REMARK UNBOUND:                -0.050
REMARK SMILES CCCCC(=O)[O-]
REMARK SMILES IDX 4 1 5 2 6 3 7 4 3 5 2 6 1 7
REMARK H PARENT
REMARK Flexibility Score: inf
ROOT
ATOM      1  C   UNL     1      26.739  45.106   5.943  1.00  0.00     0.053 C 
ENDROOT
BRANCH   1   2
ATOM      2  C   UNL     1      26.749  46.459   6.581  1.00  0.00     0.041 C 
ATOM      3  O   UNL     1      26.026  46.691   7.586  1.00  0.00    -0.550 OA
ATOM      4  O   UNL     1      27.594  47.450   6.097  1.00  0.00    -0.550 OA
ENDBRANCH   1   2
BRANCH   1   5
ATOM      5  C   UNL     1      27.513  45.130   4.622  1.00  0.00     0.006 C 
BRANCH   5   6
ATOM      6  C   UNL     1      27.071  43.983   3.706  1.00  0.00    -0.003 C 
ATOM      7  C   UNL     1      25.820  43.297   4.248  1.00  0.00     0.004 C 
ENDBRANCH   5   6
ENDBRANCH   1   5
TORSDOF 3
ENDMDL
