MODEL 1
REMARK VINA RESULT:    -4.069      0.000      0.000
REMARK INTER + INTRA:          -7.325
REMARK INTER:                  -6.566
REMARK INTRA:                  -0.758
REMARK UNBOUND:                -0.758
REMARK SMILES CCCCCCCCCCCCO
REMARK SMILES IDX 7 1 6 2 5 3 4 4 3 5 2 6 1 7 8 8 9 9 10 10 11 11 12 12 13 13
REMARK H PARENT 13 14
REMARK Flexibility Score: inf
ROOT
ATOM      1  C   UNL     1      34.400 -16.502 -28.172  1.00  0.00     0.000 C 
ENDROOT
BRANCH   1   2
ATOM      2  C   UNL     1      33.875 -17.938 -27.993  1.00  0.00    -0.000 C 
BRANCH   2   3
ATOM      3  C   UNL     1      32.339 -18.007 -27.982  1.00  0.00    -0.000 C 
BRANCH   3   4
ATOM      4  C   UNL     1      31.805 -19.393 -28.371  1.00  0.00    -0.000 C 
BRANCH   4   5
ATOM      5  C   UNL     1      31.390 -19.427 -29.849  1.00  0.00    -0.000 C 
BRANCH   5   6
ATOM      6  C   UNL     1      32.248 -20.392 -30.682  1.00  0.00    -0.003 C 
ATOM      7  C   UNL     1      33.608 -19.803 -31.056  1.00  0.00     0.004 C 
ENDBRANCH   5   6
ENDBRANCH   4   5
ENDBRANCH   3   4
ENDBRANCH   2   3
ENDBRANCH   1   2
BRANCH   1   8
ATOM      8  C   UNL     1      35.544 -16.416 -29.197  1.00  0.00     0.000 C 
BRANCH   8   9
ATOM      9  C   UNL     1      36.245 -17.769 -29.417  1.00  0.00     0.000 C 
BRANCH   9  10
ATOM     10  C   UNL     1      37.393 -17.678 -30.436  1.00  0.00     0.002 C 
BRANCH  10  11
ATOM     11  C   UNL     1      37.768 -19.045 -31.027  1.00  0.00     0.028 C 
BRANCH  11  12
ATOM     12  C   UNL     1      38.359 -19.964 -29.959  1.00  0.00     0.156 C 
BRANCH  12  13
ATOM     13  O   UNL     1      39.134 -20.956 -30.572  1.00  0.00    -0.396 OA
ATOM     14  H   UNL     1      39.823 -21.217 -29.908  1.00  0.00     0.210 HD
ENDBRANCH  12  13
ENDBRANCH  11  12
ENDBRANCH  10  11
ENDBRANCH   9  10
ENDBRANCH   8   9
ENDBRANCH   1   8
TORSDOF 11
ENDMDL
MODEL 2
REMARK VINA RESULT:    -3.855      1.164      1.771
REMARK INTER + INTRA:          -6.979
REMARK INTER:                  -5.955
REMARK INTRA:                  -1.024
REMARK UNBOUND:                -0.758
REMARK SMILES CCCCCCCCCCCCO
REMARK SMILES IDX 7 1 6 2 5 3 4 4 3 5 2 6 1 7 8 8 9 9 10 10 11 11 12 12 13 13
REMARK H PARENT 13 14
REMARK Flexibility Score: inf
ROOT
ATOM      1  C   UNL     1      33.954 -18.302 -27.780  1.00  0.00     0.000 C 
ENDROOT
BRANCH   1   2
ATOM      2  C   UNL     1      32.520 -18.853 -27.880  1.00  0.00    -0.000 C 
BRANCH   2   3
ATOM      3  C   UNL     1      31.653 -18.065 -28.876  1.00  0.00    -0.000 C 
BRANCH   3   4
ATOM      4  C   UNL     1      30.977 -18.968 -29.918  1.00  0.00    -0.000 C 
BRANCH   4   5
ATOM      5  C   UNL     1      31.853 -20.188 -30.239  1.00  0.00    -0.000 C 
BRANCH   5   6
ATOM      6  C   UNL     1      32.813 -19.934 -31.412  1.00  0.00    -0.003 C 
ATOM      7  C   UNL     1      34.269 -19.808 -30.969  1.00  0.00     0.004 C 
ENDBRANCH   5   6
ENDBRANCH   4   5
ENDBRANCH   3   4
ENDBRANCH   2   3
ENDBRANCH   1   2
BRANCH   1   8
ATOM      8  C   UNL     1      34.022 -16.788 -28.036  1.00  0.00     0.000 C 
BRANCH   8   9
ATOM      9  C   UNL     1      35.174 -16.397 -28.979  1.00  0.00     0.000 C 
BRANCH   9  10
ATOM     10  C   UNL     1      36.210 -17.520 -29.141  1.00  0.00     0.002 C 
BRANCH  10  11
ATOM     11  C   UNL     1      37.185 -17.263 -30.299  1.00  0.00     0.028 C 
BRANCH  11  12
ATOM     12  C   UNL     1      37.783 -18.569 -30.818  1.00  0.00     0.156 C 
BRANCH  12  13
ATOM     13  O   UNL     1      37.403 -18.760 -32.152  1.00  0.00    -0.396 OA
ATOM     14  H   UNL     1      36.547 -19.260 -32.126  1.00  0.00     0.210 HD
ENDBRANCH  12  13
ENDBRANCH  11  12
ENDBRANCH  10  11
ENDBRANCH   9  10
ENDBRANCH   8   9
ENDBRANCH   1   8
TORSDOF 11
ENDMDL
MODEL 3
REMARK VINA RESULT:    -3.573      1.497      4.738
REMARK INTER + INTRA:          -6.524
REMARK INTER:                  -5.749
REMARK INTRA:                  -0.775
REMARK UNBOUND:                -0.758
REMARK SMILES CCCCCCCCCCCCO
REMARK SMILES IDX 7 1 6 2 5 3 4 4 3 5 2 6 1 7 8 8 9 9 10 10 11 11 12 12 13 13
REMARK H PARENT 13 14
REMARK Flexibility Score: inf
ROOT
ATOM      1  C   UNL     1      34.150 -18.302 -27.825  1.00  0.00     0.000 C 
ENDROOT
BRANCH   1   2
ATOM      2  C   UNL     1      34.085 -16.789 -28.095  1.00  0.00    -0.000 C 
BRANCH   2   3
ATOM      3  C   UNL     1      35.256 -16.292 -28.958  1.00  0.00    -0.000 C 
BRANCH   3   4
ATOM      4  C   UNL     1      36.271 -17.400 -29.275  1.00  0.00    -0.000 C 
BRANCH   4   5
ATOM      5  C   UNL     1      36.946 -17.155 -30.633  1.00  0.00    -0.000 C 
BRANCH   5   6
ATOM      6  C   UNL     1      37.428 -18.453 -31.297  1.00  0.00    -0.003 C 
ATOM      7  C   UNL     1      38.161 -19.378 -30.328  1.00  0.00     0.004 C 
ENDBRANCH   5   6
ENDBRANCH   4   5
ENDBRANCH   3   4
ENDBRANCH   2   3
ENDBRANCH   1   2
BRANCH   1   8
ATOM      8  C   UNL     1      32.770 -18.976 -27.910  1.00  0.00     0.000 C 
BRANCH   8   9
ATOM      9  C   UNL     1      31.741 -18.125 -28.676  1.00  0.00     0.000 C 
BRANCH   9  10
ATOM     10  C   UNL     1      31.378 -18.729 -30.042  1.00  0.00     0.002 C 
BRANCH  10  11
ATOM     11  C   UNL     1      32.094 -20.061 -30.309  1.00  0.00     0.028 C 
BRANCH  11  12
ATOM     12  C   UNL     1      33.142 -19.913 -31.410  1.00  0.00     0.156 C 
BRANCH  12  13
ATOM     13  O   UNL     1      34.419 -19.866 -30.836  1.00  0.00    -0.396 OA
ATOM     14  H   UNL     1      34.870 -19.076 -31.232  1.00  0.00     0.210 HD
ENDBRANCH  12  13
ENDBRANCH  11  12
ENDBRANCH  10  11
ENDBRANCH   9  10
ENDBRANCH   8   9
ENDBRANCH   1   8
TORSDOF 11
ENDMDL
MODEL 4
REMARK VINA RESULT:    -3.399      0.712      2.833
REMARK INTER + INTRA:          -6.244
REMARK INTER:                  -5.533
REMARK INTRA:                  -0.711
REMARK UNBOUND:                -0.758
REMARK SMILES CCCCCCCCCCCCO
REMARK SMILES IDX 7 1 6 2 5 3 4 4 3 5 2 6 1 7 8 8 9 9 10 10 11 11 12 12 13 13
REMARK H PARENT 13 14
REMARK Flexibility Score: inf
ROOT
ATOM      1  C   UNL     1      33.491 -19.783 -31.311  1.00  0.00     0.000 C 
ENDROOT
BRANCH   1   2
ATOM      2  C   UNL     1      32.396 -20.496 -30.498  1.00  0.00    -0.000 C 
BRANCH   2   3
ATOM      3  C   UNL     1      31.461 -19.511 -29.777  1.00  0.00    -0.000 C 
BRANCH   3   4
ATOM      4  C   UNL     1      31.900 -19.225 -28.333  1.00  0.00    -0.000 C 
BRANCH   4   5
ATOM      5  C   UNL     1      32.382 -17.775 -28.183  1.00  0.00    -0.000 C 
BRANCH   5   6
ATOM      6  C   UNL     1      33.905 -17.673 -28.005  1.00  0.00    -0.003 C 
ATOM      7  C   UNL     1      34.432 -16.254 -28.212  1.00  0.00     0.004 C 
ENDBRANCH   5   6
ENDBRANCH   4   5
ENDBRANCH   3   4
ENDBRANCH   2   3
ENDBRANCH   1   2
BRANCH   1   8
ATOM      8  C   UNL     1      34.767 -19.535 -30.489  1.00  0.00     0.000 C 
BRANCH   8   9
ATOM      9  C   UNL     1      35.658 -18.436 -31.095  1.00  0.00     0.000 C 
BRANCH   9  10
ATOM     10  C   UNL     1      36.895 -18.138 -30.232  1.00  0.00     0.002 C 
BRANCH  10  11
ATOM     11  C   UNL     1      38.148 -18.879 -30.720  1.00  0.00     0.028 C 
BRANCH  11  12
ATOM     12  C   UNL     1      38.425 -20.115 -29.865  1.00  0.00     0.156 C 
BRANCH  12  13
ATOM     13  O   UNL     1      39.168 -21.040 -30.608  1.00  0.00    -0.396 OA
ATOM     14  H   UNL     1      38.667 -21.182 -31.453  1.00  0.00     0.210 HD
ENDBRANCH  12  13
ENDBRANCH  11  12
ENDBRANCH  10  11
ENDBRANCH   9  10
ENDBRANCH   8   9
ENDBRANCH   1   8
TORSDOF 11
ENDMDL
MODEL 5
REMARK VINA RESULT:    -3.267      1.060      3.184
REMARK INTER + INTRA:          -6.031
REMARK INTER:                  -5.104
REMARK INTRA:                  -0.928
REMARK UNBOUND:                -0.758
REMARK SMILES CCCCCCCCCCCCO
REMARK SMILES IDX 7 1 6 2 5 3 4 4 3 5 2 6 1 7 8 8 9 9 10 10 11 11 12 12 13 13
REMARK H PARENT 13 14
REMARK Flexibility Score: inf
ROOT
ATOM      1  C   UNL     1      32.361 -20.079 -30.327  1.00  0.00     0.000 C 
ENDROOT
BRANCH   1   2
ATOM      2  C   UNL     1      31.501 -18.826 -30.089  1.00  0.00    -0.000 C 
BRANCH   2   3
ATOM      3  C   UNL     1      31.785 -18.164 -28.731  1.00  0.00    -0.000 C 
BRANCH   3   4
ATOM      4  C   UNL     1      32.791 -18.957 -27.883  1.00  0.00    -0.000 C 
BRANCH   4   5
ATOM      5  C   UNL     1      34.126 -18.207 -27.772  1.00  0.00    -0.000 C 
BRANCH   5   6
ATOM      6  C   UNL     1      33.985 -16.703 -28.051  1.00  0.00    -0.003 C 
ATOM      7  C   UNL     1      35.156 -16.136 -28.852  1.00  0.00     0.004 C 
ENDBRANCH   5   6
ENDBRANCH   4   5
ENDBRANCH   3   4
ENDBRANCH   2   3
ENDBRANCH   1   2
BRANCH   1   8
ATOM      8  C   UNL     1      33.447 -19.855 -31.392  1.00  0.00     0.000 C 
BRANCH   8   9
ATOM      9  C   UNL     1      34.812 -19.495 -30.781  1.00  0.00     0.000 C 
BRANCH   9  10
ATOM     10  C   UNL     1      35.445 -18.258 -31.438  1.00  0.00     0.002 C 
BRANCH  10  11
ATOM     11  C   UNL     1      36.955 -18.418 -31.667  1.00  0.00     0.028 C 
BRANCH  11  12
ATOM     12  C   UNL     1      37.712 -18.470 -30.341  1.00  0.00     0.156 C 
BRANCH  12  13
ATOM     13  O   UNL     1      38.448 -19.659 -30.270  1.00  0.00    -0.396 OA
ATOM     14  H   UNL     1      38.595 -19.835 -29.304  1.00  0.00     0.210 HD
ENDBRANCH  12  13
ENDBRANCH  11  12
ENDBRANCH  10  11
ENDBRANCH   9  10
ENDBRANCH   8   9
ENDBRANCH   1   8
TORSDOF 11
ENDMDL
MODEL 6
REMARK VINA RESULT:    -2.801      2.126      4.975
REMARK INTER + INTRA:          -5.278
REMARK INTER:                  -4.491
REMARK INTRA:                  -0.787
REMARK UNBOUND:                -0.758
REMARK SMILES CCCCCCCCCCCCO
REMARK SMILES IDX 7 1 6 2 5 3 4 4 3 5 2 6 1 7 8 8 9 9 10 10 11 11 12 12 13 13
REMARK H PARENT 13 14
REMARK Flexibility Score: inf
ROOT
ATOM      1  C   UNL     1      31.709 -20.124 -30.073  1.00  0.00     0.000 C 
ENDROOT
BRANCH   1   2
ATOM      2  C   UNL     1      32.922 -20.574 -30.906  1.00  0.00    -0.000 C 
BRANCH   2   3
ATOM      3  C   UNL     1      33.754 -19.389 -31.424  1.00  0.00    -0.000 C 
BRANCH   3   4
ATOM      4  C   UNL     1      35.153 -19.325 -30.792  1.00  0.00    -0.000 C 
BRANCH   4   5
ATOM      5  C   UNL     1      35.935 -18.111 -31.313  1.00  0.00    -0.000 C 
BRANCH   5   6
ATOM      6  C   UNL     1      37.208 -17.833 -30.499  1.00  0.00    -0.003 C 
ATOM      7  C   UNL     1      38.098 -19.066 -30.353  1.00  0.00     0.004 C 
ENDBRANCH   5   6
ENDBRANCH   4   5
ENDBRANCH   3   4
ENDBRANCH   2   3
ENDBRANCH   1   2
BRANCH   1   8
ATOM      8  C   UNL     1      31.597 -18.594 -29.973  1.00  0.00     0.000 C 
BRANCH   8   9
ATOM      9  C   UNL     1      31.841 -18.074 -28.545  1.00  0.00     0.000 C 
BRANCH   9  10
ATOM     10  C   UNL     1      33.050 -18.742 -27.873  1.00  0.00     0.002 C 
BRANCH  10  11
ATOM     11  C   UNL     1      34.341 -17.925 -28.030  1.00  0.00     0.028 C 
BRANCH  11  12
ATOM     12  C   UNL     1      34.050 -16.426 -28.019  1.00  0.00     0.156 C 
BRANCH  12  13
ATOM     13  O   UNL     1      35.049 -15.750 -28.729  1.00  0.00    -0.396 OA
ATOM     14  H   UNL     1      34.753 -15.736 -29.676  1.00  0.00     0.210 HD
ENDBRANCH  12  13
ENDBRANCH  11  12
ENDBRANCH  10  11
ENDBRANCH   9  10
ENDBRANCH   8   9
ENDBRANCH   1   8
TORSDOF 11
ENDMDL
MODEL 7
REMARK VINA RESULT:    -2.757      1.378      3.385
REMARK INTER + INTRA:          -5.208
REMARK INTER:                  -5.078
REMARK INTRA:                  -0.129
REMARK UNBOUND:                -0.758
REMARK SMILES CCCCCCCCCCCCO
REMARK SMILES IDX 7 1 6 2 5 3 4 4 3 5 2 6 1 7 8 8 9 9 10 10 11 11 12 12 13 13
REMARK H PARENT 13 14
REMARK Flexibility Score: inf
ROOT
ATOM      1  C   UNL     1      32.626 -19.866 -31.252  1.00  0.00     0.000 C 
ENDROOT
BRANCH   1   2
ATOM      2  C   UNL     1      31.768 -19.945 -29.977  1.00  0.00    -0.000 C 
BRANCH   2   3
ATOM      3  C   UNL     1      31.447 -18.559 -29.394  1.00  0.00    -0.000 C 
BRANCH   3   4
ATOM      4  C   UNL     1      31.960 -18.385 -27.957  1.00  0.00    -0.000 C 
BRANCH   4   5
ATOM      5  C   UNL     1      33.435 -17.957 -27.948  1.00  0.00    -0.000 C 
BRANCH   5   6
ATOM      6  C   UNL     1      33.608 -16.432 -27.875  1.00  0.00    -0.003 C 
ATOM      7  C   UNL     1      34.857 -15.942 -28.604  1.00  0.00     0.004 C 
ENDBRANCH   5   6
ENDBRANCH   4   5
ENDBRANCH   3   4
ENDBRANCH   2   3
ENDBRANCH   1   2
BRANCH   1   8
ATOM      8  C   UNL     1      34.113 -20.141 -30.980  1.00  0.00     0.000 C 
BRANCH   8   9
ATOM      9  C   UNL     1      34.797 -18.999 -30.207  1.00  0.00     0.000 C 
BRANCH   9  10
ATOM     10  C   UNL     1      36.213 -19.368 -29.740  1.00  0.00     0.002 C 
BRANCH  10  11
ATOM     11  C   UNL     1      37.244 -18.274 -30.055  1.00  0.00     0.028 C 
BRANCH  11  12
ATOM     12  C   UNL     1      37.048 -17.721 -31.466  1.00  0.00     0.156 C 
BRANCH  12  13
ATOM     13  O   UNL     1      37.331 -18.722 -32.403  1.00  0.00    -0.396 OA
ATOM     14  H   UNL     1      37.424 -18.263 -33.277  1.00  0.00     0.210 HD
ENDBRANCH  12  13
ENDBRANCH  11  12
ENDBRANCH  10  11
ENDBRANCH   9  10
ENDBRANCH   8   9
ENDBRANCH   1   8
TORSDOF 11
ENDMDL
MODEL 8
REMARK VINA RESULT:    -2.588      1.029      2.322
REMARK INTER + INTRA:          -4.935
REMARK INTER:                  -4.383
REMARK INTRA:                  -0.551
REMARK UNBOUND:                -0.758
REMARK SMILES CCCCCCCCCCCCO
REMARK SMILES IDX 7 1 6 2 5 3 4 4 3 5 2 6 1 7 8 8 9 9 10 10 11 11 12 12 13 13
REMARK H PARENT 13 14
REMARK Flexibility Score: inf
ROOT
ATOM      1  C   UNL     1      34.882 -19.410 -29.657  1.00  0.00     0.000 C 
ENDROOT
BRANCH   1   2
ATOM      2  C   UNL     1      34.146 -19.252 -31.000  1.00  0.00    -0.000 C 
BRANCH   2   3
ATOM      3  C   UNL     1      32.997 -20.260 -31.165  1.00  0.00    -0.000 C 
BRANCH   3   4
ATOM      4  C   UNL     1      31.966 -20.176 -30.030  1.00  0.00    -0.000 C 
BRANCH   4   5
ATOM      5  C   UNL     1      31.246 -18.820 -30.041  1.00  0.00    -0.000 C 
BRANCH   5   6
ATOM      6  C   UNL     1      31.644 -17.929 -28.854  1.00  0.00    -0.003 C 
ATOM      7  C   UNL     1      32.013 -18.733 -27.608  1.00  0.00     0.004 C 
ENDBRANCH   5   6
ENDBRANCH   4   5
ENDBRANCH   3   4
ENDBRANCH   2   3
ENDBRANCH   1   2
BRANCH   1   8
ATOM      8  C   UNL     1      35.244 -18.058 -29.021  1.00  0.00     0.000 C 
BRANCH   8   9
ATOM      9  C   UNL     1      36.718 -17.675 -29.239  1.00  0.00     0.000 C 
BRANCH   9  10
ATOM     10  C   UNL     1      37.106 -17.645 -30.725  1.00  0.00     0.002 C 
BRANCH  10  11
ATOM     11  C   UNL     1      37.823 -18.927 -31.176  1.00  0.00     0.028 C 
BRANCH  11  12
ATOM     12  C   UNL     1      38.577 -19.574 -30.015  1.00  0.00     0.156 C 
BRANCH  12  13
ATOM     13  O   UNL     1      38.962 -20.871 -30.374  1.00  0.00    -0.396 OA
ATOM     14  H   UNL     1      39.918 -20.812 -30.636  1.00  0.00     0.210 HD
ENDBRANCH  12  13
ENDBRANCH  11  12
ENDBRANCH  10  11
ENDBRANCH   9  10
ENDBRANCH   8   9
ENDBRANCH   1   8
TORSDOF 11
ENDMDL
MODEL 9
REMARK VINA RESULT:    -2.033      2.594      5.372
REMARK INTER + INTRA:          -4.039
REMARK INTER:                  -4.023
REMARK INTRA:                  -0.017
REMARK UNBOUND:                -0.758
REMARK SMILES CCCCCCCCCCCCO
REMARK SMILES IDX 7 1 6 2 5 3 4 4 3 5 2 6 1 7 8 8 9 9 10 10 11 11 12 12 13 13
REMARK H PARENT 13 14
REMARK Flexibility Score: inf
ROOT
ATOM      1  C   UNL     1      34.975 -19.520 -29.499  1.00  0.00     0.000 C 
ENDROOT
BRANCH   1   2
ATOM      2  C   UNL     1      35.091 -18.464 -28.386  1.00  0.00    -0.000 C 
BRANCH   2   3
ATOM      3  C   UNL     1      35.037 -17.026 -28.929  1.00  0.00    -0.000 C 
BRANCH   3   4
ATOM      4  C   UNL     1      36.277 -16.657 -29.756  1.00  0.00    -0.000 C 
BRANCH   4   5
ATOM      5  C   UNL     1      37.393 -17.695 -29.566  1.00  0.00    -0.000 C 
BRANCH   5   6
ATOM      6  C   UNL     1      37.739 -18.437 -30.866  1.00  0.00    -0.003 C 
ATOM      7  C   UNL     1      36.961 -17.914 -32.072  1.00  0.00     0.004 C 
ENDBRANCH   5   6
ENDBRANCH   4   5
ENDBRANCH   3   4
ENDBRANCH   2   3
ENDBRANCH   1   2
BRANCH   1   8
ATOM      8  C   UNL     1      33.971 -19.118 -30.592  1.00  0.00     0.000 C 
BRANCH   8   9
ATOM      9  C   UNL     1      32.989 -20.250 -30.942  1.00  0.00     0.000 C 
BRANCH   9  10
ATOM     10  C   UNL     1      31.660 -20.134 -30.180  1.00  0.00     0.002 C 
BRANCH  10  11
ATOM     11  C   UNL     1      31.435 -18.732 -29.593  1.00  0.00     0.028 C 
BRANCH  11  12
ATOM     12  C   UNL     1      31.643 -18.729 -28.079  1.00  0.00     0.156 C 
BRANCH  12  13
ATOM     13  O   UNL     1      31.962 -17.434 -27.654  1.00  0.00    -0.396 OA
ATOM     14  H   UNL     1      31.759 -16.835 -28.419  1.00  0.00     0.210 HD
ENDBRANCH  12  13
ENDBRANCH  11  12
ENDBRANCH  10  11
ENDBRANCH   9  10
ENDBRANCH   8   9
ENDBRANCH   1   8
TORSDOF 11
ENDMDL
