MODEL 1
REMARK VINA RESULT:    -5.857      0.000      0.000
REMARK INTER + INTRA:          -6.498
REMARK INTER:                  -6.370
REMARK INTRA:                  -0.128
REMARK UNBOUND:                -0.128
REMARK SMILES Cc1ccc(C(C)C)cc1O
REMARK SMILES IDX 1 1 2 2 10 3 9 4 5 5 4 6 3 7 11 8 6 10 7 11 8 12
REMARK H PARENT 11 9
REMARK Flexibility Score: inf
ROOT
ATOM      1  C   UNL     1     -10.256  -9.167  38.695  1.00  0.00     0.048 C 
ATOM      2  C   UNL     1     -11.436  -8.245  38.566  1.00  0.00    -0.009 A 
ATOM      3  C   UNL     1     -12.026  -8.020  37.310  1.00  0.00     0.118 A 
ATOM      4  C   UNL     1     -13.127  -7.159  37.198  1.00  0.00     0.050 A 
ATOM      5  C   UNL     1     -13.651  -6.511  38.333  1.00  0.00    -0.042 A 
ATOM      6  C   UNL     1     -13.053  -6.742  39.583  1.00  0.00     0.004 A 
ATOM      7  C   UNL     1     -11.957  -7.601  39.698  1.00  0.00     0.007 A 
ENDROOT
BRANCH   3   8
ATOM      8  O   UNL     1     -11.518  -8.655  36.177  1.00  0.00    -0.508 OA
ATOM      9  H   UNL     1     -11.874  -9.551  35.866  1.00  0.00     0.293 HD
ENDBRANCH   3   8
BRANCH   5  10
ATOM     10  C   UNL     1     -14.841  -5.576  38.222  1.00  0.00     0.013 C 
ATOM     11  C   UNL     1     -14.790  -4.487  39.300  1.00  0.00     0.012 C 
ATOM     12  C   UNL     1     -16.161  -6.353  38.284  1.00  0.00     0.012 C 
ENDBRANCH   5  10
TORSDOF 2
ENDMDL
MODEL 2
REMARK VINA RESULT:    -5.856      1.385      2.011
REMARK INTER + INTRA:          -6.497
REMARK INTER:                  -6.390
REMARK INTRA:                  -0.107
REMARK UNBOUND:                -0.128
REMARK SMILES Cc1ccc(C(C)C)cc1O
REMARK SMILES IDX 1 1 2 2 10 3 9 4 5 5 4 6 3 7 11 8 6 10 7 11 8 12
REMARK H PARENT 11 9
REMARK Flexibility Score: inf
ROOT
ATOM      1  C   UNL     1     -10.436  -9.495  38.254  1.00  0.00     0.048 C 
ATOM      2  C   UNL     1     -11.548  -8.485  38.249  1.00  0.00    -0.009 A 
ATOM      3  C   UNL     1     -11.911  -7.824  39.436  1.00  0.00     0.118 A 
ATOM      4  C   UNL     1     -12.949  -6.882  39.423  1.00  0.00     0.050 A 
ATOM      5  C   UNL     1     -13.638  -6.587  38.232  1.00  0.00    -0.042 A 
ATOM      6  C   UNL     1     -13.268  -7.253  37.051  1.00  0.00     0.004 A 
ATOM      7  C   UNL     1     -12.233  -8.192  37.060  1.00  0.00     0.007 A 
ENDROOT
BRANCH   3   8
ATOM      8  O   UNL     1     -11.238  -8.106  40.624  1.00  0.00    -0.508 OA
ATOM      9  H   UNL     1     -11.537  -8.853  41.239  1.00  0.00     0.293 HD
ENDBRANCH   3   8
BRANCH   5  10
ATOM     10  C   UNL     1     -14.764  -5.570  38.207  1.00  0.00     0.013 C 
ATOM     11  C   UNL     1     -14.612  -4.551  39.343  1.00  0.00     0.012 C 
ATOM     12  C   UNL     1     -16.132  -6.259  38.262  1.00  0.00     0.012 C 
ENDBRANCH   5  10
TORSDOF 2
ENDMDL
MODEL 3
REMARK VINA RESULT:    -5.851      1.139      4.303
REMARK INTER + INTRA:          -6.491
REMARK INTER:                  -6.367
REMARK INTRA:                  -0.124
REMARK UNBOUND:                -0.128
REMARK SMILES Cc1ccc(C(C)C)cc1O
REMARK SMILES IDX 1 1 2 2 10 3 9 4 5 5 4 6 3 7 11 8 6 10 7 11 8 12
REMARK H PARENT 11 9
REMARK Flexibility Score: inf
ROOT
ATOM      1  C   UNL     1     -15.129  -5.695  37.962  1.00  0.00     0.048 C 
ATOM      2  C   UNL     1     -13.894  -6.537  38.118  1.00  0.00    -0.009 A 
ATOM      3  C   UNL     1     -13.367  -7.235  37.016  1.00  0.00     0.118 A 
ATOM      4  C   UNL     1     -12.215  -8.018  37.169  1.00  0.00     0.050 A 
ATOM      5  C   UNL     1     -11.574  -8.116  38.418  1.00  0.00    -0.042 A 
ATOM      6  C   UNL     1     -12.108  -7.416  39.513  1.00  0.00     0.004 A 
ATOM      7  C   UNL     1     -13.256  -6.634  39.364  1.00  0.00     0.007 A 
ENDROOT
BRANCH   3   8
ATOM      8  O   UNL     1     -13.992  -7.146  35.772  1.00  0.00    -0.508 OA
ATOM      9  H   UNL     1     -15.001  -7.108  35.686  1.00  0.00     0.293 HD
ENDBRANCH   3   8
BRANCH   5  10
ATOM     10  C   UNL     1     -10.326  -8.962  38.595  1.00  0.00     0.013 C 
ATOM     11  C   UNL     1     -10.163  -9.955  37.439  1.00  0.00     0.012 C 
ATOM     12  C   UNL     1     -10.335  -9.684  39.948  1.00  0.00     0.012 C 
ENDBRANCH   5  10
TORSDOF 2
ENDMDL
MODEL 4
REMARK VINA RESULT:    -5.621      1.227      1.765
REMARK INTER + INTRA:          -6.241
REMARK INTER:                  -6.137
REMARK INTRA:                  -0.104
REMARK UNBOUND:                -0.128
REMARK SMILES Cc1ccc(C(C)C)cc1O
REMARK SMILES IDX 1 1 2 2 10 3 9 4 5 5 4 6 3 7 11 8 6 10 7 11 8 12
REMARK H PARENT 11 9
REMARK Flexibility Score: inf
ROOT
ATOM      1  C   UNL     1     -11.290  -8.797  37.013  1.00  0.00     0.048 C 
ATOM      2  C   UNL     1     -12.232  -7.869  37.727  1.00  0.00    -0.009 A 
ATOM      3  C   UNL     1     -13.376  -7.378  37.072  1.00  0.00     0.118 A 
ATOM      4  C   UNL     1     -14.250  -6.513  37.745  1.00  0.00     0.050 A 
ATOM      5  C   UNL     1     -13.997  -6.126  39.074  1.00  0.00    -0.042 A 
ATOM      6  C   UNL     1     -12.851  -6.622  39.720  1.00  0.00     0.004 A 
ATOM      7  C   UNL     1     -11.979  -7.485  39.053  1.00  0.00     0.007 A 
ENDROOT
BRANCH   3   8
ATOM      8  O   UNL     1     -13.639  -7.752  35.755  1.00  0.00    -0.508 OA
ATOM      9  H   UNL     1     -14.586  -7.892  35.422  1.00  0.00     0.293 HD
ENDBRANCH   3   8
BRANCH   5  10
ATOM     10  C   UNL     1     -14.937  -5.189  39.811  1.00  0.00     0.013 C 
ATOM     11  C   UNL     1     -16.379  -5.353  39.318  1.00  0.00     0.012 C 
ATOM     12  C   UNL     1     -14.473  -3.733  39.689  1.00  0.00     0.012 C 
ENDBRANCH   5  10
TORSDOF 2
ENDMDL
MODEL 5
REMARK VINA RESULT:    -5.500      1.996      4.677
REMARK INTER + INTRA:          -6.109
REMARK INTER:                  -5.984
REMARK INTRA:                  -0.126
REMARK UNBOUND:                -0.128
REMARK SMILES Cc1ccc(C(C)C)cc1O
REMARK SMILES IDX 1 1 2 2 10 3 9 4 5 5 4 6 3 7 11 8 6 10 7 11 8 12
REMARK H PARENT 11 9
REMARK Flexibility Score: inf
ROOT
ATOM      1  C   UNL     1     -15.209  -5.742  37.360  1.00  0.00     0.048 C 
ATOM      2  C   UNL     1     -14.011  -6.463  37.911  1.00  0.00    -0.009 A 
ATOM      3  C   UNL     1     -13.631  -6.285  39.253  1.00  0.00     0.118 A 
ATOM      4  C   UNL     1     -12.513  -6.961  39.760  1.00  0.00     0.050 A 
ATOM      5  C   UNL     1     -11.761  -7.822  38.939  1.00  0.00    -0.042 A 
ATOM      6  C   UNL     1     -12.149  -7.993  37.599  1.00  0.00     0.004 A 
ATOM      7  C   UNL     1     -13.263  -7.322  37.091  1.00  0.00     0.007 A 
ENDROOT
BRANCH   3   8
ATOM      8  O   UNL     1     -14.367  -5.435  40.079  1.00  0.00    -0.508 OA
ATOM      9  H   UNL     1     -14.261  -5.451  41.086  1.00  0.00     0.293 HD
ENDBRANCH   3   8
BRANCH   5  10
ATOM     10  C   UNL     1     -10.548  -8.558  39.477  1.00  0.00     0.013 C 
ATOM     11  C   UNL     1     -10.367  -9.910  38.777  1.00  0.00     0.012 C 
ATOM     12  C   UNL     1     -10.637  -8.731  40.998  1.00  0.00     0.012 C 
ENDBRANCH   5  10
TORSDOF 2
ENDMDL
MODEL 6
REMARK VINA RESULT:    -5.290      2.163      5.119
REMARK INTER + INTRA:          -5.881
REMARK INTER:                  -5.772
REMARK INTRA:                  -0.110
REMARK UNBOUND:                -0.128
REMARK SMILES Cc1ccc(C(C)C)cc1O
REMARK SMILES IDX 1 1 2 2 10 3 9 4 5 5 4 6 3 7 11 8 6 10 7 11 8 12
REMARK H PARENT 11 9
REMARK Flexibility Score: inf
ROOT
ATOM      1  C   UNL     1     -13.495  -6.802  37.131  1.00  0.00     0.048 C 
ATOM      2  C   UNL     1     -12.511  -7.693  37.835  1.00  0.00    -0.009 A 
ATOM      3  C   UNL     1     -12.240  -7.509  39.202  1.00  0.00     0.118 A 
ATOM      4  C   UNL     1     -11.322  -8.345  39.852  1.00  0.00     0.050 A 
ATOM      5  C   UNL     1     -10.663  -9.373  39.150  1.00  0.00    -0.042 A 
ATOM      6  C   UNL     1     -10.941  -9.548  37.784  1.00  0.00     0.004 A 
ATOM      7  C   UNL     1     -11.857  -8.717  37.134  1.00  0.00     0.007 A 
ENDROOT
BRANCH   3   8
ATOM      8  O   UNL     1     -12.885  -6.495  39.910  1.00  0.00    -0.508 OA
ATOM      9  H   UNL     1     -13.205  -5.650  39.453  1.00  0.00     0.293 HD
ENDBRANCH   3   8
BRANCH   5  10
ATOM     10  C   UNL     1      -9.667 -10.283  39.844  1.00  0.00     0.013 C 
ATOM     11  C   UNL     1      -9.832 -10.224  41.367  1.00  0.00     0.012 C 
ATOM     12  C   UNL     1      -8.229  -9.946  39.431  1.00  0.00     0.012 C 
ENDBRANCH   5  10
TORSDOF 2
ENDMDL
MODEL 7
REMARK VINA RESULT:    -5.232      8.585      9.831
REMARK INTER + INTRA:          -5.818
REMARK INTER:                  -5.690
REMARK INTRA:                  -0.128
REMARK UNBOUND:                -0.128
REMARK SMILES Cc1ccc(C(C)C)cc1O
REMARK SMILES IDX 1 1 2 2 10 3 9 4 5 5 4 6 3 7 11 8 6 10 7 11 8 12
REMARK H PARENT 11 9
REMARK Flexibility Score: inf
ROOT
ATOM      1  C   UNL     1     -17.848  -8.687  43.167  1.00  0.00     0.048 C 
ATOM      2  C   UNL     1     -17.246  -9.198  44.446  1.00  0.00    -0.009 A 
ATOM      3  C   UNL     1     -17.406  -8.477  45.642  1.00  0.00     0.118 A 
ATOM      4  C   UNL     1     -16.842  -8.960  46.831  1.00  0.00     0.050 A 
ATOM      5  C   UNL     1     -16.113 -10.164  46.843  1.00  0.00    -0.042 A 
ATOM      6  C   UNL     1     -15.959 -10.877  45.642  1.00  0.00     0.004 A 
ATOM      7  C   UNL     1     -16.520 -10.399  44.456  1.00  0.00     0.007 A 
ENDROOT
BRANCH   3   8
ATOM      8  O   UNL     1     -18.125  -7.282  45.645  1.00  0.00    -0.508 OA
ATOM      9  H   UNL     1     -18.078  -6.636  46.425  1.00  0.00     0.293 HD
ENDBRANCH   3   8
BRANCH   5  10
ATOM     10  C   UNL     1     -15.498 -10.696  48.125  1.00  0.00     0.013 C 
ATOM     11  C   UNL     1     -14.748  -9.591  48.878  1.00  0.00     0.012 C 
ATOM     12  C   UNL     1     -14.581 -11.892  47.842  1.00  0.00     0.012 C 
ENDBRANCH   5  10
TORSDOF 2
ENDMDL
MODEL 8
REMARK VINA RESULT:    -5.129      1.195      1.780
REMARK INTER + INTRA:          -5.707
REMARK INTER:                  -5.583
REMARK INTRA:                  -0.124
REMARK UNBOUND:                -0.128
REMARK SMILES Cc1ccc(C(C)C)cc1O
REMARK SMILES IDX 1 1 2 2 10 3 9 4 5 5 4 6 3 7 11 8 6 10 7 11 8 12
REMARK H PARENT 11 9
REMARK Flexibility Score: inf
ROOT
ATOM      1  C   UNL     1      -8.910  -9.659  38.569  1.00  0.00     0.048 C 
ATOM      2  C   UNL     1     -10.213  -8.920  38.442  1.00  0.00    -0.009 A 
ATOM      3  C   UNL     1     -10.790  -8.714  37.176  1.00  0.00     0.118 A 
ATOM      4  C   UNL     1     -12.005  -8.025  37.065  1.00  0.00     0.050 A 
ATOM      5  C   UNL     1     -12.659  -7.533  38.210  1.00  0.00    -0.042 A 
ATOM      6  C   UNL     1     -12.074  -7.744  39.470  1.00  0.00     0.004 A 
ATOM      7  C   UNL     1     -10.864  -8.431  39.584  1.00  0.00     0.007 A 
ENDROOT
BRANCH   3   8
ATOM      8  O   UNL     1     -10.152  -9.196  36.032  1.00  0.00    -0.508 OA
ATOM      9  H   UNL     1     -10.421 -10.074  35.605  1.00  0.00     0.293 HD
ENDBRANCH   3   8
BRANCH   5  10
ATOM     10  C   UNL     1     -13.975  -6.784  38.100  1.00  0.00     0.013 C 
ATOM     11  C   UNL     1     -14.233  -6.327  36.660  1.00  0.00     0.012 C 
ATOM     12  C   UNL     1     -14.019  -5.599  39.072  1.00  0.00     0.012 C 
ENDBRANCH   5  10
TORSDOF 2
ENDMDL
MODEL 9
REMARK VINA RESULT:    -5.118      1.460      3.669
REMARK INTER + INTRA:          -5.695
REMARK INTER:                  -5.569
REMARK INTRA:                  -0.126
REMARK UNBOUND:                -0.128
REMARK SMILES Cc1ccc(C(C)C)cc1O
REMARK SMILES IDX 1 1 2 2 10 3 9 4 5 5 4 6 3 7 11 8 6 10 7 11 8 12
REMARK H PARENT 11 9
REMARK Flexibility Score: inf
ROOT
ATOM      1  C   UNL     1     -14.345  -6.679  36.274  1.00  0.00     0.048 C 
ATOM      2  C   UNL     1     -13.619  -6.813  37.583  1.00  0.00    -0.009 A 
ATOM      3  C   UNL     1     -12.490  -7.645  37.686  1.00  0.00     0.118 A 
ATOM      4  C   UNL     1     -11.818  -7.764  38.910  1.00  0.00     0.050 A 
ATOM      5  C   UNL     1     -12.262  -7.060  40.045  1.00  0.00    -0.042 A 
ATOM      6  C   UNL     1     -13.391  -6.232  39.932  1.00  0.00     0.004 A 
ATOM      7  C   UNL     1     -14.062  -6.110  38.713  1.00  0.00     0.007 A 
ENDROOT
BRANCH   3   8
ATOM      8  O   UNL     1     -12.039  -8.349  36.570  1.00  0.00    -0.508 OA
ATOM      9  H   UNL     1     -12.571  -9.117  36.176  1.00  0.00     0.293 HD
ENDBRANCH   3   8
BRANCH   5  10
ATOM     10  C   UNL     1     -11.542  -7.183  41.376  1.00  0.00     0.013 C 
ATOM     11  C   UNL     1     -10.838  -8.539  41.499  1.00  0.00     0.012 C 
ATOM     12  C   UNL     1     -12.503  -6.951  42.547  1.00  0.00     0.012 C 
ENDBRANCH   5  10
TORSDOF 2
ENDMDL
