MODEL 1
REMARK VINA RESULT:    -6.279      0.000      0.000
REMARK INTER + INTRA:          -7.626
REMARK INTER:                  -7.563
REMARK INTRA:                  -0.063
REMARK UNBOUND:                -0.063
REMARK SMILES O=c1c(O)c(-c2ccc(O)c(O)c2)oc2cc(O)cc(O)c12
REMARK SMILES IDX 5 1 3 2 2 3 1 4 22 5 20 6 19 7 17 8 16 9 15 10 14 11 6 12
REMARK SMILES IDX 7 13 8 14 9 15 13 16 11 17 10 18 12 20 4 22 21 24 18 26
REMARK H PARENT 10 19 12 21 4 23 21 25 18 27
REMARK Flexibility Score: inf
ROOT
ATOM      1  C   UNL     1       4.254  -3.324  16.995  1.00  0.00     0.180 A 
ATOM      2  C   UNL     1       5.136  -2.249  16.792  1.00  0.00     0.208 A 
ATOM      3  C   UNL     1       4.623  -0.941  16.773  1.00  0.00     0.238 A 
ATOM      4  O   UNL     1       5.425   0.020  16.646  1.00  0.00    -0.285 OA
ATOM      5  C   UNL     1       3.235  -0.727  16.942  1.00  0.00     0.111 A 
ATOM      6  C   UNL     1       2.601   0.552  16.901  1.00  0.00     0.134 A 
ATOM      7  C   UNL     1       1.239   0.658  17.211  1.00  0.00     0.093 A 
ATOM      8  C   UNL     1       0.474  -0.476  17.495  1.00  0.00     0.123 A 
ATOM      9  C   UNL     1       1.072  -1.735  17.479  1.00  0.00     0.094 A 
ATOM     10  C   UNL     1       2.435  -1.869  17.210  1.00  0.00     0.146 A 
ATOM     11  O   UNL     1       2.966  -3.086  17.215  1.00  0.00    -0.452 OA
ENDROOT
BRANCH   1  12
ATOM     12  C   UNL     1       4.715  -4.731  17.002  1.00  0.00     0.025 A 
ATOM     13  C   UNL     1       4.351  -5.572  18.065  1.00  0.00     0.016 A 
ATOM     14  C   UNL     1       4.758  -6.908  18.082  1.00  0.00     0.051 A 
ATOM     15  C   UNL     1       5.520  -7.428  17.032  1.00  0.00     0.157 A 
ATOM     16  C   UNL     1       5.464  -5.262  15.935  1.00  0.00     0.062 A 
ATOM     17  C   UNL     1       5.872  -6.604  15.950  1.00  0.00     0.158 A 
BRANCH  15  18
ATOM     18  O   UNL     1       5.914  -8.766  17.077  1.00  0.00    -0.504 OA
ATOM     19  H   UNL     1       5.706  -9.362  17.868  1.00  0.00     0.293 HD
ENDBRANCH  15  18
BRANCH  17  20
ATOM     20  O   UNL     1       6.620  -7.119  14.892  1.00  0.00    -0.504 OA
ATOM     21  H   UNL     1       7.541  -6.761  14.669  1.00  0.00     0.293 HD
ENDBRANCH  17  20
ENDBRANCH   1  12
BRANCH   2  22
ATOM     22  O   UNL     1       6.507  -2.481  16.649  1.00  0.00    -0.502 OA
ATOM     23  H   UNL     1       7.013  -2.248  15.803  1.00  0.00     0.293 HD
ENDBRANCH   2  22
BRANCH   6  24
ATOM     24  O   UNL     1       3.252   1.734  16.537  1.00  0.00    -0.507 OA
ATOM     25  H   UNL     1       3.154   2.194  15.645  1.00  0.00     0.293 HD
ENDBRANCH   6  24
BRANCH   8  26
ATOM     26  O   UNL     1      -0.883  -0.363  17.787  1.00  0.00    -0.508 OA
ATOM     27  H   UNL     1      -1.206   0.024  18.667  1.00  0.00     0.293 HD
ENDBRANCH   8  26
TORSDOF 6
ENDMDL
MODEL 2
REMARK VINA RESULT:    -5.911      1.379      2.979
REMARK INTER + INTRA:          -7.183
REMARK INTER:                  -6.913
REMARK INTRA:                  -0.270
REMARK UNBOUND:                -0.063
REMARK SMILES O=c1c(O)c(-c2ccc(O)c(O)c2)oc2cc(O)cc(O)c12
REMARK SMILES IDX 5 1 3 2 2 3 1 4 22 5 20 6 19 7 17 8 16 9 15 10 14 11 6 12
REMARK SMILES IDX 7 13 8 14 9 15 13 16 11 17 10 18 12 20 4 22 21 24 18 26
REMARK H PARENT 10 19 12 21 4 23 21 25 18 27
REMARK Flexibility Score: inf
ROOT
ATOM      1  C   UNL     1       4.343  -3.635  16.929  1.00  0.00     0.180 A 
ATOM      2  C   UNL     1       3.023  -3.283  16.597  1.00  0.00     0.208 A 
ATOM      3  C   UNL     1       2.661  -1.926  16.591  1.00  0.00     0.238 A 
ATOM      4  O   UNL     1       1.494  -1.613  16.240  1.00  0.00    -0.285 OA
ATOM      5  C   UNL     1       3.618  -0.940  16.932  1.00  0.00     0.111 A 
ATOM      6  C   UNL     1       3.350   0.461  16.998  1.00  0.00     0.134 A 
ATOM      7  C   UNL     1       4.405   1.355  17.219  1.00  0.00     0.093 A 
ATOM      8  C   UNL     1       5.705   0.895  17.443  1.00  0.00     0.123 A 
ATOM      9  C   UNL     1       5.965  -0.474  17.439  1.00  0.00     0.094 A 
ATOM     10  C   UNL     1       4.941  -1.388  17.185  1.00  0.00     0.146 A 
ATOM     11  O   UNL     1       5.234  -2.683  17.181  1.00  0.00    -0.452 OA
ENDROOT
BRANCH   1  12
ATOM     12  C   UNL     1       4.792  -5.045  16.982  1.00  0.00     0.025 A 
ATOM     13  C   UNL     1       4.412  -5.852  18.065  1.00  0.00     0.016 A 
ATOM     14  C   UNL     1       4.808  -7.190  18.125  1.00  0.00     0.051 A 
ATOM     15  C   UNL     1       5.575  -7.746  17.097  1.00  0.00     0.157 A 
ATOM     16  C   UNL     1       5.547  -5.612  15.938  1.00  0.00     0.062 A 
ATOM     17  C   UNL     1       5.944  -6.956  15.995  1.00  0.00     0.158 A 
BRANCH  15  18
ATOM     18  O   UNL     1       5.958  -9.085  17.184  1.00  0.00    -0.504 OA
ATOM     19  H   UNL     1       6.682  -9.397  17.819  1.00  0.00     0.293 HD
ENDBRANCH  15  18
BRANCH  17  20
ATOM     20  O   UNL     1       6.697  -7.508  14.960  1.00  0.00    -0.504 OA
ATOM     21  H   UNL     1       7.482  -7.015  14.553  1.00  0.00     0.293 HD
ENDBRANCH  17  20
ENDBRANCH   1  12
BRANCH   2  22
ATOM     22  O   UNL     1       2.100  -4.271  16.242  1.00  0.00    -0.502 OA
ATOM     23  H   UNL     1       2.380  -5.205  15.970  1.00  0.00     0.293 HD
ENDBRANCH   2  22
BRANCH   6  24
ATOM     24  O   UNL     1       2.073   1.017  16.882  1.00  0.00    -0.507 OA
ATOM     25  H   UNL     1       1.820   1.944  17.188  1.00  0.00     0.293 HD
ENDBRANCH   6  24
BRANCH   8  26
ATOM     26  O   UNL     1       6.746   1.791  17.677  1.00  0.00    -0.508 OA
ATOM     27  H   UNL     1       7.710   1.547  17.481  1.00  0.00     0.293 HD
ENDBRANCH   8  26
TORSDOF 6
ENDMDL
MODEL 3
REMARK VINA RESULT:    -5.877      3.517      6.906
REMARK INTER + INTRA:          -7.142
REMARK INTER:                  -6.825
REMARK INTRA:                  -0.317
REMARK UNBOUND:                -0.063
REMARK SMILES O=c1c(O)c(-c2ccc(O)c(O)c2)oc2cc(O)cc(O)c12
REMARK SMILES IDX 5 1 3 2 2 3 1 4 22 5 20 6 19 7 17 8 16 9 15 10 14 11 6 12
REMARK SMILES IDX 7 13 8 14 9 15 13 16 11 17 10 18 12 20 4 22 21 24 18 26
REMARK H PARENT 10 19 12 21 4 23 21 25 18 27
REMARK Flexibility Score: inf
ROOT
ATOM      1  C   UNL     1       7.445  -2.000  16.656  1.00  0.00     0.180 A 
ATOM      2  C   UNL     1       6.169  -1.649  16.182  1.00  0.00     0.208 A 
ATOM      3  C   UNL     1       5.189  -2.648  16.059  1.00  0.00     0.238 A 
ATOM      4  O   UNL     1       4.033  -2.318  15.686  1.00  0.00    -0.285 OA
ATOM      5  C   UNL     1       5.501  -3.986  16.397  1.00  0.00     0.111 A 
ATOM      6  C   UNL     1       4.598  -5.085  16.273  1.00  0.00     0.134 A 
ATOM      7  C   UNL     1       4.973  -6.344  16.760  1.00  0.00     0.093 A 
ATOM      8  C   UNL     1       6.241  -6.558  17.305  1.00  0.00     0.123 A 
ATOM      9  C   UNL     1       7.150  -5.505  17.375  1.00  0.00     0.094 A 
ATOM     10  C   UNL     1       6.794  -4.230  16.932  1.00  0.00     0.146 A 
ATOM     11  O   UNL     1       7.687  -3.252  17.027  1.00  0.00    -0.452 OA
ENDROOT
BRANCH   1  12
ATOM     12  C   UNL     1       8.537  -1.009  16.789  1.00  0.00     0.025 A 
ATOM     13  C   UNL     1       8.649  -0.259  17.970  1.00  0.00     0.016 A 
ATOM     14  C   UNL     1       9.683   0.667  18.125  1.00  0.00     0.051 A 
ATOM     15  C   UNL     1      10.628   0.847  17.111  1.00  0.00     0.157 A 
ATOM     16  C   UNL     1       9.501  -0.842  15.778  1.00  0.00     0.062 A 
ATOM     17  C   UNL     1      10.541   0.086  15.932  1.00  0.00     0.158 A 
BRANCH  15  18
ATOM     18  O   UNL     1      11.649   1.781  17.292  1.00  0.00    -0.504 OA
ATOM     19  H   UNL     1      12.626   1.514  17.313  1.00  0.00     0.293 HD
ENDBRANCH  15  18
BRANCH  17  20
ATOM     20  O   UNL     1      11.488   0.250  14.923  1.00  0.00    -0.504 OA
ATOM     21  H   UNL     1      12.432  -0.105  15.018  1.00  0.00     0.293 HD
ENDBRANCH  17  20
ENDBRANCH   1  12
BRANCH   2  22
ATOM     22  O   UNL     1       5.875  -0.317  15.875  1.00  0.00    -0.502 OA
ATOM     23  H   UNL     1       5.179   0.217  16.381  1.00  0.00     0.293 HD
ENDBRANCH   2  22
BRANCH   6  24
ATOM     24  O   UNL     1       3.345  -5.000  15.661  1.00  0.00    -0.507 OA
ATOM     25  H   UNL     1       3.141  -5.310  14.723  1.00  0.00     0.293 HD
ENDBRANCH   6  24
BRANCH   8  26
ATOM     26  O   UNL     1       6.611  -7.817  17.773  1.00  0.00    -0.508 OA
ATOM     27  H   UNL     1       7.181  -8.443  17.215  1.00  0.00     0.293 HD
ENDBRANCH   8  26
TORSDOF 6
ENDMDL
MODEL 4
REMARK VINA RESULT:    -5.761      1.487      6.694
REMARK INTER + INTRA:          -7.002
REMARK INTER:                  -6.929
REMARK INTRA:                  -0.073
REMARK UNBOUND:                -0.063
REMARK SMILES O=c1c(O)c(-c2ccc(O)c(O)c2)oc2cc(O)cc(O)c12
REMARK SMILES IDX 5 1 3 2 2 3 1 4 22 5 20 6 19 7 17 8 16 9 15 10 14 11 6 12
REMARK SMILES IDX 7 13 8 14 9 15 13 16 11 17 10 18 12 20 4 22 21 24 18 26
REMARK H PARENT 10 19 12 21 4 23 21 25 18 27
REMARK Flexibility Score: inf
ROOT
ATOM      1  C   UNL     1       3.721  -3.138  17.286  1.00  0.00     0.180 A 
ATOM      2  C   UNL     1       4.980  -2.692  17.723  1.00  0.00     0.208 A 
ATOM      3  C   UNL     1       6.062  -3.588  17.712  1.00  0.00     0.238 A 
ATOM      4  O   UNL     1       7.198  -3.168  18.051  1.00  0.00    -0.285 OA
ATOM      5  C   UNL     1       5.867  -4.922  17.279  1.00  0.00     0.111 A 
ATOM      6  C   UNL     1       6.883  -5.926  17.264  1.00  0.00     0.134 A 
ATOM      7  C   UNL     1       6.609  -7.175  16.693  1.00  0.00     0.093 A 
ATOM      8  C   UNL     1       5.339  -7.479  16.198  1.00  0.00     0.123 A 
ATOM      9  C   UNL     1       4.325  -6.525  16.262  1.00  0.00     0.094 A 
ATOM     10  C   UNL     1       4.577  -5.259  16.792  1.00  0.00     0.146 A 
ATOM     11  O   UNL     1       3.585  -4.376  16.825  1.00  0.00    -0.452 OA
ENDROOT
BRANCH   1  12
ATOM     12  C   UNL     1       2.528  -2.260  17.292  1.00  0.00     0.025 A 
ATOM     13  C   UNL     1       1.409  -2.621  18.058  1.00  0.00     0.016 A 
ATOM     14  C   UNL     1       0.281  -1.798  18.095  1.00  0.00     0.051 A 
ATOM     15  C   UNL     1       0.260  -0.596  17.382  1.00  0.00     0.157 A 
ATOM     16  C   UNL     1       2.514  -1.040  16.592  1.00  0.00     0.062 A 
ATOM     17  C   UNL     1       1.383  -0.211  16.629  1.00  0.00     0.158 A 
BRANCH  15  18
ATOM     18  O   UNL     1      -0.880   0.205  17.435  1.00  0.00    -0.504 OA
ATOM     19  H   UNL     1      -0.941   1.089  16.944  1.00  0.00     0.293 HD
ENDBRANCH  15  18
BRANCH  17  20
ATOM     20  O   UNL     1       1.374   0.992  15.926  1.00  0.00    -0.504 OA
ATOM     21  H   UNL     1       0.548   1.576  15.882  1.00  0.00     0.293 HD
ENDBRANCH  17  20
ENDBRANCH   1  12
BRANCH   2  22
ATOM     22  O   UNL     1       5.156  -1.365  18.125  1.00  0.00    -0.502 OA
ATOM     23  H   UNL     1       4.578  -0.610  17.775  1.00  0.00     0.293 HD
ENDBRANCH   2  22
BRANCH   6  24
ATOM     24  O   UNL     1       8.155  -5.756  17.818  1.00  0.00    -0.507 OA
ATOM     25  H   UNL     1       8.593  -6.399  18.460  1.00  0.00     0.293 HD
ENDBRANCH   6  24
BRANCH   8  26
ATOM     26  O   UNL     1       5.072  -8.730  15.646  1.00  0.00    -0.508 OA
ATOM     27  H   UNL     1       4.203  -8.920  15.160  1.00  0.00     0.293 HD
ENDBRANCH   8  26
TORSDOF 6
ENDMDL
MODEL 5
REMARK VINA RESULT:    -5.751      5.191      7.503
REMARK INTER + INTRA:          -6.990
REMARK INTER:                  -6.767
REMARK INTRA:                  -0.223
REMARK UNBOUND:                -0.063
REMARK SMILES O=c1c(O)c(-c2ccc(O)c(O)c2)oc2cc(O)cc(O)c12
REMARK SMILES IDX 5 1 3 2 2 3 1 4 22 5 20 6 19 7 17 8 16 9 15 10 14 11 6 12
REMARK SMILES IDX 7 13 8 14 9 15 13 16 11 17 10 18 12 20 4 22 21 24 18 26
REMARK H PARENT 10 19 12 21 4 23 21 25 18 27
REMARK Flexibility Score: inf
ROOT
ATOM      1  C   UNL     1       9.679  -1.661  16.987  1.00  0.00     0.180 A 
ATOM      2  C   UNL     1       9.819  -2.955  17.518  1.00  0.00     0.208 A 
ATOM      3  C   UNL     1       8.676  -3.760  17.661  1.00  0.00     0.238 A 
ATOM      4  O   UNL     1       8.814  -4.936  18.085  1.00  0.00    -0.285 OA
ATOM      5  C   UNL     1       7.408  -3.256  17.285  1.00  0.00     0.111 A 
ATOM      6  C   UNL     1       6.179  -3.968  17.424  1.00  0.00     0.134 A 
ATOM      7  C   UNL     1       5.001  -3.421  16.899  1.00  0.00     0.093 A 
ATOM      8  C   UNL     1       4.997  -2.159  16.300  1.00  0.00     0.123 A 
ATOM      9  C   UNL     1       6.181  -1.431  16.214  1.00  0.00     0.094 A 
ATOM     10  C   UNL     1       7.378  -1.965  16.695  1.00  0.00     0.146 A 
ATOM     11  O   UNL     1       8.486  -1.241  16.583  1.00  0.00    -0.452 OA
ENDROOT
BRANCH   1  12
ATOM     12  C   UNL     1      10.833  -0.746  16.829  1.00  0.00     0.025 A 
ATOM     13  C   UNL     1      11.444  -0.204  17.970  1.00  0.00     0.016 A 
ATOM     14  C   UNL     1      12.547   0.646  17.846  1.00  0.00     0.051 A 
ATOM     15  C   UNL     1      13.063   0.953  16.584  1.00  0.00     0.157 A 
ATOM     16  C   UNL     1      11.367  -0.452  15.561  1.00  0.00     0.062 A 
ATOM     17  C   UNL     1      12.474   0.399  15.434  1.00  0.00     0.158 A 
BRANCH  15  18
ATOM     18  O   UNL     1      14.163   1.807  16.490  1.00  0.00    -0.504 OA
ATOM     19  H   UNL     1      14.461   2.388  17.264  1.00  0.00     0.293 HD
ENDBRANCH  15  18
BRANCH  17  20
ATOM     20  O   UNL     1      12.992   0.690  14.174  1.00  0.00    -0.504 OA
ATOM     21  H   UNL     1      13.893   0.337  13.875  1.00  0.00     0.293 HD
ENDBRANCH  17  20
ENDBRANCH   1  12
BRANCH   2  22
ATOM     22  O   UNL     1      11.083  -3.442  17.861  1.00  0.00    -0.502 OA
ATOM     23  H   UNL     1      11.854  -2.831  18.105  1.00  0.00     0.293 HD
ENDBRANCH   2  22
BRANCH   6  24
ATOM     24  O   UNL     1       6.057  -5.192  18.087  1.00  0.00    -0.507 OA
ATOM     25  H   UNL     1       5.807  -5.298  19.058  1.00  0.00     0.293 HD
ENDBRANCH   6  24
BRANCH   8  26
ATOM     26  O   UNL     1       3.818  -1.616  15.794  1.00  0.00    -0.508 OA
ATOM     27  H   UNL     1       2.975  -2.172  15.703  1.00  0.00     0.293 HD
ENDBRANCH   8  26
TORSDOF 6
ENDMDL
MODEL 6
REMARK VINA RESULT:    -5.532      6.852      9.754
REMARK INTER + INTRA:          -6.727
REMARK INTER:                  -6.755
REMARK INTRA:                   0.028
REMARK UNBOUND:                -0.063
REMARK SMILES O=c1c(O)c(-c2ccc(O)c(O)c2)oc2cc(O)cc(O)c12
REMARK SMILES IDX 5 1 3 2 2 3 1 4 22 5 20 6 19 7 17 8 16 9 15 10 14 11 6 12
REMARK SMILES IDX 7 13 8 14 9 15 13 16 11 17 10 18 12 20 4 22 21 24 18 26
REMARK H PARENT 10 19 12 21 4 23 21 25 18 27
REMARK Flexibility Score: inf
ROOT
ATOM      1  C   UNL     1      11.097   0.615  16.751  1.00  0.00     0.180 A 
ATOM      2  C   UNL     1       9.797   1.128  16.596  1.00  0.00     0.208 A 
ATOM      3  C   UNL     1       8.701   0.260  16.731  1.00  0.00     0.238 A 
ATOM      4  O   UNL     1       7.539   0.736  16.646  1.00  0.00    -0.285 OA
ATOM      5  C   UNL     1       8.918  -1.112  17.003  1.00  0.00     0.111 A 
ATOM      6  C   UNL     1       7.884  -2.089  17.119  1.00  0.00     0.134 A 
ATOM      7  C   UNL     1       8.207  -3.392  17.519  1.00  0.00     0.093 A 
ATOM      8  C   UNL     1       9.533  -3.769  17.741  1.00  0.00     0.123 A 
ATOM      9  C   UNL     1      10.555  -2.838  17.572  1.00  0.00     0.094 A 
ATOM     10  C   UNL     1      10.262  -1.522  17.210  1.00  0.00     0.146 A 
ATOM     11  O   UNL     1      11.265  -0.664  17.070  1.00  0.00    -0.452 OA
ENDROOT
BRANCH   1  12
ATOM     12  C   UNL     1      12.302   1.462  16.599  1.00  0.00     0.025 A 
ATOM     13  C   UNL     1      13.327   1.055  15.732  1.00  0.00     0.016 A 
ATOM     14  C   UNL     1      14.464   1.848  15.557  1.00  0.00     0.051 A 
ATOM     15  C   UNL     1      14.586   3.066  16.234  1.00  0.00     0.157 A 
ATOM     16  C   UNL     1      12.417   2.697  17.262  1.00  0.00     0.062 A 
ATOM     17  C   UNL     1      13.556   3.496  17.088  1.00  0.00     0.158 A 
BRANCH  15  18
ATOM     18  O   UNL     1      15.733   3.836  16.042  1.00  0.00    -0.504 OA
ATOM     19  H   UNL     1      16.393   4.013  16.789  1.00  0.00     0.293 HD
ENDBRANCH  15  18
BRANCH  17  20
ATOM     20  O   UNL     1      13.665   4.715  17.754  1.00  0.00    -0.504 OA
ATOM     21  H   UNL     1      14.298   5.440  17.437  1.00  0.00     0.293 HD
ENDBRANCH  17  20
ENDBRANCH   1  12
BRANCH   2  22
ATOM     22  O   UNL     1       9.604   2.491  16.350  1.00  0.00    -0.502 OA
ATOM     23  H   UNL     1      10.276   3.195  16.631  1.00  0.00     0.293 HD
ENDBRANCH   2  22
BRANCH   6  24
ATOM     24  O   UNL     1       6.540  -1.840  16.829  1.00  0.00    -0.507 OA
ATOM     25  H   UNL     1       5.839  -1.595  17.512  1.00  0.00     0.293 HD
ENDBRANCH   6  24
BRANCH   8  26
ATOM     26  O   UNL     1       9.847  -5.072  18.124  1.00  0.00    -0.508 OA
ATOM     27  H   UNL     1      10.793  -5.430  18.059  1.00  0.00     0.293 HD
ENDBRANCH   8  26
TORSDOF 6
ENDMDL
MODEL 7
REMARK VINA RESULT:    -5.476      3.776      6.388
REMARK INTER + INTRA:          -6.659
REMARK INTER:                  -6.519
REMARK INTRA:                  -0.140
REMARK UNBOUND:                -0.063
REMARK SMILES O=c1c(O)c(-c2ccc(O)c(O)c2)oc2cc(O)cc(O)c12
REMARK SMILES IDX 5 1 3 2 2 3 1 4 22 5 20 6 19 7 17 8 16 9 15 10 14 11 6 12
REMARK SMILES IDX 7 13 8 14 9 15 13 16 11 17 10 18 12 20 4 22 21 24 18 26
REMARK H PARENT 10 19 12 21 4 23 21 25 18 27
REMARK Flexibility Score: inf
ROOT
ATOM      1  C   UNL     1       7.012  -3.304  17.272  1.00  0.00     0.180 A 
ATOM      2  C   UNL     1       7.981  -4.236  17.683  1.00  0.00     0.208 A 
ATOM      3  C   UNL     1       9.334  -3.857  17.681  1.00  0.00     0.238 A 
ATOM      4  O   UNL     1      10.191  -4.676  18.101  1.00  0.00    -0.285 OA
ATOM      5  C   UNL     1       9.701  -2.559  17.254  1.00  0.00     0.111 A 
ATOM      6  C   UNL     1      11.045  -2.082  17.173  1.00  0.00     0.134 A 
ATOM      7  C   UNL     1      11.282  -0.737  16.861  1.00  0.00     0.093 A 
ATOM      8  C   UNL     1      10.228   0.130  16.563  1.00  0.00     0.123 A 
ATOM      9  C   UNL     1       8.918  -0.341  16.581  1.00  0.00     0.094 A 
ATOM     10  C   UNL     1       8.646  -1.667  16.924  1.00  0.00     0.146 A 
ATOM     11  O   UNL     1       7.382  -2.073  16.939  1.00  0.00    -0.452 OA
ENDROOT
BRANCH   1  12
ATOM     12  C   UNL     1       5.570  -3.637  17.223  1.00  0.00     0.025 A 
ATOM     13  C   UNL     1       4.657  -2.864  17.957  1.00  0.00     0.016 A 
ATOM     14  C   UNL     1       3.290  -3.147  17.909  1.00  0.00     0.051 A 
ATOM     15  C   UNL     1       2.813  -4.196  17.117  1.00  0.00     0.157 A 
ATOM     16  C   UNL     1       5.086  -4.678  16.410  1.00  0.00     0.062 A 
ATOM     17  C   UNL     1       3.714  -4.964  16.360  1.00  0.00     0.158 A 
BRANCH  15  18
ATOM     18  O   UNL     1       1.443  -4.458  17.091  1.00  0.00    -0.504 OA
ATOM     19  H   UNL     1       0.794  -3.877  16.574  1.00  0.00     0.293 HD
ENDBRANCH  15  18
BRANCH  17  20
ATOM     20  O   UNL     1       3.244  -6.002  15.557  1.00  0.00    -0.504 OA
ATOM     21  H   UNL     1       2.956  -5.844  14.598  1.00  0.00     0.293 HD
ENDBRANCH  17  20
ENDBRANCH   1  12
BRANCH   2  22
ATOM     22  O   UNL     1       7.595  -5.505  18.122  1.00  0.00    -0.502 OA
ATOM     23  H   UNL     1       6.725  -5.669  18.616  1.00  0.00     0.293 HD
ENDBRANCH   2  22
BRANCH   6  24
ATOM     24  O   UNL     1      12.171  -2.888  17.360  1.00  0.00    -0.507 OA
ATOM     25  H   UNL     1      12.262  -3.836  17.027  1.00  0.00     0.293 HD
ENDBRANCH   6  24
BRANCH   8  26
ATOM     26  O   UNL     1      10.475   1.463  16.239  1.00  0.00    -0.508 OA
ATOM     27  H   UNL     1      11.186   2.002  16.718  1.00  0.00     0.293 HD
ENDBRANCH   8  26
TORSDOF 6
ENDMDL
MODEL 8
REMARK VINA RESULT:    -5.443      1.841      6.963
REMARK INTER + INTRA:          -6.619
REMARK INTER:                  -6.703
REMARK INTRA:                   0.085
REMARK UNBOUND:                -0.063
REMARK SMILES O=c1c(O)c(-c2ccc(O)c(O)c2)oc2cc(O)cc(O)c12
REMARK SMILES IDX 5 1 3 2 2 3 1 4 22 5 20 6 19 7 17 8 16 9 15 10 14 11 6 12
REMARK SMILES IDX 7 13 8 14 9 15 13 16 11 17 10 18 12 20 4 22 21 24 18 26
REMARK H PARENT 10 19 12 21 4 23 21 25 18 27
REMARK Flexibility Score: inf
ROOT
ATOM      1  C   UNL     1       3.518  -3.154  17.218  1.00  0.00     0.180 A 
ATOM      2  C   UNL     1       3.325  -4.513  16.916  1.00  0.00     0.208 A 
ATOM      3  C   UNL     1       4.442  -5.363  16.856  1.00  0.00     0.238 A 
ATOM      4  O   UNL     1       4.257  -6.589  16.640  1.00  0.00    -0.285 OA
ATOM      5  C   UNL     1       5.737  -4.841  17.083  1.00  0.00     0.111 A 
ATOM      6  C   UNL     1       6.943  -5.602  17.008  1.00  0.00     0.134 A 
ATOM      7  C   UNL     1       8.157  -5.011  17.379  1.00  0.00     0.093 A 
ATOM      8  C   UNL     1       8.218  -3.668  17.759  1.00  0.00     0.123 A 
ATOM      9  C   UNL     1       7.055  -2.901  17.778  1.00  0.00     0.094 A 
ATOM     10  C   UNL     1       5.824  -3.472  17.449  1.00  0.00     0.146 A 
ATOM     11  O   UNL     1       4.739  -2.708  17.490  1.00  0.00    -0.452 OA
ENDROOT
BRANCH   1  12
ATOM     12  C   UNL     1       2.394  -2.191  17.274  1.00  0.00     0.025 A 
ATOM     13  C   UNL     1       1.239  -2.521  17.998  1.00  0.00     0.016 A 
ATOM     14  C   UNL     1       0.174  -1.620  18.082  1.00  0.00     0.051 A 
ATOM     15  C   UNL     1       0.255  -0.372  17.458  1.00  0.00     0.157 A 
ATOM     16  C   UNL     1       2.482  -0.926  16.664  1.00  0.00     0.062 A 
ATOM     17  C   UNL     1       1.415  -0.019  16.748  1.00  0.00     0.158 A 
BRANCH  15  18
ATOM     18  O   UNL     1      -0.824   0.507  17.556  1.00  0.00    -0.504 OA
ATOM     19  H   UNL     1      -1.783   0.196  17.451  1.00  0.00     0.293 HD
ENDBRANCH  15  18
BRANCH  17  20
ATOM     20  O   UNL     1       1.508   1.229  16.135  1.00  0.00    -0.504 OA
ATOM     21  H   UNL     1       2.196   1.913  16.425  1.00  0.00     0.293 HD
ENDBRANCH  17  20
ENDBRANCH   1  12
BRANCH   2  22
ATOM     22  O   UNL     1       2.035  -5.012  16.718  1.00  0.00    -0.502 OA
ATOM     23  H   UNL     1       1.217  -4.591  17.141  1.00  0.00     0.293 HD
ENDBRANCH   2  22
BRANCH   6  24
ATOM     24  O   UNL     1       7.004  -6.922  16.552  1.00  0.00    -0.507 OA
ATOM     25  H   UNL     1       7.857  -7.426  16.364  1.00  0.00     0.293 HD
ENDBRANCH   6  24
BRANCH   8  26
ATOM     26  O   UNL     1       9.433  -3.084  18.112  1.00  0.00    -0.508 OA
ATOM     27  H   UNL     1       9.473  -2.257  18.697  1.00  0.00     0.293 HD
ENDBRANCH   8  26
TORSDOF 6
ENDMDL
MODEL 9
REMARK VINA RESULT:    -5.360      4.715      7.048
REMARK INTER + INTRA:          -6.519
REMARK INTER:                  -6.252
REMARK INTRA:                  -0.267
REMARK UNBOUND:                -0.063
REMARK SMILES O=c1c(O)c(-c2ccc(O)c(O)c2)oc2cc(O)cc(O)c12
REMARK SMILES IDX 5 1 3 2 2 3 1 4 22 5 20 6 19 7 17 8 16 9 15 10 14 11 6 12
REMARK SMILES IDX 7 13 8 14 9 15 13 16 11 17 10 18 12 20 4 22 21 24 18 26
REMARK H PARENT 10 19 12 21 4 23 21 25 18 27
REMARK Flexibility Score: inf
ROOT
ATOM      1  C   UNL     1       7.969  -0.920  16.614  1.00  0.00     0.180 A 
ATOM      2  C   UNL     1       7.650   0.246  17.332  1.00  0.00     0.208 A 
ATOM      3  C   UNL     1       8.645   1.219  17.529  1.00  0.00     0.238 A 
ATOM      4  O   UNL     1       8.339   2.284  18.124  1.00  0.00    -0.285 OA
ATOM      5  C   UNL     1       9.948   1.006  17.018  1.00  0.00     0.111 A 
ATOM      6  C   UNL     1      11.043   1.906  17.192  1.00  0.00     0.134 A 
ATOM      7  C   UNL     1      12.253   1.655  16.533  1.00  0.00     0.093 A 
ATOM      8  C   UNL     1      12.428   0.505  15.760  1.00  0.00     0.123 A 
ATOM      9  C   UNL     1      11.384  -0.408  15.632  1.00  0.00     0.094 A 
ATOM     10  C   UNL     1      10.154  -0.169  16.248  1.00  0.00     0.146 A 
ATOM     11  O   UNL     1       9.182  -1.060  16.092  1.00  0.00    -0.452 OA
ENDROOT
BRANCH   1  12
ATOM     12  C   UNL     1       6.982  -2.000  16.388  1.00  0.00     0.025 A 
ATOM     13  C   UNL     1       7.038  -3.162  17.173  1.00  0.00     0.016 A 
ATOM     14  C   UNL     1       6.104  -4.185  16.992  1.00  0.00     0.051 A 
ATOM     15  C   UNL     1       5.093  -4.057  16.035  1.00  0.00     0.157 A 
ATOM     16  C   UNL     1       5.951  -1.864  15.440  1.00  0.00     0.062 A 
ATOM     17  C   UNL     1       5.012  -2.889  15.257  1.00  0.00     0.158 A 
BRANCH  15  18
ATOM     18  O   UNL     1       4.176  -5.095  15.873  1.00  0.00    -0.504 OA
ATOM     19  H   UNL     1       3.861  -5.399  14.959  1.00  0.00     0.293 HD
ENDBRANCH  15  18
BRANCH  17  20
ATOM     20  O   UNL     1       3.998  -2.748  14.311  1.00  0.00    -0.504 OA
ATOM     21  H   UNL     1       4.029  -3.233  13.422  1.00  0.00     0.293 HD
ENDBRANCH  17  20
ENDBRANCH   1  12
BRANCH   2  22
ATOM     22  O   UNL     1       6.351   0.446  17.808  1.00  0.00    -0.502 OA
ATOM     23  H   UNL     1       5.969   1.369  17.974  1.00  0.00     0.293 HD
ENDBRANCH   2  22
BRANCH   6  24
ATOM     24  O   UNL     1      11.003   3.033  18.017  1.00  0.00    -0.507 OA
ATOM     25  H   UNL     1      11.706   3.271  18.700  1.00  0.00     0.293 HD
ENDBRANCH   6  24
BRANCH   8  26
ATOM     26  O   UNL     1      13.640   0.256  15.120  1.00  0.00    -0.508 OA
ATOM     27  H   UNL     1      14.248   1.012  14.823  1.00  0.00     0.293 HD
ENDBRANCH   8  26
TORSDOF 6
ENDMDL
