MODEL 1
REMARK VINA RESULT:    -7.821      0.000      0.000
REMARK INTER + INTRA:          -9.644
REMARK INTER:                  -9.421
REMARK INTRA:                  -0.223
REMARK UNBOUND:                -0.223
REMARK SMILES O=c1c(O)c(-c2ccc(O)c(O)c2)oc2cc(O)cc(O)c12
REMARK SMILES IDX 5 1 3 2 2 3 1 4 22 5 20 6 19 7 17 8 16 9 15 10 14 11 6 12
REMARK SMILES IDX 7 13 8 14 9 15 13 16 11 17 10 18 12 20 4 22 21 24 18 26
REMARK H PARENT 10 19 12 21 4 23 21 25 18 27
REMARK Flexibility Score: inf
ROOT
ATOM      1  C   UNL     1      15.512 -47.576  69.730  1.00  0.00     0.180 A 
ATOM      2  C   UNL     1      15.520 -48.371  68.567  1.00  0.00     0.208 A 
ATOM      3  C   UNL     1      16.721 -48.522  67.857  1.00  0.00     0.238 A 
ATOM      4  O   UNL     1      16.736 -49.223  66.808  1.00  0.00    -0.285 OA
ATOM      5  C   UNL     1      17.893 -47.897  68.328  1.00  0.00     0.111 A 
ATOM      6  C   UNL     1      19.144 -48.002  67.673  1.00  0.00     0.134 A 
ATOM      7  C   UNL     1      20.267 -47.357  68.211  1.00  0.00     0.093 A 
ATOM      8  C   UNL     1      20.165 -46.611  69.386  1.00  0.00     0.123 A 
ATOM      9  C   UNL     1      18.933 -46.502  70.038  1.00  0.00     0.094 A 
ATOM     10  C   UNL     1      17.801 -47.136  69.518  1.00  0.00     0.146 A 
ATOM     11  O   UNL     1      16.641 -47.013  70.153  1.00  0.00    -0.452 OA
ENDROOT
BRANCH   1  12
ATOM     12  C   UNL     1      14.282 -47.352  70.524  1.00  0.00     0.025 A 
ATOM     13  C   UNL     1      13.764 -48.399  71.303  1.00  0.00     0.016 A 
ATOM     14  C   UNL     1      12.616 -48.204  72.075  1.00  0.00     0.051 A 
ATOM     15  C   UNL     1      11.980 -46.957  72.091  1.00  0.00     0.157 A 
ATOM     16  C   UNL     1      13.652 -46.095  70.559  1.00  0.00     0.062 A 
ATOM     17  C   UNL     1      12.501 -45.898  71.335  1.00  0.00     0.158 A 
BRANCH  15  18
ATOM     18  O   UNL     1      10.833 -46.758  72.859  1.00  0.00    -0.504 OA
ATOM     19  H   UNL     1      10.264 -47.536  73.172  1.00  0.00     0.293 HD
ENDBRANCH  15  18
BRANCH  17  20
ATOM     20  O   UNL     1      11.873 -44.655  71.364  1.00  0.00    -0.504 OA
ATOM     21  H   UNL     1      11.136 -44.418  70.711  1.00  0.00     0.293 HD
ENDBRANCH  17  20
ENDBRANCH   1  12
BRANCH   2  22
ATOM     22  O   UNL     1      14.356 -49.021  68.149  1.00  0.00    -0.502 OA
ATOM     23  H   UNL     1      13.652 -48.563  67.584  1.00  0.00     0.293 HD
ENDBRANCH   2  22
BRANCH   6  24
ATOM     24  O   UNL     1      19.278 -48.742  66.497  1.00  0.00    -0.507 OA
ATOM     25  H   UNL     1      19.984 -48.518  65.805  1.00  0.00     0.293 HD
ENDBRANCH   6  24
BRANCH   8  26
ATOM     26  O   UNL     1      21.297 -45.980  69.900  1.00  0.00    -0.508 OA
ATOM     27  H   UNL     1      21.241 -45.073  70.346  1.00  0.00     0.293 HD
ENDBRANCH   8  26
TORSDOF 6
ENDMDL
MODEL 2
REMARK VINA RESULT:    -7.791      1.304      2.937
REMARK INTER + INTRA:          -9.608
REMARK INTER:                  -9.292
REMARK INTRA:                  -0.316
REMARK UNBOUND:                -0.223
REMARK SMILES O=c1c(O)c(-c2ccc(O)c(O)c2)oc2cc(O)cc(O)c12
REMARK SMILES IDX 5 1 3 2 2 3 1 4 22 5 20 6 19 7 17 8 16 9 15 10 14 11 6 12
REMARK SMILES IDX 7 13 8 14 9 15 13 16 11 17 10 18 12 20 4 22 21 24 18 26
REMARK H PARENT 10 19 12 21 4 23 21 25 18 27
REMARK Flexibility Score: inf
ROOT
ATOM      1  C   UNL     1      15.658 -47.702  69.784  1.00  0.00     0.180 A 
ATOM      2  C   UNL     1      16.937 -47.598  70.365  1.00  0.00     0.208 A 
ATOM      3  C   UNL     1      18.064 -47.881  69.578  1.00  0.00     0.238 A 
ATOM      4  O   UNL     1      19.213 -47.801  70.092  1.00  0.00    -0.285 OA
ATOM      5  C   UNL     1      17.897 -48.241  68.225  1.00  0.00     0.111 A 
ATOM      6  C   UNL     1      18.981 -48.538  67.365  1.00  0.00     0.134 A 
ATOM      7  C   UNL     1      18.733 -48.880  66.027  1.00  0.00     0.093 A 
ATOM      8  C   UNL     1      17.427 -48.931  65.535  1.00  0.00     0.123 A 
ATOM      9  C   UNL     1      16.353 -48.639  66.381  1.00  0.00     0.094 A 
ATOM     10  C   UNL     1      16.578 -48.298  67.717  1.00  0.00     0.146 A 
ATOM     11  O   UNL     1      15.539 -48.031  68.501  1.00  0.00    -0.452 OA
ENDROOT
BRANCH   1  12
ATOM     12  C   UNL     1      14.420 -47.439  70.553  1.00  0.00     0.025 A 
ATOM     13  C   UNL     1      13.868 -48.460  71.343  1.00  0.00     0.016 A 
ATOM     14  C   UNL     1      12.711 -48.228  72.092  1.00  0.00     0.051 A 
ATOM     15  C   UNL     1      12.101 -46.968  72.075  1.00  0.00     0.157 A 
ATOM     16  C   UNL     1      13.814 -46.170  70.555  1.00  0.00     0.062 A 
ATOM     17  C   UNL     1      12.655 -45.935  71.308  1.00  0.00     0.158 A 
BRANCH  15  18
ATOM     18  O   UNL     1      10.946 -46.732  72.820  1.00  0.00    -0.504 OA
ATOM     19  H   UNL     1      10.961 -46.730  73.834  1.00  0.00     0.293 HD
ENDBRANCH  15  18
BRANCH  17  20
ATOM     20  O   UNL     1      12.053 -44.679  71.304  1.00  0.00    -0.504 OA
ATOM     21  H   UNL     1      12.281 -43.979  72.001  1.00  0.00     0.293 HD
ENDBRANCH  17  20
ENDBRANCH   1  12
BRANCH   2  22
ATOM     22  O   UNL     1      17.077 -47.190  71.694  1.00  0.00    -0.502 OA
ATOM     23  H   UNL     1      17.764 -47.596  72.317  1.00  0.00     0.293 HD
ENDBRANCH   2  22
BRANCH   6  24
ATOM     24  O   UNL     1      20.298 -48.494  67.826  1.00  0.00    -0.507 OA
ATOM     25  H   UNL     1      21.062 -48.895  67.294  1.00  0.00     0.293 HD
ENDBRANCH   6  24
BRANCH   8  26
ATOM     26  O   UNL     1      17.209 -49.273  64.202  1.00  0.00    -0.508 OA
ATOM     27  H   UNL     1      16.872 -50.191  63.939  1.00  0.00     0.293 HD
ENDBRANCH   8  26
TORSDOF 6
ENDMDL
MODEL 3
REMARK VINA RESULT:    -7.375      1.900      7.057
REMARK INTER + INTRA:          -9.107
REMARK INTER:                  -8.778
REMARK INTRA:                  -0.328
REMARK UNBOUND:                -0.223
REMARK SMILES O=c1c(O)c(-c2ccc(O)c(O)c2)oc2cc(O)cc(O)c12
REMARK SMILES IDX 5 1 3 2 2 3 1 4 22 5 20 6 19 7 17 8 16 9 15 10 14 11 6 12
REMARK SMILES IDX 7 13 8 14 9 15 13 16 11 17 10 18 12 20 4 22 21 24 18 26
REMARK H PARENT 10 19 12 21 4 23 21 25 18 27
REMARK Flexibility Score: inf
ROOT
ATOM      1  C   UNL     1      17.500 -47.379  69.083  1.00  0.00     0.180 A 
ATOM      2  C   UNL     1      17.499 -48.334  70.118  1.00  0.00     0.208 A 
ATOM      3  C   UNL     1      16.382 -48.415  70.965  1.00  0.00     0.238 A 
ATOM      4  O   UNL     1      16.375 -49.260  71.902  1.00  0.00    -0.285 OA
ATOM      5  C   UNL     1      15.282 -47.559  70.752  1.00  0.00     0.111 A 
ATOM      6  C   UNL     1      14.118 -47.580  71.558  1.00  0.00     0.134 A 
ATOM      7  C   UNL     1      13.062 -46.702  71.276  1.00  0.00     0.093 A 
ATOM      8  C   UNL     1      13.146 -45.806  70.208  1.00  0.00     0.123 A 
ATOM      9  C   UNL     1      14.293 -45.780  69.409  1.00  0.00     0.094 A 
ATOM     10  C   UNL     1      15.357 -46.646  69.674  1.00  0.00     0.146 A 
ATOM     11  O   UNL     1      16.438 -46.598  68.903  1.00  0.00    -0.452 OA
ENDROOT
BRANCH   1  12
ATOM     12  C   UNL     1      18.647 -47.219  68.161  1.00  0.00     0.025 A 
ATOM     13  C   UNL     1      18.609 -47.833  66.899  1.00  0.00     0.016 A 
ATOM     14  C   UNL     1      19.672 -47.679  66.005  1.00  0.00     0.051 A 
ATOM     15  C   UNL     1      20.779 -46.895  66.353  1.00  0.00     0.157 A 
ATOM     16  C   UNL     1      19.752 -46.416  68.498  1.00  0.00     0.062 A 
ATOM     17  C   UNL     1      20.817 -46.259  67.601  1.00  0.00     0.158 A 
BRANCH  15  18
ATOM     18  O   UNL     1      21.841 -46.739  65.464  1.00  0.00    -0.504 OA
ATOM     19  H   UNL     1      22.345 -45.863  65.389  1.00  0.00     0.293 HD
ENDBRANCH  15  18
BRANCH  17  20
ATOM     20  O   UNL     1      21.914 -45.469  67.938  1.00  0.00    -0.504 OA
ATOM     21  H   UNL     1      22.306 -45.478  68.873  1.00  0.00     0.293 HD
ENDBRANCH  17  20
ENDBRANCH   1  12
BRANCH   2  22
ATOM     22  O   UNL     1      18.580 -49.204  70.277  1.00  0.00    -0.502 OA
ATOM     23  H   UNL     1      18.710 -49.764  71.111  1.00  0.00     0.293 HD
ENDBRANCH   2  22
BRANCH   6  24
ATOM     24  O   UNL     1      14.004 -48.464  72.632  1.00  0.00    -0.507 OA
ATOM     25  H   UNL     1      13.674 -48.159  73.541  1.00  0.00     0.293 HD
ENDBRANCH   6  24
BRANCH   8  26
ATOM     26  O   UNL     1      12.082 -44.944  69.949  1.00  0.00    -0.508 OA
ATOM     27  H   UNL     1      12.225 -44.040  69.516  1.00  0.00     0.293 HD
ENDBRANCH   8  26
TORSDOF 6
ENDMDL
MODEL 4
REMARK VINA RESULT:    -7.133      3.098      7.513
REMARK INTER + INTRA:          -8.815
REMARK INTER:                  -8.584
REMARK INTRA:                  -0.231
REMARK UNBOUND:                -0.223
REMARK SMILES O=c1c(O)c(-c2ccc(O)c(O)c2)oc2cc(O)cc(O)c12
REMARK SMILES IDX 5 1 3 2 2 3 1 4 22 5 20 6 19 7 17 8 16 9 15 10 14 11 6 12
REMARK SMILES IDX 7 13 8 14 9 15 13 16 11 17 10 18 12 20 4 22 21 24 18 26
REMARK H PARENT 10 19 12 21 4 23 21 25 18 27
REMARK Flexibility Score: inf
ROOT
ATOM      1  C   UNL     1      19.899 -45.154  68.535  1.00  0.00     0.180 A 
ATOM      2  C   UNL     1      19.380 -45.764  67.376  1.00  0.00     0.208 A 
ATOM      3  C   UNL     1      18.414 -46.773  67.516  1.00  0.00     0.238 A 
ATOM      4  O   UNL     1      17.951 -47.333  66.485  1.00  0.00    -0.285 OA
ATOM      5  C   UNL     1      17.967 -47.138  68.802  1.00  0.00     0.111 A 
ATOM      6  C   UNL     1      16.994 -48.141  69.028  1.00  0.00     0.134 A 
ATOM      7  C   UNL     1      16.596 -48.441  70.339  1.00  0.00     0.093 A 
ATOM      8  C   UNL     1      17.150 -47.761  71.425  1.00  0.00     0.123 A 
ATOM      9  C   UNL     1      18.112 -46.769  71.208  1.00  0.00     0.094 A 
ATOM     10  C   UNL     1      18.524 -46.456  69.910  1.00  0.00     0.146 A 
ATOM     11  O   UNL     1      19.443 -45.514  69.732  1.00  0.00    -0.452 OA
ENDROOT
BRANCH   1  12
ATOM     12  C   UNL     1      20.934 -44.097  68.473  1.00  0.00     0.025 A 
ATOM     13  C   UNL     1      20.581 -42.811  68.036  1.00  0.00     0.016 A 
ATOM     14  C   UNL     1      21.538 -41.793  67.988  1.00  0.00     0.051 A 
ATOM     15  C   UNL     1      22.855 -42.043  68.392  1.00  0.00     0.157 A 
ATOM     16  C   UNL     1      22.253 -44.338  68.897  1.00  0.00     0.062 A 
ATOM     17  C   UNL     1      23.213 -43.318  68.852  1.00  0.00     0.158 A 
BRANCH  15  18
ATOM     18  O   UNL     1      23.813 -41.031  68.345  1.00  0.00    -0.504 OA
ATOM     19  H   UNL     1      24.740 -41.161  68.734  1.00  0.00     0.293 HD
ENDBRANCH  15  18
BRANCH  17  20
ATOM     20  O   UNL     1      24.521 -43.559  69.266  1.00  0.00    -0.504 OA
ATOM     21  H   UNL     1      25.275 -43.679  68.599  1.00  0.00     0.293 HD
ENDBRANCH  17  20
ENDBRANCH   1  12
BRANCH   2  22
ATOM     22  O   UNL     1      19.803 -45.349  66.111  1.00  0.00    -0.502 OA
ATOM     23  H   UNL     1      20.757 -45.068  65.922  1.00  0.00     0.293 HD
ENDBRANCH   2  22
BRANCH   6  24
ATOM     24  O   UNL     1      16.421 -48.838  67.963  1.00  0.00    -0.507 OA
ATOM     25  H   UNL     1      16.023 -48.358  67.164  1.00  0.00     0.293 HD
ENDBRANCH   6  24
BRANCH   8  26
ATOM     26  O   UNL     1      16.737 -48.078  72.717  1.00  0.00    -0.508 OA
ATOM     27  H   UNL     1      17.186 -48.810  73.252  1.00  0.00     0.293 HD
ENDBRANCH   8  26
TORSDOF 6
ENDMDL
MODEL 5
REMARK VINA RESULT:    -7.102      1.917      2.296
REMARK INTER + INTRA:          -8.778
REMARK INTER:                  -9.154
REMARK INTRA:                   0.376
REMARK UNBOUND:                -0.223
REMARK SMILES O=c1c(O)c(-c2ccc(O)c(O)c2)oc2cc(O)cc(O)c12
REMARK SMILES IDX 5 1 3 2 2 3 1 4 22 5 20 6 19 7 17 8 16 9 15 10 14 11 6 12
REMARK SMILES IDX 7 13 8 14 9 15 13 16 11 17 10 18 12 20 4 22 21 24 18 26
REMARK H PARENT 10 19 12 21 4 23 21 25 18 27
REMARK Flexibility Score: inf
ROOT
ATOM      1  C   UNL     1      15.968 -47.083  69.645  1.00  0.00     0.180 A 
ATOM      2  C   UNL     1      16.973 -48.025  69.940  1.00  0.00     0.208 A 
ATOM      3  C   UNL     1      18.162 -48.004  69.193  1.00  0.00     0.238 A 
ATOM      4  O   UNL     1      19.064 -48.850  69.442  1.00  0.00    -0.285 OA
ATOM      5  C   UNL     1      18.335 -47.035  68.184  1.00  0.00     0.111 A 
ATOM      6  C   UNL     1      19.503 -46.944  67.391  1.00  0.00     0.134 A 
ATOM      7  C   UNL     1      19.602 -45.944  66.412  1.00  0.00     0.093 A 
ATOM      8  C   UNL     1      18.560 -45.037  66.211  1.00  0.00     0.123 A 
ATOM      9  C   UNL     1      17.403 -45.122  66.992  1.00  0.00     0.094 A 
ATOM     10  C   UNL     1      17.284 -46.111  67.972  1.00  0.00     0.146 A 
ATOM     11  O   UNL     1      16.172 -46.174  68.696  1.00  0.00    -0.452 OA
ENDROOT
BRANCH   1  12
ATOM     12  C   UNL     1      14.679 -47.053  70.374  1.00  0.00     0.025 A 
ATOM     13  C   UNL     1      14.214 -48.219  71.002  1.00  0.00     0.016 A 
ATOM     14  C   UNL     1      13.010 -48.208  71.711  1.00  0.00     0.051 A 
ATOM     15  C   UNL     1      12.265 -47.028  71.818  1.00  0.00     0.157 A 
ATOM     16  C   UNL     1      13.938 -45.865  70.502  1.00  0.00     0.062 A 
ATOM     17  C   UNL     1      12.731 -45.852  71.216  1.00  0.00     0.158 A 
BRANCH  15  18
ATOM     18  O   UNL     1      11.063 -47.012  72.525  1.00  0.00    -0.504 OA
ATOM     19  H   UNL     1      10.173 -46.904  72.053  1.00  0.00     0.293 HD
ENDBRANCH  15  18
BRANCH  17  20
ATOM     20  O   UNL     1      11.994 -44.676  71.335  1.00  0.00    -0.504 OA
ATOM     21  H   UNL     1      10.989 -44.664  71.204  1.00  0.00     0.293 HD
ENDBRANCH  17  20
ENDBRANCH   1  12
BRANCH   2  22
ATOM     22  O   UNL     1      16.798 -48.943  70.978  1.00  0.00    -0.502 OA
ATOM     23  H   UNL     1      17.570 -49.456  71.386  1.00  0.00     0.293 HD
ENDBRANCH   2  22
BRANCH   6  24
ATOM     24  O   UNL     1      20.563 -47.835  67.567  1.00  0.00    -0.507 OA
ATOM     25  H   UNL     1      20.563 -48.753  67.138  1.00  0.00     0.293 HD
ENDBRANCH   6  24
BRANCH   8  26
ATOM     26  O   UNL     1      18.684 -44.053  65.233  1.00  0.00    -0.508 OA
ATOM     27  H   UNL     1      18.478 -44.244  64.260  1.00  0.00     0.293 HD
ENDBRANCH   8  26
TORSDOF 6
ENDMDL
MODEL 6
REMARK VINA RESULT:    -7.025      1.485      1.962
REMARK INTER + INTRA:          -8.685
REMARK INTER:                  -8.420
REMARK INTRA:                  -0.264
REMARK UNBOUND:                -0.223
REMARK SMILES O=c1c(O)c(-c2ccc(O)c(O)c2)oc2cc(O)cc(O)c12
REMARK SMILES IDX 5 1 3 2 2 3 1 4 22 5 20 6 19 7 17 8 16 9 15 10 14 11 6 12
REMARK SMILES IDX 7 13 8 14 9 15 13 16 11 17 10 18 12 20 4 22 21 24 18 26
REMARK H PARENT 10 19 12 21 4 23 21 25 18 27
REMARK Flexibility Score: inf
ROOT
ATOM      1  C   UNL     1      17.092 -47.770  69.480  1.00  0.00     0.180 A 
ATOM      2  C   UNL     1      17.271 -48.420  68.243  1.00  0.00     0.208 A 
ATOM      3  C   UNL     1      18.412 -48.126  67.481  1.00  0.00     0.238 A 
ATOM      4  O   UNL     1      18.577 -48.694  66.367  1.00  0.00    -0.285 OA
ATOM      5  C   UNL     1      19.362 -47.208  67.974  1.00  0.00     0.111 A 
ATOM      6  C   UNL     1      20.540 -46.860  67.271  1.00  0.00     0.134 A 
ATOM      7  C   UNL     1      21.441 -45.944  67.833  1.00  0.00     0.093 A 
ATOM      8  C   UNL     1      21.189 -45.372  69.082  1.00  0.00     0.123 A 
ATOM      9  C   UNL     1      20.027 -45.711  69.781  1.00  0.00     0.094 A 
ATOM     10  C   UNL     1      19.115 -46.620  69.237  1.00  0.00     0.146 A 
ATOM     11  O   UNL     1      18.017 -46.921  69.920  1.00  0.00    -0.452 OA
ENDROOT
BRANCH   1  12
ATOM     12  C   UNL     1      15.906 -48.012  70.332  1.00  0.00     0.025 A 
ATOM     13  C   UNL     1      16.056 -48.708  71.542  1.00  0.00     0.016 A 
ATOM     14  C   UNL     1      14.953 -48.930  72.372  1.00  0.00     0.051 A 
ATOM     15  C   UNL     1      13.690 -48.446  72.011  1.00  0.00     0.157 A 
ATOM     16  C   UNL     1      14.639 -47.510  69.984  1.00  0.00     0.062 A 
ATOM     17  C   UNL     1      13.533 -47.730  70.817  1.00  0.00     0.158 A 
BRANCH  15  18
ATOM     18  O   UNL     1      12.587 -48.666  72.835  1.00  0.00    -0.504 OA
ATOM     19  H   UNL     1      11.812 -49.248  72.538  1.00  0.00     0.293 HD
ENDBRANCH  15  18
BRANCH  17  20
ATOM     20  O   UNL     1      12.277 -47.238  70.468  1.00  0.00    -0.504 OA
ATOM     21  H   UNL     1      11.943 -47.268  69.512  1.00  0.00     0.293 HD
ENDBRANCH  17  20
ENDBRANCH   1  12
BRANCH   2  22
ATOM     22  O   UNL     1      16.340 -49.363  67.800  1.00  0.00    -0.502 OA
ATOM     23  H   UNL     1      15.996 -49.381  66.847  1.00  0.00     0.293 HD
ENDBRANCH   2  22
BRANCH   6  24
ATOM     24  O   UNL     1      20.821 -47.416  66.021  1.00  0.00    -0.507 OA
ATOM     25  H   UNL     1      20.305 -47.149  65.191  1.00  0.00     0.293 HD
ENDBRANCH   6  24
BRANCH   8  26
ATOM     26  O   UNL     1      22.101 -44.465  69.618  1.00  0.00    -0.508 OA
ATOM     27  H   UNL     1      22.431 -44.548  70.572  1.00  0.00     0.293 HD
ENDBRANCH   8  26
TORSDOF 6
ENDMDL
MODEL 7
REMARK VINA RESULT:    -6.912      4.913      7.549
REMARK INTER + INTRA:          -8.549
REMARK INTER:                  -8.224
REMARK INTRA:                  -0.325
REMARK UNBOUND:                -0.223
REMARK SMILES O=c1c(O)c(-c2ccc(O)c(O)c2)oc2cc(O)cc(O)c12
REMARK SMILES IDX 5 1 3 2 2 3 1 4 22 5 20 6 19 7 17 8 16 9 15 10 14 11 6 12
REMARK SMILES IDX 7 13 8 14 9 15 13 16 11 17 10 18 12 20 4 22 21 24 18 26
REMARK H PARENT 10 19 12 21 4 23 21 25 18 27
REMARK Flexibility Score: inf
ROOT
ATOM      1  C   UNL     1      20.148 -44.150  68.351  1.00  0.00     0.180 A 
ATOM      2  C   UNL     1      19.013 -43.336  68.167  1.00  0.00     0.208 A 
ATOM      3  C   UNL     1      19.192 -41.957  67.977  1.00  0.00     0.238 A 
ATOM      4  O   UNL     1      18.182 -41.217  67.822  1.00  0.00    -0.285 OA
ATOM      5  C   UNL     1      20.495 -41.419  67.952  1.00  0.00     0.111 A 
ATOM      6  C   UNL     1      20.761 -40.042  67.761  1.00  0.00     0.134 A 
ATOM      7  C   UNL     1      22.087 -39.586  67.741  1.00  0.00     0.093 A 
ATOM      8  C   UNL     1      23.149 -40.477  67.906  1.00  0.00     0.123 A 
ATOM      9  C   UNL     1      22.893 -41.839  68.095  1.00  0.00     0.094 A 
ATOM     10  C   UNL     1      21.579 -42.313  68.120  1.00  0.00     0.146 A 
ATOM     11  O   UNL     1      21.363 -43.610  68.307  1.00  0.00    -0.452 OA
ENDROOT
BRANCH   1  12
ATOM     12  C   UNL     1      20.041 -45.610  68.577  1.00  0.00     0.025 A 
ATOM     13  C   UNL     1      19.894 -46.097  69.885  1.00  0.00     0.016 A 
ATOM     14  C   UNL     1      19.772 -47.469  70.120  1.00  0.00     0.051 A 
ATOM     15  C   UNL     1      19.779 -48.371  69.049  1.00  0.00     0.157 A 
ATOM     16  C   UNL     1      20.027 -46.518  67.503  1.00  0.00     0.062 A 
ATOM     17  C   UNL     1      19.903 -47.895  67.737  1.00  0.00     0.158 A 
BRANCH  15  18
ATOM     18  O   UNL     1      19.658 -49.741  69.278  1.00  0.00    -0.504 OA
ATOM     19  H   UNL     1      19.049 -50.105  70.002  1.00  0.00     0.293 HD
ENDBRANCH  15  18
BRANCH  17  20
ATOM     20  O   UNL     1      19.895 -48.794  66.673  1.00  0.00    -0.504 OA
ATOM     21  H   UNL     1      20.057 -49.784  66.814  1.00  0.00     0.293 HD
ENDBRANCH  17  20
ENDBRANCH   1  12
BRANCH   2  22
ATOM     22  O   UNL     1      17.735 -43.901  68.146  1.00  0.00    -0.502 OA
ATOM     23  H   UNL     1      17.565 -44.847  67.828  1.00  0.00     0.293 HD
ENDBRANCH   2  22
BRANCH   6  24
ATOM     24  O   UNL     1      19.720 -39.126  67.593  1.00  0.00    -0.507 OA
ATOM     25  H   UNL     1      19.669 -38.272  68.136  1.00  0.00     0.293 HD
ENDBRANCH   6  24
BRANCH   8  26
ATOM     26  O   UNL     1      24.457 -39.998  67.881  1.00  0.00    -0.508 OA
ATOM     27  H   UNL     1      24.932 -39.709  68.727  1.00  0.00     0.293 HD
ENDBRANCH   8  26
TORSDOF 6
ENDMDL
MODEL 8
REMARK VINA RESULT:    -6.861      4.705      6.009
REMARK INTER + INTRA:          -8.488
REMARK INTER:                  -8.172
REMARK INTRA:                  -0.316
REMARK UNBOUND:                -0.223
REMARK SMILES O=c1c(O)c(-c2ccc(O)c(O)c2)oc2cc(O)cc(O)c12
REMARK SMILES IDX 5 1 3 2 2 3 1 4 22 5 20 6 19 7 17 8 16 9 15 10 14 11 6 12
REMARK SMILES IDX 7 13 8 14 9 15 13 16 11 17 10 18 12 20 4 22 21 24 18 26
REMARK H PARENT 10 19 12 21 4 23 21 25 18 27
REMARK Flexibility Score: inf
ROOT
ATOM      1  C   UNL     1      17.755 -43.653  67.286  1.00  0.00     0.180 A 
ATOM      2  C   UNL     1      18.629 -44.203  66.328  1.00  0.00     0.208 A 
ATOM      3  C   UNL     1      19.351 -45.362  66.655  1.00  0.00     0.238 A 
ATOM      4  O   UNL     1      20.144 -45.857  65.808  1.00  0.00    -0.285 OA
ATOM      5  C   UNL     1      19.172 -45.962  67.918  1.00  0.00     0.111 A 
ATOM      6  C   UNL     1      19.857 -47.132  68.323  1.00  0.00     0.134 A 
ATOM      7  C   UNL     1      19.619 -47.673  69.595  1.00  0.00     0.093 A 
ATOM      8  C   UNL     1      18.711 -47.068  70.467  1.00  0.00     0.123 A 
ATOM      9  C   UNL     1      18.031 -45.912  70.073  1.00  0.00     0.094 A 
ATOM     10  C   UNL     1      18.256 -45.356  68.810  1.00  0.00     0.146 A 
ATOM     11  O   UNL     1      17.601 -44.254  68.463  1.00  0.00    -0.452 OA
ENDROOT
BRANCH   1  12
ATOM     12  C   UNL     1      16.975 -42.422  67.024  1.00  0.00     0.025 A 
ATOM     13  C   UNL     1      17.502 -41.177  67.402  1.00  0.00     0.016 A 
ATOM     14  C   UNL     1      16.791 -40.001  67.147  1.00  0.00     0.051 A 
ATOM     15  C   UNL     1      15.552 -40.053  66.497  1.00  0.00     0.157 A 
ATOM     16  C   UNL     1      15.739 -42.467  66.353  1.00  0.00     0.062 A 
ATOM     17  C   UNL     1      15.027 -41.288  66.095  1.00  0.00     0.158 A 
BRANCH  15  18
ATOM     18  O   UNL     1      14.839 -38.882  66.241  1.00  0.00    -0.504 OA
ATOM     19  H   UNL     1      14.415 -38.707  65.338  1.00  0.00     0.293 HD
ENDBRANCH  15  18
BRANCH  17  20
ATOM     20  O   UNL     1      13.800 -41.334  65.436  1.00  0.00    -0.504 OA
ATOM     21  H   UNL     1      12.974 -41.716  65.880  1.00  0.00     0.293 HD
ENDBRANCH  17  20
ENDBRANCH   1  12
BRANCH   2  22
ATOM     22  O   UNL     1      18.750 -43.619  65.065  1.00  0.00    -0.502 OA
ATOM     23  H   UNL     1      19.041 -42.657  64.937  1.00  0.00     0.293 HD
ENDBRANCH   2  22
BRANCH   6  24
ATOM     24  O   UNL     1      20.770 -47.760  67.474  1.00  0.00    -0.507 OA
ATOM     25  H   UNL     1      21.755 -47.827  67.706  1.00  0.00     0.293 HD
ENDBRANCH   6  24
BRANCH   8  26
ATOM     26  O   UNL     1      18.491 -47.626  71.725  1.00  0.00    -0.508 OA
ATOM     27  H   UNL     1      19.242 -47.731  72.396  1.00  0.00     0.293 HD
ENDBRANCH   8  26
TORSDOF 6
ENDMDL
MODEL 9
REMARK VINA RESULT:    -6.807      6.623      9.190
REMARK INTER + INTRA:          -8.422
REMARK INTER:                  -8.098
REMARK INTRA:                  -0.324
REMARK UNBOUND:                -0.223
REMARK SMILES O=c1c(O)c(-c2ccc(O)c(O)c2)oc2cc(O)cc(O)c12
REMARK SMILES IDX 5 1 3 2 2 3 1 4 22 5 20 6 19 7 17 8 16 9 15 10 14 11 6 12
REMARK SMILES IDX 7 13 8 14 9 15 13 16 11 17 10 18 12 20 4 22 21 24 18 26
REMARK H PARENT 10 19 12 21 4 23 21 25 18 27
REMARK Flexibility Score: inf
ROOT
ATOM      1  C   UNL     1      20.437 -40.935  67.126  1.00  0.00     0.180 A 
ATOM      2  C   UNL     1      21.787 -40.551  67.239  1.00  0.00     0.208 A 
ATOM      3  C   UNL     1      22.677 -41.396  67.922  1.00  0.00     0.238 A 
ATOM      4  O   UNL     1      23.886 -41.057  68.038  1.00  0.00    -0.285 OA
ATOM      5  C   UNL     1      22.209 -42.614  68.458  1.00  0.00     0.111 A 
ATOM      6  C   UNL     1      23.041 -43.522  69.156  1.00  0.00     0.134 A 
ATOM      7  C   UNL     1      22.502 -44.717  69.653  1.00  0.00     0.093 A 
ATOM      8  C   UNL     1      21.152 -45.022  69.466  1.00  0.00     0.123 A 
ATOM      9  C   UNL     1      20.325 -44.129  68.778  1.00  0.00     0.094 A 
ATOM     10  C   UNL     1      20.842 -42.931  68.277  1.00  0.00     0.146 A 
ATOM     11  O   UNL     1      20.034 -42.097  67.632  1.00  0.00    -0.452 OA
ENDROOT
BRANCH   1  12
ATOM     12  C   UNL     1      19.433 -40.090  66.438  1.00  0.00     0.025 A 
ATOM     13  C   UNL     1      18.751 -39.100  67.163  1.00  0.00     0.016 A 
ATOM     14  C   UNL     1      17.815 -38.278  66.531  1.00  0.00     0.051 A 
ATOM     15  C   UNL     1      17.560 -38.423  65.161  1.00  0.00     0.157 A 
ATOM     16  C   UNL     1      19.189 -40.217  65.059  1.00  0.00     0.062 A 
ATOM     17  C   UNL     1      18.252 -39.392  64.422  1.00  0.00     0.158 A 
BRANCH  15  18
ATOM     18  O   UNL     1      16.626 -37.606  64.526  1.00  0.00    -0.504 OA
ATOM     19  H   UNL     1      16.798 -36.617  64.384  1.00  0.00     0.293 HD
ENDBRANCH  15  18
BRANCH  17  20
ATOM     20  O   UNL     1      18.006 -39.524  63.057  1.00  0.00    -0.504 OA
ATOM     21  H   UNL     1      18.170 -40.398  62.572  1.00  0.00     0.293 HD
ENDBRANCH  17  20
ENDBRANCH   1  12
BRANCH   2  22
ATOM     22  O   UNL     1      22.235 -39.364  66.655  1.00  0.00    -0.502 OA
ATOM     23  H   UNL     1      21.605 -38.618  66.389  1.00  0.00     0.293 HD
ENDBRANCH   2  22
BRANCH   6  24
ATOM     24  O   UNL     1      24.395 -43.246  69.358  1.00  0.00    -0.507 OA
ATOM     25  H   UNL     1      24.705 -42.382  69.788  1.00  0.00     0.293 HD
ENDBRANCH   6  24
BRANCH   8  26
ATOM     26  O   UNL     1      20.642 -46.217  69.969  1.00  0.00    -0.508 OA
ATOM     27  H   UNL     1      19.828 -46.234  70.572  1.00  0.00     0.293 HD
ENDBRANCH   8  26
TORSDOF 6
ENDMDL
