MODEL 1
REMARK VINA RESULT:    -8.088      0.000      0.000
REMARK INTER + INTRA:         -11.038
REMARK INTER:                 -10.925
REMARK INTRA:                  -0.112
REMARK UNBOUND:                -0.112
REMARK SMILES O=c1c(-c2ccc(O)cc2)coc2c([C@@H]3O[C@H](CO)[C@@H](O)[C@@H](O)[C@H]3O)c(O)ccc12
REMARK SMILES IDX 3 1 11 2 12 3 13 4 30 5 2 6 1 7 29 8 28 9 26 10 14 11 4 12
REMARK SMILES IDX 5 13 6 14 7 15 10 16 9 17 8 18 15 20 24 21 16 22 22 23 17 24
REMARK SMILES IDX 20 25 25 26 23 28 18 30 19 31 21 33 27 35
REMARK H PARENT 8 19 25 27 23 29 19 32 21 34 27 36
REMARK Flexibility Score: inf
ROOT
ATOM      1  C   UNL     1      23.563  48.791  39.666  1.00  0.00     0.065 A 
ATOM      2  C   UNL     1      23.407  49.542  38.494  1.00  0.00     0.208 A 
ATOM      3  O   UNL     1      23.396  48.956  37.305  1.00  0.00    -0.463 OA
ATOM      4  C   UNL     1      23.560  47.645  37.137  1.00  0.00     0.147 A 
ATOM      5  C   UNL     1      23.732  46.816  38.267  1.00  0.00     0.066 A 
ATOM      6  C   UNL     1      23.694  47.397  39.546  1.00  0.00     0.200 A 
ATOM      7  O   UNL     1      23.738  46.669  40.578  1.00  0.00    -0.288 OA
ATOM      8  C   UNL     1      23.985  45.448  38.097  1.00  0.00     0.020 A 
ATOM      9  C   UNL     1      24.069  44.910  36.817  1.00  0.00     0.047 A 
ATOM     10  C   UNL     1      23.864  45.703  35.686  1.00  0.00     0.125 A 
ATOM     11  C   UNL     1      23.601  47.096  35.825  1.00  0.00     0.069 A 
ENDROOT
BRANCH   1  12
ATOM     12  C   UNL     1      23.624  49.470  40.985  1.00  0.00    -0.011 A 
ATOM     13  C   UNL     1      24.850  49.950  41.484  1.00  0.00     0.013 A 
ATOM     14  C   UNL     1      24.908  50.601  42.720  1.00  0.00     0.047 A 
ATOM     15  C   UNL     1      23.741  50.782  43.476  1.00  0.00     0.115 A 
ATOM     16  C   UNL     1      22.460  49.657  41.752  1.00  0.00     0.013 A 
ATOM     17  C   UNL     1      22.520  50.318  42.983  1.00  0.00     0.047 A 
BRANCH  15  18
ATOM     18  O   UNL     1      23.788  51.428  44.711  1.00  0.00    -0.508 OA
ATOM     19  H   UNL     1      22.946  51.628  45.233  1.00  0.00     0.293 HD
ENDBRANCH  15  18
ENDBRANCH   1  12
BRANCH  11  20
ATOM     20  C   UNL     1      23.606  48.047  34.624  1.00  0.00     0.188 C 
ATOM     21  C   UNL     1      24.578  47.513  33.549  1.00  0.00     0.179 C 
ATOM     22  O   UNL     1      22.290  48.224  34.129  1.00  0.00    -0.362 OA
ATOM     23  C   UNL     1      24.743  48.531  32.405  1.00  0.00     0.177 C 
ATOM     24  C   UNL     1      22.175  48.752  32.805  1.00  0.00     0.176 C 
ATOM     25  C   UNL     1      23.463  49.384  32.187  1.00  0.00     0.177 C 
BRANCH  21  26
ATOM     26  O   UNL     1      25.832  47.222  34.124  1.00  0.00    -0.387 OA
ATOM     27  H   UNL     1      26.524  47.550  33.490  1.00  0.00     0.211 HD
ENDBRANCH  21  26
BRANCH  23  28
ATOM     28  O   UNL     1      25.848  49.364  32.655  1.00  0.00    -0.387 OA
ATOM     29  H   UNL     1      25.573  50.000  33.366  1.00  0.00     0.211 HD
ENDBRANCH  23  28
BRANCH  24  30
ATOM     30  C   UNL     1      21.578  47.676  31.876  1.00  0.00     0.191 C 
BRANCH  30  31
ATOM     31  O   UNL     1      21.309  46.503  32.600  1.00  0.00    -0.394 OA
ATOM     32  H   UNL     1      21.247  45.767  31.939  1.00  0.00     0.210 HD
ENDBRANCH  30  31
ENDBRANCH  24  30
BRANCH  25  33
ATOM     33  O   UNL     1      23.634  50.713  32.627  1.00  0.00    -0.388 OA
ATOM     34  H   UNL     1      22.860  50.957  33.193  1.00  0.00     0.211 HD
ENDBRANCH  25  33
ENDBRANCH  11  20
BRANCH  10  35
ATOM     35  O   UNL     1      23.957  45.064  34.453  1.00  0.00    -0.507 OA
ATOM     36  H   UNL     1      23.151  44.796  33.908  1.00  0.00     0.293 HD
ENDBRANCH  10  35
TORSDOF 9
ENDMDL
MODEL 2
REMARK VINA RESULT:    -6.853      1.818      3.651
REMARK INTER + INTRA:          -9.369
REMARK INTER:                  -8.574
REMARK INTRA:                  -0.795
REMARK UNBOUND:                -0.112
REMARK SMILES O=c1c(-c2ccc(O)cc2)coc2c([C@@H]3O[C@H](CO)[C@@H](O)[C@@H](O)[C@H]3O)c(O)ccc12
REMARK SMILES IDX 3 1 11 2 12 3 13 4 30 5 2 6 1 7 29 8 28 9 26 10 14 11 4 12
REMARK SMILES IDX 5 13 6 14 7 15 10 16 9 17 8 18 15 20 24 21 16 22 22 23 17 24
REMARK SMILES IDX 20 25 25 26 23 28 18 30 19 31 21 33 27 35
REMARK H PARENT 8 19 25 27 23 29 19 32 21 34 27 36
REMARK Flexibility Score: inf
ROOT
ATOM      1  C   UNL     1      22.913  50.055  38.959  1.00  0.00     0.065 A 
ATOM      2  C   UNL     1      23.556  48.965  38.357  1.00  0.00     0.208 A 
ATOM      3  O   UNL     1      23.411  48.717  37.063  1.00  0.00    -0.463 OA
ATOM      4  C   UNL     1      22.637  49.449  36.263  1.00  0.00     0.147 A 
ATOM      5  C   UNL     1      21.947  50.561  36.791  1.00  0.00     0.066 A 
ATOM      6  C   UNL     1      22.121  50.885  38.148  1.00  0.00     0.200 A 
ATOM      7  O   UNL     1      21.603  51.935  38.623  1.00  0.00    -0.288 OA
ATOM      8  C   UNL     1      21.069  51.288  35.977  1.00  0.00     0.020 A 
ATOM      9  C   UNL     1      20.876  50.912  34.652  1.00  0.00     0.047 A 
ATOM     10  C   UNL     1      21.577  49.840  34.097  1.00  0.00     0.125 A 
ATOM     11  C   UNL     1      22.480  49.083  34.896  1.00  0.00     0.069 A 
ENDROOT
BRANCH   1  12
ATOM     12  C   UNL     1      23.046  50.287  40.419  1.00  0.00    -0.011 A 
ATOM     13  C   UNL     1      24.094  51.082  40.921  1.00  0.00     0.013 A 
ATOM     14  C   UNL     1      24.214  51.313  42.295  1.00  0.00     0.047 A 
ATOM     15  C   UNL     1      23.288  50.753  43.187  1.00  0.00     0.115 A 
ATOM     16  C   UNL     1      22.123  49.731  41.323  1.00  0.00     0.013 A 
ATOM     17  C   UNL     1      22.240  49.973  42.695  1.00  0.00     0.047 A 
BRANCH  15  18
ATOM     18  O   UNL     1      23.400  50.976  44.559  1.00  0.00    -0.508 OA
ATOM     19  H   UNL     1      23.849  51.807  44.923  1.00  0.00     0.293 HD
ENDBRANCH  15  18
ENDBRANCH   1  12
BRANCH  11  20
ATOM     20  C   UNL     1      23.087  47.763  34.409  1.00  0.00     0.188 C 
ATOM     21  C   UNL     1      24.626  47.883  34.386  1.00  0.00     0.179 C 
ATOM     22  O   UNL     1      22.635  46.686  35.211  1.00  0.00    -0.362 OA
ATOM     23  C   UNL     1      25.262  46.640  33.735  1.00  0.00     0.177 C 
ATOM     24  C   UNL     1      23.395  45.477  35.139  1.00  0.00     0.176 C 
ATOM     25  C   UNL     1      24.413  45.358  33.959  1.00  0.00     0.177 C 
BRANCH  21  26
ATOM     26  O   UNL     1      25.016  49.046  33.692  1.00  0.00    -0.387 OA
ATOM     27  H   UNL     1      25.458  48.748  32.853  1.00  0.00     0.211 HD
ENDBRANCH  21  26
BRANCH  23  28
ATOM     28  O   UNL     1      25.458  46.860  32.360  1.00  0.00    -0.387 OA
ATOM     29  H   UNL     1      26.429  47.026  32.233  1.00  0.00     0.211 HD
ENDBRANCH  23  28
BRANCH  24  30
ATOM     30  C   UNL     1      24.082  45.223  36.496  1.00  0.00     0.191 C 
BRANCH  30  31
ATOM     31  O   UNL     1      23.238  45.616  37.549  1.00  0.00    -0.394 OA
ATOM     32  H   UNL     1      23.773  45.558  38.381  1.00  0.00     0.210 HD
ENDBRANCH  30  31
ENDBRANCH  24  30
BRANCH  25  33
ATOM     33  O   UNL     1      23.767  44.940  32.777  1.00  0.00    -0.388 OA
ATOM     34  H   UNL     1      23.454  45.743  32.291  1.00  0.00     0.211 HD
ENDBRANCH  25  33
ENDBRANCH  11  20
BRANCH  10  35
ATOM     35  O   UNL     1      21.321  49.555  32.759  1.00  0.00    -0.507 OA
ATOM     36  H   UNL     1      20.853  50.197  32.136  1.00  0.00     0.293 HD
ENDBRANCH  10  35
TORSDOF 9
ENDMDL
MODEL 3
REMARK VINA RESULT:    -6.455      1.840      3.793
REMARK INTER + INTRA:          -8.831
REMARK INTER:                  -7.891
REMARK INTRA:                  -0.940
REMARK UNBOUND:                -0.112
REMARK SMILES O=c1c(-c2ccc(O)cc2)coc2c([C@@H]3O[C@H](CO)[C@@H](O)[C@@H](O)[C@H]3O)c(O)ccc12
REMARK SMILES IDX 3 1 11 2 12 3 13 4 30 5 2 6 1 7 29 8 28 9 26 10 14 11 4 12
REMARK SMILES IDX 5 13 6 14 7 15 10 16 9 17 8 18 15 20 24 21 16 22 22 23 17 24
REMARK SMILES IDX 20 25 25 26 23 28 18 30 19 31 21 33 27 35
REMARK H PARENT 8 19 25 27 23 29 19 32 21 34 27 36
REMARK Flexibility Score: inf
ROOT
ATOM      1  C   UNL     1      23.206  50.215  40.323  1.00  0.00     0.065 A 
ATOM      2  C   UNL     1      23.857  49.065  39.859  1.00  0.00     0.208 A 
ATOM      3  O   UNL     1      23.841  48.744  38.573  1.00  0.00    -0.463 OA
ATOM      4  C   UNL     1      23.194  49.458  37.652  1.00  0.00     0.147 A 
ATOM      5  C   UNL     1      22.506  50.628  38.037  1.00  0.00     0.066 A 
ATOM      6  C   UNL     1      22.547  51.027  39.384  1.00  0.00     0.200 A 
ATOM      7  O   UNL     1      22.031  52.125  39.739  1.00  0.00    -0.288 OA
ATOM      8  C   UNL     1      21.757  51.340  37.090  1.00  0.00     0.020 A 
ATOM      9  C   UNL     1      21.691  50.893  35.775  1.00  0.00     0.047 A 
ATOM     10  C   UNL     1      22.395  49.760  35.363  1.00  0.00     0.125 A 
ATOM     11  C   UNL     1      23.169  49.016  36.299  1.00  0.00     0.069 A 
ENDROOT
BRANCH   1  12
ATOM     12  C   UNL     1      23.190  50.531  41.774  1.00  0.00    -0.011 A 
ATOM     13  C   UNL     1      24.377  50.896  42.436  1.00  0.00     0.013 A 
ATOM     14  C   UNL     1      24.363  51.206  43.800  1.00  0.00     0.047 A 
ATOM     15  C   UNL     1      23.162  51.156  44.521  1.00  0.00     0.115 A 
ATOM     16  C   UNL     1      21.991  50.485  42.508  1.00  0.00     0.013 A 
ATOM     17  C   UNL     1      21.979  50.805  43.868  1.00  0.00     0.047 A 
BRANCH  15  18
ATOM     18  O   UNL     1      23.138  51.462  45.881  1.00  0.00    -0.508 OA
ATOM     19  H   UNL     1      22.317  51.287  46.446  1.00  0.00     0.293 HD
ENDBRANCH  15  18
ENDBRANCH   1  12
BRANCH  11  20
ATOM     20  C   UNL     1      23.761  47.645  35.957  1.00  0.00     0.188 C 
ATOM     21  C   UNL     1      22.674  46.561  36.119  1.00  0.00     0.179 C 
ATOM     22  O   UNL     1      24.325  47.662  34.656  1.00  0.00    -0.362 OA
ATOM     23  C   UNL     1      23.277  45.153  35.954  1.00  0.00     0.177 C 
ATOM     24  C   UNL     1      24.558  46.389  34.048  1.00  0.00     0.176 C 
ATOM     25  C   UNL     1      24.491  45.141  34.986  1.00  0.00     0.177 C 
BRANCH  21  26
ATOM     26  O   UNL     1      22.051  46.677  37.378  1.00  0.00    -0.387 OA
ATOM     27  H   UNL     1      21.071  46.706  37.215  1.00  0.00     0.211 HD
ENDBRANCH  21  26
BRANCH  23  28
ATOM     28  O   UNL     1      23.648  44.636  37.209  1.00  0.00    -0.387 OA
ATOM     29  H   UNL     1      23.280  43.715  37.258  1.00  0.00     0.211 HD
ENDBRANCH  23  28
BRANCH  24  30
ATOM     30  C   UNL     1      23.625  46.225  32.831  1.00  0.00     0.191 C 
BRANCH  30  31
ATOM     31  O   UNL     1      23.298  44.871  32.648  1.00  0.00    -0.394 OA
ATOM     32  H   UNL     1      23.432  44.423  33.522  1.00  0.00     0.210 HD
ENDBRANCH  30  31
ENDBRANCH  24  30
BRANCH  25  33
ATOM     33  O   UNL     1      25.710  44.959  35.671  1.00  0.00    -0.388 OA
ATOM     34  H   UNL     1      26.046  44.049  35.476  1.00  0.00     0.211 HD
ENDBRANCH  25  33
ENDBRANCH  11  20
BRANCH  10  35
ATOM     35  O   UNL     1      22.274  49.405  34.023  1.00  0.00    -0.507 OA
ATOM     36  H   UNL     1      21.458  49.616  33.467  1.00  0.00     0.293 HD
ENDBRANCH  10  35
TORSDOF 9
ENDMDL
MODEL 4
REMARK VINA RESULT:    -5.274      1.956      2.322
REMARK INTER + INTRA:          -7.236
REMARK INTER:                  -7.716
REMARK INTRA:                   0.481
REMARK UNBOUND:                -0.112
REMARK SMILES O=c1c(-c2ccc(O)cc2)coc2c([C@@H]3O[C@H](CO)[C@@H](O)[C@@H](O)[C@H]3O)c(O)ccc12
REMARK SMILES IDX 3 1 11 2 12 3 13 4 30 5 2 6 1 7 29 8 28 9 26 10 14 11 4 12
REMARK SMILES IDX 5 13 6 14 7 15 10 16 9 17 8 18 15 20 24 21 16 22 22 23 17 24
REMARK SMILES IDX 20 25 25 26 23 28 18 30 19 31 21 33 27 35
REMARK H PARENT 8 19 25 27 23 29 19 32 21 34 27 36
REMARK Flexibility Score: inf
ROOT
ATOM      1  C   UNL     1      22.984  49.947  39.964  1.00  0.00     0.065 A 
ATOM      2  C   UNL     1      23.835  50.457  38.975  1.00  0.00     0.208 A 
ATOM      3  O   UNL     1      23.708  50.087  37.709  1.00  0.00    -0.463 OA
ATOM      4  C   UNL     1      22.803  49.199  37.296  1.00  0.00     0.147 A 
ATOM      5  C   UNL     1      21.911  48.630  38.231  1.00  0.00     0.066 A 
ATOM      6  C   UNL     1      21.983  49.042  39.573  1.00  0.00     0.200 A 
ATOM      7  O   UNL     1      21.130  48.631  40.411  1.00  0.00    -0.288 OA
ATOM      8  C   UNL     1      21.011  47.638  37.821  1.00  0.00     0.020 A 
ATOM      9  C   UNL     1      20.999  47.213  36.497  1.00  0.00     0.047 A 
ATOM     10  C   UNL     1      21.844  47.789  35.547  1.00  0.00     0.125 A 
ATOM     11  C   UNL     1      22.768  48.803  35.930  1.00  0.00     0.069 A 
ENDROOT
BRANCH   1  12
ATOM     12  C   UNL     1      23.175  50.333  41.385  1.00  0.00    -0.011 A 
ATOM     13  C   UNL     1      24.468  50.415  41.934  1.00  0.00     0.013 A 
ATOM     14  C   UNL     1      24.650  50.791  43.269  1.00  0.00     0.047 A 
ATOM     15  C   UNL     1      23.543  51.092  44.073  1.00  0.00     0.115 A 
ATOM     16  C   UNL     1      22.071  50.638  42.201  1.00  0.00     0.013 A 
ATOM     17  C   UNL     1      22.257  51.024  43.532  1.00  0.00     0.047 A 
BRANCH  15  18
ATOM     18  O   UNL     1      23.714  51.467  45.406  1.00  0.00    -0.508 OA
ATOM     19  H   UNL     1      24.351  50.970  46.014  1.00  0.00     0.293 HD
ENDBRANCH  15  18
ENDBRANCH   1  12
BRANCH  11  20
ATOM     20  C   UNL     1      23.873  49.293  34.988  1.00  0.00     0.188 C 
ATOM     21  C   UNL     1      24.271  48.154  34.025  1.00  0.00     0.179 C 
ATOM     22  O   UNL     1      23.455  50.463  34.305  1.00  0.00    -0.362 OA
ATOM     23  C   UNL     1      25.497  48.552  33.183  1.00  0.00     0.177 C 
ATOM     24  C   UNL     1      24.193  50.811  33.130  1.00  0.00     0.176 C 
ATOM     25  C   UNL     1      25.559  50.082  32.918  1.00  0.00     0.177 C 
BRANCH  21  26
ATOM     26  O   UNL     1      24.542  46.975  34.749  1.00  0.00    -0.387 OA
ATOM     27  H   UNL     1      25.181  47.218  35.471  1.00  0.00     0.211 HD
ENDBRANCH  21  26
BRANCH  23  28
ATOM     28  O   UNL     1      26.678  48.117  33.811  1.00  0.00    -0.387 OA
ATOM     29  H   UNL     1      26.778  48.658  34.638  1.00  0.00     0.211 HD
ENDBRANCH  23  28
BRANCH  24  30
ATOM     30  C   UNL     1      23.284  50.665  31.893  1.00  0.00     0.191 C 
BRANCH  30  31
ATOM     31  O   UNL     1      22.071  51.344  32.098  1.00  0.00    -0.394 OA
ATOM     32  H   UNL     1      22.292  52.188  32.570  1.00  0.00     0.210 HD
ENDBRANCH  30  31
ENDBRANCH  24  30
BRANCH  25  33
ATOM     33  O   UNL     1      26.583  50.704  33.662  1.00  0.00    -0.388 OA
ATOM     34  H   UNL     1      26.589  51.669  33.440  1.00  0.00     0.211 HD
ENDBRANCH  25  33
ENDBRANCH  11  20
BRANCH  10  35
ATOM     35  O   UNL     1      21.743  47.302  34.247  1.00  0.00    -0.507 OA
ATOM     36  H   UNL     1      20.893  47.346  33.705  1.00  0.00     0.293 HD
ENDBRANCH  10  35
TORSDOF 9
ENDMDL
