MODEL 1
REMARK VINA RESULT:    -5.088      0.000      0.000
REMARK INTER + INTRA:          -8.605
REMARK INTER:                  -7.914
REMARK INTRA:                  -0.691
REMARK UNBOUND:                -0.691
REMARK SMILES COc1cc(CNC(=O)CCCCC=CC(C)C)ccc1O
REMARK SMILES IDX 11 1 12 2 13 3 14 4 15 5 16 6 17 7 18 8 10 9 8 10 9 11 7 12
REMARK SMILES IDX 6 14 5 15 4 16 19 17 3 18 20 19 21 20 2 21 1 22 22 23
REMARK H PARENT 7 13 22 24
REMARK Flexibility Score: inf
ROOT
ATOM      1  C   UNL     1      89.931  86.053  91.341  1.00  0.00     0.010 C 
ENDROOT
BRANCH   1   2
ATOM      2  C   UNL     1      89.858  87.297  90.440  1.00  0.00     0.005 C 
BRANCH   2   3
ATOM      3  C   UNL     1      89.527  86.963  88.979  1.00  0.00     0.027 C 
BRANCH   3   4
ATOM      4  C   UNL     1      90.568  87.508  88.041  1.00  0.00    -0.031 C 
ATOM      5  C   UNL     1      91.734  87.992  88.493  1.00  0.00    -0.028 C 
BRANCH   5   6
ATOM      6  C   UNL     1      92.777  88.542  87.548  1.00  0.00     0.005 C 
ATOM      7  C   UNL     1      92.157  89.593  86.621  1.00  0.00     0.012 C 
ATOM      8  C   UNL     1      93.407  87.412  86.726  1.00  0.00     0.012 C 
ENDBRANCH   5   6
ENDBRANCH   3   4
ENDBRANCH   2   3
ENDBRANCH   1   2
BRANCH   1   9
ATOM      9  C   UNL     1      88.886  84.971  91.005  1.00  0.00     0.100 C 
BRANCH   9  10
ATOM     10  C   UNL     1      89.034  83.747  91.864  1.00  0.00     0.220 C 
ATOM     11  O   UNL     1      89.358  83.876  93.077  1.00  0.00    -0.275 OA
ATOM     12  N   UNL     1      88.836  82.439  91.309  1.00  0.00    -0.352 N 
ATOM     13  H   UNL     1      88.684  82.339  90.280  1.00  0.00     0.163 HD
BRANCH  12  14
ATOM     14  C   UNL     1      88.741  81.243  92.142  1.00  0.00     0.151 C 
BRANCH  14  15
ATOM     15  C   UNL     1      87.551  80.421  91.727  1.00  0.00    -0.025 A 
ATOM     16  C   UNL     1      86.325  81.048  91.456  1.00  0.00     0.056 A 
ATOM     17  C   UNL     1      87.635  79.022  91.679  1.00  0.00     0.009 A 
ATOM     18  C   UNL     1      85.185  80.285  91.131  1.00  0.00     0.160 A 
ATOM     19  C   UNL     1      86.511  78.261  91.352  1.00  0.00     0.050 A 
ATOM     20  C   UNL     1      85.290  78.883  91.076  1.00  0.00     0.157 A 
BRANCH  18  21
ATOM     21  O   UNL     1      83.942  80.882  90.866  1.00  0.00    -0.493 OA
ATOM     22  C   UNL     1      83.723  81.889  89.884  1.00  0.00     0.278 C 
ENDBRANCH  18  21
BRANCH  20  23
ATOM     23  O   UNL     1      84.189  78.091  90.753  1.00  0.00    -0.504 OA
ATOM     24  H   UNL     1      84.009  77.204  91.208  1.00  0.00     0.293 HD
ENDBRANCH  20  23
ENDBRANCH  14  15
ENDBRANCH  12  14
ENDBRANCH   9  10
ENDBRANCH   1   9
TORSDOF 10
ENDMDL
MODEL 2
REMARK VINA RESULT:    -5.074      5.459     11.285
REMARK INTER + INTRA:          -8.583
REMARK INTER:                  -7.694
REMARK INTRA:                  -0.889
REMARK UNBOUND:                -0.691
REMARK SMILES COc1cc(CNC(=O)CCCCC=CC(C)C)ccc1O
REMARK SMILES IDX 11 1 12 2 13 3 14 4 15 5 16 6 17 7 18 8 10 9 8 10 9 11 7 12
REMARK SMILES IDX 6 14 5 15 4 16 19 17 3 18 20 19 21 20 2 21 1 22 22 23
REMARK H PARENT 7 13 22 24
REMARK Flexibility Score: inf
ROOT
ATOM      1  C   UNL     1      79.403  81.093  90.983  1.00  0.00     0.010 C 
ENDROOT
BRANCH   1   2
ATOM      2  C   UNL     1      78.185  80.627  90.167  1.00  0.00     0.005 C 
BRANCH   2   3
ATOM      3  C   UNL     1      78.337  80.882  88.662  1.00  0.00     0.027 C 
BRANCH   3   4
ATOM      4  C   UNL     1      77.219  80.248  87.881  1.00  0.00    -0.031 C 
ATOM      5  C   UNL     1      76.106  79.806  88.486  1.00  0.00    -0.028 C 
BRANCH   5   6
ATOM      6  C   UNL     1      74.985  79.167  87.700  1.00  0.00     0.005 C 
ATOM      7  C   UNL     1      75.546  78.162  86.688  1.00  0.00     0.012 C 
ATOM      8  C   UNL     1      74.152  80.237  86.983  1.00  0.00     0.012 C 
ENDBRANCH   5   6
ENDBRANCH   3   4
ENDBRANCH   2   3
ENDBRANCH   1   2
BRANCH   1   9
ATOM      9  C   UNL     1      79.202  82.445  91.695  1.00  0.00     0.100 C 
BRANCH   9  10
ATOM     10  C   UNL     1      80.148  83.501  91.195  1.00  0.00     0.220 C 
ATOM     11  O   UNL     1      80.204  84.614  91.787  1.00  0.00    -0.275 OA
ATOM     12  N   UNL     1      80.962  83.260  90.039  1.00  0.00    -0.352 N 
ATOM     13  H   UNL     1      80.823  82.382  89.489  1.00  0.00     0.163 HD
BRANCH  12  14
ATOM     14  C   UNL     1      82.053  84.152  89.651  1.00  0.00     0.151 C 
BRANCH  14  15
ATOM     15  C   UNL     1      83.376  83.470  89.867  1.00  0.00    -0.025 A 
ATOM     16  C   UNL     1      83.421  82.092  90.129  1.00  0.00     0.056 A 
ATOM     17  C   UNL     1      84.565  84.213  89.881  1.00  0.00     0.009 A 
ATOM     18  C   UNL     1      84.648  81.453  90.399  1.00  0.00     0.160 A 
ATOM     19  C   UNL     1      85.784  83.585  90.141  1.00  0.00     0.050 A 
ATOM     20  C   UNL     1      85.833  82.211  90.397  1.00  0.00     0.157 A 
BRANCH  18  21
ATOM     21  O   UNL     1      84.724  80.078  90.675  1.00  0.00    -0.493 OA
ATOM     22  C   UNL     1      84.414  79.489  91.933  1.00  0.00     0.278 C 
ENDBRANCH  18  21
BRANCH  20  23
ATOM     23  O   UNL     1      87.068  81.618  90.652  1.00  0.00    -0.504 OA
ATOM     24  H   UNL     1      87.372  80.777  90.177  1.00  0.00     0.293 HD
ENDBRANCH  20  23
ENDBRANCH  14  15
ENDBRANCH  12  14
ENDBRANCH   9  10
ENDBRANCH   1   9
TORSDOF 10
ENDMDL
MODEL 3
REMARK VINA RESULT:    -5.018      3.061      8.859
REMARK INTER + INTRA:          -8.495
REMARK INTER:                  -7.854
REMARK INTRA:                  -0.641
REMARK UNBOUND:                -0.691
REMARK SMILES COc1cc(CNC(=O)CCCCC=CC(C)C)ccc1O
REMARK SMILES IDX 11 1 12 2 13 3 14 4 15 5 16 6 17 7 18 8 10 9 8 10 9 11 7 12
REMARK SMILES IDX 6 14 5 15 4 16 19 17 3 18 20 19 21 20 2 21 1 22 22 23
REMARK H PARENT 7 13 22 24
REMARK Flexibility Score: inf
ROOT
ATOM      1  C   UNL     1      86.931  79.934  90.427  1.00  0.00     0.010 C 
ENDROOT
BRANCH   1   2
ATOM      2  C   UNL     1      86.864  78.480  89.931  1.00  0.00     0.005 C 
BRANCH   2   3
ATOM      3  C   UNL     1      86.652  78.371  88.415  1.00  0.00     0.027 C 
BRANCH   3   4
ATOM      4  C   UNL     1      87.456  77.244  87.828  1.00  0.00    -0.031 C 
ATOM      5  C   UNL     1      87.976  76.278  88.600  1.00  0.00    -0.028 C 
BRANCH   5   6
ATOM      6  C   UNL     1      88.786  75.148  88.007  1.00  0.00     0.005 C 
ATOM      7  C   UNL     1      89.852  75.697  87.052  1.00  0.00     0.012 C 
ATOM      8  C   UNL     1      87.873  74.159  87.275  1.00  0.00     0.012 C 
ENDBRANCH   5   6
ENDBRANCH   3   4
ENDBRANCH   2   3
ENDBRANCH   1   2
BRANCH   1   9
ATOM      9  C   UNL     1      85.664  80.405  91.167  1.00  0.00     0.100 C 
BRANCH   9  10
ATOM     10  C   UNL     1      85.377  81.863  90.939  1.00  0.00     0.220 C 
ATOM     11  O   UNL     1      84.241  82.324  91.234  1.00  0.00    -0.275 OA
ATOM     12  N   UNL     1      86.375  82.720  90.367  1.00  0.00    -0.352 N 
ATOM     13  H   UNL     1      87.268  82.304  90.019  1.00  0.00     0.163 HD
BRANCH  12  14
ATOM     14  C   UNL     1      86.232  84.174  90.337  1.00  0.00     0.151 C 
BRANCH  14  15
ATOM     15  C   UNL     1      87.539  84.825  90.698  1.00  0.00    -0.025 A 
ATOM     16  C   UNL     1      88.070  85.834  89.881  1.00  0.00     0.056 A 
ATOM     17  C   UNL     1      88.271  84.382  91.809  1.00  0.00     0.009 A 
ATOM     18  C   UNL     1      89.325  86.407  90.170  1.00  0.00     0.160 A 
ATOM     19  C   UNL     1      89.512  84.950  92.106  1.00  0.00     0.050 A 
ATOM     20  C   UNL     1      90.041  85.959  91.296  1.00  0.00     0.157 A 
BRANCH  18  21
ATOM     21  O   UNL     1      89.888  87.410  89.365  1.00  0.00    -0.493 OA
ATOM     22  C   UNL     1      90.135  87.281  87.969  1.00  0.00     0.278 C 
ENDBRANCH  18  21
BRANCH  20  23
ATOM     23  O   UNL     1      91.283  86.502  91.623  1.00  0.00    -0.504 OA
ATOM     24  H   UNL     1      92.132  86.239  91.138  1.00  0.00     0.293 HD
ENDBRANCH  20  23
ENDBRANCH  14  15
ENDBRANCH  12  14
ENDBRANCH   9  10
ENDBRANCH   1   9
TORSDOF 10
ENDMDL
MODEL 4
REMARK VINA RESULT:    -4.985      6.505      8.774
REMARK INTER + INTRA:          -8.444
REMARK INTER:                  -7.736
REMARK INTRA:                  -0.708
REMARK UNBOUND:                -0.691
REMARK SMILES COc1cc(CNC(=O)CCCCC=CC(C)C)ccc1O
REMARK SMILES IDX 11 1 12 2 13 3 14 4 15 5 16 6 17 7 18 8 10 9 8 10 9 11 7 12
REMARK SMILES IDX 6 14 5 15 4 16 19 17 3 18 20 19 21 20 2 21 1 22 22 23
REMARK H PARENT 7 13 22 24
REMARK Flexibility Score: inf
ROOT
ATOM      1  C   UNL     1      86.886  79.337  90.958  1.00  0.00     0.010 C 
ENDROOT
BRANCH   1   2
ATOM      2  C   UNL     1      86.726  78.091  90.071  1.00  0.00     0.005 C 
BRANCH   2   3
ATOM      3  C   UNL     1      86.748  78.414  88.571  1.00  0.00     0.027 C 
BRANCH   3   4
ATOM      4  C   UNL     1      87.308  77.271  87.771  1.00  0.00    -0.031 C 
ATOM      5  C   UNL     1      87.985  76.271  88.356  1.00  0.00    -0.028 C 
BRANCH   5   6
ATOM      6  C   UNL     1      88.550  75.125  87.549  1.00  0.00     0.005 C 
ATOM      7  C   UNL     1      89.783  75.582  86.763  1.00  0.00     0.012 C 
ATOM      8  C   UNL     1      87.488  74.563  86.597  1.00  0.00     0.012 C 
ENDBRANCH   5   6
ENDBRANCH   3   4
ENDBRANCH   2   3
ENDBRANCH   1   2
BRANCH   1   9
ATOM      9  C   UNL     1      85.699  80.317  90.886  1.00  0.00     0.100 C 
BRANCH   9  10
ATOM     10  C   UNL     1      84.469  79.776  91.560  1.00  0.00     0.220 C 
ATOM     11  O   UNL     1      84.577  79.201  92.678  1.00  0.00    -0.275 OA
ATOM     12  N   UNL     1      83.185  79.888  90.930  1.00  0.00    -0.352 N 
ATOM     13  H   UNL     1      83.124  80.260  89.955  1.00  0.00     0.163 HD
BRANCH  12  14
ATOM     14  C   UNL     1      81.940  79.590  91.635  1.00  0.00     0.151 C 
BRANCH  14  15
ATOM     15  C   UNL     1      80.935  80.681  91.384  1.00  0.00    -0.025 A 
ATOM     16  C   UNL     1      81.363  82.007  91.219  1.00  0.00     0.056 A 
ATOM     17  C   UNL     1      79.562  80.396  91.387  1.00  0.00     0.009 A 
ATOM     18  C   UNL     1      80.428  83.048  91.050  1.00  0.00     0.160 A 
ATOM     19  C   UNL     1      78.630  81.422  91.214  1.00  0.00     0.050 A 
ATOM     20  C   UNL     1      79.055  82.743  91.043  1.00  0.00     0.157 A 
BRANCH  18  21
ATOM     21  O   UNL     1      80.826  84.385  90.894  1.00  0.00    -0.493 OA
ATOM     22  C   UNL     1      82.141  84.801  90.541  1.00  0.00     0.278 C 
ENDBRANCH  18  21
BRANCH  20  23
ATOM     23  O   UNL     1      78.096  83.741  90.873  1.00  0.00    -0.504 OA
ATOM     24  H   UNL     1      78.168  84.642  91.330  1.00  0.00     0.293 HD
ENDBRANCH  20  23
ENDBRANCH  14  15
ENDBRANCH  12  14
ENDBRANCH   9  10
ENDBRANCH   1   9
TORSDOF 10
ENDMDL
MODEL 5
REMARK VINA RESULT:    -4.977      6.834      9.298
REMARK INTER + INTRA:          -8.432
REMARK INTER:                  -7.748
REMARK INTRA:                  -0.684
REMARK UNBOUND:                -0.691
REMARK SMILES COc1cc(CNC(=O)CCCCC=CC(C)C)ccc1O
REMARK SMILES IDX 11 1 12 2 13 3 14 4 15 5 16 6 17 7 18 8 10 9 8 10 9 11 7 12
REMARK SMILES IDX 6 14 5 15 4 16 19 17 3 18 20 19 21 20 2 21 1 22 22 23
REMARK H PARENT 7 13 22 24
REMARK Flexibility Score: inf
ROOT
ATOM      1  C   UNL     1      80.784  87.751  90.454  1.00  0.00     0.010 C 
ENDROOT
BRANCH   1   2
ATOM      2  C   UNL     1      80.994  89.009  89.595  1.00  0.00     0.005 C 
BRANCH   2   3
ATOM      3  C   UNL     1      80.533  90.297  90.292  1.00  0.00     0.027 C 
BRANCH   3   4
ATOM      4  C   UNL     1      79.951  91.275  89.310  1.00  0.00    -0.031 C 
ATOM      5  C   UNL     1      79.830  90.973  88.009  1.00  0.00    -0.028 C 
BRANCH   5   6
ATOM      6  C   UNL     1      79.248  91.960  87.023  1.00  0.00     0.005 C 
ATOM      7  C   UNL     1      79.677  93.387  87.378  1.00  0.00     0.012 C 
ATOM      8  C   UNL     1      77.719  91.854  86.997  1.00  0.00     0.012 C 
ENDBRANCH   5   6
ENDBRANCH   3   4
ENDBRANCH   2   3
ENDBRANCH   1   2
BRANCH   1   9
ATOM      9  C   UNL     1      82.004  86.810  90.499  1.00  0.00     0.100 C 
BRANCH   9  10
ATOM     10  C   UNL     1      83.032  87.254  91.502  1.00  0.00     0.220 C 
ATOM     11  O   UNL     1      82.719  87.318  92.722  1.00  0.00    -0.275 OA
ATOM     12  N   UNL     1      84.351  87.625  91.076  1.00  0.00    -0.352 N 
ATOM     13  H   UNL     1      84.562  87.679  90.054  1.00  0.00     0.163 HD
BRANCH  12  14
ATOM     14  C   UNL     1      85.445  87.838  92.021  1.00  0.00     0.151 C 
BRANCH  14  15
ATOM     15  C   UNL     1      86.578  86.897  91.716  1.00  0.00    -0.025 A 
ATOM     16  C   UNL     1      87.636  87.314  90.894  1.00  0.00     0.056 A 
ATOM     17  C   UNL     1      86.551  85.577  92.188  1.00  0.00     0.009 A 
ATOM     18  C   UNL     1      88.669  86.421  90.546  1.00  0.00     0.160 A 
ATOM     19  C   UNL     1      87.575  84.689  91.853  1.00  0.00     0.050 A 
ATOM     20  C   UNL     1      88.634  85.103  91.038  1.00  0.00     0.157 A 
BRANCH  18  21
ATOM     21  O   UNL     1      89.735  86.805  89.717  1.00  0.00    -0.493 OA
ATOM     22  C   UNL     1      89.669  86.876  88.297  1.00  0.00     0.278 C 
ENDBRANCH  18  21
BRANCH  20  23
ATOM     23  O   UNL     1      89.639  84.190  90.725  1.00  0.00    -0.504 OA
ATOM     24  H   UNL     1      89.447  83.320  90.241  1.00  0.00     0.293 HD
ENDBRANCH  20  23
ENDBRANCH  14  15
ENDBRANCH  12  14
ENDBRANCH   9  10
ENDBRANCH   1   9
TORSDOF 10
ENDMDL
MODEL 6
REMARK VINA RESULT:    -4.967      6.796      8.406
REMARK INTER + INTRA:          -8.416
REMARK INTER:                  -7.677
REMARK INTRA:                  -0.739
REMARK UNBOUND:                -0.691
REMARK SMILES COc1cc(CNC(=O)CCCCC=CC(C)C)ccc1O
REMARK SMILES IDX 11 1 12 2 13 3 14 4 15 5 16 6 17 7 18 8 10 9 8 10 9 11 7 12
REMARK SMILES IDX 6 14 5 15 4 16 19 17 3 18 20 19 21 20 2 21 1 22 22 23
REMARK H PARENT 7 13 22 24
REMARK Flexibility Score: inf
ROOT
ATOM      1  C   UNL     1      80.716  88.502  91.113  1.00  0.00     0.010 C 
ENDROOT
BRANCH   1   2
ATOM      2  C   UNL     1      80.601  89.748  90.219  1.00  0.00     0.005 C 
BRANCH   2   3
ATOM      3  C   UNL     1      80.803  89.439  88.729  1.00  0.00     0.027 C 
BRANCH   3   4
ATOM      4  C   UNL     1      80.202  90.508  87.859  1.00  0.00    -0.031 C 
ATOM      5  C   UNL     1      79.714  91.643  88.382  1.00  0.00    -0.028 C 
BRANCH   5   6
ATOM      6  C   UNL     1      79.108  92.715  87.506  1.00  0.00     0.005 C 
ATOM      7  C   UNL     1      77.949  92.141  86.683  1.00  0.00     0.012 C 
ATOM      8  C   UNL     1      80.170  93.319  86.581  1.00  0.00     0.012 C 
ENDBRANCH   5   6
ENDBRANCH   3   4
ENDBRANCH   2   3
ENDBRANCH   1   2
BRANCH   1   9
ATOM      9  C   UNL     1      81.255  87.254  90.387  1.00  0.00     0.100 C 
BRANCH   9  10
ATOM     10  C   UNL     1      82.634  86.874  90.852  1.00  0.00     0.220 C 
ATOM     11  O   UNL     1      82.942  87.025  92.066  1.00  0.00    -0.275 OA
ATOM     12  N   UNL     1      83.601  86.366  89.922  1.00  0.00    -0.352 N 
ATOM     13  H   UNL     1      83.373  86.355  88.902  1.00  0.00     0.163 HD
BRANCH  12  14
ATOM     14  C   UNL     1      84.863  85.771  90.355  1.00  0.00     0.151 C 
BRANCH  14  15
ATOM     15  C   UNL     1      84.739  84.272  90.389  1.00  0.00    -0.025 A 
ATOM     16  C   UNL     1      85.641  83.510  91.148  1.00  0.00     0.056 A 
ATOM     17  C   UNL     1      83.774  83.621  89.608  1.00  0.00     0.009 A 
ATOM     18  C   UNL     1      85.578  82.102  91.136  1.00  0.00     0.160 A 
ATOM     19  C   UNL     1      83.702  82.227  89.596  1.00  0.00     0.050 A 
ATOM     20  C   UNL     1      84.595  81.465  90.356  1.00  0.00     0.157 A 
BRANCH  18  21
ATOM     21  O   UNL     1      86.472  81.312  91.876  1.00  0.00    -0.493 OA
ATOM     22  C   UNL     1      87.834  81.092  91.527  1.00  0.00     0.278 C 
ENDBRANCH  18  21
BRANCH  20  23
ATOM     23  O   UNL     1      84.493  80.075  90.321  1.00  0.00    -0.504 OA
ATOM     24  H   UNL     1      85.284  79.471  90.506  1.00  0.00     0.293 HD
ENDBRANCH  20  23
ENDBRANCH  14  15
ENDBRANCH  12  14
ENDBRANCH   9  10
ENDBRANCH   1   9
TORSDOF 10
ENDMDL
MODEL 7
REMARK VINA RESULT:    -4.921      7.015     12.577
REMARK INTER + INTRA:          -8.345
REMARK INTER:                  -7.707
REMARK INTRA:                  -0.637
REMARK UNBOUND:                -0.691
REMARK SMILES COc1cc(CNC(=O)CCCCC=CC(C)C)ccc1O
REMARK SMILES IDX 11 1 12 2 13 3 14 4 15 5 16 6 17 7 18 8 10 9 8 10 9 11 7 12
REMARK SMILES IDX 6 14 5 15 4 16 19 17 3 18 20 19 21 20 2 21 1 22 22 23
REMARK H PARENT 7 13 22 24
REMARK Flexibility Score: inf
ROOT
ATOM      1  C   UNL     1      78.801  81.412  91.397  1.00  0.00     0.010 C 
ENDROOT
BRANCH   1   2
ATOM      2  C   UNL     1      77.915  80.894  90.251  1.00  0.00     0.005 C 
BRANCH   2   3
ATOM      3  C   UNL     1      78.571  81.039  88.871  1.00  0.00     0.027 C 
BRANCH   3   4
ATOM      4  C   UNL     1      77.641  80.605  87.772  1.00  0.00    -0.031 C 
ATOM      5  C   UNL     1      76.614  79.775  88.011  1.00  0.00    -0.028 C 
BRANCH   5   6
ATOM      6  C   UNL     1      75.682  79.339  86.904  1.00  0.00     0.005 C 
ATOM      7  C   UNL     1      74.281  79.918  87.126  1.00  0.00     0.012 C 
ATOM      8  C   UNL     1      75.621  77.809  86.824  1.00  0.00     0.012 C 
ENDBRANCH   5   6
ENDBRANCH   3   4
ENDBRANCH   2   3
ENDBRANCH   1   2
BRANCH   1   9
ATOM      9  C   UNL     1      79.707  82.596  91.005  1.00  0.00     0.100 C 
BRANCH   9  10
ATOM     10  C   UNL     1      79.460  83.810  91.856  1.00  0.00     0.220 C 
ATOM     11  O   UNL     1      79.390  83.685  93.109  1.00  0.00    -0.275 OA
ATOM     12  N   UNL     1      79.279  85.098  91.250  1.00  0.00    -0.352 N 
ATOM     13  H   UNL     1      79.223  85.171  90.209  1.00  0.00     0.163 HD
BRANCH  12  14
ATOM     14  C   UNL     1      79.267  86.334  92.030  1.00  0.00     0.151 C 
BRANCH  14  15
ATOM     15  C   UNL     1      80.453  87.184  91.665  1.00  0.00    -0.025 A 
ATOM     16  C   UNL     1      81.741  86.626  91.656  1.00  0.00     0.056 A 
ATOM     17  C   UNL     1      80.293  88.552  91.404  1.00  0.00     0.009 A 
ATOM     18  C   UNL     1      82.867  87.427  91.381  1.00  0.00     0.160 A 
ATOM     19  C   UNL     1      81.404  89.350  91.124  1.00  0.00     0.050 A 
ATOM     20  C   UNL     1      82.688  88.795  91.109  1.00  0.00     0.157 A 
BRANCH  18  21
ATOM     21  O   UNL     1      84.169  86.900  91.375  1.00  0.00    -0.493 OA
ATOM     22  C   UNL     1      84.609  85.842  90.530  1.00  0.00     0.278 C 
ENDBRANCH  18  21
BRANCH  20  23
ATOM     23  O   UNL     1      83.774  89.622  90.825  1.00  0.00    -0.504 OA
ATOM     24  H   UNL     1      84.580  89.295  90.305  1.00  0.00     0.293 HD
ENDBRANCH  20  23
ENDBRANCH  14  15
ENDBRANCH  12  14
ENDBRANCH   9  10
ENDBRANCH   1   9
TORSDOF 10
ENDMDL
MODEL 8
REMARK VINA RESULT:    -4.892      5.416      8.599
REMARK INTER + INTRA:          -8.299
REMARK INTER:                  -7.505
REMARK INTRA:                  -0.794
REMARK UNBOUND:                -0.691
REMARK SMILES COc1cc(CNC(=O)CCCCC=CC(C)C)ccc1O
REMARK SMILES IDX 11 1 12 2 13 3 14 4 15 5 16 6 17 7 18 8 10 9 8 10 9 11 7 12
REMARK SMILES IDX 6 14 5 15 4 16 19 17 3 18 20 19 21 20 2 21 1 22 22 23
REMARK H PARENT 7 13 22 24
REMARK Flexibility Score: inf
ROOT
ATOM      1  C   UNL     1      87.115  79.065  91.205  1.00  0.00     0.010 C 
ENDROOT
BRANCH   1   2
ATOM      2  C   UNL     1      86.750  77.952  90.208  1.00  0.00     0.005 C 
BRANCH   2   3
ATOM      3  C   UNL     1      86.862  78.396  88.744  1.00  0.00     0.027 C 
BRANCH   3   4
ATOM      4  C   UNL     1      87.352  77.277  87.866  1.00  0.00    -0.031 C 
ATOM      5  C   UNL     1      88.045  76.245  88.369  1.00  0.00    -0.028 C 
BRANCH   5   6
ATOM      6  C   UNL     1      88.538  75.124  87.485  1.00  0.00     0.005 C 
ATOM      7  C   UNL     1      89.745  75.584  86.660  1.00  0.00     0.012 C 
ATOM      8  C   UNL     1      87.417  74.634  86.561  1.00  0.00     0.012 C 
ENDBRANCH   5   6
ENDBRANCH   3   4
ENDBRANCH   2   3
ENDBRANCH   1   2
BRANCH   1   9
ATOM      9  C   UNL     1      86.738  80.482  90.731  1.00  0.00     0.100 C 
BRANCH   9  10
ATOM     10  C   UNL     1      85.335  80.860  91.118  1.00  0.00     0.220 C 
ATOM     11  O   UNL     1      85.050  81.019  92.336  1.00  0.00    -0.275 OA
ATOM     12  N   UNL     1      84.322  81.015  90.115  1.00  0.00    -0.352 N 
ATOM     13  H   UNL     1      84.541  80.767  89.123  1.00  0.00     0.163 HD
BRANCH  12  14
ATOM     14  C   UNL     1      83.015  81.600  90.409  1.00  0.00     0.151 C 
BRANCH  14  15
ATOM     15  C   UNL     1      83.107  83.101  90.386  1.00  0.00    -0.025 A 
ATOM     16  C   UNL     1      82.292  83.868  91.232  1.00  0.00     0.056 A 
ATOM     17  C   UNL     1      83.952  83.747  89.472  1.00  0.00     0.009 A 
ATOM     18  C   UNL     1      82.320  85.275  91.174  1.00  0.00     0.160 A 
ATOM     19  C   UNL     1      83.989  85.142  89.413  1.00  0.00     0.050 A 
ATOM     20  C   UNL     1      83.181  85.908  90.259  1.00  0.00     0.157 A 
BRANCH  18  21
ATOM     21  O   UNL     1      81.508  86.070  91.999  1.00  0.00    -0.493 OA
ATOM     22  C   UNL     1      80.921  85.630  93.219  1.00  0.00     0.278 C 
ENDBRANCH  18  21
BRANCH  20  23
ATOM     23  O   UNL     1      83.246  87.298  90.173  1.00  0.00    -0.504 OA
ATOM     24  H   UNL     1      82.651  87.828  89.547  1.00  0.00     0.293 HD
ENDBRANCH  20  23
ENDBRANCH  14  15
ENDBRANCH  12  14
ENDBRANCH   9  10
ENDBRANCH   1   9
TORSDOF 10
ENDMDL
MODEL 9
REMARK VINA RESULT:    -4.877      3.446      8.620
REMARK INTER + INTRA:          -8.276
REMARK INTER:                  -7.487
REMARK INTRA:                  -0.789
REMARK UNBOUND:                -0.691
REMARK SMILES COc1cc(CNC(=O)CCCCC=CC(C)C)ccc1O
REMARK SMILES IDX 11 1 12 2 13 3 14 4 15 5 16 6 17 7 18 8 10 9 8 10 9 11 7 12
REMARK SMILES IDX 6 14 5 15 4 16 19 17 3 18 20 19 21 20 2 21 1 22 22 23
REMARK H PARENT 7 13 22 24
REMARK Flexibility Score: inf
ROOT
ATOM      1  C   UNL     1      86.605  79.426  91.066  1.00  0.00     0.010 C 
ENDROOT
BRANCH   1   2
ATOM      2  C   UNL     1      87.009  78.342  90.052  1.00  0.00     0.005 C 
BRANCH   2   3
ATOM      3  C   UNL     1      86.451  78.597  88.645  1.00  0.00     0.027 C 
BRANCH   3   4
ATOM      4  C   UNL     1      87.023  77.630  87.644  1.00  0.00    -0.031 C 
ATOM      5  C   UNL     1      87.858  76.650  88.017  1.00  0.00    -0.028 C 
BRANCH   5   6
ATOM      6  C   UNL     1      88.433  75.681  87.009  1.00  0.00     0.005 C 
ATOM      7  C   UNL     1      87.925  74.262  87.280  1.00  0.00     0.012 C 
ATOM      8  C   UNL     1      89.965  75.715  87.044  1.00  0.00     0.012 C 
ENDBRANCH   5   6
ENDBRANCH   3   4
ENDBRANCH   2   3
ENDBRANCH   1   2
BRANCH   1   9
ATOM      9  C   UNL     1      85.232  79.190  91.725  1.00  0.00     0.100 C 
BRANCH   9  10
ATOM     10  C   UNL     1      84.165  80.088  91.162  1.00  0.00     0.220 C 
ATOM     11  O   UNL     1      82.977  79.969  91.568  1.00  0.00    -0.275 OA
ATOM     12  N   UNL     1      84.487  81.057  90.155  1.00  0.00    -0.352 N 
ATOM     13  H   UNL     1      85.448  81.067  89.743  1.00  0.00     0.163 HD
BRANCH  12  14
ATOM     14  C   UNL     1      83.549  82.100  89.745  1.00  0.00     0.151 C 
BRANCH  14  15
ATOM     15  C   UNL     1      84.159  83.456  89.970  1.00  0.00    -0.025 A 
ATOM     16  C   UNL     1      85.457  83.565  90.492  1.00  0.00     0.056 A 
ATOM     17  C   UNL     1      83.412  84.619  89.731  1.00  0.00     0.009 A 
ATOM     18  C   UNL     1      86.015  84.829  90.770  1.00  0.00     0.160 A 
ATOM     19  C   UNL     1      83.961  85.875  89.998  1.00  0.00     0.050 A 
ATOM     20  C   UNL     1      85.257  85.986  90.513  1.00  0.00     0.157 A 
BRANCH  18  21
ATOM     21  O   UNL     1      87.307  84.970  91.302  1.00  0.00    -0.493 OA
ATOM     22  C   UNL     1      88.481  85.184  90.526  1.00  0.00     0.278 C 
ENDBRANCH  18  21
BRANCH  20  23
ATOM     23  O   UNL     1      85.773  87.257  90.767  1.00  0.00    -0.504 OA
ATOM     24  H   UNL     1      86.483  87.678  90.181  1.00  0.00     0.293 HD
ENDBRANCH  20  23
ENDBRANCH  14  15
ENDBRANCH  12  14
ENDBRANCH   9  10
ENDBRANCH   1   9
TORSDOF 10
ENDMDL
