MODEL 1
REMARK VINA RESULT:    -2.571      0.000      0.000
REMARK INTER + INTRA:          -3.503
REMARK INTER:                  -3.322
REMARK INTRA:                  -0.181
REMARK UNBOUND:                -0.181
REMARK SMILES C=CC(=O)CCCCC
REMARK SMILES IDX 6 1 7 2 8 3 9 4 5 5 3 6 4 7 2 8 1 9
REMARK H PARENT
REMARK Flexibility Score: inf
ROOT
ATOM      1  C   UNL     1      20.080  23.723  44.577  1.00  0.00     0.008 C 
ENDROOT
BRANCH   1   2
ATOM      2  C   UNL     1      20.036  22.893  45.872  1.00  0.00     0.000 C 
BRANCH   2   3
ATOM      3  C   UNL     1      21.271  21.994  46.038  1.00  0.00    -0.003 C 
ATOM      4  C   UNL     1      22.542  22.622  45.468  1.00  0.00     0.004 C 
ENDBRANCH   2   3
ENDBRANCH   1   2
BRANCH   1   5
ATOM      5  C   UNL     1      19.114  24.916  44.619  1.00  0.00     0.080 C 
BRANCH   5   6
ATOM      6  C   UNL     1      17.682  24.481  44.495  1.00  0.00     0.155 C 
ATOM      7  O   UNL     1      17.179  24.340  43.346  1.00  0.00    -0.295 OA
BRANCH   6   8
ATOM      8  C   UNL     1      16.882  24.199  45.703  1.00  0.00     0.039 C 
ATOM      9  C   UNL     1      16.975  24.934  46.810  1.00  0.00     0.012 C 
ENDBRANCH   6   8
ENDBRANCH   5   6
ENDBRANCH   1   5
TORSDOF 5
ENDMDL
MODEL 2
REMARK VINA RESULT:    -2.347     17.633     19.315
REMARK INTER + INTRA:          -3.215
REMARK INTER:                  -3.017
REMARK INTRA:                  -0.198
REMARK UNBOUND:                -0.181
REMARK SMILES C=CC(=O)CCCCC
REMARK SMILES IDX 6 1 7 2 8 3 9 4 5 5 3 6 4 7 2 8 1 9
REMARK H PARENT
REMARK Flexibility Score: inf
ROOT
ATOM      1  C   UNL     1      30.342  23.982  31.164  1.00  0.00     0.008 C 
ENDROOT
BRANCH   1   2
ATOM      2  C   UNL     1      30.438  24.650  32.547  1.00  0.00     0.000 C 
BRANCH   2   3
ATOM      3  C   UNL     1      31.866  25.106  32.883  1.00  0.00    -0.003 C 
ATOM      4  C   UNL     1      32.142  25.125  34.386  1.00  0.00     0.004 C 
ENDBRANCH   2   3
ENDBRANCH   1   2
BRANCH   1   5
ATOM      5  C   UNL     1      30.609  24.970  30.020  1.00  0.00     0.080 C 
BRANCH   5   6
ATOM      6  C   UNL     1      30.607  24.290  28.681  1.00  0.00     0.155 C 
ATOM      7  O   UNL     1      29.588  24.386  27.943  1.00  0.00    -0.295 OA
BRANCH   6   8
ATOM      8  C   UNL     1      31.795  23.541  28.225  1.00  0.00     0.039 C 
ATOM      9  C   UNL     1      33.009  23.747  28.734  1.00  0.00     0.012 C 
ENDBRANCH   6   8
ENDBRANCH   5   6
ENDBRANCH   1   5
TORSDOF 5
ENDMDL
MODEL 3
REMARK VINA RESULT:    -2.326     17.151     18.806
REMARK INTER + INTRA:          -3.187
REMARK INTER:                  -3.026
REMARK INTRA:                  -0.161
REMARK UNBOUND:                -0.181
REMARK SMILES C=CC(=O)CCCCC
REMARK SMILES IDX 6 1 7 2 8 3 9 4 5 5 3 6 4 7 2 8 1 9
REMARK H PARENT
REMARK Flexibility Score: inf
ROOT
ATOM      1  C   UNL     1      30.562  23.787  30.319  1.00  0.00     0.008 C 
ENDROOT
BRANCH   1   2
ATOM      2  C   UNL     1      31.317  23.715  28.980  1.00  0.00     0.000 C 
BRANCH   2   3
ATOM      3  C   UNL     1      30.371  23.703  27.770  1.00  0.00    -0.003 C 
ATOM      4  C   UNL     1      30.143  25.095  27.182  1.00  0.00     0.004 C 
ENDBRANCH   2   3
ENDBRANCH   1   2
BRANCH   1   5
ATOM      5  C   UNL     1      31.138  24.860  31.254  1.00  0.00     0.080 C 
BRANCH   5   6
ATOM      6  C   UNL     1      30.393  24.925  32.557  1.00  0.00     0.155 C 
ATOM      7  O   UNL     1      29.139  24.791  32.557  1.00  0.00    -0.295 OA
BRANCH   6   8
ATOM      8  C   UNL     1      31.127  25.117  33.824  1.00  0.00     0.039 C 
ATOM      9  C   UNL     1      32.457  25.125  33.886  1.00  0.00     0.012 C 
ENDBRANCH   6   8
ENDBRANCH   5   6
ENDBRANCH   1   5
TORSDOF 5
ENDMDL
MODEL 4
REMARK VINA RESULT:    -2.189      1.959      4.180
REMARK INTER + INTRA:          -3.010
REMARK INTER:                  -2.805
REMARK INTRA:                  -0.205
REMARK UNBOUND:                -0.181
REMARK SMILES C=CC(=O)CCCCC
REMARK SMILES IDX 6 1 7 2 8 3 9 4 5 5 3 6 4 7 2 8 1 9
REMARK H PARENT
REMARK Flexibility Score: inf
ROOT
ATOM      1  C   UNL     1      18.325  23.635  44.437  1.00  0.00     0.008 C 
ENDROOT
BRANCH   1   2
ATOM      2  C   UNL     1      17.238  24.715  44.573  1.00  0.00     0.000 C 
BRANCH   2   3
ATOM      3  C   UNL     1      16.990  25.123  46.033  1.00  0.00    -0.003 C 
ATOM      4  C   UNL     1      17.232  23.978  47.016  1.00  0.00     0.004 C 
ENDBRANCH   2   3
ENDBRANCH   1   2
BRANCH   1   5
ATOM      5  C   UNL     1      19.730  24.186  44.721  1.00  0.00     0.080 C 
BRANCH   5   6
ATOM      6  C   UNL     1      20.666  23.112  45.198  1.00  0.00     0.155 C 
ATOM      7  O   UNL     1      21.866  23.125  44.812  1.00  0.00    -0.295 OA
BRANCH   6   8
ATOM      8  C   UNL     1      20.189  22.070  46.130  1.00  0.00     0.039 C 
ATOM      9  C   UNL     1      20.959  21.567  47.093  1.00  0.00     0.012 C 
ENDBRANCH   6   8
ENDBRANCH   5   6
ENDBRANCH   1   5
TORSDOF 5
ENDMDL
MODEL 5
REMARK VINA RESULT:    -2.107      1.554      2.360
REMARK INTER + INTRA:          -2.905
REMARK INTER:                  -2.731
REMARK INTRA:                  -0.173
REMARK UNBOUND:                -0.181
REMARK SMILES C=CC(=O)CCCCC
REMARK SMILES IDX 6 1 7 2 8 3 9 4 5 5 3 6 4 7 2 8 1 9
REMARK H PARENT
REMARK Flexibility Score: inf
ROOT
ATOM      1  C   UNL     1      19.628  23.627  44.665  1.00  0.00     0.008 C 
ENDROOT
BRANCH   1   2
ATOM      2  C   UNL     1      19.689  23.689  46.202  1.00  0.00     0.000 C 
BRANCH   2   3
ATOM      3  C   UNL     1      20.794  22.795  46.784  1.00  0.00    -0.003 C 
ATOM      4  C   UNL     1      21.614  22.088  45.706  1.00  0.00     0.004 C 
ENDBRANCH   2   3
ENDBRANCH   1   2
BRANCH   1   5
ATOM      5  C   UNL     1      19.183  24.960  44.047  1.00  0.00     0.080 C 
BRANCH   5   6
ATOM      6  C   UNL     1      17.705  24.986  43.778  1.00  0.00     0.155 C 
ATOM      7  O   UNL     1      16.901  24.940  44.749  1.00  0.00    -0.295 OA
BRANCH   6   8
ATOM      8  C   UNL     1      17.203  25.089  42.393  1.00  0.00     0.039 C 
ATOM      9  C   UNL     1      18.016  25.125  41.339  1.00  0.00     0.012 C 
ENDBRANCH   6   8
ENDBRANCH   5   6
ENDBRANCH   1   5
TORSDOF 5
ENDMDL
MODEL 6
REMARK VINA RESULT:    -2.062     19.623     21.156
REMARK INTER + INTRA:          -2.846
REMARK INTER:                  -2.570
REMARK INTRA:                  -0.276
REMARK UNBOUND:                -0.181
REMARK SMILES C=CC(=O)CCCCC
REMARK SMILES IDX 6 1 7 2 8 3 9 4 5 5 3 6 4 7 2 8 1 9
REMARK H PARENT
REMARK Flexibility Score: inf
ROOT
ATOM      1  C   UNL     1      33.000  23.554  27.967  1.00  0.00     0.008 C 
ENDROOT
BRANCH   1   2
ATOM      2  C   UNL     1      33.908  24.419  28.859  1.00  0.00     0.000 C 
BRANCH   2   3
ATOM      3  C   UNL     1      35.387  24.334  28.452  1.00  0.00    -0.003 C 
ATOM      4  C   UNL     1      35.657  23.232  27.429  1.00  0.00     0.004 C 
ENDBRANCH   2   3
ENDBRANCH   1   2
BRANCH   1   5
ATOM      5  C   UNL     1      31.895  22.852  28.770  1.00  0.00     0.080 C 
BRANCH   5   6
ATOM      6  C   UNL     1      30.628  23.658  28.802  1.00  0.00     0.155 C 
ATOM      7  O   UNL     1      29.777  23.504  27.883  1.00  0.00    -0.295 OA
BRANCH   6   8
ATOM      8  C   UNL     1      30.373  24.600  29.910  1.00  0.00     0.039 C 
ATOM      9  C   UNL     1      30.447  24.235  31.189  1.00  0.00     0.012 C 
ENDBRANCH   6   8
ENDBRANCH   5   6
ENDBRANCH   1   5
TORSDOF 5
ENDMDL
MODEL 7
REMARK VINA RESULT:    -1.892     19.725     21.471
REMARK INTER + INTRA:          -2.627
REMARK INTER:                  -2.283
REMARK INTRA:                  -0.343
REMARK UNBOUND:                -0.181
REMARK SMILES C=CC(=O)CCCCC
REMARK SMILES IDX 6 1 7 2 8 3 9 4 5 5 3 6 4 7 2 8 1 9
REMARK H PARENT
REMARK Flexibility Score: inf
ROOT
ATOM      1  C   UNL     1      31.735  23.264  29.106  1.00  0.00     0.008 C 
ENDROOT
BRANCH   1   2
ATOM      2  C   UNL     1      30.393  23.909  28.717  1.00  0.00     0.000 C 
BRANCH   2   3
ATOM      3  C   UNL     1      30.011  25.078  29.638  1.00  0.00    -0.003 C 
ATOM      4  C   UNL     1      30.207  24.754  31.118  1.00  0.00     0.004 C 
ENDBRANCH   2   3
ENDBRANCH   1   2
BRANCH   1   5
ATOM      5  C   UNL     1      32.654  23.058  27.894  1.00  0.00     0.080 C 
BRANCH   5   6
ATOM      6  C   UNL     1      33.945  23.813  28.035  1.00  0.00     0.155 C 
ATOM      7  O   UNL     1      34.973  23.392  27.438  1.00  0.00    -0.295 OA
BRANCH   6   8
ATOM      8  C   UNL     1      34.000  25.048  28.842  1.00  0.00     0.039 C 
ATOM      9  C   UNL     1      34.664  25.121  29.994  1.00  0.00     0.012 C 
ENDBRANCH   6   8
ENDBRANCH   5   6
ENDBRANCH   1   5
TORSDOF 5
ENDMDL
MODEL 8
REMARK VINA RESULT:    -1.870     19.399     21.221
REMARK INTER + INTRA:          -2.598
REMARK INTER:                  -2.438
REMARK INTRA:                  -0.160
REMARK UNBOUND:                -0.181
REMARK SMILES C=CC(=O)CCCCC
REMARK SMILES IDX 6 1 7 2 8 3 9 4 5 5 3 6 4 7 2 8 1 9
REMARK H PARENT
REMARK Flexibility Score: inf
ROOT
ATOM      1  C   UNL     1      31.326  23.870  29.458  1.00  0.00     0.008 C 
ENDROOT
BRANCH   1   2
ATOM      2  C   UNL     1      30.318  25.030  29.527  1.00  0.00     0.000 C 
BRANCH   2   3
ATOM      3  C   UNL     1      29.620  25.125  30.891  1.00  0.00    -0.003 C 
ATOM      4  C   UNL     1      30.355  24.354  31.987  1.00  0.00     0.004 C 
ENDBRANCH   2   3
ENDBRANCH   1   2
BRANCH   1   5
ATOM      5  C   UNL     1      32.761  24.359  29.221  1.00  0.00     0.080 C 
BRANCH   5   6
ATOM      6  C   UNL     1      33.444  23.585  28.130  1.00  0.00     0.155 C 
ATOM      7  O   UNL     1      32.746  22.916  27.320  1.00  0.00    -0.295 OA
BRANCH   6   8
ATOM      8  C   UNL     1      34.914  23.630  27.994  1.00  0.00     0.039 C 
ATOM      9  C   UNL     1      35.647  24.633  28.476  1.00  0.00     0.012 C 
ENDBRANCH   6   8
ENDBRANCH   5   6
ENDBRANCH   1   5
TORSDOF 5
ENDMDL
