MODEL 1
REMARK VINA RESULT:    -3.886      0.000      0.000
REMARK INTER + INTRA:          -9.126
REMARK INTER:                  -7.294
REMARK INTRA:                  -1.832
REMARK UNBOUND:                -1.832
REMARK SMILES O=C([O-])CCCCCCCCCCCCCCC(=O)[O-]
REMARK SMILES IDX 10 1 9 2 8 3 7 4 6 5 5 6 4 7 2 8 1 9 3 10 11 11 12 12 13 13
REMARK SMILES IDX 14 14 15 15 16 16 17 17 18 18 19 19 20 20
REMARK H PARENT
REMARK Flexibility Score: inf
ROOT
ATOM      1  C   UNL     1      -4.433  24.354 -13.684  1.00  0.00     0.000 C 
ENDROOT
BRANCH   1   2
ATOM      2  C   UNL     1      -4.701  23.075 -12.862  1.00  0.00     0.000 C 
BRANCH   2   3
ATOM      3  C   UNL     1      -5.589  22.028 -13.557  1.00  0.00     0.000 C 
BRANCH   3   4
ATOM      4  C   UNL     1      -5.764  20.747 -12.722  1.00  0.00     0.000 C 
BRANCH   4   5
ATOM      5  C   UNL     1      -6.417  21.016 -11.356  1.00  0.00     0.000 C 
BRANCH   5   6
ATOM      6  C   UNL     1      -6.218  19.852 -10.369  1.00  0.00     0.006 C 
BRANCH   6   7
ATOM      7  C   UNL     1      -6.533  20.261  -8.923  1.00  0.00     0.053 C 
BRANCH   7   8
ATOM      8  C   UNL     1      -7.272  19.183  -8.191  1.00  0.00     0.041 C 
ATOM      9  O   UNL     1      -7.356  18.026  -8.680  1.00  0.00    -0.550 OA
ATOM     10  O   UNL     1      -7.845  19.450  -6.954  1.00  0.00    -0.550 OA
ENDBRANCH   7   8
ENDBRANCH   6   7
ENDBRANCH   5   6
ENDBRANCH   4   5
ENDBRANCH   3   4
ENDBRANCH   2   3
ENDBRANCH   1   2
BRANCH   1  11
ATOM     11  C   UNL     1      -4.185  25.625 -12.850  1.00  0.00     0.000 C 
BRANCH  11  12
ATOM     12  C   UNL     1      -5.351  26.632 -12.845  1.00  0.00     0.000 C 
BRANCH  12  13
ATOM     13  C   UNL     1      -6.551  26.195 -13.713  1.00  0.00     0.000 C 
BRANCH  13  14
ATOM     14  C   UNL     1      -7.836  26.016 -12.889  1.00  0.00     0.000 C 
BRANCH  14  15
ATOM     15  C   UNL     1      -8.003  24.586 -12.342  1.00  0.00     0.000 C 
BRANCH  15  16
ATOM     16  C   UNL     1      -7.683  24.417 -10.844  1.00  0.00     0.006 C 
BRANCH  16  17
ATOM     17  C   UNL     1      -7.949  25.667  -9.989  1.00  0.00     0.053 C 
BRANCH  17  18
ATOM     18  C   UNL     1      -6.686  26.236  -9.420  1.00  0.00     0.041 C 
ATOM     19  O   UNL     1      -6.433  27.464  -9.544  1.00  0.00    -0.550 OA
ATOM     20  O   UNL     1      -5.805  25.419  -8.724  1.00  0.00    -0.550 OA
ENDBRANCH  17  18
ENDBRANCH  16  17
ENDBRANCH  15  16
ENDBRANCH  14  15
ENDBRANCH  13  14
ENDBRANCH  12  13
ENDBRANCH  11  12
ENDBRANCH   1  11
TORSDOF 15
ENDMDL
MODEL 2
REMARK VINA RESULT:    -3.810      2.421      5.153
REMARK INTER + INTRA:          -8.983
REMARK INTER:                  -6.758
REMARK INTRA:                  -2.225
REMARK UNBOUND:                -1.832
REMARK SMILES O=C([O-])CCCCCCCCCCCCCCC(=O)[O-]
REMARK SMILES IDX 10 1 9 2 8 3 7 4 6 5 5 6 4 7 2 8 1 9 3 10 11 11 12 12 13 13
REMARK SMILES IDX 14 14 15 15 16 16 17 17 18 18 19 19 20 20
REMARK H PARENT
REMARK Flexibility Score: inf
ROOT
ATOM      1  C   UNL     1      -4.248  25.740 -13.443  1.00  0.00     0.000 C 
ENDROOT
BRANCH   1   2
ATOM      2  C   UNL     1      -5.503  26.552 -13.063  1.00  0.00     0.000 C 
BRANCH   2   3
ATOM      3  C   UNL     1      -5.881  26.511 -11.571  1.00  0.00     0.000 C 
BRANCH   3   4
ATOM      4  C   UNL     1      -7.297  25.960 -11.330  1.00  0.00     0.000 C 
BRANCH   4   5
ATOM      5  C   UNL     1      -7.680  24.855 -12.329  1.00  0.00     0.000 C 
BRANCH   5   6
ATOM      6  C   UNL     1      -8.400  23.675 -11.654  1.00  0.00     0.006 C 
BRANCH   6   7
ATOM      7  C   UNL     1      -9.600  23.184 -12.475  1.00  0.00     0.053 C 
BRANCH   7   8
ATOM      8  C   UNL     1      -9.340  21.845 -13.093  1.00  0.00     0.041 C 
ATOM      9  O   UNL     1      -8.522  21.733 -14.044  1.00  0.00    -0.550 OA
ATOM     10  O   UNL     1      -9.980  20.715 -12.600  1.00  0.00    -0.550 OA
ENDBRANCH   7   8
ENDBRANCH   6   7
ENDBRANCH   5   6
ENDBRANCH   4   5
ENDBRANCH   3   4
ENDBRANCH   2   3
ENDBRANCH   1   2
BRANCH   1  11
ATOM     11  C   UNL     1      -4.490  24.596 -14.446  1.00  0.00     0.000 C 
BRANCH  11  12
ATOM     12  C   UNL     1      -4.766  23.223 -13.806  1.00  0.00     0.000 C 
BRANCH  12  13
ATOM     13  C   UNL     1      -4.170  23.069 -12.390  1.00  0.00     0.000 C 
BRANCH  13  14
ATOM     14  C   UNL     1      -5.090  22.273 -11.450  1.00  0.00     0.000 C 
BRANCH  14  15
ATOM     15  C   UNL     1      -5.596  20.960 -12.077  1.00  0.00     0.000 C 
BRANCH  15  16
ATOM     16  C   UNL     1      -6.679  20.222 -11.265  1.00  0.00     0.006 C 
BRANCH  16  17
ATOM     17  C   UNL     1      -6.887  20.761  -9.841  1.00  0.00     0.053 C 
BRANCH  17  18
ATOM     18  C   UNL     1      -6.626  19.715  -8.801  1.00  0.00     0.041 C 
ATOM     19  O   UNL     1      -5.712  18.866  -8.973  1.00  0.00    -0.550 OA
ATOM     20  O   UNL     1      -7.370  19.699  -7.629  1.00  0.00    -0.550 OA
ENDBRANCH  17  18
ENDBRANCH  16  17
ENDBRANCH  15  16
ENDBRANCH  14  15
ENDBRANCH  13  14
ENDBRANCH  12  13
ENDBRANCH  11  12
ENDBRANCH   1  11
TORSDOF 15
ENDMDL
MODEL 3
REMARK VINA RESULT:    -3.794      2.195      6.769
REMARK INTER + INTRA:          -8.954
REMARK INTER:                  -7.071
REMARK INTRA:                  -1.883
REMARK UNBOUND:                -1.832
REMARK SMILES O=C([O-])CCCCCCCCCCCCCCC(=O)[O-]
REMARK SMILES IDX 10 1 9 2 8 3 7 4 6 5 5 6 4 7 2 8 1 9 3 10 11 11 12 12 13 13
REMARK SMILES IDX 14 14 15 15 16 16 17 17 18 18 19 19 20 20
REMARK H PARENT
REMARK Flexibility Score: inf
ROOT
ATOM      1  C   UNL     1      -6.476  26.492 -13.466  1.00  0.00     0.000 C 
ENDROOT
BRANCH   1   2
ATOM      2  C   UNL     1      -7.534  26.749 -12.373  1.00  0.00     0.000 C 
BRANCH   2   3
ATOM      3  C   UNL     1      -7.560  25.716 -11.233  1.00  0.00     0.000 C 
BRANCH   3   4
ATOM      4  C   UNL     1      -7.200  26.326  -9.867  1.00  0.00     0.000 C 
BRANCH   4   5
ATOM      5  C   UNL     1      -6.718  27.782  -9.978  1.00  0.00     0.000 C 
BRANCH   5   6
ATOM      6  C   UNL     1      -7.630  28.764  -9.223  1.00  0.00     0.006 C 
BRANCH   6   7
ATOM      7  C   UNL     1      -7.069  30.193  -9.226  1.00  0.00     0.053 C 
BRANCH   7   8
ATOM      8  C   UNL     1      -5.724  30.263  -8.571  1.00  0.00     0.041 C 
ATOM      9  O   UNL     1      -4.741  30.746  -9.192  1.00  0.00    -0.550 OA
ATOM     10  O   UNL     1      -5.562  29.821  -7.265  1.00  0.00    -0.550 OA
ENDBRANCH   7   8
ENDBRANCH   6   7
ENDBRANCH   5   6
ENDBRANCH   4   5
ENDBRANCH   3   4
ENDBRANCH   2   3
ENDBRANCH   1   2
BRANCH   1  11
ATOM     11  C   UNL     1      -5.013  26.632 -13.003  1.00  0.00     0.000 C 
BRANCH  11  12
ATOM     12  C   UNL     1      -4.159  25.361 -13.165  1.00  0.00     0.000 C 
BRANCH  12  13
ATOM     13  C   UNL     1      -3.914  24.607 -11.840  1.00  0.00     0.000 C 
BRANCH  13  14
ATOM     14  C   UNL     1      -4.230  23.107 -11.952  1.00  0.00     0.000 C 
BRANCH  14  15
ATOM     15  C   UNL     1      -5.491  22.821 -12.790  1.00  0.00     0.000 C 
BRANCH  15  16
ATOM     16  C   UNL     1      -6.691  22.264 -11.997  1.00  0.00     0.006 C 
BRANCH  16  17
ATOM     17  C   UNL     1      -6.462  22.163 -10.480  1.00  0.00     0.053 C 
BRANCH  17  18
ATOM     18  C   UNL     1      -6.705  20.777  -9.967  1.00  0.00     0.041 C 
ATOM     19  O   UNL     1      -7.794  20.193 -10.214  1.00  0.00    -0.550 OA
ATOM     20  O   UNL     1      -5.719  20.117  -9.247  1.00  0.00    -0.550 OA
ENDBRANCH  17  18
ENDBRANCH  16  17
ENDBRANCH  15  16
ENDBRANCH  14  15
ENDBRANCH  13  14
ENDBRANCH  12  13
ENDBRANCH  11  12
ENDBRANCH   1  11
TORSDOF 15
ENDMDL
MODEL 4
REMARK VINA RESULT:    -3.768      1.442      2.216
REMARK INTER + INTRA:          -8.904
REMARK INTER:                  -6.986
REMARK INTRA:                  -1.919
REMARK UNBOUND:                -1.832
REMARK SMILES O=C([O-])CCCCCCCCCCCCCCC(=O)[O-]
REMARK SMILES IDX 10 1 9 2 8 3 7 4 6 5 5 6 4 7 2 8 1 9 3 10 11 11 12 12 13 13
REMARK SMILES IDX 14 14 15 15 16 16 17 17 18 18 19 19 20 20
REMARK H PARENT
REMARK Flexibility Score: inf
ROOT
ATOM      1  C   UNL     1      -4.901  22.166 -13.344  1.00  0.00     0.000 C 
ENDROOT
BRANCH   1   2
ATOM      2  C   UNL     1      -6.433  22.310 -13.449  1.00  0.00     0.000 C 
BRANCH   2   3
ATOM      3  C   UNL     1      -7.151  22.630 -12.125  1.00  0.00     0.000 C 
BRANCH   3   4
ATOM      4  C   UNL     1      -6.186  22.717 -10.930  1.00  0.00     0.000 C 
BRANCH   4   5
ATOM      5  C   UNL     1      -6.489  21.668  -9.847  1.00  0.00     0.000 C 
BRANCH   5   6
ATOM      6  C   UNL     1      -6.158  20.237 -10.304  1.00  0.00     0.006 C 
BRANCH   6   7
ATOM      7  C   UNL     1      -5.853  19.308  -9.120  1.00  0.00     0.053 C 
BRANCH   7   8
ATOM      8  C   UNL     1      -7.104  18.863  -8.428  1.00  0.00     0.041 C 
ATOM      9  O   UNL     1      -7.697  17.815  -8.800  1.00  0.00    -0.550 OA
ATOM     10  O   UNL     1      -7.602  19.590  -7.354  1.00  0.00    -0.550 OA
ENDBRANCH   7   8
ENDBRANCH   6   7
ENDBRANCH   5   6
ENDBRANCH   4   5
ENDBRANCH   3   4
ENDBRANCH   2   3
ENDBRANCH   1   2
BRANCH   1  11
ATOM     11  C   UNL     1      -4.092  23.288 -14.023  1.00  0.00     0.000 C 
BRANCH  11  12
ATOM     12  C   UNL     1      -4.855  24.613 -14.208  1.00  0.00     0.000 C 
BRANCH  12  13
ATOM     13  C   UNL     1      -4.338  25.756 -13.307  1.00  0.00     0.000 C 
BRANCH  13  14
ATOM     14  C   UNL     1      -5.472  26.457 -12.543  1.00  0.00     0.000 C 
BRANCH  14  15
ATOM     15  C   UNL     1      -6.866  26.144 -13.118  1.00  0.00     0.000 C 
BRANCH  15  16
ATOM     16  C   UNL     1      -8.047  26.770 -12.349  1.00  0.00     0.006 C 
BRANCH  16  17
ATOM     17  C   UNL     1      -9.026  25.752 -11.743  1.00  0.00     0.053 C 
BRANCH  17  18
ATOM     18  C   UNL     1      -8.971  25.742 -10.246  1.00  0.00     0.041 C 
ATOM     19  O   UNL     1      -7.876  25.546  -9.655  1.00  0.00    -0.550 OA
ATOM     20  O   UNL     1     -10.121  25.981  -9.505  1.00  0.00    -0.550 OA
ENDBRANCH  17  18
ENDBRANCH  16  17
ENDBRANCH  15  16
ENDBRANCH  14  15
ENDBRANCH  13  14
ENDBRANCH  12  13
ENDBRANCH  11  12
ENDBRANCH   1  11
TORSDOF 15
ENDMDL
MODEL 5
REMARK VINA RESULT:    -3.751      2.758      3.585
REMARK INTER + INTRA:          -8.872
REMARK INTER:                  -6.231
REMARK INTRA:                  -2.641
REMARK UNBOUND:                -1.832
REMARK SMILES O=C([O-])CCCCCCCCCCCCCCC(=O)[O-]
REMARK SMILES IDX 10 1 9 2 8 3 7 4 6 5 5 6 4 7 2 8 1 9 3 10 11 11 12 12 13 13
REMARK SMILES IDX 14 14 15 15 16 16 17 17 18 18 19 19 20 20
REMARK H PARENT
REMARK Flexibility Score: inf
ROOT
ATOM      1  C   UNL     1      -4.408  25.482 -12.903  1.00  0.00     0.000 C 
ENDROOT
BRANCH   1   2
ATOM      2  C   UNL     1      -4.676  24.664 -14.184  1.00  0.00     0.000 C 
BRANCH   2   3
ATOM      3  C   UNL     1      -4.724  23.138 -13.986  1.00  0.00     0.000 C 
BRANCH   3   4
ATOM      4  C   UNL     1      -4.663  22.727 -12.504  1.00  0.00     0.000 C 
BRANCH   4   5
ATOM      5  C   UNL     1      -5.529  21.495 -12.196  1.00  0.00     0.000 C 
BRANCH   5   6
ATOM      6  C   UNL     1      -5.652  21.225 -10.686  1.00  0.00     0.006 C 
BRANCH   6   7
ATOM      7  C   UNL     1      -6.939  20.463 -10.338  1.00  0.00     0.053 C 
BRANCH   7   8
ATOM      8  C   UNL     1      -6.765  19.606  -9.122  1.00  0.00     0.041 C 
ATOM      9  O   UNL     1      -7.614  19.643  -8.193  1.00  0.00    -0.550 OA
ATOM     10  O   UNL     1      -5.678  18.746  -9.026  1.00  0.00    -0.550 OA
ENDBRANCH   7   8
ENDBRANCH   6   7
ENDBRANCH   5   6
ENDBRANCH   4   5
ENDBRANCH   3   4
ENDBRANCH   2   3
ENDBRANCH   1   2
BRANCH   1  11
ATOM     11  C   UNL     1      -5.264  26.754 -12.751  1.00  0.00     0.000 C 
BRANCH  11  12
ATOM     12  C   UNL     1      -6.293  26.706 -11.606  1.00  0.00     0.000 C 
BRANCH  12  13
ATOM     13  C   UNL     1      -6.014  25.597 -10.568  1.00  0.00     0.000 C 
BRANCH  13  14
ATOM     14  C   UNL     1      -7.175  24.595 -10.455  1.00  0.00     0.000 C 
BRANCH  14  15
ATOM     15  C   UNL     1      -8.251  24.800 -11.537  1.00  0.00     0.000 C 
BRANCH  15  16
ATOM     16  C   UNL     1      -8.299  23.711 -12.627  1.00  0.00     0.006 C 
BRANCH  16  17
ATOM     17  C   UNL     1      -8.364  24.250 -14.066  1.00  0.00     0.053 C 
BRANCH  17  18
ATOM     18  C   UNL     1      -8.409  23.146 -15.077  1.00  0.00     0.041 C 
ATOM     19  O   UNL     1      -8.064  21.978 -14.754  1.00  0.00    -0.550 OA
ATOM     20  O   UNL     1      -8.861  23.399 -16.365  1.00  0.00    -0.550 OA
ENDBRANCH  17  18
ENDBRANCH  16  17
ENDBRANCH  15  16
ENDBRANCH  14  15
ENDBRANCH  13  14
ENDBRANCH  12  13
ENDBRANCH  11  12
ENDBRANCH   1  11
TORSDOF 15
ENDMDL
MODEL 6
REMARK VINA RESULT:    -3.728      2.285      2.770
REMARK INTER + INTRA:          -8.830
REMARK INTER:                  -6.475
REMARK INTRA:                  -2.355
REMARK UNBOUND:                -1.832
REMARK SMILES O=C([O-])CCCCCCCCCCCCCCC(=O)[O-]
REMARK SMILES IDX 10 1 9 2 8 3 7 4 6 5 5 6 4 7 2 8 1 9 3 10 11 11 12 12 13 13
REMARK SMILES IDX 14 14 15 15 16 16 17 17 18 18 19 19 20 20
REMARK H PARENT
REMARK Flexibility Score: inf
ROOT
ATOM      1  C   UNL     1      -4.998  25.181 -11.398  1.00  0.00     0.000 C 
ENDROOT
BRANCH   1   2
ATOM      2  C   UNL     1      -4.074  24.566 -12.470  1.00  0.00     0.000 C 
BRANCH   2   3
ATOM      3  C   UNL     1      -4.354  23.089 -12.804  1.00  0.00     0.000 C 
BRANCH   3   4
ATOM      4  C   UNL     1      -4.997  22.325 -11.634  1.00  0.00     0.000 C 
BRANCH   4   5
ATOM      5  C   UNL     1      -5.689  21.028 -12.084  1.00  0.00     0.000 C 
BRANCH   5   6
ATOM      6  C   UNL     1      -6.857  20.633 -11.163  1.00  0.00     0.006 C 
BRANCH   6   7
ATOM      7  C   UNL     1      -6.554  20.924  -9.687  1.00  0.00     0.053 C 
BRANCH   7   8
ATOM      8  C   UNL     1      -6.560  19.673  -8.862  1.00  0.00     0.041 C 
ATOM      9  O   UNL     1      -5.849  18.689  -9.196  1.00  0.00    -0.550 OA
ATOM     10  O   UNL     1      -7.332  19.604  -7.710  1.00  0.00    -0.550 OA
ENDBRANCH   7   8
ENDBRANCH   6   7
ENDBRANCH   5   6
ENDBRANCH   4   5
ENDBRANCH   3   4
ENDBRANCH   2   3
ENDBRANCH   1   2
BRANCH   1  11
ATOM     11  C   UNL     1      -5.766  26.439 -11.844  1.00  0.00     0.000 C 
BRANCH  11  12
ATOM     12  C   UNL     1      -5.961  26.572 -13.365  1.00  0.00     0.000 C 
BRANCH  12  13
ATOM     13  C   UNL     1      -7.338  26.076 -13.858  1.00  0.00     0.000 C 
BRANCH  13  14
ATOM     14  C   UNL     1      -7.238  24.763 -14.651  1.00  0.00     0.000 C 
BRANCH  14  15
ATOM     15  C   UNL     1      -7.876  23.569 -13.917  1.00  0.00     0.000 C 
BRANCH  15  16
ATOM     16  C   UNL     1      -8.300  23.846 -12.461  1.00  0.00     0.006 C 
BRANCH  16  17
ATOM     17  C   UNL     1      -9.697  23.322 -12.093  1.00  0.00     0.053 C 
BRANCH  17  18
ATOM     18  C   UNL     1     -10.688  24.433 -11.925  1.00  0.00     0.041 C 
ATOM     19  O   UNL     1     -11.311  24.881 -12.924  1.00  0.00    -0.550 OA
ATOM     20  O   UNL     1     -10.947  24.951 -10.663  1.00  0.00    -0.550 OA
ENDBRANCH  17  18
ENDBRANCH  16  17
ENDBRANCH  15  16
ENDBRANCH  14  15
ENDBRANCH  13  14
ENDBRANCH  12  13
ENDBRANCH  11  12
ENDBRANCH   1  11
TORSDOF 15
ENDMDL
MODEL 7
REMARK VINA RESULT:    -3.721      5.840      8.312
REMARK INTER + INTRA:          -8.816
REMARK INTER:                  -6.500
REMARK INTRA:                  -2.316
REMARK UNBOUND:                -1.832
REMARK SMILES O=C([O-])CCCCCCCCCCCCCCC(=O)[O-]
REMARK SMILES IDX 10 1 9 2 8 3 7 4 6 5 5 6 4 7 2 8 1 9 3 10 11 11 12 12 13 13
REMARK SMILES IDX 14 14 15 15 16 16 17 17 18 18 19 19 20 20
REMARK H PARENT
REMARK Flexibility Score: inf
ROOT
ATOM      1  C   UNL     1      -4.666  31.018  -7.853  1.00  0.00     0.000 C 
ENDROOT
BRANCH   1   2
ATOM      2  C   UNL     1      -5.392  30.510  -9.116  1.00  0.00     0.000 C 
BRANCH   2   3
ATOM      3  C   UNL     1      -6.786  29.905  -8.868  1.00  0.00     0.000 C 
BRANCH   3   4
ATOM      4  C   UNL     1      -6.743  28.385  -8.635  1.00  0.00     0.000 C 
BRANCH   4   5
ATOM      5  C   UNL     1      -7.510  27.958  -7.372  1.00  0.00     0.000 C 
BRANCH   5   6
ATOM      6  C   UNL     1      -8.489  29.040  -6.884  1.00  0.00     0.006 C 
BRANCH   6   7
ATOM      7  C   UNL     1      -9.944  28.551  -6.896  1.00  0.00     0.053 C 
BRANCH   7   8
ATOM      8  C   UNL     1     -10.373  28.117  -8.264  1.00  0.00     0.041 C 
ATOM      9  O   UNL     1     -10.470  28.959  -9.196  1.00  0.00    -0.550 OA
ATOM     10  O   UNL     1     -10.639  26.778  -8.518  1.00  0.00    -0.550 OA
ENDBRANCH   7   8
ENDBRANCH   6   7
ENDBRANCH   5   6
ENDBRANCH   4   5
ENDBRANCH   3   4
ENDBRANCH   2   3
ENDBRANCH   1   2
BRANCH   1  11
ATOM     11  C   UNL     1      -5.590  31.452  -6.699  1.00  0.00     0.000 C 
BRANCH  11  12
ATOM     12  C   UNL     1      -5.496  30.579  -5.434  1.00  0.00     0.000 C 
BRANCH  12  13
ATOM     13  C   UNL     1      -4.237  29.686  -5.390  1.00  0.00     0.000 C 
BRANCH  13  14
ATOM     14  C   UNL     1      -4.582  28.194  -5.261  1.00  0.00     0.000 C 
BRANCH  14  15
ATOM     15  C   UNL     1      -5.577  27.904  -4.122  1.00  0.00     0.000 C 
BRANCH  15  16
ATOM     16  C   UNL     1      -5.681  26.423  -3.705  1.00  0.00     0.006 C 
BRANCH  16  17
ATOM     17  C   UNL     1      -6.465  25.537  -4.686  1.00  0.00     0.053 C 
BRANCH  17  18
ATOM     18  C   UNL     1      -5.581  24.539  -5.370  1.00  0.00     0.041 C 
ATOM     19  O   UNL     1      -5.453  24.561  -6.623  1.00  0.00    -0.550 OA
ATOM     20  O   UNL     1      -4.874  23.608  -4.621  1.00  0.00    -0.550 OA
ENDBRANCH  17  18
ENDBRANCH  16  17
ENDBRANCH  15  16
ENDBRANCH  14  15
ENDBRANCH  13  14
ENDBRANCH  12  13
ENDBRANCH  11  12
ENDBRANCH   1  11
TORSDOF 15
ENDMDL
MODEL 8
REMARK VINA RESULT:    -3.711      7.600      9.503
REMARK INTER + INTRA:          -8.798
REMARK INTER:                  -7.537
REMARK INTRA:                  -1.261
REMARK UNBOUND:                -1.832
REMARK SMILES O=C([O-])CCCCCCCCCCCCCCC(=O)[O-]
REMARK SMILES IDX 10 1 9 2 8 3 7 4 6 5 5 6 4 7 2 8 1 9 3 10 11 11 12 12 13 13
REMARK SMILES IDX 14 14 15 15 16 16 17 17 18 18 19 19 20 20
REMARK H PARENT
REMARK Flexibility Score: inf
ROOT
ATOM      1  C   UNL     1     -10.883  31.773  -8.889  1.00  0.00     0.000 C 
ENDROOT
BRANCH   1   2
ATOM      2  C   UNL     1     -12.313  31.415  -8.432  1.00  0.00     0.000 C 
BRANCH   2   3
ATOM      3  C   UNL     1     -12.393  30.446  -7.238  1.00  0.00     0.000 C 
BRANCH   3   4
ATOM      4  C   UNL     1     -13.254  29.206  -7.534  1.00  0.00     0.000 C 
BRANCH   4   5
ATOM      5  C   UNL     1     -12.423  28.014  -8.035  1.00  0.00     0.000 C 
BRANCH   5   6
ATOM      6  C   UNL     1     -12.248  28.017  -9.564  1.00  0.00     0.006 C 
BRANCH   6   7
ATOM      7  C   UNL     1     -13.594  28.071 -10.299  1.00  0.00     0.053 C 
BRANCH   7   8
ATOM      8  C   UNL     1     -13.679  27.035 -11.377  1.00  0.00     0.041 C 
ATOM      9  O   UNL     1     -13.287  25.858 -11.159  1.00  0.00    -0.550 OA
ATOM     10  O   UNL     1     -14.217  27.361 -12.616  1.00  0.00    -0.550 OA
ENDBRANCH   7   8
ENDBRANCH   6   7
ENDBRANCH   5   6
ENDBRANCH   4   5
ENDBRANCH   3   4
ENDBRANCH   2   3
ENDBRANCH   1   2
BRANCH   1  11
ATOM     11  C   UNL     1      -9.820  30.693  -8.614  1.00  0.00     0.000 C 
BRANCH  11  12
ATOM     12  C   UNL     1      -9.165  30.096  -9.873  1.00  0.00     0.000 C 
BRANCH  12  13
ATOM     13  C   UNL     1      -7.752  29.524  -9.624  1.00  0.00     0.000 C 
BRANCH  13  14
ATOM     14  C   UNL     1      -7.130  30.047  -8.319  1.00  0.00     0.000 C 
BRANCH  14  15
ATOM     15  C   UNL     1      -5.701  30.588  -8.511  1.00  0.00     0.000 C 
BRANCH  15  16
ATOM     16  C   UNL     1      -5.012  31.087  -7.225  1.00  0.00     0.006 C 
BRANCH  16  17
ATOM     17  C   UNL     1      -5.772  32.199  -6.485  1.00  0.00     0.053 C 
BRANCH  17  18
ATOM     18  C   UNL     1      -4.854  33.066  -5.679  1.00  0.00     0.041 C 
ATOM     19  O   UNL     1      -4.592  32.770  -4.483  1.00  0.00    -0.550 OA
ATOM     20  O   UNL     1      -4.261  34.180  -6.258  1.00  0.00    -0.550 OA
ENDBRANCH  17  18
ENDBRANCH  16  17
ENDBRANCH  15  16
ENDBRANCH  14  15
ENDBRANCH  13  14
ENDBRANCH  12  13
ENDBRANCH  11  12
ENDBRANCH   1  11
TORSDOF 15
ENDMDL
MODEL 9
REMARK VINA RESULT:    -3.692      1.697      5.908
REMARK INTER + INTRA:          -8.762
REMARK INTER:                  -7.121
REMARK INTRA:                  -1.641
REMARK UNBOUND:                -1.832
REMARK SMILES O=C([O-])CCCCCCCCCCCCCCC(=O)[O-]
REMARK SMILES IDX 10 1 9 2 8 3 7 4 6 5 5 6 4 7 2 8 1 9 3 10 11 11 12 12 13 13
REMARK SMILES IDX 14 14 15 15 16 16 17 17 18 18 19 19 20 20
REMARK H PARENT
REMARK Flexibility Score: inf
ROOT
ATOM      1  C   UNL     1      -4.176  24.620 -11.770  1.00  0.00     0.000 C 
ENDROOT
BRANCH   1   2
ATOM      2  C   UNL     1      -4.251  25.514 -13.026  1.00  0.00     0.000 C 
BRANCH   2   3
ATOM      3  C   UNL     1      -5.421  26.514 -13.047  1.00  0.00     0.000 C 
BRANCH   3   4
ATOM      4  C   UNL     1      -6.116  26.646 -11.681  1.00  0.00     0.000 C 
BRANCH   4   5
ATOM      5  C   UNL     1      -7.555  26.106 -11.694  1.00  0.00     0.000 C 
BRANCH   5   6
ATOM      6  C   UNL     1      -8.006  25.597 -10.314  1.00  0.00     0.006 C 
BRANCH   6   7
ATOM      7  C   UNL     1      -8.280  26.746  -9.335  1.00  0.00     0.053 C 
BRANCH   7   8
ATOM      8  C   UNL     1      -9.727  26.819  -8.955  1.00  0.00     0.041 C 
ATOM      9  O   UNL     1     -10.111  27.627  -8.069  1.00  0.00    -0.550 OA
ATOM     10  O   UNL     1     -10.657  26.014  -9.600  1.00  0.00    -0.550 OA
ENDBRANCH   7   8
ENDBRANCH   6   7
ENDBRANCH   5   6
ENDBRANCH   4   5
ENDBRANCH   3   4
ENDBRANCH   2   3
ENDBRANCH   1   2
BRANCH   1  11
ATOM     11  C   UNL     1      -4.336  23.111 -12.033  1.00  0.00     0.000 C 
BRANCH  11  12
ATOM     12  C   UNL     1      -5.031  22.757 -13.362  1.00  0.00     0.000 C 
BRANCH  12  13
ATOM     13  C   UNL     1      -6.371  22.012 -13.180  1.00  0.00     0.000 C 
BRANCH  13  14
ATOM     14  C   UNL     1      -7.087  22.404 -11.878  1.00  0.00     0.000 C 
BRANCH  14  15
ATOM     15  C   UNL     1      -7.640  21.190 -11.108  1.00  0.00     0.000 C 
BRANCH  15  16
ATOM     16  C   UNL     1      -6.574  20.293 -10.448  1.00  0.00     0.006 C 
BRANCH  16  17
ATOM     17  C   UNL     1      -6.536  20.372  -8.913  1.00  0.00     0.053 C 
BRANCH  17  18
ATOM     18  C   UNL     1      -7.290  19.246  -8.274  1.00  0.00     0.041 C 
ATOM     19  O   UNL     1      -7.363  18.128  -8.848  1.00  0.00    -0.550 OA
ATOM     20  O   UNL     1      -7.883  19.422  -7.031  1.00  0.00    -0.550 OA
ENDBRANCH  17  18
ENDBRANCH  16  17
ENDBRANCH  15  16
ENDBRANCH  14  15
ENDBRANCH  13  14
ENDBRANCH  12  13
ENDBRANCH  11  12
ENDBRANCH   1  11
TORSDOF 15
ENDMDL
