MODEL 1
REMARK VINA RESULT:    -4.412      0.000      0.000
REMARK INTER + INTRA:         -10.101
REMARK INTER:                  -8.280
REMARK INTRA:                  -1.821
REMARK UNBOUND:                -1.821
REMARK SMILES CCCCCCCCC=CCCCCCCCC(=O)[O-]
REMARK SMILES IDX 10 1 9 2 11 3 12 4 13 5 14 6 15 7 16 8 17 9 18 10 19 11
REMARK SMILES IDX 20 12 8 13 7 14 6 15 5 16 4 17 3 18 2 19 1 20
REMARK H PARENT
REMARK Flexibility Score: inf
ROOT
ATOM      1  C   UNL     1      -2.796  25.506   1.581  1.00  0.00    -0.031 C 
ATOM      2  C   UNL     1      -3.425  24.787   0.633  1.00  0.00    -0.031 C 
ENDROOT
BRANCH   1   3
ATOM      3  C   UNL     1      -3.288  25.690   2.998  1.00  0.00     0.027 C 
BRANCH   3   4
ATOM      4  C   UNL     1      -4.110  26.976   3.144  1.00  0.00     0.004 C 
BRANCH   4   5
ATOM      5  C   UNL     1      -3.331  28.214   2.669  1.00  0.00     0.000 C 
BRANCH   5   6
ATOM      6  C   UNL     1      -2.397  28.782   3.750  1.00  0.00     0.000 C 
BRANCH   6   7
ATOM      7  C   UNL     1      -1.011  29.199   3.212  1.00  0.00     0.000 C 
BRANCH   7   8
ATOM      8  C   UNL     1      -0.815  28.794   1.741  1.00  0.00     0.006 C 
BRANCH   8   9
ATOM      9  C   UNL     1      -0.465  29.993   0.849  1.00  0.00     0.053 C 
BRANCH   9  10
ATOM     10  C   UNL     1       0.278  29.571  -0.381  1.00  0.00     0.041 C 
ATOM     11  O   UNL     1       0.911  30.420  -1.062  1.00  0.00    -0.550 OA
ATOM     12  O   UNL     1       0.299  28.234  -0.757  1.00  0.00    -0.550 OA
ENDBRANCH   9  10
ENDBRANCH   8   9
ENDBRANCH   7   8
ENDBRANCH   6   7
ENDBRANCH   5   6
ENDBRANCH   4   5
ENDBRANCH   3   4
ENDBRANCH   1   3
BRANCH   2  13
ATOM     13  C   UNL     1      -4.686  23.993   0.855  1.00  0.00     0.027 C 
BRANCH  13  14
ATOM     14  C   UNL     1      -5.907  24.739   0.294  1.00  0.00     0.004 C 
BRANCH  14  15
ATOM     15  C   UNL     1      -7.179  24.483   1.116  1.00  0.00     0.000 C 
BRANCH  15  16
ATOM     16  C   UNL     1      -6.973  24.757   2.616  1.00  0.00     0.000 C 
BRANCH  16  17
ATOM     17  C   UNL     1      -7.826  25.930   3.133  1.00  0.00    -0.000 C 
BRANCH  17  18
ATOM     18  C   UNL     1      -8.124  25.895   4.644  1.00  0.00    -0.000 C 
BRANCH  18  19
ATOM     19  C   UNL     1      -6.884  26.176   5.504  1.00  0.00    -0.003 C 
ATOM     20  C   UNL     1      -7.224  26.121   6.991  1.00  0.00     0.004 C 
ENDBRANCH  18  19
ENDBRANCH  17  18
ENDBRANCH  16  17
ENDBRANCH  15  16
ENDBRANCH  14  15
ENDBRANCH  13  14
ENDBRANCH   2  13
TORSDOF 15
ENDMDL
MODEL 2
REMARK VINA RESULT:    -4.391      3.779      4.270
REMARK INTER + INTRA:         -10.061
REMARK INTER:                  -8.248
REMARK INTRA:                  -1.813
REMARK UNBOUND:                -1.821
REMARK SMILES CCCCCCCCC=CCCCCCCCC(=O)[O-]
REMARK SMILES IDX 10 1 9 2 11 3 12 4 13 5 14 6 15 7 16 8 17 9 18 10 19 11
REMARK SMILES IDX 20 12 8 13 7 14 6 15 5 16 4 17 3 18 2 19 1 20
REMARK H PARENT
REMARK Flexibility Score: inf
ROOT
ATOM      1  C   UNL     1      -3.404  25.439   2.757  1.00  0.00    -0.031 C 
ATOM      2  C   UNL     1      -4.079  24.986   1.684  1.00  0.00    -0.031 C 
ENDROOT
BRANCH   1   3
ATOM      3  C   UNL     1      -3.419  26.868   3.251  1.00  0.00     0.027 C 
BRANCH   3   4
ATOM      4  C   UNL     1      -2.571  27.779   2.356  1.00  0.00     0.004 C 
BRANCH   4   5
ATOM      5  C   UNL     1      -3.255  29.131   2.098  1.00  0.00     0.000 C 
BRANCH   5   6
ATOM      6  C   UNL     1      -3.678  29.317   0.631  1.00  0.00     0.000 C 
BRANCH   6   7
ATOM      7  C   UNL     1      -5.168  29.680   0.459  1.00  0.00     0.000 C 
BRANCH   7   8
ATOM      8  C   UNL     1      -5.371  31.179   0.180  1.00  0.00     0.006 C 
BRANCH   8   9
ATOM      9  C   UNL     1      -5.751  31.453  -1.281  1.00  0.00     0.053 C 
BRANCH   9  10
ATOM     10  C   UNL     1      -7.151  31.972  -1.402  1.00  0.00     0.041 C 
ATOM     11  O   UNL     1      -8.128  31.243  -1.087  1.00  0.00    -0.550 OA
ATOM     12  O   UNL     1      -7.374  33.275  -1.831  1.00  0.00    -0.550 OA
ENDBRANCH   9  10
ENDBRANCH   8   9
ENDBRANCH   7   8
ENDBRANCH   6   7
ENDBRANCH   5   6
ENDBRANCH   4   5
ENDBRANCH   3   4
ENDBRANCH   1   3
BRANCH   2  13
ATOM     13  C   UNL     1      -5.011  25.820   0.843  1.00  0.00     0.027 C 
BRANCH  13  14
ATOM     14  C   UNL     1      -6.458  25.696   1.345  1.00  0.00     0.004 C 
BRANCH  14  15
ATOM     15  C   UNL     1      -6.887  26.897   2.202  1.00  0.00     0.000 C 
BRANCH  15  16
ATOM     16  C   UNL     1      -7.854  26.497   3.329  1.00  0.00     0.000 C 
BRANCH  16  17
ATOM     17  C   UNL     1      -7.163  25.712   4.459  1.00  0.00    -0.000 C 
BRANCH  17  18
ATOM     18  C   UNL     1      -8.028  25.488   5.713  1.00  0.00    -0.000 C 
BRANCH  18  19
ATOM     19  C   UNL     1      -7.369  26.012   6.996  1.00  0.00    -0.003 C 
ATOM     20  C   UNL     1      -6.187  26.923   6.675  1.00  0.00     0.004 C 
ENDBRANCH  18  19
ENDBRANCH  17  18
ENDBRANCH  16  17
ENDBRANCH  15  16
ENDBRANCH  14  15
ENDBRANCH  13  14
ENDBRANCH   2  13
TORSDOF 15
ENDMDL
MODEL 3
REMARK VINA RESULT:    -4.302      2.889      5.708
REMARK INTER + INTRA:          -9.895
REMARK INTER:                  -6.902
REMARK INTRA:                  -2.993
REMARK UNBOUND:                -1.821
REMARK SMILES CCCCCCCCC=CCCCCCCCC(=O)[O-]
REMARK SMILES IDX 10 1 9 2 11 3 12 4 13 5 14 6 15 7 16 8 17 9 18 10 19 11
REMARK SMILES IDX 20 12 8 13 7 14 6 15 5 16 4 17 3 18 2 19 1 20
REMARK H PARENT
REMARK Flexibility Score: inf
ROOT
ATOM      1  C   UNL     1      -4.849  24.157  -0.569  1.00  0.00    -0.031 C 
ATOM      2  C   UNL     1      -4.161  24.944  -1.418  1.00  0.00    -0.031 C 
ENDROOT
BRANCH   1   3
ATOM      3  C   UNL     1      -4.473  23.901   0.872  1.00  0.00     0.027 C 
BRANCH   3   4
ATOM      4  C   UNL     1      -5.438  24.601   1.837  1.00  0.00     0.004 C 
BRANCH   4   5
ATOM      5  C   UNL     1      -4.723  25.643   2.712  1.00  0.00     0.000 C 
BRANCH   5   6
ATOM      6  C   UNL     1      -3.193  25.491   2.692  1.00  0.00     0.000 C 
BRANCH   6   7
ATOM      7  C   UNL     1      -2.446  26.805   2.380  1.00  0.00     0.000 C 
BRANCH   7   8
ATOM      8  C   UNL     1      -3.407  27.940   1.986  1.00  0.00     0.006 C 
BRANCH   8   9
ATOM      9  C   UNL     1      -2.813  29.327   2.263  1.00  0.00     0.053 C 
BRANCH   9  10
ATOM     10  C   UNL     1      -2.004  29.343   3.523  1.00  0.00     0.041 C 
ATOM     11  O   UNL     1      -2.570  29.481   4.639  1.00  0.00    -0.550 OA
ATOM     12  O   UNL     1      -0.626  29.173   3.468  1.00  0.00    -0.550 OA
ENDBRANCH   9  10
ENDBRANCH   8   9
ENDBRANCH   7   8
ENDBRANCH   6   7
ENDBRANCH   5   6
ENDBRANCH   4   5
ENDBRANCH   3   4
ENDBRANCH   1   3
BRANCH   2  13
ATOM     13  C   UNL     1      -2.943  25.749  -1.044  1.00  0.00     0.027 C 
BRANCH  13  14
ATOM     14  C   UNL     1      -1.659  25.046  -1.510  1.00  0.00     0.004 C 
BRANCH  14  15
ATOM     15  C   UNL     1      -0.637  24.877  -0.375  1.00  0.00     0.000 C 
BRANCH  15  16
ATOM     16  C   UNL     1      -0.792  23.533   0.357  1.00  0.00     0.000 C 
BRANCH  16  17
ATOM     17  C   UNL     1      -1.054  22.357  -0.600  1.00  0.00    -0.000 C 
BRANCH  17  18
ATOM     18  C   UNL     1      -2.023  21.288  -0.061  1.00  0.00    -0.000 C 
BRANCH  18  19
ATOM     19  C   UNL     1      -3.098  20.886  -1.079  1.00  0.00    -0.003 C 
ATOM     20  C   UNL     1      -2.898  21.613  -2.406  1.00  0.00     0.004 C 
ENDBRANCH  18  19
ENDBRANCH  17  18
ENDBRANCH  16  17
ENDBRANCH  15  16
ENDBRANCH  14  15
ENDBRANCH  13  14
ENDBRANCH   2  13
TORSDOF 15
ENDMDL
MODEL 4
REMARK VINA RESULT:    -4.297      3.999      7.120
REMARK INTER + INTRA:          -9.885
REMARK INTER:                  -6.869
REMARK INTRA:                  -3.017
REMARK UNBOUND:                -1.821
REMARK SMILES CCCCCCCCC=CCCCCCCCC(=O)[O-]
REMARK SMILES IDX 10 1 9 2 11 3 12 4 13 5 14 6 15 7 16 8 17 9 18 10 19 11
REMARK SMILES IDX 20 12 8 13 7 14 6 15 5 16 4 17 3 18 2 19 1 20
REMARK H PARENT
REMARK Flexibility Score: inf
ROOT
ATOM      1  C   UNL     1      -3.473  27.639  -0.324  1.00  0.00    -0.031 C 
ATOM      2  C   UNL     1      -4.032  26.712  -1.124  1.00  0.00    -0.031 C 
ENDROOT
BRANCH   1   3
ATOM      3  C   UNL     1      -1.993  27.756  -0.036  1.00  0.00     0.027 C 
BRANCH   3   4
ATOM      4  C   UNL     1      -1.585  26.889   1.162  1.00  0.00     0.004 C 
BRANCH   4   5
ATOM      5  C   UNL     1      -2.521  27.090   2.364  1.00  0.00     0.000 C 
BRANCH   5   6
ATOM      6  C   UNL     1      -3.164  25.779   2.846  1.00  0.00     0.000 C 
BRANCH   6   7
ATOM      7  C   UNL     1      -4.692  25.876   3.044  1.00  0.00     0.000 C 
BRANCH   7   8
ATOM      8  C   UNL     1      -5.457  24.886   2.150  1.00  0.00     0.006 C 
BRANCH   8   9
ATOM      9  C   UNL     1      -6.538  25.577   1.307  1.00  0.00     0.053 C 
BRANCH   9  10
ATOM     10  C   UNL     1      -7.861  24.885   1.426  1.00  0.00     0.041 C 
ATOM     11  O   UNL     1      -8.761  25.359   2.168  1.00  0.00    -0.550 OA
ATOM     12  O   UNL     1      -8.111  23.733   0.691  1.00  0.00    -0.550 OA
ENDBRANCH   9  10
ENDBRANCH   8   9
ENDBRANCH   7   8
ENDBRANCH   6   7
ENDBRANCH   5   6
ENDBRANCH   4   5
ENDBRANCH   3   4
ENDBRANCH   1   3
BRANCH   2  13
ATOM     13  C   UNL     1      -3.263  25.685  -1.914  1.00  0.00     0.027 C 
BRANCH  13  14
ATOM     14  C   UNL     1      -3.695  24.262  -1.528  1.00  0.00     0.004 C 
BRANCH  14  15
ATOM     15  C   UNL     1      -2.970  23.748  -0.276  1.00  0.00     0.000 C 
BRANCH  15  16
ATOM     16  C   UNL     1      -1.705  22.942  -0.619  1.00  0.00     0.000 C 
BRANCH  16  17
ATOM     17  C   UNL     1      -0.422  23.566  -0.038  1.00  0.00    -0.000 C 
BRANCH  17  18
ATOM     18  C   UNL     1       0.624  23.985  -1.087  1.00  0.00    -0.000 C 
BRANCH  18  19
ATOM     19  C   UNL     1       0.498  25.458  -1.503  1.00  0.00    -0.003 C 
ATOM     20  C   UNL     1       0.329  25.589  -3.014  1.00  0.00     0.004 C 
ENDBRANCH  18  19
ENDBRANCH  17  18
ENDBRANCH  16  17
ENDBRANCH  15  16
ENDBRANCH  14  15
ENDBRANCH  13  14
ENDBRANCH   2  13
TORSDOF 15
ENDMDL
MODEL 5
REMARK VINA RESULT:    -4.244      3.626      4.357
REMARK INTER + INTRA:          -9.786
REMARK INTER:                  -7.755
REMARK INTRA:                  -2.031
REMARK UNBOUND:                -1.821
REMARK SMILES CCCCCCCCC=CCCCCCCCC(=O)[O-]
REMARK SMILES IDX 10 1 9 2 11 3 12 4 13 5 14 6 15 7 16 8 17 9 18 10 19 11
REMARK SMILES IDX 20 12 8 13 7 14 6 15 5 16 4 17 3 18 2 19 1 20
REMARK H PARENT
REMARK Flexibility Score: inf
ROOT
ATOM      1  C   UNL     1      -2.022  26.817   0.028  1.00  0.00    -0.031 C 
ATOM      2  C   UNL     1      -2.811  26.086   0.837  1.00  0.00    -0.031 C 
ENDROOT
BRANCH   1   3
ATOM      3  C   UNL     1      -0.914  27.734   0.496  1.00  0.00     0.027 C 
BRANCH   3   4
ATOM      4  C   UNL     1      -1.423  29.165   0.708  1.00  0.00     0.004 C 
BRANCH   4   5
ATOM      5  C   UNL     1      -1.748  29.448   2.183  1.00  0.00     0.000 C 
BRANCH   5   6
ATOM      6  C   UNL     1      -3.065  30.220   2.368  1.00  0.00     0.000 C 
BRANCH   6   7
ATOM      7  C   UNL     1      -3.584  30.876   1.071  1.00  0.00     0.000 C 
BRANCH   7   8
ATOM      8  C   UNL     1      -5.085  30.621   0.852  1.00  0.00     0.006 C 
BRANCH   8   9
ATOM      9  C   UNL     1      -5.713  31.637  -0.112  1.00  0.00     0.053 C 
BRANCH   9  10
ATOM     10  C   UNL     1      -7.205  31.511  -0.155  1.00  0.00     0.041 C 
ATOM     11  O   UNL     1      -7.879  31.581   0.906  1.00  0.00    -0.550 OA
ATOM     12  O   UNL     1      -7.854  31.350  -1.373  1.00  0.00    -0.550 OA
ENDBRANCH   9  10
ENDBRANCH   8   9
ENDBRANCH   7   8
ENDBRANCH   6   7
ENDBRANCH   5   6
ENDBRANCH   4   5
ENDBRANCH   3   4
ENDBRANCH   1   3
BRANCH   2  13
ATOM     13  C   UNL     1      -2.670  26.012   2.335  1.00  0.00     0.027 C 
BRANCH  13  14
ATOM     14  C   UNL     1      -4.025  26.239   3.023  1.00  0.00     0.004 C 
BRANCH  14  15
ATOM     15  C   UNL     1      -5.001  27.041   2.149  1.00  0.00     0.000 C 
BRANCH  15  16
ATOM     16  C   UNL     1      -6.355  26.331   1.979  1.00  0.00     0.000 C 
BRANCH  16  17
ATOM     17  C   UNL     1      -7.357  26.679   3.095  1.00  0.00    -0.000 C 
BRANCH  17  18
ATOM     18  C   UNL     1      -7.839  25.477   3.928  1.00  0.00    -0.000 C 
BRANCH  18  19
ATOM     19  C   UNL     1      -7.792  25.740   5.440  1.00  0.00    -0.003 C 
ATOM     20  C   UNL     1      -6.489  26.426   5.839  1.00  0.00     0.004 C 
ENDBRANCH  18  19
ENDBRANCH  17  18
ENDBRANCH  16  17
ENDBRANCH  15  16
ENDBRANCH  14  15
ENDBRANCH  13  14
ENDBRANCH   2  13
TORSDOF 15
ENDMDL
MODEL 6
REMARK VINA RESULT:    -4.121      3.499      5.088
REMARK INTER + INTRA:          -9.556
REMARK INTER:                  -6.956
REMARK INTRA:                  -2.600
REMARK UNBOUND:                -1.821
REMARK SMILES CCCCCCCCC=CCCCCCCCC(=O)[O-]
REMARK SMILES IDX 10 1 9 2 11 3 12 4 13 5 14 6 15 7 16 8 17 9 18 10 19 11
REMARK SMILES IDX 20 12 8 13 7 14 6 15 5 16 4 17 3 18 2 19 1 20
REMARK H PARENT
REMARK Flexibility Score: inf
ROOT
ATOM      1  C   UNL     1      -3.637  27.918   2.231  1.00  0.00    -0.031 C 
ATOM      2  C   UNL     1      -4.325  28.406   1.182  1.00  0.00    -0.031 C 
ENDROOT
BRANCH   1   3
ATOM      3  C   UNL     1      -4.087  26.769   3.104  1.00  0.00     0.027 C 
BRANCH   3   4
ATOM      4  C   UNL     1      -3.250  25.509   2.848  1.00  0.00     0.004 C 
BRANCH   4   5
ATOM      5  C   UNL     1      -2.267  25.698   1.681  1.00  0.00     0.000 C 
BRANCH   5   6
ATOM      6  C   UNL     1      -2.377  24.590   0.621  1.00  0.00     0.000 C 
BRANCH   6   7
ATOM      7  C   UNL     1      -1.044  23.861   0.348  1.00  0.00     0.000 C 
BRANCH   7   8
ATOM      8  C   UNL     1      -1.252  22.529  -0.392  1.00  0.00     0.006 C 
BRANCH   8   9
ATOM      9  C   UNL     1      -2.583  21.860  -0.022  1.00  0.00     0.053 C 
BRANCH   9  10
ATOM     10  C   UNL     1      -3.343  21.428  -1.238  1.00  0.00     0.041 C 
ATOM     11  O   UNL     1      -4.507  21.861  -1.446  1.00  0.00    -0.550 OA
ATOM     12  O   UNL     1      -2.753  20.573  -2.160  1.00  0.00    -0.550 OA
ENDBRANCH   9  10
ENDBRANCH   8   9
ENDBRANCH   7   8
ENDBRANCH   6   7
ENDBRANCH   5   6
ENDBRANCH   4   5
ENDBRANCH   3   4
ENDBRANCH   1   3
BRANCH   2  13
ATOM     13  C   UNL     1      -5.622  27.838   0.669  1.00  0.00     0.027 C 
BRANCH  13  14
ATOM     14  C   UNL     1      -5.365  26.651  -0.272  1.00  0.00     0.004 C 
BRANCH  14  15
ATOM     15  C   UNL     1      -6.434  25.555  -0.141  1.00  0.00     0.000 C 
BRANCH  15  16
ATOM     16  C   UNL     1      -5.978  24.398   0.765  1.00  0.00     0.000 C 
BRANCH  16  17
ATOM     17  C   UNL     1      -6.714  24.372   2.117  1.00  0.00    -0.000 C 
BRANCH  17  18
ATOM     18  C   UNL     1      -7.971  25.258   2.186  1.00  0.00    -0.000 C 
BRANCH  18  19
ATOM     19  C   UNL     1      -7.853  26.384   3.224  1.00  0.00    -0.003 C 
ATOM     20  C   UNL     1      -7.509  25.826   4.602  1.00  0.00     0.004 C 
ENDBRANCH  18  19
ENDBRANCH  17  18
ENDBRANCH  16  17
ENDBRANCH  15  16
ENDBRANCH  14  15
ENDBRANCH  13  14
ENDBRANCH   2  13
TORSDOF 15
ENDMDL
MODEL 7
REMARK VINA RESULT:    -4.120      3.913      6.673
REMARK INTER + INTRA:          -9.554
REMARK INTER:                  -6.736
REMARK INTRA:                  -2.818
REMARK UNBOUND:                -1.821
REMARK SMILES CCCCCCCCC=CCCCCCCCC(=O)[O-]
REMARK SMILES IDX 10 1 9 2 11 3 12 4 13 5 14 6 15 7 16 8 17 9 18 10 19 11
REMARK SMILES IDX 20 12 8 13 7 14 6 15 5 16 4 17 3 18 2 19 1 20
REMARK H PARENT
REMARK Flexibility Score: inf
ROOT
ATOM      1  C   UNL     1      -1.260  25.111  -0.889  1.00  0.00    -0.031 C 
ATOM      2  C   UNL     1      -1.707  26.263  -0.357  1.00  0.00    -0.031 C 
ENDROOT
BRANCH   1   3
ATOM      3  C   UNL     1      -0.470  24.060  -0.142  1.00  0.00     0.027 C 
BRANCH   3   4
ATOM      4  C   UNL     1      -1.302  22.792   0.088  1.00  0.00     0.004 C 
BRANCH   4   5
ATOM      5  C   UNL     1      -2.129  22.413  -1.150  1.00  0.00     0.000 C 
BRANCH   5   6
ATOM      6  C   UNL     1      -3.630  22.272  -0.846  1.00  0.00     0.000 C 
BRANCH   6   7
ATOM      7  C   UNL     1      -4.068  22.989   0.449  1.00  0.00     0.000 C 
BRANCH   7   8
ATOM      8  C   UNL     1      -5.164  24.036   0.190  1.00  0.00     0.006 C 
BRANCH   8   9
ATOM      9  C   UNL     1      -5.994  24.333   1.447  1.00  0.00     0.053 C 
BRANCH   9  10
ATOM     10  C   UNL     1      -7.420  24.644   1.109  1.00  0.00     0.041 C 
ATOM     11  O   UNL     1      -7.898  25.781   1.362  1.00  0.00    -0.550 OA
ATOM     12  O   UNL     1      -8.211  23.688   0.485  1.00  0.00    -0.550 OA
ENDBRANCH   9  10
ENDBRANCH   8   9
ENDBRANCH   7   8
ENDBRANCH   6   7
ENDBRANCH   5   6
ENDBRANCH   4   5
ENDBRANCH   3   4
ENDBRANCH   1   3
BRANCH   2  13
ATOM     13  C   UNL     1      -1.550  26.658   1.088  1.00  0.00     0.027 C 
BRANCH  13  14
ATOM     14  C   UNL     1      -2.614  25.975   1.961  1.00  0.00     0.004 C 
BRANCH  14  15
ATOM     15  C   UNL     1      -3.483  26.985   2.725  1.00  0.00     0.000 C 
BRANCH  15  16
ATOM     16  C   UNL     1      -3.118  28.442   2.393  1.00  0.00     0.000 C 
BRANCH  16  17
ATOM     17  C   UNL     1      -4.070  29.078   1.363  1.00  0.00    -0.000 C 
BRANCH  17  18
ATOM     18  C   UNL     1      -5.323  28.243   1.041  1.00  0.00    -0.000 C 
BRANCH  18  19
ATOM     19  C   UNL     1      -5.287  27.629  -0.365  1.00  0.00    -0.003 C 
ATOM     20  C   UNL     1      -4.529  28.527  -1.338  1.00  0.00     0.004 C 
ENDBRANCH  18  19
ENDBRANCH  17  18
ENDBRANCH  16  17
ENDBRANCH  15  16
ENDBRANCH  14  15
ENDBRANCH  13  14
ENDBRANCH   2  13
TORSDOF 15
ENDMDL
MODEL 8
REMARK VINA RESULT:    -4.086      3.659      6.970
REMARK INTER + INTRA:          -9.490
REMARK INTER:                  -7.398
REMARK INTRA:                  -2.092
REMARK UNBOUND:                -1.821
REMARK SMILES CCCCCCCCC=CCCCCCCCC(=O)[O-]
REMARK SMILES IDX 10 1 9 2 11 3 12 4 13 5 14 6 15 7 16 8 17 9 18 10 19 11
REMARK SMILES IDX 20 12 8 13 7 14 6 15 5 16 4 17 3 18 2 19 1 20
REMARK H PARENT
REMARK Flexibility Score: inf
ROOT
ATOM      1  C   UNL     1      -3.940  24.073  -0.385  1.00  0.00    -0.031 C 
ATOM      2  C   UNL     1      -3.649  22.946  -1.061  1.00  0.00    -0.031 C 
ENDROOT
BRANCH   1   3
ATOM      3  C   UNL     1      -3.995  24.189   1.122  1.00  0.00     0.027 C 
BRANCH   3   4
ATOM      4  C   UNL     1      -3.104  25.330   1.628  1.00  0.00     0.004 C 
BRANCH   4   5
ATOM      5  C   UNL     1      -3.549  25.838   3.009  1.00  0.00     0.000 C 
BRANCH   5   6
ATOM      6  C   UNL     1      -4.834  26.680   2.951  1.00  0.00     0.000 C 
BRANCH   6   7
ATOM      7  C   UNL     1      -5.897  26.260   3.989  1.00  0.00     0.000 C 
BRANCH   7   8
ATOM      8  C   UNL     1      -7.240  25.902   3.331  1.00  0.00     0.006 C 
BRANCH   8   9
ATOM      9  C   UNL     1      -7.177  24.575   2.563  1.00  0.00     0.053 C 
BRANCH   9  10
ATOM     10  C   UNL     1      -7.605  24.737   1.137  1.00  0.00     0.041 C 
ATOM     11  O   UNL     1      -7.190  25.713   0.457  1.00  0.00    -0.550 OA
ATOM     12  O   UNL     1      -8.436  23.792   0.548  1.00  0.00    -0.550 OA
ENDBRANCH   9  10
ENDBRANCH   8   9
ENDBRANCH   7   8
ENDBRANCH   6   7
ENDBRANCH   5   6
ENDBRANCH   4   5
ENDBRANCH   3   4
ENDBRANCH   1   3
BRANCH   2  13
ATOM     13  C   UNL     1      -3.264  21.637  -0.422  1.00  0.00     0.027 C 
BRANCH  13  14
ATOM     14  C   UNL     1      -1.742  21.550  -0.228  1.00  0.00     0.004 C 
BRANCH  14  15
ATOM     15  C   UNL     1      -0.980  22.555  -1.106  1.00  0.00     0.000 C 
BRANCH  15  16
ATOM     16  C   UNL     1      -0.050  23.464  -0.283  1.00  0.00     0.000 C 
BRANCH  16  17
ATOM     17  C   UNL     1       0.376  24.731  -1.047  1.00  0.00    -0.000 C 
BRANCH  17  18
ATOM     18  C   UNL     1      -0.746  25.763  -1.261  1.00  0.00    -0.000 C 
BRANCH  18  19
ATOM     19  C   UNL     1      -0.585  27.013  -0.384  1.00  0.00    -0.003 C 
ATOM     20  C   UNL     1      -1.509  28.134  -0.850  1.00  0.00     0.004 C 
ENDBRANCH  18  19
ENDBRANCH  17  18
ENDBRANCH  16  17
ENDBRANCH  15  16
ENDBRANCH  14  15
ENDBRANCH  13  14
ENDBRANCH   2  13
TORSDOF 15
ENDMDL
MODEL 9
REMARK VINA RESULT:    -4.084      3.797      5.959
REMARK INTER + INTRA:          -9.485
REMARK INTER:                  -6.850
REMARK INTRA:                  -2.635
REMARK UNBOUND:                -1.821
REMARK SMILES CCCCCCCCC=CCCCCCCCC(=O)[O-]
REMARK SMILES IDX 10 1 9 2 11 3 12 4 13 5 14 6 15 7 16 8 17 9 18 10 19 11
REMARK SMILES IDX 20 12 8 13 7 14 6 15 5 16 4 17 3 18 2 19 1 20
REMARK H PARENT
REMARK Flexibility Score: inf
ROOT
ATOM      1  C   UNL     1      -5.714  24.586   0.933  1.00  0.00    -0.031 C 
ATOM      2  C   UNL     1      -5.442  24.699   2.246  1.00  0.00    -0.031 C 
ENDROOT
BRANCH   1   3
ATOM      3  C   UNL     1      -6.289  25.686   0.069  1.00  0.00     0.027 C 
BRANCH   3   4
ATOM      4  C   UNL     1      -5.205  26.351  -0.789  1.00  0.00     0.004 C 
BRANCH   4   5
ATOM      5  C   UNL     1      -5.316  27.884  -0.770  1.00  0.00     0.000 C 
BRANCH   5   6
ATOM      6  C   UNL     1      -5.292  28.467   0.652  1.00  0.00     0.000 C 
BRANCH   6   7
ATOM      7  C   UNL     1      -4.499  29.787   0.765  1.00  0.00     0.000 C 
BRANCH   7   8
ATOM      8  C   UNL     1      -4.693  30.687  -0.467  1.00  0.00     0.006 C 
BRANCH   8   9
ATOM      9  C   UNL     1      -5.607  31.884  -0.174  1.00  0.00     0.053 C 
BRANCH   9  10
ATOM     10  C   UNL     1      -7.055  31.521  -0.299  1.00  0.00     0.041 C 
ATOM     11  O   UNL     1      -7.524  31.156  -1.410  1.00  0.00    -0.550 OA
ATOM     12  O   UNL     1      -7.879  31.553   0.819  1.00  0.00    -0.550 OA
ENDBRANCH   9  10
ENDBRANCH   8   9
ENDBRANCH   7   8
ENDBRANCH   6   7
ENDBRANCH   5   6
ENDBRANCH   4   5
ENDBRANCH   3   4
ENDBRANCH   1   3
BRANCH   2  13
ATOM     13  C   UNL     1      -5.604  25.964   3.049  1.00  0.00     0.027 C 
BRANCH  13  14
ATOM     14  C   UNL     1      -4.245  26.464   3.562  1.00  0.00     0.004 C 
BRANCH  14  15
ATOM     15  C   UNL     1      -3.064  25.814   2.826  1.00  0.00     0.000 C 
BRANCH  15  16
ATOM     16  C   UNL     1      -2.336  26.803   1.899  1.00  0.00     0.000 C 
BRANCH  16  17
ATOM     17  C   UNL     1      -1.820  26.143   0.607  1.00  0.00    -0.000 C 
BRANCH  17  18
ATOM     18  C   UNL     1      -1.533  24.635   0.722  1.00  0.00    -0.000 C 
BRANCH  18  19
ATOM     19  C   UNL     1      -2.353  23.793  -0.265  1.00  0.00    -0.003 C 
ATOM     20  C   UNL     1      -1.514  22.658  -0.847  1.00  0.00     0.004 C 
ENDBRANCH  18  19
ENDBRANCH  17  18
ENDBRANCH  16  17
ENDBRANCH  15  16
ENDBRANCH  14  15
ENDBRANCH  13  14
ENDBRANCH   2  13
TORSDOF 15
ENDMDL
