MODEL 1
REMARK VINA RESULT:    -4.754      0.000      0.000
REMARK INTER + INTRA:         -16.990
REMARK INTER:                 -11.979
REMARK INTRA:                  -5.012
REMARK UNBOUND:                -5.012
REMARK SMILES CCCCCCCCCCCCCCCCCCCCCCCCCCCC(=O)[O-]
REMARK SMILES IDX 15 1 16 2 17 3 18 4 19 5 20 6 21 7 22 8 23 9 24 10 25 11
REMARK SMILES IDX 26 12 27 13 28 14 29 15 30 16 14 17 13 18 12 19 11 20 10 21
REMARK SMILES IDX 9 22 8 23 7 24 6 25 5 26 4 27 3 28 2 29 1 30
REMARK H PARENT
REMARK Flexibility Score: inf
ROOT
ATOM      1  C   UNL     1    -101.975 -84.405  33.792  1.00  0.00     0.000 C 
ENDROOT
BRANCH   1   2
ATOM      2  C   UNL     1    -102.236 -83.694  32.449  1.00  0.00     0.000 C 
BRANCH   2   3
ATOM      3  C   UNL     1    -103.183 -84.479  31.525  1.00  0.00     0.000 C 
BRANCH   3   4
ATOM      4  C   UNL     1    -104.564 -83.816  31.399  1.00  0.00     0.000 C 
BRANCH   4   5
ATOM      5  C   UNL     1    -104.720 -83.007  30.101  1.00  0.00     0.000 C 
BRANCH   5   6
ATOM      6  C   UNL     1    -104.910 -81.500  30.361  1.00  0.00     0.000 C 
BRANCH   6   7
ATOM      7  C   UNL     1    -104.844 -81.086  31.846  1.00  0.00     0.000 C 
BRANCH   7   8
ATOM      8  C   UNL     1    -106.161 -80.542  32.427  1.00  0.00     0.000 C 
BRANCH   8   9
ATOM      9  C   UNL     1    -106.830 -81.524  33.404  1.00  0.00     0.000 C 
BRANCH   9  10
ATOM     10  C   UNL     1    -108.190 -82.033  32.885  1.00  0.00     0.000 C 
BRANCH  10  11
ATOM     11  C   UNL     1    -108.165 -83.485  32.368  1.00  0.00     0.000 C 
BRANCH  11  12
ATOM     12  C   UNL     1    -108.409 -83.623  30.849  1.00  0.00     0.006 C 
BRANCH  12  13
ATOM     13  C   UNL     1    -108.557 -82.276  30.122  1.00  0.00     0.053 C 
BRANCH  13  14
ATOM     14  C   UNL     1    -108.638 -82.447  28.636  1.00  0.00     0.041 C 
ATOM     15  O   UNL     1    -107.696 -82.050  27.899  1.00  0.00    -0.550 OA
ATOM     16  O   UNL     1    -109.732 -83.088  28.068  1.00  0.00    -0.550 OA
ENDBRANCH  13  14
ENDBRANCH  12  13
ENDBRANCH  11  12
ENDBRANCH  10  11
ENDBRANCH   9  10
ENDBRANCH   8   9
ENDBRANCH   7   8
ENDBRANCH   6   7
ENDBRANCH   5   6
ENDBRANCH   4   5
ENDBRANCH   3   4
ENDBRANCH   2   3
ENDBRANCH   1   2
BRANCH   1  17
ATOM     17  C   UNL     1    -102.467 -83.656  35.046  1.00  0.00     0.000 C 
BRANCH  17  18
ATOM     18  C   UNL     1    -103.911 -83.118  34.984  1.00  0.00     0.000 C 
BRANCH  18  19
ATOM     19  C   UNL     1    -104.977 -84.091  35.530  1.00  0.00     0.000 C 
BRANCH  19  20
ATOM     20  C   UNL     1    -105.690 -84.891  34.424  1.00  0.00     0.000 C 
BRANCH  20  21
ATOM     21  C   UNL     1    -105.595 -86.410  34.653  1.00  0.00     0.000 C 
BRANCH  21  22
ATOM     22  C   UNL     1    -104.511 -86.775  35.684  1.00  0.00    -0.000 C 
BRANCH  22  23
ATOM     23  C   UNL     1    -105.012 -87.767  36.756  1.00  0.00    -0.000 C 
BRANCH  23  24
ATOM     24  C   UNL     1    -104.510 -87.458  38.180  1.00  0.00    -0.000 C 
BRANCH  24  25
ATOM     25  C   UNL     1    -104.705 -86.003  38.649  1.00  0.00    -0.000 C 
BRANCH  25  26
ATOM     26  C   UNL     1    -103.584 -85.454  39.553  1.00  0.00    -0.000 C 
BRANCH  26  27
ATOM     27  C   UNL     1    -102.755 -84.352  38.873  1.00  0.00    -0.000 C 
BRANCH  27  28
ATOM     28  C   UNL     1    -102.565 -83.111  39.764  1.00  0.00    -0.000 C 
BRANCH  28  29
ATOM     29  C   UNL     1    -103.825 -82.244  39.943  1.00  0.00    -0.003 C 
ATOM     30  C   UNL     1    -104.574 -82.001  38.631  1.00  0.00     0.004 C 
ENDBRANCH  28  29
ENDBRANCH  27  28
ENDBRANCH  26  27
ENDBRANCH  25  26
ENDBRANCH  24  25
ENDBRANCH  23  24
ENDBRANCH  22  23
ENDBRANCH  21  22
ENDBRANCH  20  21
ENDBRANCH  19  20
ENDBRANCH  18  19
ENDBRANCH  17  18
ENDBRANCH   1  17
TORSDOF 26
ENDMDL
MODEL 2
REMARK VINA RESULT:    -4.709      1.217      2.535
REMARK INTER + INTRA:         -16.879
REMARK INTER:                 -13.380
REMARK INTRA:                  -3.499
REMARK UNBOUND:                -5.012
REMARK SMILES CCCCCCCCCCCCCCCCCCCCCCCCCCCC(=O)[O-]
REMARK SMILES IDX 15 1 16 2 17 3 18 4 19 5 20 6 21 7 22 8 23 9 24 10 25 11
REMARK SMILES IDX 26 12 27 13 28 14 29 15 30 16 14 17 13 18 12 19 11 20 10 21
REMARK SMILES IDX 9 22 8 23 7 24 6 25 5 26 4 27 3 28 2 29 1 30
REMARK H PARENT
REMARK Flexibility Score: inf
ROOT
ATOM      1  C   UNL     1    -103.193 -84.554  35.483  1.00  0.00     0.000 C 
ENDROOT
BRANCH   1   2
ATOM      2  C   UNL     1    -102.036 -84.474  34.469  1.00  0.00     0.000 C 
BRANCH   2   3
ATOM      3  C   UNL     1    -102.294 -83.467  33.336  1.00  0.00     0.000 C 
BRANCH   3   4
ATOM      4  C   UNL     1    -101.135 -83.406  32.328  1.00  0.00     0.000 C 
BRANCH   4   5
ATOM      5  C   UNL     1    -101.530 -83.920  30.933  1.00  0.00     0.000 C 
BRANCH   5   6
ATOM      6  C   UNL     1    -103.009 -84.344  30.855  1.00  0.00     0.000 C 
BRANCH   6   7
ATOM      7  C   UNL     1    -103.630 -84.274  29.444  1.00  0.00     0.000 C 
BRANCH   7   8
ATOM      8  C   UNL     1    -105.057 -83.700  29.392  1.00  0.00     0.000 C 
BRANCH   8   9
ATOM      9  C   UNL     1    -105.127 -82.238  29.865  1.00  0.00     0.000 C 
BRANCH   9  10
ATOM     10  C   UNL     1    -105.925 -82.081  31.174  1.00  0.00     0.000 C 
BRANCH  10  11
ATOM     11  C   UNL     1    -106.848 -83.273  31.497  1.00  0.00     0.000 C 
BRANCH  11  12
ATOM     12  C   UNL     1    -108.329 -83.051  31.122  1.00  0.00     0.006 C 
BRANCH  12  13
ATOM     13  C   UNL     1    -108.749 -83.753  29.820  1.00  0.00     0.053 C 
BRANCH  13  14
ATOM     14  C   UNL     1    -109.103 -82.773  28.743  1.00  0.00     0.041 C 
ATOM     15  O   UNL     1    -108.610 -81.614  28.755  1.00  0.00    -0.550 OA
ATOM     16  O   UNL     1    -109.938 -83.155  27.701  1.00  0.00    -0.550 OA
ENDBRANCH  13  14
ENDBRANCH  12  13
ENDBRANCH  11  12
ENDBRANCH  10  11
ENDBRANCH   9  10
ENDBRANCH   8   9
ENDBRANCH   7   8
ENDBRANCH   6   7
ENDBRANCH   5   6
ENDBRANCH   4   5
ENDBRANCH   3   4
ENDBRANCH   2   3
ENDBRANCH   1   2
BRANCH   1  17
ATOM     17  C   UNL     1    -104.503 -83.866  35.050  1.00  0.00     0.000 C 
BRANCH  17  18
ATOM     18  C   UNL     1    -105.646 -84.807  34.620  1.00  0.00     0.000 C 
BRANCH  18  19
ATOM     19  C   UNL     1    -105.196 -86.245  34.286  1.00  0.00     0.000 C 
BRANCH  19  20
ATOM     20  C   UNL     1    -105.824 -87.306  35.208  1.00  0.00     0.000 C 
BRANCH  20  21
ATOM     21  C   UNL     1    -104.867 -87.737  36.334  1.00  0.00     0.000 C 
BRANCH  21  22
ATOM     22  C   UNL     1    -105.175 -87.021  37.662  1.00  0.00    -0.000 C 
BRANCH  22  23
ATOM     23  C   UNL     1    -103.939 -86.898  38.578  1.00  0.00    -0.000 C 
BRANCH  23  24
ATOM     24  C   UNL     1    -103.955 -85.657  39.493  1.00  0.00    -0.000 C 
BRANCH  24  25
ATOM     25  C   UNL     1    -105.204 -84.763  39.374  1.00  0.00    -0.000 C 
BRANCH  25  26
ATOM     26  C   UNL     1    -104.939 -83.251  39.511  1.00  0.00    -0.000 C 
BRANCH  26  27
ATOM     27  C   UNL     1    -103.582 -82.828  38.925  1.00  0.00    -0.000 C 
BRANCH  27  28
ATOM     28  C   UNL     1    -103.135 -81.433  39.398  1.00  0.00    -0.000 C 
BRANCH  28  29
ATOM     29  C   UNL     1    -104.271 -80.532  39.917  1.00  0.00    -0.003 C 
ATOM     30  C   UNL     1    -104.031 -80.029  41.342  1.00  0.00     0.004 C 
ENDBRANCH  28  29
ENDBRANCH  27  28
ENDBRANCH  26  27
ENDBRANCH  25  26
ENDBRANCH  24  25
ENDBRANCH  23  24
ENDBRANCH  22  23
ENDBRANCH  21  22
ENDBRANCH  20  21
ENDBRANCH  19  20
ENDBRANCH  18  19
ENDBRANCH  17  18
ENDBRANCH   1  17
TORSDOF 26
ENDMDL
MODEL 3
REMARK VINA RESULT:    -4.701      1.556      4.477
REMARK INTER + INTRA:         -16.858
REMARK INTER:                 -11.884
REMARK INTRA:                  -4.974
REMARK UNBOUND:                -5.012
REMARK SMILES CCCCCCCCCCCCCCCCCCCCCCCCCCCC(=O)[O-]
REMARK SMILES IDX 15 1 16 2 17 3 18 4 19 5 20 6 21 7 22 8 23 9 24 10 25 11
REMARK SMILES IDX 26 12 27 13 28 14 29 15 30 16 14 17 13 18 12 19 11 20 10 21
REMARK SMILES IDX 9 22 8 23 7 24 6 25 5 26 4 27 3 28 2 29 1 30
REMARK H PARENT
REMARK Flexibility Score: inf
ROOT
ATOM      1  C   UNL     1    -105.132 -86.321  34.425  1.00  0.00     0.000 C 
ENDROOT
BRANCH   1   2
ATOM      2  C   UNL     1    -105.346 -84.808  34.629  1.00  0.00     0.000 C 
BRANCH   2   3
ATOM      3  C   UNL     1    -104.708 -84.278  35.925  1.00  0.00     0.000 C 
BRANCH   3   4
ATOM      4  C   UNL     1    -103.372 -83.562  35.671  1.00  0.00     0.000 C 
BRANCH   4   5
ATOM      5  C   UNL     1    -102.175 -84.526  35.636  1.00  0.00     0.000 C 
BRANCH   5   6
ATOM      6  C   UNL     1    -101.461 -84.535  34.270  1.00  0.00     0.000 C 
BRANCH   6   7
ATOM      7  C   UNL     1    -102.015 -83.524  33.244  1.00  0.00     0.000 C 
BRANCH   7   8
ATOM      8  C   UNL     1    -102.616 -84.153  31.974  1.00  0.00     0.000 C 
BRANCH   8   9
ATOM      9  C   UNL     1    -104.085 -83.753  31.750  1.00  0.00     0.000 C 
BRANCH   9  10
ATOM     10  C   UNL     1    -104.259 -82.232  31.573  1.00  0.00     0.000 C 
BRANCH  10  11
ATOM     11  C   UNL     1    -104.668 -81.489  32.861  1.00  0.00     0.000 C 
BRANCH  11  12
ATOM     12  C   UNL     1    -106.123 -80.973  32.862  1.00  0.00     0.006 C 
BRANCH  12  13
ATOM     13  C   UNL     1    -107.168 -82.070  33.128  1.00  0.00     0.053 C 
BRANCH  13  14
ATOM     14  C   UNL     1    -107.953 -82.406  31.896  1.00  0.00     0.041 C 
ATOM     15  O   UNL     1    -108.255 -81.503  31.071  1.00  0.00    -0.550 OA
ATOM     16  O   UNL     1    -108.309 -83.723  31.636  1.00  0.00    -0.550 OA
ENDBRANCH  13  14
ENDBRANCH  12  13
ENDBRANCH  11  12
ENDBRANCH  10  11
ENDBRANCH   9  10
ENDBRANCH   8   9
ENDBRANCH   7   8
ENDBRANCH   6   7
ENDBRANCH   5   6
ENDBRANCH   4   5
ENDBRANCH   3   4
ENDBRANCH   2   3
ENDBRANCH   1   2
BRANCH   1  17
ATOM     17  C   UNL     1    -105.796 -87.232  35.476  1.00  0.00     0.000 C 
BRANCH  17  18
ATOM     18  C   UNL     1    -104.844 -87.882  36.500  1.00  0.00     0.000 C 
BRANCH  18  19
ATOM     19  C   UNL     1    -104.973 -87.324  37.933  1.00  0.00     0.000 C 
BRANCH  19  20
ATOM     20  C   UNL     1    -103.612 -87.058  38.603  1.00  0.00     0.000 C 
BRANCH  20  21
ATOM     21  C   UNL     1    -103.677 -85.892  39.607  1.00  0.00     0.000 C 
BRANCH  21  22
ATOM     22  C   UNL     1    -105.014 -85.134  39.530  1.00  0.00    -0.000 C 
BRANCH  22  23
ATOM     23  C   UNL     1    -104.835 -83.601  39.520  1.00  0.00    -0.000 C 
BRANCH  23  24
ATOM     24  C   UNL     1    -103.366 -83.140  39.441  1.00  0.00    -0.000 C 
BRANCH  24  25
ATOM     25  C   UNL     1    -103.103 -81.687  39.882  1.00  0.00    -0.000 C 
BRANCH  25  26
ATOM     26  C   UNL     1    -104.355 -80.905  40.326  1.00  0.00    -0.000 C 
BRANCH  26  27
ATOM     27  C   UNL     1    -104.658 -79.700  39.420  1.00  0.00    -0.000 C 
BRANCH  27  28
ATOM     28  C   UNL     1    -105.815 -79.967  38.439  1.00  0.00    -0.000 C 
BRANCH  28  29
ATOM     29  C   UNL     1    -105.428 -80.775  37.186  1.00  0.00    -0.003 C 
ATOM     30  C   UNL     1    -104.409 -80.054  36.301  1.00  0.00     0.004 C 
ENDBRANCH  28  29
ENDBRANCH  27  28
ENDBRANCH  26  27
ENDBRANCH  25  26
ENDBRANCH  24  25
ENDBRANCH  23  24
ENDBRANCH  22  23
ENDBRANCH  21  22
ENDBRANCH  20  21
ENDBRANCH  19  20
ENDBRANCH  18  19
ENDBRANCH  17  18
ENDBRANCH   1  17
TORSDOF 26
ENDMDL
MODEL 4
REMARK VINA RESULT:    -4.698      1.652      4.733
REMARK INTER + INTRA:         -16.852
REMARK INTER:                 -12.096
REMARK INTRA:                  -4.755
REMARK UNBOUND:                -5.012
REMARK SMILES CCCCCCCCCCCCCCCCCCCCCCCCCCCC(=O)[O-]
REMARK SMILES IDX 15 1 16 2 17 3 18 4 19 5 20 6 21 7 22 8 23 9 24 10 25 11
REMARK SMILES IDX 26 12 27 13 28 14 29 15 30 16 14 17 13 18 12 19 11 20 10 21
REMARK SMILES IDX 9 22 8 23 7 24 6 25 5 26 4 27 3 28 2 29 1 30
REMARK H PARENT
REMARK Flexibility Score: inf
ROOT
ATOM      1  C   UNL     1    -104.839 -87.831  36.502  1.00  0.00     0.000 C 
ENDROOT
BRANCH   1   2
ATOM      2  C   UNL     1    -105.710 -87.039  35.508  1.00  0.00     0.000 C 
BRANCH   2   3
ATOM      3  C   UNL     1    -104.913 -85.998  34.703  1.00  0.00     0.000 C 
BRANCH   3   4
ATOM      4  C   UNL     1    -104.341 -84.881  35.592  1.00  0.00     0.000 C 
BRANCH   4   5
ATOM      5  C   UNL     1    -102.811 -84.763  35.490  1.00  0.00     0.000 C 
BRANCH   5   6
ATOM      6  C   UNL     1    -102.367 -83.666  34.504  1.00  0.00     0.000 C 
BRANCH   6   7
ATOM      7  C   UNL     1    -102.136 -84.152  33.057  1.00  0.00     0.000 C 
BRANCH   7   8
ATOM      8  C   UNL     1    -102.967 -83.420  31.988  1.00  0.00     0.000 C 
BRANCH   8   9
ATOM      9  C   UNL     1    -104.110 -82.586  32.592  1.00  0.00     0.000 C 
BRANCH   9  10
ATOM     10  C   UNL     1    -105.485 -83.263  32.423  1.00  0.00     0.000 C 
BRANCH  10  11
ATOM     11  C   UNL     1    -106.557 -82.770  33.415  1.00  0.00     0.000 C 
BRANCH  11  12
ATOM     12  C   UNL     1    -107.967 -82.617  32.804  1.00  0.00     0.006 C 
BRANCH  12  13
ATOM     13  C   UNL     1    -108.293 -83.671  31.732  1.00  0.00     0.053 C 
BRANCH  13  14
ATOM     14  C   UNL     1    -108.521 -83.050  30.387  1.00  0.00     0.041 C 
ATOM     15  O   UNL     1    -108.126 -81.876  30.156  1.00  0.00    -0.550 OA
ATOM     16  O   UNL     1    -109.126 -83.784  29.375  1.00  0.00    -0.550 OA
ENDBRANCH  13  14
ENDBRANCH  12  13
ENDBRANCH  11  12
ENDBRANCH  10  11
ENDBRANCH   9  10
ENDBRANCH   8   9
ENDBRANCH   7   8
ENDBRANCH   6   7
ENDBRANCH   5   6
ENDBRANCH   4   5
ENDBRANCH   3   4
ENDBRANCH   2   3
ENDBRANCH   1   2
BRANCH   1  17
ATOM     17  C   UNL     1    -104.951 -87.395  37.976  1.00  0.00     0.000 C 
BRANCH  17  18
ATOM     18  C   UNL     1    -103.619 -87.092  38.691  1.00  0.00     0.000 C 
BRANCH  18  19
ATOM     19  C   UNL     1    -103.635 -85.812  39.553  1.00  0.00     0.000 C 
BRANCH  19  20
ATOM     20  C   UNL     1    -104.982 -85.066  39.504  1.00  0.00     0.000 C 
BRANCH  20  21
ATOM     21  C   UNL     1    -104.821 -83.605  39.047  1.00  0.00     0.000 C 
BRANCH  21  22
ATOM     22  C   UNL     1    -103.345 -83.171  39.002  1.00  0.00    -0.000 C 
BRANCH  22  23
ATOM     23  C   UNL     1    -103.091 -81.829  39.721  1.00  0.00    -0.000 C 
BRANCH  23  24
ATOM     24  C   UNL     1    -104.377 -81.087  40.139  1.00  0.00    -0.000 C 
BRANCH  24  25
ATOM     25  C   UNL     1    -104.388 -79.572  39.856  1.00  0.00    -0.000 C 
BRANCH  25  26
ATOM     26  C   UNL     1    -105.489 -79.098  38.889  1.00  0.00    -0.000 C 
BRANCH  26  27
ATOM     27  C   UNL     1    -106.253 -80.262  38.236  1.00  0.00    -0.000 C 
BRANCH  27  28
ATOM     28  C   UNL     1    -106.544 -80.024  36.743  1.00  0.00    -0.000 C 
BRANCH  28  29
ATOM     29  C   UNL     1    -105.298 -79.992  35.838  1.00  0.00    -0.003 C 
ATOM     30  C   UNL     1    -104.382 -81.201  36.038  1.00  0.00     0.004 C 
ENDBRANCH  28  29
ENDBRANCH  27  28
ENDBRANCH  26  27
ENDBRANCH  25  26
ENDBRANCH  24  25
ENDBRANCH  23  24
ENDBRANCH  22  23
ENDBRANCH  21  22
ENDBRANCH  20  21
ENDBRANCH  19  20
ENDBRANCH  18  19
ENDBRANCH  17  18
ENDBRANCH   1  17
TORSDOF 26
ENDMDL
MODEL 5
REMARK VINA RESULT:    -4.673      1.860      5.848
REMARK INTER + INTRA:         -16.787
REMARK INTER:                 -11.713
REMARK INTRA:                  -5.073
REMARK UNBOUND:                -5.012
REMARK SMILES CCCCCCCCCCCCCCCCCCCCCCCCCCCC(=O)[O-]
REMARK SMILES IDX 15 1 16 2 17 3 18 4 19 5 20 6 21 7 22 8 23 9 24 10 25 11
REMARK SMILES IDX 26 12 27 13 28 14 29 15 30 16 14 17 13 18 12 19 11 20 10 21
REMARK SMILES IDX 9 22 8 23 7 24 6 25 5 26 4 27 3 28 2 29 1 30
REMARK H PARENT
REMARK Flexibility Score: inf
ROOT
ATOM      1  C   UNL     1    -104.788 -83.213  39.401  1.00  0.00     0.000 C 
ENDROOT
BRANCH   1   2
ATOM      2  C   UNL     1    -103.257 -83.045  39.467  1.00  0.00     0.000 C 
BRANCH   2   3
ATOM      3  C   UNL     1    -102.818 -81.582  39.645  1.00  0.00     0.000 C 
BRANCH   3   4
ATOM      4  C   UNL     1    -103.564 -80.881  40.792  1.00  0.00     0.000 C 
BRANCH   4   5
ATOM      5  C   UNL     1    -103.850 -79.398  40.499  1.00  0.00     0.000 C 
BRANCH   5   6
ATOM      6  C   UNL     1    -104.284 -79.156  39.041  1.00  0.00     0.000 C 
BRANCH   6   7
ATOM      7  C   UNL     1    -105.765 -79.473  38.744  1.00  0.00     0.000 C 
BRANCH   7   8
ATOM      8  C   UNL     1    -106.005 -80.332  37.490  1.00  0.00     0.000 C 
BRANCH   8   9
ATOM      9  C   UNL     1    -104.785 -80.373  36.555  1.00  0.00     0.000 C 
BRANCH   9  10
ATOM     10  C   UNL     1    -105.177 -80.646  35.089  1.00  0.00     0.000 C 
BRANCH  10  11
ATOM     11  C   UNL     1    -106.676 -80.445  34.789  1.00  0.00     0.000 C 
BRANCH  11  12
ATOM     12  C   UNL     1    -107.153 -81.095  33.472  1.00  0.00     0.006 C 
BRANCH  12  13
ATOM     13  C   UNL     1    -106.674 -82.545  33.289  1.00  0.00     0.053 C 
BRANCH  13  14
ATOM     14  C   UNL     1    -107.551 -83.311  32.347  1.00  0.00     0.041 C 
ATOM     15  O   UNL     1    -108.546 -83.948  32.785  1.00  0.00    -0.550 OA
ATOM     16  O   UNL     1    -107.299 -83.282  30.982  1.00  0.00    -0.550 OA
ENDBRANCH  13  14
ENDBRANCH  12  13
ENDBRANCH  11  12
ENDBRANCH  10  11
ENDBRANCH   9  10
ENDBRANCH   8   9
ENDBRANCH   7   8
ENDBRANCH   6   7
ENDBRANCH   5   6
ENDBRANCH   4   5
ENDBRANCH   3   4
ENDBRANCH   2   3
ENDBRANCH   1   2
BRANCH   1  17
ATOM     17  C   UNL     1    -105.301 -84.663  39.500  1.00  0.00     0.000 C 
BRANCH  17  18
ATOM     18  C   UNL     1    -104.243 -85.729  39.850  1.00  0.00     0.000 C 
BRANCH  18  19
ATOM     19  C   UNL     1    -103.750 -86.557  38.645  1.00  0.00     0.000 C 
BRANCH  19  20
ATOM     20  C   UNL     1    -104.880 -87.327  37.936  1.00  0.00     0.000 C 
BRANCH  20  21
ATOM     21  C   UNL     1    -104.622 -87.480  36.427  1.00  0.00     0.000 C 
BRANCH  21  22
ATOM     22  C   UNL     1    -105.628 -86.677  35.582  1.00  0.00    -0.000 C 
BRANCH  22  23
ATOM     23  C   UNL     1    -104.997 -85.435  34.918  1.00  0.00    -0.000 C 
BRANCH  23  24
ATOM     24  C   UNL     1    -104.718 -84.274  35.893  1.00  0.00    -0.000 C 
BRANCH  24  25
ATOM     25  C   UNL     1    -103.304 -83.669  35.813  1.00  0.00    -0.000 C 
BRANCH  25  26
ATOM     26  C   UNL     1    -102.197 -84.652  35.382  1.00  0.00    -0.000 C 
BRANCH  26  27
ATOM     27  C   UNL     1    -101.664 -84.366  33.968  1.00  0.00    -0.000 C 
BRANCH  27  28
ATOM     28  C   UNL     1    -102.158 -83.022  33.403  1.00  0.00    -0.000 C 
BRANCH  28  29
ATOM     29  C   UNL     1    -102.794 -83.104  32.002  1.00  0.00    -0.003 C 
ATOM     30  C   UNL     1    -103.543 -84.416  31.762  1.00  0.00     0.004 C 
ENDBRANCH  28  29
ENDBRANCH  27  28
ENDBRANCH  26  27
ENDBRANCH  25  26
ENDBRANCH  24  25
ENDBRANCH  23  24
ENDBRANCH  22  23
ENDBRANCH  21  22
ENDBRANCH  20  21
ENDBRANCH  19  20
ENDBRANCH  18  19
ENDBRANCH  17  18
ENDBRANCH   1  17
TORSDOF 26
ENDMDL
MODEL 6
REMARK VINA RESULT:    -4.663      1.402      2.970
REMARK INTER + INTRA:         -16.763
REMARK INTER:                 -12.352
REMARK INTRA:                  -4.411
REMARK UNBOUND:                -5.012
REMARK SMILES CCCCCCCCCCCCCCCCCCCCCCCCCCCC(=O)[O-]
REMARK SMILES IDX 15 1 16 2 17 3 18 4 19 5 20 6 21 7 22 8 23 9 24 10 25 11
REMARK SMILES IDX 26 12 27 13 28 14 29 15 30 16 14 17 13 18 12 19 11 20 10 21
REMARK SMILES IDX 9 22 8 23 7 24 6 25 5 26 4 27 3 28 2 29 1 30
REMARK H PARENT
REMARK Flexibility Score: inf
ROOT
ATOM      1  C   UNL     1    -104.376 -82.314  35.992  1.00  0.00     0.000 C 
ENDROOT
BRANCH   1   2
ATOM      2  C   UNL     1    -102.876 -82.610  35.798  1.00  0.00     0.000 C 
BRANCH   2   3
ATOM      3  C   UNL     1    -102.564 -84.114  35.721  1.00  0.00     0.000 C 
BRANCH   3   4
ATOM      4  C   UNL     1    -101.908 -84.510  34.388  1.00  0.00     0.000 C 
BRANCH   4   5
ATOM      5  C   UNL     1    -101.897 -83.362  33.364  1.00  0.00     0.000 C 
BRANCH   5   6
ATOM      6  C   UNL     1    -101.069 -83.696  32.109  1.00  0.00     0.000 C 
BRANCH   6   7
ATOM      7  C   UNL     1    -101.815 -83.509  30.771  1.00  0.00     0.000 C 
BRANCH   7   8
ATOM      8  C   UNL     1    -103.089 -84.358  30.616  1.00  0.00     0.000 C 
BRANCH   8   9
ATOM      9  C   UNL     1    -103.953 -83.921  29.420  1.00  0.00     0.000 C 
BRANCH   9  10
ATOM     10  C   UNL     1    -105.462 -84.062  29.703  1.00  0.00     0.000 C 
BRANCH  10  11
ATOM     11  C   UNL     1    -106.271 -82.771  29.466  1.00  0.00     0.000 C 
BRANCH  11  12
ATOM     12  C   UNL     1    -107.615 -82.716  30.224  1.00  0.00     0.006 C 
BRANCH  12  13
ATOM     13  C   UNL     1    -108.753 -83.476  29.522  1.00  0.00     0.053 C 
BRANCH  13  14
ATOM     14  C   UNL     1    -109.423 -82.639  28.475  1.00  0.00     0.041 C 
ATOM     15  O   UNL     1    -109.932 -83.184  27.459  1.00  0.00    -0.550 OA
ATOM     16  O   UNL     1    -109.528 -81.265  28.644  1.00  0.00    -0.550 OA
ENDBRANCH  13  14
ENDBRANCH  12  13
ENDBRANCH  11  12
ENDBRANCH  10  11
ENDBRANCH   9  10
ENDBRANCH   8   9
ENDBRANCH   7   8
ENDBRANCH   6   7
ENDBRANCH   5   6
ENDBRANCH   4   5
ENDBRANCH   3   4
ENDBRANCH   2   3
ENDBRANCH   1   2
BRANCH   1  17
ATOM     17  C   UNL     1    -105.028 -81.445  34.899  1.00  0.00     0.000 C 
BRANCH  17  18
ATOM     18  C   UNL     1    -105.101 -82.075  33.494  1.00  0.00     0.000 C 
BRANCH  18  19
ATOM     19  C   UNL     1    -106.122 -83.224  33.363  1.00  0.00     0.000 C 
BRANCH  19  20
ATOM     20  C   UNL     1    -105.471 -84.619  33.385  1.00  0.00     0.000 C 
BRANCH  20  21
ATOM     21  C   UNL     1    -105.893 -85.439  34.618  1.00  0.00     0.000 C 
BRANCH  21  22
ATOM     22  C   UNL     1    -105.012 -86.685  34.815  1.00  0.00    -0.000 C 
BRANCH  22  23
ATOM     23  C   UNL     1    -105.374 -87.481  36.087  1.00  0.00    -0.000 C 
BRANCH  23  24
ATOM     24  C   UNL     1    -105.032 -86.754  37.402  1.00  0.00    -0.000 C 
BRANCH  24  25
ATOM     25  C   UNL     1    -103.987 -87.454  38.293  1.00  0.00    -0.000 C 
BRANCH  25  26
ATOM     26  C   UNL     1    -103.489 -86.621  39.490  1.00  0.00    -0.000 C 
BRANCH  26  27
ATOM     27  C   UNL     1    -102.508 -85.511  39.078  1.00  0.00    -0.000 C 
BRANCH  27  28
ATOM     28  C   UNL     1    -102.854 -84.145  39.700  1.00  0.00    -0.000 C 
BRANCH  28  29
ATOM     29  C   UNL     1    -104.279 -83.642  39.402  1.00  0.00    -0.003 C 
ATOM     30  C   UNL     1    -104.482 -82.171  39.770  1.00  0.00     0.004 C 
ENDBRANCH  28  29
ENDBRANCH  27  28
ENDBRANCH  26  27
ENDBRANCH  25  26
ENDBRANCH  24  25
ENDBRANCH  23  24
ENDBRANCH  22  23
ENDBRANCH  21  22
ENDBRANCH  20  21
ENDBRANCH  19  20
ENDBRANCH  18  19
ENDBRANCH  17  18
ENDBRANCH   1  17
TORSDOF 26
ENDMDL
MODEL 7
REMARK VINA RESULT:    -4.630      1.218      5.086
REMARK INTER + INTRA:         -16.679
REMARK INTER:                 -11.985
REMARK INTRA:                  -4.694
REMARK UNBOUND:                -5.012
REMARK SMILES CCCCCCCCCCCCCCCCCCCCCCCCCCCC(=O)[O-]
REMARK SMILES IDX 15 1 16 2 17 3 18 4 19 5 20 6 21 7 22 8 23 9 24 10 25 11
REMARK SMILES IDX 26 12 27 13 28 14 29 15 30 16 14 17 13 18 12 19 11 20 10 21
REMARK SMILES IDX 9 22 8 23 7 24 6 25 5 26 4 27 3 28 2 29 1 30
REMARK H PARENT
REMARK Flexibility Score: inf
ROOT
ATOM      1  C   UNL     1    -104.876 -83.633  39.460  1.00  0.00     0.000 C 
ENDROOT
BRANCH   1   2
ATOM      2  C   UNL     1    -103.420 -83.212  39.738  1.00  0.00     0.000 C 
BRANCH   2   3
ATOM      3  C   UNL     1    -103.222 -81.686  39.731  1.00  0.00     0.000 C 
BRANCH   3   4
ATOM      4  C   UNL     1    -104.543 -80.923  39.543  1.00  0.00     0.000 C 
BRANCH   4   5
ATOM      5  C   UNL     1    -104.567 -80.081  38.256  1.00  0.00     0.000 C 
BRANCH   5   6
ATOM      6  C   UNL     1    -104.214 -80.905  37.004  1.00  0.00     0.000 C 
BRANCH   6   7
ATOM      7  C   UNL     1    -105.333 -80.985  35.944  1.00  0.00     0.000 C 
BRANCH   7   8
ATOM      8  C   UNL     1    -104.958 -80.422  34.562  1.00  0.00     0.000 C 
BRANCH   8   9
ATOM      9  C   UNL     1    -105.349 -81.363  33.410  1.00  0.00     0.000 C 
BRANCH   9  10
ATOM     10  C   UNL     1    -106.868 -81.618  33.349  1.00  0.00     0.000 C 
BRANCH  10  11
ATOM     11  C   UNL     1    -107.253 -83.098  33.153  1.00  0.00     0.000 C 
BRANCH  11  12
ATOM     12  C   UNL     1    -108.022 -83.387  31.846  1.00  0.00     0.006 C 
BRANCH  12  13
ATOM     13  C   UNL     1    -107.704 -82.400  30.710  1.00  0.00     0.053 C 
BRANCH  13  14
ATOM     14  C   UNL     1    -108.315 -82.826  29.410  1.00  0.00     0.041 C 
ATOM     15  O   UNL     1    -107.923 -82.314  28.328  1.00  0.00    -0.550 OA
ATOM     16  O   UNL     1    -109.284 -83.821  29.389  1.00  0.00    -0.550 OA
ENDBRANCH  13  14
ENDBRANCH  12  13
ENDBRANCH  11  12
ENDBRANCH  10  11
ENDBRANCH   9  10
ENDBRANCH   8   9
ENDBRANCH   7   8
ENDBRANCH   6   7
ENDBRANCH   5   6
ENDBRANCH   4   5
ENDBRANCH   3   4
ENDBRANCH   2   3
ENDBRANCH   1   2
BRANCH   1  17
ATOM     17  C   UNL     1    -105.091 -85.133  39.181  1.00  0.00     0.000 C 
BRANCH  17  18
ATOM     18  C   UNL     1    -103.847 -86.032  39.339  1.00  0.00     0.000 C 
BRANCH  18  19
ATOM     19  C   UNL     1    -103.839 -87.276  38.426  1.00  0.00     0.000 C 
BRANCH  19  20
ATOM     20  C   UNL     1    -105.148 -87.454  37.634  1.00  0.00     0.000 C 
BRANCH  20  21
ATOM     21  C   UNL     1    -104.891 -87.782  36.152  1.00  0.00     0.000 C 
BRANCH  21  22
ATOM     22  C   UNL     1    -105.803 -86.971  35.213  1.00  0.00    -0.000 C 
BRANCH  22  23
ATOM     23  C   UNL     1    -105.051 -85.845  34.471  1.00  0.00    -0.000 C 
BRANCH  23  24
ATOM     24  C   UNL     1    -104.795 -84.589  35.328  1.00  0.00    -0.000 C 
BRANCH  24  25
ATOM     25  C   UNL     1    -103.359 -84.436  35.865  1.00  0.00    -0.000 C 
BRANCH  25  26
ATOM     26  C   UNL     1    -102.455 -83.493  35.047  1.00  0.00    -0.000 C 
BRANCH  26  27
ATOM     27  C   UNL     1    -101.769 -84.201  33.866  1.00  0.00    -0.000 C 
BRANCH  27  28
ATOM     28  C   UNL     1    -102.027 -83.502  32.518  1.00  0.00    -0.000 C 
BRANCH  28  29
ATOM     29  C   UNL     1    -102.725 -84.376  31.459  1.00  0.00    -0.003 C 
ATOM     30  C   UNL     1    -104.191 -83.997  31.243  1.00  0.00     0.004 C 
ENDBRANCH  28  29
ENDBRANCH  27  28
ENDBRANCH  26  27
ENDBRANCH  25  26
ENDBRANCH  24  25
ENDBRANCH  23  24
ENDBRANCH  22  23
ENDBRANCH  21  22
ENDBRANCH  20  21
ENDBRANCH  19  20
ENDBRANCH  18  19
ENDBRANCH  17  18
ENDBRANCH   1  17
TORSDOF 26
ENDMDL
MODEL 8
REMARK VINA RESULT:    -4.624      1.521      3.676
REMARK INTER + INTRA:         -16.664
REMARK INTER:                 -12.002
REMARK INTRA:                  -4.662
REMARK UNBOUND:                -5.012
REMARK SMILES CCCCCCCCCCCCCCCCCCCCCCCCCCCC(=O)[O-]
REMARK SMILES IDX 15 1 16 2 17 3 18 4 19 5 20 6 21 7 22 8 23 9 24 10 25 11
REMARK SMILES IDX 26 12 27 13 28 14 29 15 30 16 14 17 13 18 12 19 11 20 10 21
REMARK SMILES IDX 9 22 8 23 7 24 6 25 5 26 4 27 3 28 2 29 1 30
REMARK H PARENT
REMARK Flexibility Score: inf
ROOT
ATOM      1  C   UNL     1    -105.379 -82.268  34.671  1.00  0.00     0.000 C 
ENDROOT
BRANCH   1   2
ATOM      2  C   UNL     1    -104.197 -81.290  34.526  1.00  0.00     0.000 C 
BRANCH   2   3
ATOM      3  C   UNL     1    -102.923 -81.773  35.239  1.00  0.00     0.000 C 
BRANCH   3   4
ATOM      4  C   UNL     1    -103.169 -83.024  36.099  1.00  0.00     0.000 C 
BRANCH   4   5
ATOM      5  C   UNL     1    -102.253 -84.199  35.717  1.00  0.00     0.000 C 
BRANCH   5   6
ATOM      6  C   UNL     1    -102.276 -84.501  34.207  1.00  0.00     0.000 C 
BRANCH   6   7
ATOM      7  C   UNL     1    -100.990 -84.110  33.448  1.00  0.00     0.000 C 
BRANCH   7   8
ATOM      8  C   UNL     1    -101.219 -83.525  32.044  1.00  0.00     0.000 C 
BRANCH   8   9
ATOM      9  C   UNL     1    -102.711 -83.376  31.698  1.00  0.00     0.000 C 
BRANCH   9  10
ATOM     10  C   UNL     1    -103.187 -84.434  30.682  1.00  0.00     0.000 C 
BRANCH  10  11
ATOM     11  C   UNL     1    -103.806 -83.843  29.399  1.00  0.00     0.000 C 
BRANCH  11  12
ATOM     12  C   UNL     1    -105.345 -83.946  29.331  1.00  0.00     0.006 C 
BRANCH  12  13
ATOM     13  C   UNL     1    -106.052 -82.584  29.235  1.00  0.00     0.053 C 
BRANCH  13  14
ATOM     14  C   UNL     1    -107.513 -82.687  29.556  1.00  0.00     0.041 C 
ATOM     15  O   UNL     1    -107.950 -83.672  30.208  1.00  0.00    -0.550 OA
ATOM     16  O   UNL     1    -108.382 -81.673  29.176  1.00  0.00    -0.550 OA
ENDBRANCH  13  14
ENDBRANCH  12  13
ENDBRANCH  11  12
ENDBRANCH  10  11
ENDBRANCH   9  10
ENDBRANCH   8   9
ENDBRANCH   7   8
ENDBRANCH   6   7
ENDBRANCH   5   6
ENDBRANCH   4   5
ENDBRANCH   3   4
ENDBRANCH   2   3
ENDBRANCH   1   2
BRANCH   1  17
ATOM     17  C   UNL     1    -105.911 -82.865  33.354  1.00  0.00     0.000 C 
BRANCH  17  18
ATOM     18  C   UNL     1    -105.920 -84.405  33.269  1.00  0.00     0.000 C 
BRANCH  18  19
ATOM     19  C   UNL     1    -105.878 -85.118  34.636  1.00  0.00     0.000 C 
BRANCH  19  20
ATOM     20  C   UNL     1    -105.119 -86.458  34.597  1.00  0.00     0.000 C 
BRANCH  20  21
ATOM     21  C   UNL     1    -105.060 -87.134  35.979  1.00  0.00     0.000 C 
BRANCH  21  22
ATOM     22  C   UNL     1    -105.117 -86.111  37.128  1.00  0.00    -0.000 C 
BRANCH  22  23
ATOM     23  C   UNL     1    -104.099 -86.409  38.248  1.00  0.00    -0.000 C 
BRANCH  23  24
ATOM     24  C   UNL     1    -104.338 -85.610  39.545  1.00  0.00    -0.000 C 
BRANCH  24  25
ATOM     25  C   UNL     1    -105.458 -84.555  39.474  1.00  0.00    -0.000 C 
BRANCH  25  26
ATOM     26  C   UNL     1    -104.973 -83.100  39.318  1.00  0.00    -0.000 C 
BRANCH  26  27
ATOM     27  C   UNL     1    -103.530 -82.896  39.807  1.00  0.00    -0.000 C 
BRANCH  27  28
ATOM     28  C   UNL     1    -103.065 -81.431  39.707  1.00  0.00    -0.000 C 
BRANCH  28  29
ATOM     29  C   UNL     1    -103.377 -80.568  40.943  1.00  0.00    -0.003 C 
ATOM     30  C   UNL     1    -104.224 -79.337  40.614  1.00  0.00     0.004 C 
ENDBRANCH  28  29
ENDBRANCH  27  28
ENDBRANCH  26  27
ENDBRANCH  25  26
ENDBRANCH  24  25
ENDBRANCH  23  24
ENDBRANCH  22  23
ENDBRANCH  21  22
ENDBRANCH  20  21
ENDBRANCH  19  20
ENDBRANCH  18  19
ENDBRANCH  17  18
ENDBRANCH   1  17
TORSDOF 26
ENDMDL
MODEL 9
REMARK VINA RESULT:    -4.597      2.071      3.807
REMARK INTER + INTRA:         -16.596
REMARK INTER:                 -11.908
REMARK INTRA:                  -4.687
REMARK UNBOUND:                -5.012
REMARK SMILES CCCCCCCCCCCCCCCCCCCCCCCCCCCC(=O)[O-]
REMARK SMILES IDX 15 1 16 2 17 3 18 4 19 5 20 6 21 7 22 8 23 9 24 10 25 11
REMARK SMILES IDX 26 12 27 13 28 14 29 15 30 16 14 17 13 18 12 19 11 20 10 21
REMARK SMILES IDX 9 22 8 23 7 24 6 25 5 26 4 27 3 28 2 29 1 30
REMARK H PARENT
REMARK Flexibility Score: inf
ROOT
ATOM      1  C   UNL     1    -104.338 -85.270  33.677  1.00  0.00     0.000 C 
ENDROOT
BRANCH   1   2
ATOM      2  C   UNL     1    -103.120 -84.529  34.260  1.00  0.00     0.000 C 
BRANCH   2   3
ATOM      3  C   UNL     1    -103.344 -84.040  35.701  1.00  0.00     0.000 C 
BRANCH   3   4
ATOM      4  C   UNL     1    -103.363 -82.506  35.804  1.00  0.00     0.000 C 
BRANCH   4   5
ATOM      5  C   UNL     1    -103.343 -81.816  34.430  1.00  0.00     0.000 C 
BRANCH   5   6
ATOM      6  C   UNL     1    -104.632 -81.019  34.149  1.00  0.00     0.000 C 
BRANCH   6   7
ATOM      7  C   UNL     1    -105.939 -81.821  34.317  1.00  0.00     0.000 C 
BRANCH   7   8
ATOM      8  C   UNL     1    -107.080 -81.407  33.371  1.00  0.00     0.000 C 
BRANCH   8   9
ATOM      9  C   UNL     1    -108.130 -82.516  33.184  1.00  0.00     0.000 C 
BRANCH   9  10
ATOM     10  C   UNL     1    -107.891 -83.341  31.904  1.00  0.00     0.000 C 
BRANCH  10  11
ATOM     11  C   UNL     1    -107.139 -82.581  30.794  1.00  0.00     0.000 C 
BRANCH  11  12
ATOM     12  C   UNL     1    -105.899 -83.320  30.245  1.00  0.00     0.006 C 
BRANCH  12  13
ATOM     13  C   UNL     1    -104.571 -82.604  30.544  1.00  0.00     0.053 C 
BRANCH  13  14
ATOM     14  C   UNL     1    -103.389 -83.406  30.091  1.00  0.00     0.041 C 
ATOM     15  O   UNL     1    -103.175 -84.549  30.576  1.00  0.00    -0.550 OA
ATOM     16  O   UNL     1    -102.550 -82.911  29.100  1.00  0.00    -0.550 OA
ENDBRANCH  13  14
ENDBRANCH  12  13
ENDBRANCH  11  12
ENDBRANCH  10  11
ENDBRANCH   9  10
ENDBRANCH   8   9
ENDBRANCH   7   8
ENDBRANCH   6   7
ENDBRANCH   5   6
ENDBRANCH   4   5
ENDBRANCH   3   4
ENDBRANCH   2   3
ENDBRANCH   1   2
BRANCH   1  17
ATOM     17  C   UNL     1    -105.511 -85.489  34.652  1.00  0.00     0.000 C 
BRANCH  17  18
ATOM     18  C   UNL     1    -105.875 -86.958  34.948  1.00  0.00     0.000 C 
BRANCH  18  19
ATOM     19  C   UNL     1    -105.118 -87.574  36.143  1.00  0.00     0.000 C 
BRANCH  19  20
ATOM     20  C   UNL     1    -105.113 -86.668  37.388  1.00  0.00     0.000 C 
BRANCH  20  21
ATOM     21  C   UNL     1    -103.953 -87.000  38.344  1.00  0.00     0.000 C 
BRANCH  21  22
ATOM     22  C   UNL     1    -103.871 -86.013  39.522  1.00  0.00    -0.000 C 
BRANCH  22  23
ATOM     23  C   UNL     1    -105.093 -85.074  39.604  1.00  0.00    -0.000 C 
BRANCH  23  24
ATOM     24  C   UNL     1    -104.754 -83.582  39.413  1.00  0.00    -0.000 C 
BRANCH  24  25
ATOM     25  C   UNL     1    -103.252 -83.240  39.417  1.00  0.00    -0.000 C 
BRANCH  25  26
ATOM     26  C   UNL     1    -102.874 -81.976  40.214  1.00  0.00    -0.000 C 
BRANCH  26  27
ATOM     27  C   UNL     1    -104.058 -81.012  40.402  1.00  0.00    -0.000 C 
BRANCH  27  28
ATOM     28  C   UNL     1    -103.938 -79.743  39.538  1.00  0.00    -0.000 C 
BRANCH  28  29
ATOM     29  C   UNL     1    -104.475 -79.885  38.102  1.00  0.00    -0.003 C 
ATOM     30  C   UNL     1    -105.914 -80.402  38.050  1.00  0.00     0.004 C 
ENDBRANCH  28  29
ENDBRANCH  27  28
ENDBRANCH  26  27
ENDBRANCH  25  26
ENDBRANCH  24  25
ENDBRANCH  23  24
ENDBRANCH  22  23
ENDBRANCH  21  22
ENDBRANCH  20  21
ENDBRANCH  19  20
ENDBRANCH  18  19
ENDBRANCH  17  18
ENDBRANCH   1  17
TORSDOF 26
ENDMDL
