MODEL 1
REMARK VINA RESULT:    -5.104      0.000      0.000
REMARK INTER + INTRA:          -5.104
REMARK INTER:                  -5.104
REMARK INTRA:                   0.000
REMARK UNBOUND:                 0.000
REMARK SMILES CC(C)=C1CC[C@H](C)CC1=O
REMARK SMILES IDX 8 1 7 2 6 3 5 4 4 5 2 6 1 7 3 8 10 9 11 10 9 11
REMARK H PARENT
REMARK Flexibility Score: inf
ROOT
ATOM      1  C   UNL     1      54.432  30.904  32.071  1.00  0.00     0.008 C 
ATOM      2  C   UNL     1      52.951  31.278  32.196  1.00  0.00    -0.006 C 
ATOM      3  C   UNL     1      52.794  32.785  32.459  1.00  0.00     0.008 C 
ATOM      4  C   UNL     1      51.324  33.160  32.689  1.00  0.00     0.039 C 
ATOM      5  C   UNL     1      50.414  32.664  31.573  1.00  0.00    -0.006 C 
ATOM      6  C   UNL     1      49.294  33.356  31.211  1.00  0.00    -0.070 C 
ATOM      7  C   UNL     1      48.901  34.635  31.915  1.00  0.00     0.039 C 
ATOM      8  C   UNL     1      48.413  32.903  30.068  1.00  0.00     0.039 C 
ATOM      9  C   UNL     1      50.756  31.331  30.992  1.00  0.00     0.159 C 
ATOM     10  O   UNL     1      49.861  30.558  30.558  1.00  0.00    -0.295 OA
ATOM     11  C   UNL     1      52.188  30.886  30.922  1.00  0.00     0.084 C 
ENDROOT
TORSDOF 0
ENDMDL
MODEL 2
REMARK VINA RESULT:    -5.054      2.159      3.319
REMARK INTER + INTRA:          -5.054
REMARK INTER:                  -5.054
REMARK INTRA:                   0.000
REMARK UNBOUND:                 0.000
REMARK SMILES CC(C)=C1CC[C@H](C)CC1=O
REMARK SMILES IDX 8 1 7 2 6 3 5 4 4 5 2 6 1 7 3 8 10 9 11 10 9 11
REMARK H PARENT
REMARK Flexibility Score: inf
ROOT
ATOM      1  C   UNL     1      57.750  31.678  31.838  1.00  0.00     0.008 C 
ATOM      2  C   UNL     1      56.279  31.981  32.141  1.00  0.00    -0.006 C 
ATOM      3  C   UNL     1      55.765  33.119  31.244  1.00  0.00     0.008 C 
ATOM      4  C   UNL     1      54.325  33.505  31.605  1.00  0.00     0.039 C 
ATOM      5  C   UNL     1      53.386  32.306  31.623  1.00  0.00    -0.006 C 
ATOM      6  C   UNL     1      52.069  32.430  31.284  1.00  0.00    -0.070 C 
ATOM      7  C   UNL     1      51.483  33.768  30.893  1.00  0.00     0.039 C 
ATOM      8  C   UNL     1      51.141  31.237  31.244  1.00  0.00     0.039 C 
ATOM      9  C   UNL     1      53.963  31.030  32.142  1.00  0.00     0.159 C 
ATOM     10  O   UNL     1      53.251  30.193  32.759  1.00  0.00    -0.295 OA
ATOM     11  C   UNL     1      55.418  30.725  31.940  1.00  0.00     0.084 C 
ENDROOT
TORSDOF 0
ENDMDL
MODEL 3
REMARK VINA RESULT:    -5.015      2.082      3.138
REMARK INTER + INTRA:          -5.015
REMARK INTER:                  -5.015
REMARK INTRA:                   0.000
REMARK UNBOUND:                 0.000
REMARK SMILES CC(C)=C1CC[C@H](C)CC1=O
REMARK SMILES IDX 8 1 7 2 6 3 5 4 4 5 2 6 1 7 3 8 10 9 11 10 9 11
REMARK H PARENT
REMARK Flexibility Score: inf
ROOT
ATOM      1  C   UNL     1      56.135  33.131  33.116  1.00  0.00     0.008 C 
ATOM      2  C   UNL     1      55.021  32.866  32.098  1.00  0.00    -0.006 C 
ATOM      3  C   UNL     1      54.323  31.528  32.394  1.00  0.00     0.008 C 
ATOM      4  C   UNL     1      53.274  31.199  31.324  1.00  0.00     0.039 C 
ATOM      5  C   UNL     1      52.286  32.337  31.104  1.00  0.00    -0.006 C 
ATOM      6  C   UNL     1      50.992  32.093  30.746  1.00  0.00    -0.070 C 
ATOM      7  C   UNL     1      50.489  30.684  30.534  1.00  0.00     0.039 C 
ATOM      8  C   UNL     1      49.988  33.212  30.580  1.00  0.00     0.039 C 
ATOM      9  C   UNL     1      52.849  33.718  31.190  1.00  0.00     0.159 C 
ATOM     10  O   UNL     1      52.383  34.658  30.491  1.00  0.00    -0.295 OA
ATOM     11  C   UNL     1      53.994  34.008  32.115  1.00  0.00     0.084 C 
ENDROOT
TORSDOF 0
ENDMDL
MODEL 4
REMARK VINA RESULT:    -4.938      1.946      4.494
REMARK INTER + INTRA:          -4.938
REMARK INTER:                  -4.938
REMARK INTRA:                   0.000
REMARK UNBOUND:                 0.000
REMARK SMILES CC(C)=C1CC[C@H](C)CC1=O
REMARK SMILES IDX 8 1 7 2 6 3 5 4 4 5 2 6 1 7 3 8 10 9 11 10 9 11
REMARK H PARENT
REMARK Flexibility Score: inf
ROOT
ATOM      1  C   UNL     1      50.252  36.312  32.753  1.00  0.00     0.008 C 
ATOM      2  C   UNL     1      51.100  35.167  32.190  1.00  0.00    -0.006 C 
ATOM      3  C   UNL     1      52.593  35.413  32.466  1.00  0.00     0.008 C 
ATOM      4  C   UNL     1      53.465  34.329  31.819  1.00  0.00     0.039 C 
ATOM      5  C   UNL     1      53.024  32.921  32.200  1.00  0.00    -0.006 C 
ATOM      6  C   UNL     1      53.925  31.901  32.308  1.00  0.00    -0.070 C 
ATOM      7  C   UNL     1      55.395  32.121  32.035  1.00  0.00     0.039 C 
ATOM      8  C   UNL     1      53.507  30.513  32.739  1.00  0.00     0.039 C 
ATOM      9  C   UNL     1      51.551  32.708  32.329  1.00  0.00     0.159 C 
ATOM     10  O   UNL     1      51.024  31.600  32.044  1.00  0.00    -0.295 OA
ATOM     11  C   UNL     1      50.668  33.826  32.801  1.00  0.00     0.084 C 
ENDROOT
TORSDOF 0
ENDMDL
MODEL 5
REMARK VINA RESULT:    -4.905      2.322      4.433
REMARK INTER + INTRA:          -4.905
REMARK INTER:                  -4.905
REMARK INTRA:                   0.000
REMARK UNBOUND:                 0.000
REMARK SMILES CC(C)=C1CC[C@H](C)CC1=O
REMARK SMILES IDX 8 1 7 2 6 3 5 4 4 5 2 6 1 7 3 8 10 9 11 10 9 11
REMARK H PARENT
REMARK Flexibility Score: inf
ROOT
ATOM      1  C   UNL     1      50.260  30.773  30.521  1.00  0.00     0.008 C 
ATOM      2  C   UNL     1      51.587  31.537  30.576  1.00  0.00    -0.006 C 
ATOM      3  C   UNL     1      51.370  32.961  31.115  1.00  0.00     0.008 C 
ATOM      4  C   UNL     1      52.670  33.773  31.081  1.00  0.00     0.039 C 
ATOM      5  C   UNL     1      53.825  33.058  31.770  1.00  0.00    -0.006 C 
ATOM      6  C   UNL     1      54.808  33.754  32.413  1.00  0.00    -0.070 C 
ATOM      7  C   UNL     1      54.802  35.265  32.452  1.00  0.00     0.039 C 
ATOM      8  C   UNL     1      55.928  33.053  33.148  1.00  0.00     0.039 C 
ATOM      9  C   UNL     1      53.873  31.575  31.597  1.00  0.00     0.159 C 
ATOM     10  O   UNL     1      54.971  30.957  31.559  1.00  0.00    -0.295 OA
ATOM     11  C   UNL     1      52.601  30.792  31.458  1.00  0.00     0.084 C 
ENDROOT
TORSDOF 0
ENDMDL
MODEL 6
REMARK VINA RESULT:    -4.875      2.307      3.165
REMARK INTER + INTRA:          -4.875
REMARK INTER:                  -4.875
REMARK INTRA:                   0.000
REMARK UNBOUND:                 0.000
REMARK SMILES CC(C)=C1CC[C@H](C)CC1=O
REMARK SMILES IDX 8 1 7 2 6 3 5 4 4 5 2 6 1 7 3 8 10 9 11 10 9 11
REMARK H PARENT
REMARK Flexibility Score: inf
ROOT
ATOM      1  C   UNL     1      56.077  30.802  31.914  1.00  0.00     0.008 C 
ATOM      2  C   UNL     1      54.773  31.548  31.610  1.00  0.00    -0.006 C 
ATOM      3  C   UNL     1      53.595  30.909  32.362  1.00  0.00     0.008 C 
ATOM      4  C   UNL     1      52.266  31.579  31.989  1.00  0.00     0.039 C 
ATOM      5  C   UNL     1      52.310  33.093  32.150  1.00  0.00    -0.006 C 
ATOM      6  C   UNL     1      51.198  33.801  32.502  1.00  0.00    -0.070 C 
ATOM      7  C   UNL     1      49.870  33.114  32.729  1.00  0.00     0.039 C 
ATOM      8  C   UNL     1      51.242  35.297  32.719  1.00  0.00     0.039 C 
ATOM      9  C   UNL     1      53.600  33.753  31.788  1.00  0.00     0.159 C 
ATOM     10  O   UNL     1      53.626  34.915  31.303  1.00  0.00    -0.295 OA
ATOM     11  C   UNL     1      54.899  33.030  31.994  1.00  0.00     0.084 C 
ENDROOT
TORSDOF 0
ENDMDL
MODEL 7
REMARK VINA RESULT:    -4.825      1.487      4.203
REMARK INTER + INTRA:          -4.825
REMARK INTER:                  -4.825
REMARK INTRA:                   0.000
REMARK UNBOUND:                 0.000
REMARK SMILES CC(C)=C1CC[C@H](C)CC1=O
REMARK SMILES IDX 8 1 7 2 6 3 5 4 4 5 2 6 1 7 3 8 10 9 11 10 9 11
REMARK H PARENT
REMARK Flexibility Score: inf
ROOT
ATOM      1  C   UNL     1      48.397  33.511  30.703  1.00  0.00     0.008 C 
ATOM      2  C   UNL     1      49.894  33.245  30.512  1.00  0.00    -0.006 C 
ATOM      3  C   UNL     1      50.731  34.307  31.243  1.00  0.00     0.008 C 
ATOM      4  C   UNL     1      52.229  34.116  30.977  1.00  0.00     0.039 C 
ATOM      5  C   UNL     1      52.699  32.697  31.273  1.00  0.00    -0.006 C 
ATOM      6  C   UNL     1      53.963  32.448  31.724  1.00  0.00    -0.070 C 
ATOM      7  C   UNL     1      54.956  33.568  31.933  1.00  0.00     0.039 C 
ATOM      8  C   UNL     1      54.422  31.050  32.074  1.00  0.00     0.039 C 
ATOM      9  C   UNL     1      51.740  31.605  30.928  1.00  0.00     0.159 C 
ATOM     10  O   UNL     1      52.146  30.474  30.549  1.00  0.00    -0.295 OA
ATOM     11  C   UNL     1      50.261  31.844  31.024  1.00  0.00     0.084 C 
ENDROOT
TORSDOF 0
ENDMDL
MODEL 8
REMARK VINA RESULT:    -4.808      2.070      4.870
REMARK INTER + INTRA:          -4.808
REMARK INTER:                  -4.808
REMARK INTRA:                   0.000
REMARK UNBOUND:                 0.000
REMARK SMILES CC(C)=C1CC[C@H](C)CC1=O
REMARK SMILES IDX 8 1 7 2 6 3 5 4 4 5 2 6 1 7 3 8 10 9 11 10 9 11
REMARK H PARENT
REMARK Flexibility Score: inf
ROOT
ATOM      1  C   UNL     1      49.182  32.806  30.498  1.00  0.00     0.008 C 
ATOM      2  C   UNL     1      50.485  32.544  31.261  1.00  0.00    -0.006 C 
ATOM      3  C   UNL     1      51.276  31.401  30.606  1.00  0.00     0.008 C 
ATOM      4  C   UNL     1      52.533  31.057  31.416  1.00  0.00     0.039 C 
ATOM      5  C   UNL     1      53.398  32.279  31.699  1.00  0.00    -0.006 C 
ATOM      6  C   UNL     1      54.755  32.179  31.799  1.00  0.00    -0.070 C 
ATOM      7  C   UNL     1      55.457  30.848  31.651  1.00  0.00     0.039 C 
ATOM      8  C   UNL     1      55.628  33.393  32.023  1.00  0.00     0.039 C 
ATOM      9  C   UNL     1      52.664  33.551  31.972  1.00  0.00     0.159 C 
ATOM     10  O   UNL     1      53.130  34.417  32.761  1.00  0.00    -0.295 OA
ATOM     11  C   UNL     1      51.345  33.816  31.309  1.00  0.00     0.084 C 
ENDROOT
TORSDOF 0
ENDMDL
MODEL 9
REMARK VINA RESULT:    -4.795      2.605      5.022
REMARK INTER + INTRA:          -4.795
REMARK INTER:                  -4.795
REMARK INTRA:                   0.000
REMARK UNBOUND:                 0.000
REMARK SMILES CC(C)=C1CC[C@H](C)CC1=O
REMARK SMILES IDX 8 1 7 2 6 3 5 4 4 5 2 6 1 7 3 8 10 9 11 10 9 11
REMARK H PARENT
REMARK Flexibility Score: inf
ROOT
ATOM      1  C   UNL     1      49.879  36.878  32.750  1.00  0.00     0.008 C 
ATOM      2  C   UNL     1      50.770  35.665  33.036  1.00  0.00    -0.006 C 
ATOM      3  C   UNL     1      50.188  34.400  32.385  1.00  0.00     0.008 C 
ATOM      4  C   UNL     1      51.012  33.158  32.746  1.00  0.00     0.039 C 
ATOM      5  C   UNL     1      52.496  33.335  32.452  1.00  0.00    -0.006 C 
ATOM      6  C   UNL     1      53.278  32.280  32.081  1.00  0.00    -0.070 C 
ATOM      7  C   UNL     1      52.706  30.885  31.963  1.00  0.00     0.039 C 
ATOM      8  C   UNL     1      54.739  32.454  31.733  1.00  0.00     0.039 C 
ATOM      9  C   UNL     1      53.056  34.696  32.709  1.00  0.00     0.159 C 
ATOM     10  O   UNL     1      54.247  34.852  33.090  1.00  0.00    -0.295 OA
ATOM     11  C   UNL     1      52.196  35.911  32.520  1.00  0.00     0.084 C 
ENDROOT
TORSDOF 0
ENDMDL
