MODEL 1
REMARK VINA RESULT:    -4.816      0.000      0.000
REMARK INTER + INTRA:          -6.432
REMARK INTER:                  -5.942
REMARK INTRA:                  -0.489
REMARK UNBOUND:                -0.489
REMARK SMILES COC(=O)c1ccccc1C(=O)OC
REMARK SMILES IDX 5 1 6 2 7 3 8 4 9 5 10 6 3 7 4 8 2 9 1 10 11 11 12 12 13 13
REMARK SMILES IDX 14 14
REMARK H PARENT
REMARK Flexibility Score: inf
ROOT
ATOM      1  C   UNL     1      11.655  31.118  27.314  1.00  0.00     0.074 A 
ATOM      2  C   UNL     1      11.975  30.649  26.026  1.00  0.00     0.016 A 
ATOM      3  C   UNL     1      11.147  30.929  24.938  1.00  0.00     0.001 A 
ATOM      4  C   UNL     1       9.988  31.681  25.118  1.00  0.00     0.001 A 
ATOM      5  C   UNL     1       9.663  32.174  26.382  1.00  0.00     0.016 A 
ATOM      6  C   UNL     1      10.495  31.921  27.489  1.00  0.00     0.074 A 
ENDROOT
BRANCH   1   7
ATOM      7  C   UNL     1      12.507  30.693  28.448  1.00  0.00     0.338 C 
ATOM      8  O   UNL     1      12.234  29.632  29.074  1.00  0.00    -0.246 OA
BRANCH   7   9
ATOM      9  O   UNL     1      13.582  31.492  28.854  1.00  0.00    -0.465 OA
ATOM     10  C   UNL     1      13.661  32.071  30.150  1.00  0.00     0.282 C 
ENDBRANCH   7   9
ENDBRANCH   1   7
BRANCH   6  11
ATOM     11  C   UNL     1      10.161  32.567  28.779  1.00  0.00     0.338 C 
ATOM     12  O   UNL     1      10.512  33.761  28.991  1.00  0.00    -0.246 OA
BRANCH  11  13
ATOM     13  O   UNL     1       9.504  31.840  29.778  1.00  0.00    -0.465 OA
ATOM     14  C   UNL     1       9.991  31.755  31.111  1.00  0.00     0.282 C 
ENDBRANCH  11  13
ENDBRANCH   6  11
TORSDOF 4
ENDMDL
MODEL 2
REMARK VINA RESULT:    -4.811      0.045      3.225
REMARK INTER + INTRA:          -6.425
REMARK INTER:                  -5.936
REMARK INTRA:                  -0.489
REMARK UNBOUND:                -0.489
REMARK SMILES COC(=O)c1ccccc1C(=O)OC
REMARK SMILES IDX 5 1 6 2 7 3 8 4 9 5 10 6 3 7 4 8 2 9 1 10 11 11 12 12 13 13
REMARK SMILES IDX 14 14
REMARK H PARENT
REMARK Flexibility Score: inf
ROOT
ATOM      1  C   UNL     1      10.481  31.914  27.500  1.00  0.00     0.074 A 
ATOM      2  C   UNL     1       9.647  32.144  26.390  1.00  0.00     0.016 A 
ATOM      3  C   UNL     1       9.983  31.649  25.130  1.00  0.00     0.001 A 
ATOM      4  C   UNL     1      11.157  30.918  24.957  1.00  0.00     0.001 A 
ATOM      5  C   UNL     1      11.987  30.660  26.048  1.00  0.00     0.016 A 
ATOM      6  C   UNL     1      11.657  31.131  27.332  1.00  0.00     0.074 A 
ENDROOT
BRANCH   1   7
ATOM      7  C   UNL     1      10.133  32.561  28.786  1.00  0.00     0.338 C 
ATOM      8  O   UNL     1      10.461  33.762  28.993  1.00  0.00    -0.246 OA
BRANCH   7   9
ATOM      9  O   UNL     1       9.487  31.826  29.787  1.00  0.00    -0.465 OA
ATOM     10  C   UNL     1       9.983  31.741  31.117  1.00  0.00     0.282 C 
ENDBRANCH   7   9
ENDBRANCH   1   7
BRANCH   6  11
ATOM     11  C   UNL     1      12.514  30.728  28.470  1.00  0.00     0.338 C 
ATOM     12  O   UNL     1      12.276  29.649  29.081  1.00  0.00    -0.246 OA
BRANCH  11  13
ATOM     13  O   UNL     1      13.551  31.564  28.897  1.00  0.00    -0.465 OA
ATOM     14  C   UNL     1      13.611  32.102  30.211  1.00  0.00     0.282 C 
ENDBRANCH  11  13
ENDBRANCH   6  11
TORSDOF 4
ENDMDL
MODEL 3
REMARK VINA RESULT:    -4.616      2.044      3.166
REMARK INTER + INTRA:          -6.185
REMARK INTER:                  -5.838
REMARK INTRA:                  -0.348
REMARK UNBOUND:                -0.489
REMARK SMILES COC(=O)c1ccccc1C(=O)OC
REMARK SMILES IDX 5 1 6 2 7 3 8 4 9 5 10 6 3 7 4 8 2 9 1 10 11 11 12 12 13 13
REMARK SMILES IDX 14 14
REMARK H PARENT
REMARK Flexibility Score: inf
ROOT
ATOM      1  C   UNL     1      10.755  32.791  26.946  1.00  0.00     0.074 A 
ATOM      2  C   UNL     1      11.251  33.965  26.349  1.00  0.00     0.016 A 
ATOM      3  C   UNL     1      11.115  34.180  24.977  1.00  0.00     0.001 A 
ATOM      4  C   UNL     1      10.483  33.228  24.180  1.00  0.00     0.001 A 
ATOM      5  C   UNL     1       9.965  32.068  24.755  1.00  0.00     0.016 A 
ATOM      6  C   UNL     1      10.072  31.840  26.139  1.00  0.00     0.074 A 
ENDROOT
BRANCH   1   7
ATOM      7  C   UNL     1      11.030  32.565  28.383  1.00  0.00     0.338 C 
ATOM      8  O   UNL     1      10.432  33.257  29.253  1.00  0.00    -0.246 OA
BRANCH   7   9
ATOM      9  O   UNL     1      11.987  31.621  28.772  1.00  0.00    -0.465 OA
ATOM     10  C   UNL     1      13.201  31.419  28.059  1.00  0.00     0.282 C 
ENDBRANCH   7   9
ENDBRANCH   1   7
BRANCH   6  11
ATOM     11  C   UNL     1       9.401  30.649  26.709  1.00  0.00     0.338 C 
ATOM     12  O   UNL     1      10.050  29.577  26.861  1.00  0.00    -0.246 OA
BRANCH  11  13
ATOM     13  O   UNL     1       8.040  30.698  27.030  1.00  0.00    -0.465 OA
ATOM     14  C   UNL     1       7.062  29.927  26.345  1.00  0.00     0.282 C 
ENDBRANCH  11  13
ENDBRANCH   6  11
TORSDOF 4
ENDMDL
MODEL 4
REMARK VINA RESULT:    -4.615      2.626      3.702
REMARK INTER + INTRA:          -6.184
REMARK INTER:                  -5.801
REMARK INTRA:                  -0.383
REMARK UNBOUND:                -0.489
REMARK SMILES COC(=O)c1ccccc1C(=O)OC
REMARK SMILES IDX 5 1 6 2 7 3 8 4 9 5 10 6 3 7 4 8 2 9 1 10 11 11 12 12 13 13
REMARK SMILES IDX 14 14
REMARK H PARENT
REMARK Flexibility Score: inf
ROOT
ATOM      1  C   UNL     1      10.624  30.708  27.004  1.00  0.00     0.074 A 
ATOM      2  C   UNL     1      10.226  29.654  27.848  1.00  0.00     0.016 A 
ATOM      3  C   UNL     1       9.297  28.707  27.416  1.00  0.00     0.001 A 
ATOM      4  C   UNL     1       8.752  28.796  26.136  1.00  0.00     0.001 A 
ATOM      5  C   UNL     1       9.150  29.820  25.277  1.00  0.00     0.016 A 
ATOM      6  C   UNL     1      10.101  30.774  25.684  1.00  0.00     0.074 A 
ENDROOT
BRANCH   1   7
ATOM      7  C   UNL     1      11.523  31.748  27.557  1.00  0.00     0.338 C 
ATOM      8  O   UNL     1      11.033  32.779  28.095  1.00  0.00    -0.246 OA
BRANCH   7   9
ATOM      9  O   UNL     1      12.910  31.610  27.437  1.00  0.00    -0.465 OA
ATOM     10  C   UNL     1      13.716  31.038  28.459  1.00  0.00     0.282 C 
ENDBRANCH   7   9
ENDBRANCH   1   7
BRANCH   6  11
ATOM     11  C   UNL     1      10.570  31.766  24.690  1.00  0.00     0.338 C 
ATOM     12  O   UNL     1      11.429  31.430  23.827  1.00  0.00    -0.246 OA
BRANCH  11  13
ATOM     13  O   UNL     1      10.101  33.083  24.740  1.00  0.00    -0.465 OA
ATOM     14  C   UNL     1      10.971  34.205  24.805  1.00  0.00     0.282 C 
ENDBRANCH  11  13
ENDBRANCH   6  11
TORSDOF 4
ENDMDL
MODEL 5
REMARK VINA RESULT:    -4.603      2.614      3.940
REMARK INTER + INTRA:          -6.169
REMARK INTER:                  -5.792
REMARK INTRA:                  -0.378
REMARK UNBOUND:                -0.489
REMARK SMILES COC(=O)c1ccccc1C(=O)OC
REMARK SMILES IDX 5 1 6 2 7 3 8 4 9 5 10 6 3 7 4 8 2 9 1 10 11 11 12 12 13 13
REMARK SMILES IDX 14 14
REMARK H PARENT
REMARK Flexibility Score: inf
ROOT
ATOM      1  C   UNL     1      10.105  30.852  25.646  1.00  0.00     0.074 A 
ATOM      2  C   UNL     1       9.139  29.927  25.208  1.00  0.00     0.016 A 
ATOM      3  C   UNL     1       8.728  28.879  26.034  1.00  0.00     0.001 A 
ATOM      4  C   UNL     1       9.275  28.740  27.309  1.00  0.00     0.001 A 
ATOM      5  C   UNL     1      10.217  29.659  27.770  1.00  0.00     0.016 A 
ATOM      6  C   UNL     1      10.631  30.734  26.962  1.00  0.00     0.074 A 
ENDROOT
BRANCH   1   7
ATOM      7  C   UNL     1      10.586  31.871  24.684  1.00  0.00     0.338 C 
ATOM      8  O   UNL     1      11.429  31.551  23.801  1.00  0.00    -0.246 OA
BRANCH   7   9
ATOM      9  O   UNL     1      10.146  33.195  24.789  1.00  0.00    -0.465 OA
ATOM     10  C   UNL     1      11.040  34.300  24.834  1.00  0.00     0.282 C 
ENDBRANCH   7   9
ENDBRANCH   1   7
BRANCH   6  11
ATOM     11  C   UNL     1      11.544  31.742  27.547  1.00  0.00     0.338 C 
ATOM     12  O   UNL     1      11.068  32.769  28.106  1.00  0.00    -0.246 OA
BRANCH  11  13
ATOM     13  O   UNL     1      12.930  31.581  27.435  1.00  0.00    -0.465 OA
ATOM     14  C   UNL     1      13.734  31.101  28.504  1.00  0.00     0.282 C 
ENDBRANCH  11  13
ENDBRANCH   6  11
TORSDOF 4
ENDMDL
MODEL 6
REMARK VINA RESULT:    -4.602      2.037      3.571
REMARK INTER + INTRA:          -6.168
REMARK INTER:                  -5.825
REMARK INTRA:                  -0.343
REMARK UNBOUND:                -0.489
REMARK SMILES COC(=O)c1ccccc1C(=O)OC
REMARK SMILES IDX 5 1 6 2 7 3 8 4 9 5 10 6 3 7 4 8 2 9 1 10 11 11 12 12 13 13
REMARK SMILES IDX 14 14
REMARK H PARENT
REMARK Flexibility Score: inf
ROOT
ATOM      1  C   UNL     1      10.103  31.826  26.144  1.00  0.00     0.074 A 
ATOM      2  C   UNL     1      10.016  32.032  24.755  1.00  0.00     0.016 A 
ATOM      3  C   UNL     1      10.531  33.190  24.171  1.00  0.00     0.001 A 
ATOM      4  C   UNL     1      11.139  34.161  24.965  1.00  0.00     0.001 A 
ATOM      5  C   UNL     1      11.255  33.967  26.341  1.00  0.00     0.016 A 
ATOM      6  C   UNL     1      10.762  32.797  26.947  1.00  0.00     0.074 A 
ENDROOT
BRANCH   1   7
ATOM      7  C   UNL     1       9.437  30.635  26.720  1.00  0.00     0.338 C 
ATOM      8  O   UNL     1      10.097  29.575  26.904  1.00  0.00    -0.246 OA
BRANCH   7   9
ATOM      9  O   UNL     1       8.069  30.670  27.011  1.00  0.00    -0.465 OA
ATOM     10  C   UNL     1       7.115  29.878  26.315  1.00  0.00     0.282 C 
ENDBRANCH   7   9
ENDBRANCH   1   7
BRANCH   6  11
ATOM     11  C   UNL     1      11.017  32.593  28.392  1.00  0.00     0.338 C 
ATOM     12  O   UNL     1      10.383  33.277  29.243  1.00  0.00    -0.246 OA
BRANCH  11  13
ATOM     13  O   UNL     1      11.994  31.682  28.809  1.00  0.00    -0.465 OA
ATOM     14  C   UNL     1      13.192  31.455  28.079  1.00  0.00     0.282 C 
ENDBRANCH  11  13
ENDBRANCH   6  11
TORSDOF 4
ENDMDL
MODEL 7
REMARK VINA RESULT:    -4.472      1.939      3.345
REMARK INTER + INTRA:          -6.007
REMARK INTER:                  -5.649
REMARK INTRA:                  -0.358
REMARK UNBOUND:                -0.489
REMARK SMILES COC(=O)c1ccccc1C(=O)OC
REMARK SMILES IDX 5 1 6 2 7 3 8 4 9 5 10 6 3 7 4 8 2 9 1 10 11 11 12 12 13 13
REMARK SMILES IDX 14 14
REMARK H PARENT
REMARK Flexibility Score: inf
ROOT
ATOM      1  C   UNL     1      10.164  31.534  27.238  1.00  0.00     0.074 A 
ATOM      2  C   UNL     1       9.029  31.361  26.425  1.00  0.00     0.016 A 
ATOM      3  C   UNL     1       8.480  30.094  26.225  1.00  0.00     0.001 A 
ATOM      4  C   UNL     1       9.055  28.980  26.834  1.00  0.00     0.001 A 
ATOM      5  C   UNL     1      10.168  29.132  27.661  1.00  0.00     0.016 A 
ATOM      6  C   UNL     1      10.725  30.403  27.893  1.00  0.00     0.074 A 
ENDROOT
BRANCH   1   7
ATOM      7  C   UNL     1      10.771  32.883  27.319  1.00  0.00     0.338 C 
ATOM      8  O   UNL     1      10.491  33.638  28.290  1.00  0.00    -0.246 OA
BRANCH   7   9
ATOM      9  O   UNL     1      11.611  33.335  26.296  1.00  0.00    -0.465 OA
ATOM     10  C   UNL     1      11.202  34.304  25.339  1.00  0.00     0.282 C 
ENDBRANCH   7   9
ENDBRANCH   1   7
BRANCH   6  11
ATOM     11  C   UNL     1      11.831  30.517  28.871  1.00  0.00     0.338 C 
ATOM     12  O   UNL     1      13.028  30.473  28.472  1.00  0.00    -0.246 OA
BRANCH  11  13
ATOM     13  O   UNL     1      11.549  30.623  30.238  1.00  0.00    -0.465 OA
ATOM     14  C   UNL     1      11.888  31.772  31.004  1.00  0.00     0.282 C 
ENDBRANCH  11  13
ENDBRANCH   6  11
TORSDOF 4
ENDMDL
MODEL 8
REMARK VINA RESULT:    -4.446      2.428      4.568
REMARK INTER + INTRA:          -5.975
REMARK INTER:                  -5.602
REMARK INTRA:                  -0.373
REMARK UNBOUND:                -0.489
REMARK SMILES COC(=O)c1ccccc1C(=O)OC
REMARK SMILES IDX 5 1 6 2 7 3 8 4 9 5 10 6 3 7 4 8 2 9 1 10 11 11 12 12 13 13
REMARK SMILES IDX 14 14
REMARK H PARENT
REMARK Flexibility Score: inf
ROOT
ATOM      1  C   UNL     1      10.896  30.459  27.986  1.00  0.00     0.074 A 
ATOM      2  C   UNL     1      11.234  30.539  29.350  1.00  0.00     0.016 A 
ATOM      3  C   UNL     1      12.483  31.019  29.749  1.00  0.00     0.001 A 
ATOM      4  C   UNL     1      13.412  31.425  28.793  1.00  0.00     0.001 A 
ATOM      5  C   UNL     1      13.089  31.375  27.437  1.00  0.00     0.016 A 
ATOM      6  C   UNL     1      11.829  30.914  27.014  1.00  0.00     0.074 A 
ENDROOT
BRANCH   1   7
ATOM      7  C   UNL     1       9.605  29.834  27.619  1.00  0.00     0.338 C 
ATOM      8  O   UNL     1       9.549  28.594  27.397  1.00  0.00    -0.246 OA
BRANCH   7   9
ATOM      9  O   UNL     1       8.461  30.627  27.470  1.00  0.00    -0.465 OA
ATOM     10  C   UNL     1       7.491  30.393  26.457  1.00  0.00     0.282 C 
ENDBRANCH   7   9
ENDBRANCH   1   7
BRANCH   6  11
ATOM     11  C   UNL     1      11.500  30.993  25.572  1.00  0.00     0.338 C 
ATOM     12  O   UNL     1      12.108  30.253  24.750  1.00  0.00    -0.246 OA
BRANCH  11  13
ATOM     13  O   UNL     1      10.556  31.922  25.119  1.00  0.00    -0.465 OA
ATOM     14  C   UNL     1      10.750  33.326  25.222  1.00  0.00     0.282 C 
ENDBRANCH  11  13
ENDBRANCH   6  11
TORSDOF 4
ENDMDL
MODEL 9
REMARK VINA RESULT:    -4.415      2.465      4.134
REMARK INTER + INTRA:          -5.937
REMARK INTER:                  -5.619
REMARK INTRA:                  -0.318
REMARK UNBOUND:                -0.489
REMARK SMILES COC(=O)c1ccccc1C(=O)OC
REMARK SMILES IDX 5 1 6 2 7 3 8 4 9 5 10 6 3 7 4 8 2 9 1 10 11 11 12 12 13 13
REMARK SMILES IDX 14 14
REMARK H PARENT
REMARK Flexibility Score: inf
ROOT
ATOM      1  C   UNL     1      11.755  30.895  27.001  1.00  0.00     0.074 A 
ATOM      2  C   UNL     1      13.030  31.330  27.411  1.00  0.00     0.016 A 
ATOM      3  C   UNL     1      13.386  31.323  28.760  1.00  0.00     0.001 A 
ATOM      4  C   UNL     1      12.477  30.883  29.720  1.00  0.00     0.001 A 
ATOM      5  C   UNL     1      11.217  30.427  29.333  1.00  0.00     0.016 A 
ATOM      6  C   UNL     1      10.844  30.406  27.977  1.00  0.00     0.074 A 
ENDROOT
BRANCH   1   7
ATOM      7  C   UNL     1      11.393  31.034  25.572  1.00  0.00     0.338 C 
ATOM      8  O   UNL     1      11.973  30.323  24.706  1.00  0.00    -0.246 OA
BRANCH   7   9
ATOM      9  O   UNL     1      10.446  31.987  25.180  1.00  0.00    -0.465 OA
ATOM     10  C   UNL     1      10.808  33.243  24.619  1.00  0.00     0.282 C 
ENDBRANCH   7   9
ENDBRANCH   1   7
BRANCH   6  11
ATOM     11  C   UNL     1       9.540  29.803  27.617  1.00  0.00     0.338 C 
ATOM     12  O   UNL     1       9.460  28.560  27.412  1.00  0.00    -0.246 OA
BRANCH  11  13
ATOM     13  O   UNL     1       8.413  30.617  27.455  1.00  0.00    -0.465 OA
ATOM     14  C   UNL     1       7.388  30.329  26.513  1.00  0.00     0.282 C 
ENDBRANCH  11  13
ENDBRANCH   6  11
TORSDOF 4
ENDMDL
