MODEL 1
REMARK VINA RESULT:     4.141      0.000      0.000
REMARK INTER + INTRA:           4.262
REMARK INTER:                   4.262
REMARK INTRA:                   0.000
REMARK UNBOUND:                 0.000
REMARK SMILES C=C1[C@H]2C[C@]3(C[C@@H]1O)[C@H](C)CC[C@H]3C2(C)C
REMARK SMILES IDX 10 1 9 2 11 3 12 4 13 5 5 6 4 7 3 8 14 9 15 10 16 11 2 12
REMARK SMILES IDX 1 13 7 14 6 15 8 16
REMARK H PARENT 8 17
REMARK Flexibility Score: inf
ROOT
ATOM      1  C   UNL     1      37.804 -36.022  -6.593  1.00  0.00     0.008 C 
ATOM      2  C   UNL     1      37.612 -36.762  -7.928  1.00  0.00    -0.008 C 
ATOM      3  C   UNL     1      38.973 -37.123  -8.608  1.00  0.00     0.004 C 
ATOM      4  C   UNL     1      39.124 -36.229  -9.866  1.00  0.00     0.005 C 
ATOM      5  C   UNL     1      38.044 -35.192  -9.646  1.00  0.00     0.002 C 
ATOM      6  C   UNL     1      36.878 -35.941  -9.016  1.00  0.00    -0.020 C 
ATOM      7  C   UNL     1      35.963 -34.759  -8.724  1.00  0.00     0.016 C 
ATOM      8  C   UNL     1      35.959 -34.079 -10.122  1.00  0.00     0.023 C 
ATOM      9  C   UNL     1      37.439 -34.207 -10.665  1.00  0.00    -0.025 C 
ATOM     10  C   UNL     1      37.588 -34.708 -12.125  1.00  0.00     0.012 C 
ATOM     11  C   UNL     1      38.134 -32.826 -10.577  1.00  0.00     0.012 C 
ATOM     12  C   UNL     1      34.979 -34.857 -10.973  1.00  0.00    -0.045 C 
ATOM     13  C   UNL     1      34.137 -34.220 -11.801  1.00  0.00     0.011 C 
ATOM     14  C   UNL     1      34.937 -36.367 -10.836  1.00  0.00     0.140 C 
ATOM     15  C   UNL     1      36.118 -36.944  -9.988  1.00  0.00     0.044 C 
ENDROOT
BRANCH  14  16
ATOM     16  O   UNL     1      34.932 -36.959 -12.111  1.00  0.00    -0.389 OA
ATOM     17  H   UNL     1      35.786 -37.456 -12.197  1.00  0.00     0.211 HD
ENDBRANCH  14  16
TORSDOF 1
ENDMDL
