MODEL 1
REMARK VINA RESULT:    -0.183      0.000      0.000
REMARK INTER + INTRA:          -0.269
REMARK INTER:                  -0.215
REMARK INTRA:                  -0.053
REMARK UNBOUND:                -0.053
REMARK SMILES CCCCC(=O)[O-]
REMARK SMILES IDX 4 1 5 2 6 3 7 4 3 5 2 6 1 7
REMARK H PARENT
REMARK Flexibility Score: inf
ROOT
ATOM      1  C   UNL     1     160.052 181.616 178.069  1.00  0.00     0.053 C 
ENDROOT
BRANCH   1   2
ATOM      2  C   UNL     1     158.571 181.569 177.866  1.00  0.00     0.041 C 
ATOM      3  O   UNL     1     157.877 182.609 178.015  1.00  0.00    -0.550 OA
ATOM      4  O   UNL     1     157.962 180.387 177.463  1.00  0.00    -0.550 OA
ENDBRANCH   1   2
BRANCH   1   5
ATOM      5  C   UNL     1     160.748 180.577 177.180  1.00  0.00     0.006 C 
BRANCH   5   6
ATOM      6  C   UNL     1     161.996 179.974 177.844  1.00  0.00    -0.003 C 
ATOM      7  C   UNL     1     162.134 180.371 179.313  1.00  0.00     0.004 C 
ENDBRANCH   5   6
ENDBRANCH   1   5
TORSDOF 3
ENDMDL
MODEL 2
REMARK VINA RESULT:    -0.177      1.658      2.769
REMARK INTER + INTRA:          -0.261
REMARK INTER:                  -0.171
REMARK INTRA:                  -0.090
REMARK UNBOUND:                -0.053
REMARK SMILES CCCCC(=O)[O-]
REMARK SMILES IDX 4 1 5 2 6 3 7 4 3 5 2 6 1 7
REMARK H PARENT
REMARK Flexibility Score: inf
ROOT
ATOM      1  C   UNL     1     160.418 180.977 178.647  1.00  0.00     0.053 C 
ENDROOT
BRANCH   1   2
ATOM      2  C   UNL     1     159.169 180.463 178.002  1.00  0.00     0.041 C 
ATOM      3  O   UNL     1     159.227 179.875 176.890  1.00  0.00    -0.550 OA
ATOM      4  O   UNL     1     157.948 180.588 178.652  1.00  0.00    -0.550 OA
ENDBRANCH   1   2
BRANCH   1   5
ATOM      5  C   UNL     1     160.327 182.495 178.853  1.00  0.00     0.006 C 
BRANCH   5   6
ATOM      6  C   UNL     1     160.202 183.263 177.528  1.00  0.00    -0.003 C 
ATOM      7  C   UNL     1     161.477 184.022 177.162  1.00  0.00     0.004 C 
ENDBRANCH   5   6
ENDBRANCH   1   5
TORSDOF 3
ENDMDL
MODEL 3
REMARK VINA RESULT:    -0.166     25.064     25.898
REMARK INTER + INTRA:          -0.249
REMARK INTER:                  -0.139
REMARK INTRA:                  -0.110
REMARK UNBOUND:                -0.053
REMARK SMILES CCCCC(=O)[O-]
REMARK SMILES IDX 4 1 5 2 6 3 7 4 3 5 2 6 1 7
REMARK H PARENT
REMARK Flexibility Score: inf
ROOT
ATOM      1  C   UNL     1     177.452 198.795 183.645  1.00  0.00     0.053 C 
ENDROOT
BRANCH   1   2
ATOM      2  C   UNL     1     176.787 199.678 184.653  1.00  0.00     0.041 C 
ATOM      3  O   UNL     1     177.417 200.062 185.673  1.00  0.00    -0.550 OA
ATOM      4  O   UNL     1     175.486 200.118 184.441  1.00  0.00    -0.550 OA
ENDBRANCH   1   2
BRANCH   1   5
ATOM      5  C   UNL     1     178.125 199.639 182.555  1.00  0.00     0.006 C 
BRANCH   5   6
ATOM      6  C   UNL     1     177.231 199.827 181.320  1.00  0.00    -0.003 C 
ATOM      7  C   UNL     1     176.307 198.635 181.071  1.00  0.00     0.004 C 
ENDBRANCH   5   6
ENDBRANCH   1   5
TORSDOF 3
ENDMDL
MODEL 4
REMARK VINA RESULT:    -0.157     24.889     25.596
REMARK INTER + INTRA:          -0.238
REMARK INTER:                  -0.128
REMARK INTRA:                  -0.110
REMARK UNBOUND:                -0.053
REMARK SMILES CCCCC(=O)[O-]
REMARK SMILES IDX 4 1 5 2 6 3 7 4 3 5 2 6 1 7
REMARK H PARENT
REMARK Flexibility Score: inf
ROOT
ATOM      1  C   UNL     1     175.995 199.036 183.458  1.00  0.00     0.053 C 
ENDROOT
BRANCH   1   2
ATOM      2  C   UNL     1     177.224 199.591 184.106  1.00  0.00     0.041 C 
ATOM      3  O   UNL     1     178.125 200.123 183.405  1.00  0.00    -0.550 OA
ATOM      4  O   UNL     1     177.352 199.566 185.489  1.00  0.00    -0.550 OA
ENDBRANCH   1   2
BRANCH   1   5
ATOM      5  C   UNL     1     175.707 199.768 182.141  1.00  0.00     0.006 C 
BRANCH   5   6
ATOM      6  C   UNL     1     175.731 198.828 180.926  1.00  0.00    -0.003 C 
ATOM      7  C   UNL     1     177.102 198.766 180.253  1.00  0.00     0.004 C 
ENDBRANCH   5   6
ENDBRANCH   1   5
TORSDOF 3
ENDMDL
MODEL 5
REMARK VINA RESULT:    -0.155      3.043      3.901
REMARK INTER + INTRA:          -0.235
REMARK INTER:                  -0.203
REMARK INTRA:                  -0.032
REMARK UNBOUND:                -0.053
REMARK SMILES CCCCC(=O)[O-]
REMARK SMILES IDX 4 1 5 2 6 3 7 4 3 5 2 6 1 7
REMARK H PARENT
REMARK Flexibility Score: inf
ROOT
ATOM      1  C   UNL     1     159.632 182.704 179.285  1.00  0.00     0.053 C 
ENDROOT
BRANCH   1   2
ATOM      2  C   UNL     1     159.829 182.325 180.719  1.00  0.00     0.041 C 
ATOM      3  O   UNL     1     159.688 181.128 181.082  1.00  0.00    -0.550 OA
ATOM      4  O   UNL     1     160.216 183.286 181.645  1.00  0.00    -0.550 OA
ENDBRANCH   1   2
BRANCH   1   5
ATOM      5  C   UNL     1     158.426 181.961 178.695  1.00  0.00     0.006 C 
BRANCH   5   6
ATOM      6  C   UNL     1     158.657 181.522 177.242  1.00  0.00    -0.003 C 
ATOM      7  C   UNL     1     157.884 180.255 176.877  1.00  0.00     0.004 C 
ENDBRANCH   5   6
ENDBRANCH   1   5
TORSDOF 3
ENDMDL
MODEL 6
REMARK VINA RESULT:    -0.153      2.714      3.655
REMARK INTER + INTRA:          -0.233
REMARK INTER:                  -0.090
REMARK INTRA:                  -0.142
REMARK UNBOUND:                -0.053
REMARK SMILES CCCCC(=O)[O-]
REMARK SMILES IDX 4 1 5 2 6 3 7 4 3 5 2 6 1 7
REMARK H PARENT
REMARK Flexibility Score: inf
ROOT
ATOM      1  C   UNL     1     160.550 181.317 180.697  1.00  0.00     0.053 C 
ENDROOT
BRANCH   1   2
ATOM      2  C   UNL     1     161.207 182.211 179.692  1.00  0.00     0.041 C 
ATOM      3  O   UNL     1     162.349 181.929 179.245  1.00  0.00    -0.550 OA
ATOM      4  O   UNL     1     160.536 183.329 179.213  1.00  0.00    -0.550 OA
ENDBRANCH   1   2
BRANCH   1   5
ATOM      5  C   UNL     1     159.198 180.821 180.168  1.00  0.00     0.006 C 
BRANCH   5   6
ATOM      6  C   UNL     1     159.339 179.962 178.902  1.00  0.00    -0.003 C 
ATOM      7  C   UNL     1     158.498 180.482 177.737  1.00  0.00     0.004 C 
ENDBRANCH   5   6
ENDBRANCH   1   5
TORSDOF 3
ENDMDL
MODEL 7
REMARK VINA RESULT:    -0.152      2.600      3.804
REMARK INTER + INTRA:          -0.231
REMARK INTER:                  -0.101
REMARK INTRA:                  -0.131
REMARK UNBOUND:                -0.053
REMARK SMILES CCCCC(=O)[O-]
REMARK SMILES IDX 4 1 5 2 6 3 7 4 3 5 2 6 1 7
REMARK H PARENT
REMARK Flexibility Score: inf
ROOT
ATOM      1  C   UNL     1     159.808 183.470 179.072  1.00  0.00     0.053 C 
ENDROOT
BRANCH   1   2
ATOM      2  C   UNL     1     159.031 182.759 178.009  1.00  0.00     0.041 C 
ATOM      3  O   UNL     1     159.395 181.621 177.612  1.00  0.00    -0.550 OA
ATOM      4  O   UNL     1     157.875 183.331 177.493  1.00  0.00    -0.550 OA
ENDBRANCH   1   2
BRANCH   1   5
ATOM      5  C   UNL     1     159.759 182.682 180.388  1.00  0.00     0.006 C 
BRANCH   5   6
ATOM      6  C   UNL     1     158.375 182.730 181.052  1.00  0.00    -0.003 C 
ATOM      7  C   UNL     1     157.875 184.157 181.275  1.00  0.00     0.004 C 
ENDBRANCH   5   6
ENDBRANCH   1   5
TORSDOF 3
ENDMDL
MODEL 8
REMARK VINA RESULT:    -0.143     24.382     25.141
REMARK INTER + INTRA:          -0.222
REMARK INTER:                  -0.089
REMARK INTRA:                  -0.133
REMARK UNBOUND:                -0.053
REMARK SMILES CCCCC(=O)[O-]
REMARK SMILES IDX 4 1 5 2 6 3 7 4 3 5 2 6 1 7
REMARK H PARENT
REMARK Flexibility Score: inf
ROOT
ATOM      1  C   UNL     1     176.049 199.025 183.417  1.00  0.00     0.053 C 
ENDROOT
BRANCH   1   2
ATOM      2  C   UNL     1     177.420 199.572 183.661  1.00  0.00     0.041 C 
ATOM      3  O   UNL     1     178.125 199.969 182.696  1.00  0.00    -0.550 OA
ATOM      4  O   UNL     1     177.901 199.688 184.959  1.00  0.00    -0.550 OA
ENDBRANCH   1   2
BRANCH   1   5
ATOM      5  C   UNL     1     176.130 197.687 182.670  1.00  0.00     0.006 C 
BRANCH   5   6
ATOM      6  C   UNL     1     176.839 196.598 183.490  1.00  0.00    -0.003 C 
ATOM      7  C   UNL     1     176.086 196.238 184.771  1.00  0.00     0.004 C 
ENDBRANCH   5   6
ENDBRANCH   1   5
TORSDOF 3
ENDMDL
MODEL 9
REMARK VINA RESULT:    -0.142     24.169     24.973
REMARK INTER + INTRA:          -0.220
REMARK INTER:                  -0.094
REMARK INTRA:                  -0.126
REMARK UNBOUND:                -0.053
REMARK SMILES CCCCC(=O)[O-]
REMARK SMILES IDX 4 1 5 2 6 3 7 4 3 5 2 6 1 7
REMARK H PARENT
REMARK Flexibility Score: inf
ROOT
ATOM      1  C   UNL     1     176.453 198.447 182.596  1.00  0.00     0.053 C 
ENDROOT
BRANCH   1   2
ATOM      2  C   UNL     1     177.189 199.193 181.528  1.00  0.00     0.041 C 
ATOM      3  O   UNL     1     178.122 199.980 181.834  1.00  0.00    -0.550 OA
ATOM      4  O   UNL     1     176.877 198.981 180.191  1.00  0.00    -0.550 OA
ENDBRANCH   1   2
BRANCH   1   5
ATOM      5  C   UNL     1     175.569 199.405 183.406  1.00  0.00     0.006 C 
BRANCH   5   6
ATOM      6  C   UNL     1     174.512 200.106 182.540  1.00  0.00    -0.003 C 
ATOM      7  C   UNL     1     173.507 199.131 181.928  1.00  0.00     0.004 C 
ENDBRANCH   5   6
ENDBRANCH   1   5
TORSDOF 3
ENDMDL
