MODEL 1
REMARK VINA RESULT:    -2.020      0.000      0.000
REMARK INTER + INTRA:          -4.912
REMARK INTER:                  -4.381
REMARK INTRA:                  -0.531
REMARK UNBOUND:                -0.531
REMARK SMILES CCCCCCCCCCCCCCCCCCCCCC(=O)[O-]
REMARK SMILES IDX 12 1 11 2 10 3 9 4 8 5 7 6 6 7 5 8 4 9 3 10 2 11 1 12 13 13
REMARK SMILES IDX 14 14 15 15 16 16 17 17 18 18 19 19 20 20 21 21 22 22 23 23
REMARK SMILES IDX 24 24
REMARK H PARENT
REMARK Flexibility Score: inf
ROOT
ATOM      1  C   UNL     1       4.521  12.269   8.735  1.00  0.00     0.000 C 
ENDROOT
BRANCH   1   2
ATOM      2  C   UNL     1       5.808  12.656   9.484  1.00  0.00     0.000 C 
BRANCH   2   3
ATOM      3  C   UNL     1       7.118  12.233   8.791  1.00  0.00     0.000 C 
BRANCH   3   4
ATOM      4  C   UNL     1       7.481  13.096   7.564  1.00  0.00    -0.000 C 
BRANCH   4   5
ATOM      5  C   UNL     1       8.995  13.121   7.291  1.00  0.00    -0.000 C 
BRANCH   5   6
ATOM      6  C   UNL     1       9.579  11.721   7.052  1.00  0.00    -0.000 C 
BRANCH   6   7
ATOM      7  C   UNL     1      10.077  11.523   5.612  1.00  0.00    -0.000 C 
BRANCH   7   8
ATOM      8  C   UNL     1       9.041  12.036   4.600  1.00  0.00    -0.000 C 
BRANCH   8   9
ATOM      9  C   UNL     1       8.140  10.917   4.052  1.00  0.00    -0.000 C 
BRANCH   9  10
ATOM     10  C   UNL     1       6.869  10.718   4.896  1.00  0.00    -0.000 C 
BRANCH  10  11
ATOM     11  C   UNL     1       5.723  11.644   4.462  1.00  0.00    -0.003 C 
ATOM     12  C   UNL     1       6.044  13.125   4.670  1.00  0.00     0.004 C 
ENDBRANCH  10  11
ENDBRANCH   9  10
ENDBRANCH   8   9
ENDBRANCH   7   8
ENDBRANCH   6   7
ENDBRANCH   5   6
ENDBRANCH   4   5
ENDBRANCH   3   4
ENDBRANCH   2   3
ENDBRANCH   1   2
BRANCH   1  13
ATOM     13  C   UNL     1       4.736  11.412   7.471  1.00  0.00     0.000 C 
BRANCH  13  14
ATOM     14  C   UNL     1       3.526  10.524   7.106  1.00  0.00     0.000 C 
BRANCH  14  15
ATOM     15  C   UNL     1       3.784   9.036   7.394  1.00  0.00     0.000 C 
BRANCH  15  16
ATOM     16  C   UNL     1       3.267   8.596   8.776  1.00  0.00     0.000 C 
BRANCH  16  17
ATOM     17  C   UNL     1       3.340   9.674   9.877  1.00  0.00     0.000 C 
BRANCH  17  18
ATOM     18  C   UNL     1       2.121   9.744  10.814  1.00  0.00     0.000 C 
BRANCH  18  19
ATOM     19  C   UNL     1       1.523  11.156  10.918  1.00  0.00     0.000 C 
BRANCH  19  20
ATOM     20  C   UNL     1       1.669  11.953   9.612  1.00  0.00     0.006 C 
BRANCH  20  21
ATOM     21  C   UNL     1       0.636  13.081   9.489  1.00  0.00     0.053 C 
BRANCH  21  22
ATOM     22  C   UNL     1      -0.628  12.564   8.878  1.00  0.00     0.041 C 
ATOM     23  O   UNL     1      -1.727  13.125   9.124  1.00  0.00    -0.550 OA
ATOM     24  O   UNL     1      -0.584  11.494   7.994  1.00  0.00    -0.550 OA
ENDBRANCH  21  22
ENDBRANCH  20  21
ENDBRANCH  19  20
ENDBRANCH  18  19
ENDBRANCH  17  18
ENDBRANCH  16  17
ENDBRANCH  15  16
ENDBRANCH  14  15
ENDBRANCH  13  14
ENDBRANCH   1  13
TORSDOF 20
ENDMDL
MODEL 2
REMARK VINA RESULT:    -1.741      2.423      7.628
REMARK INTER + INTRA:          -4.307
REMARK INTER:                  -4.067
REMARK INTRA:                  -0.240
REMARK UNBOUND:                -0.531
REMARK SMILES CCCCCCCCCCCCCCCCCCCCCC(=O)[O-]
REMARK SMILES IDX 12 1 11 2 10 3 9 4 8 5 7 6 6 7 5 8 4 9 3 10 2 11 1 12 13 13
REMARK SMILES IDX 14 14 15 15 16 16 17 17 18 18 19 19 20 20 21 21 22 22 23 23
REMARK SMILES IDX 24 24
REMARK H PARENT
REMARK Flexibility Score: inf
ROOT
ATOM      1  C   UNL     1       4.772  10.412   7.354  1.00  0.00     0.000 C 
ENDROOT
BRANCH   1   2
ATOM      2  C   UNL     1       3.719   9.393   7.823  1.00  0.00     0.000 C 
BRANCH   2   3
ATOM      3  C   UNL     1       3.090   9.691   9.197  1.00  0.00     0.000 C 
BRANCH   3   4
ATOM      4  C   UNL     1       3.772  10.849   9.957  1.00  0.00    -0.000 C 
BRANCH   4   5
ATOM      5  C   UNL     1       3.432  12.224   9.357  1.00  0.00    -0.000 C 
BRANCH   5   6
ATOM      6  C   UNL     1       2.602  13.099  10.309  1.00  0.00    -0.000 C 
BRANCH   6   7
ATOM      7  C   UNL     1       1.101  13.075   9.982  1.00  0.00    -0.000 C 
BRANCH   7   8
ATOM      8  C   UNL     1       0.750  11.857   9.114  1.00  0.00    -0.000 C 
BRANCH   8   9
ATOM      9  C   UNL     1      -0.665  11.939   8.519  1.00  0.00    -0.000 C 
BRANCH   9  10
ATOM     10  C   UNL     1      -1.483  13.105   9.102  1.00  0.00    -0.000 C 
BRANCH  10  11
ATOM     11  C   UNL     1      -2.998  12.882   8.979  1.00  0.00    -0.003 C 
ATOM     12  C   UNL     1      -3.444  12.616   7.541  1.00  0.00     0.004 C 
ENDBRANCH  10  11
ENDBRANCH   9  10
ENDBRANCH   8   9
ENDBRANCH   7   8
ENDBRANCH   6   7
ENDBRANCH   5   6
ENDBRANCH   4   5
ENDBRANCH   3   4
ENDBRANCH   2   3
ENDBRANCH   1   2
BRANCH   1  13
ATOM     13  C   UNL     1       6.222  10.088   7.767  1.00  0.00     0.000 C 
BRANCH  13  14
ATOM     14  C   UNL     1       6.807  11.065   8.809  1.00  0.00     0.000 C 
BRANCH  14  15
ATOM     15  C   UNL     1       7.405  12.325   8.161  1.00  0.00     0.000 C 
BRANCH  15  16
ATOM     16  C   UNL     1       8.945  12.333   8.175  1.00  0.00     0.000 C 
BRANCH  16  17
ATOM     17  C   UNL     1       9.607  13.073   6.996  1.00  0.00     0.000 C 
BRANCH  17  18
ATOM     18  C   UNL     1       9.005  12.778   5.610  1.00  0.00     0.000 C 
BRANCH  18  19
ATOM     19  C   UNL     1       9.147  11.305   5.194  1.00  0.00     0.000 C 
BRANCH  19  20
ATOM     20  C   UNL     1       7.799  10.566   5.181  1.00  0.00     0.006 C 
BRANCH  20  21
ATOM     21  C   UNL     1       7.000  10.814   3.894  1.00  0.00     0.053 C 
BRANCH  21  22
ATOM     22  C   UNL     1       5.804  11.664   4.181  1.00  0.00     0.041 C 
ATOM     23  O   UNL     1       4.661  11.144   4.261  1.00  0.00    -0.550 OA
ATOM     24  O   UNL     1       5.959  13.025   4.412  1.00  0.00    -0.550 OA
ENDBRANCH  21  22
ENDBRANCH  20  21
ENDBRANCH  19  20
ENDBRANCH  18  19
ENDBRANCH  17  18
ENDBRANCH  16  17
ENDBRANCH  15  16
ENDBRANCH  14  15
ENDBRANCH  13  14
ENDBRANCH   1  13
TORSDOF 20
ENDMDL
MODEL 3
REMARK VINA RESULT:    -1.691      2.238      7.047
REMARK INTER + INTRA:          -4.200
REMARK INTER:                  -3.653
REMARK INTRA:                  -0.547
REMARK UNBOUND:                -0.531
REMARK SMILES CCCCCCCCCCCCCCCCCCCCCC(=O)[O-]
REMARK SMILES IDX 12 1 11 2 10 3 9 4 8 5 7 6 6 7 5 8 4 9 3 10 2 11 1 12 13 13
REMARK SMILES IDX 14 14 15 15 16 16 17 17 18 18 19 19 20 20 21 21 22 22 23 23
REMARK SMILES IDX 24 24
REMARK H PARENT
REMARK Flexibility Score: inf
ROOT
ATOM      1  C   UNL     1       5.570  10.793   8.107  1.00  0.00     0.000 C 
ENDROOT
BRANCH   1   2
ATOM      2  C   UNL     1       4.782  12.104   7.938  1.00  0.00     0.000 C 
BRANCH   2   3
ATOM      3  C   UNL     1       4.786  13.031   9.168  1.00  0.00     0.000 C 
BRANCH   3   4
ATOM      4  C   UNL     1       3.422  13.117   9.887  1.00  0.00    -0.000 C 
BRANCH   4   5
ATOM      5  C   UNL     1       2.380  12.159   9.285  1.00  0.00    -0.000 C 
BRANCH   5   6
ATOM      6  C   UNL     1       1.655  11.324  10.351  1.00  0.00    -0.000 C 
BRANCH   6   7
ATOM      7  C   UNL     1       2.028   9.834  10.293  1.00  0.00    -0.000 C 
BRANCH   7   8
ATOM      8  C   UNL     1       3.476   9.614  10.757  1.00  0.00    -0.000 C 
BRANCH   8   9
ATOM      9  C   UNL     1       4.322   8.850   9.725  1.00  0.00    -0.000 C 
BRANCH   9  10
ATOM     10  C   UNL     1       3.468   7.951   8.812  1.00  0.00    -0.000 C 
BRANCH  10  11
ATOM     11  C   UNL     1       3.417   8.461   7.364  1.00  0.00    -0.003 C 
ATOM     12  C   UNL     1       2.554   9.713   7.205  1.00  0.00     0.004 C 
ENDBRANCH  10  11
ENDBRANCH   9  10
ENDBRANCH   8   9
ENDBRANCH   7   8
ENDBRANCH   6   7
ENDBRANCH   5   6
ENDBRANCH   4   5
ENDBRANCH   3   4
ENDBRANCH   2   3
ENDBRANCH   1   2
BRANCH   1  13
ATOM     13  C   UNL     1       7.104  10.945   8.057  1.00  0.00     0.000 C 
BRANCH  13  14
ATOM     14  C   UNL     1       7.593  12.399   8.230  1.00  0.00     0.000 C 
BRANCH  14  15
ATOM     15  C   UNL     1       9.125  12.493   8.339  1.00  0.00     0.000 C 
BRANCH  15  16
ATOM     16  C   UNL     1       9.776  13.125   7.096  1.00  0.00     0.000 C 
BRANCH  16  17
ATOM     17  C   UNL     1       9.962  12.172   5.898  1.00  0.00     0.000 C 
BRANCH  17  18
ATOM     18  C   UNL     1      10.016  12.850   4.517  1.00  0.00     0.000 C 
BRANCH  18  19
ATOM     19  C   UNL     1       8.724  12.660   3.704  1.00  0.00     0.000 C 
BRANCH  19  20
ATOM     20  C   UNL     1       7.818  11.564   4.287  1.00  0.00     0.006 C 
BRANCH  20  21
ATOM     21  C   UNL     1       6.438  12.094   4.699  1.00  0.00     0.053 C 
BRANCH  21  22
ATOM     22  C   UNL     1       5.360  11.198   4.177  1.00  0.00     0.041 C 
ATOM     23  O   UNL     1       5.512  10.594   3.083  1.00  0.00    -0.550 OA
ATOM     24  O   UNL     1       4.210  10.989   4.924  1.00  0.00    -0.550 OA
ENDBRANCH  21  22
ENDBRANCH  20  21
ENDBRANCH  19  20
ENDBRANCH  18  19
ENDBRANCH  17  18
ENDBRANCH  16  17
ENDBRANCH  15  16
ENDBRANCH  14  15
ENDBRANCH  13  14
ENDBRANCH   1  13
TORSDOF 20
ENDMDL
MODEL 4
REMARK VINA RESULT:    -1.606      1.718      6.525
REMARK INTER + INTRA:          -4.015
REMARK INTER:                  -4.005
REMARK INTRA:                  -0.010
REMARK UNBOUND:                -0.531
REMARK SMILES CCCCCCCCCCCCCCCCCCCCCC(=O)[O-]
REMARK SMILES IDX 12 1 11 2 10 3 9 4 8 5 7 6 6 7 5 8 4 9 3 10 2 11 1 12 13 13
REMARK SMILES IDX 14 14 15 15 16 16 17 17 18 18 19 19 20 20 21 21 22 22 23 23
REMARK SMILES IDX 24 24
REMARK H PARENT
REMARK Flexibility Score: inf
ROOT
ATOM      1  C   UNL     1       7.350  11.423   7.157  1.00  0.00     0.000 C 
ENDROOT
BRANCH   1   2
ATOM      2  C   UNL     1       6.951  12.834   7.621  1.00  0.00     0.000 C 
BRANCH   2   3
ATOM      3  C   UNL     1       7.200  13.125   9.114  1.00  0.00     0.000 C 
BRANCH   3   4
ATOM      4  C   UNL     1       5.916  13.123   9.972  1.00  0.00    -0.000 C 
BRANCH   4   5
ATOM      5  C   UNL     1       4.641  13.003   9.118  1.00  0.00    -0.000 C 
BRANCH   5   6
ATOM      6  C   UNL     1       3.356  13.090   9.955  1.00  0.00    -0.000 C 
BRANCH   6   7
ATOM      7  C   UNL     1       2.085  13.091   9.092  1.00  0.00    -0.000 C 
BRANCH   7   8
ATOM      8  C   UNL     1       1.258  11.819   9.334  1.00  0.00    -0.000 C 
BRANCH   8   9
ATOM      9  C   UNL     1       1.450  11.246  10.748  1.00  0.00    -0.000 C 
BRANCH   9  10
ATOM     10  C   UNL     1       2.195   9.899  10.742  1.00  0.00    -0.000 C 
BRANCH  10  11
ATOM     11  C   UNL     1       3.713  10.065  10.916  1.00  0.00    -0.003 C 
ATOM     12  C   UNL     1       4.513   9.443   9.771  1.00  0.00     0.004 C 
ENDBRANCH  10  11
ENDBRANCH   9  10
ENDBRANCH   8   9
ENDBRANCH   7   8
ENDBRANCH   6   7
ENDBRANCH   5   6
ENDBRANCH   4   5
ENDBRANCH   3   4
ENDBRANCH   2   3
ENDBRANCH   1   2
BRANCH   1  13
ATOM     13  C   UNL     1       8.830  11.055   7.389  1.00  0.00     0.000 C 
BRANCH  13  14
ATOM     14  C   UNL     1       9.673  11.012   6.096  1.00  0.00     0.000 C 
BRANCH  14  15
ATOM     15  C   UNL     1       9.986  12.417   5.554  1.00  0.00     0.000 C 
BRANCH  15  16
ATOM     16  C   UNL     1       8.871  12.971   4.649  1.00  0.00     0.000 C 
BRANCH  16  17
ATOM     17  C   UNL     1       7.988  11.904   3.970  1.00  0.00     0.000 C 
BRANCH  17  18
ATOM     18  C   UNL     1       6.478  12.206   3.960  1.00  0.00     0.000 C 
BRANCH  18  19
ATOM     19  C   UNL     1       5.612  10.948   4.140  1.00  0.00     0.000 C 
BRANCH  19  20
ATOM     20  C   UNL     1       4.461  11.165   5.136  1.00  0.00     0.006 C 
BRANCH  20  21
ATOM     21  C   UNL     1       4.709  10.479   6.486  1.00  0.00     0.053 C 
BRANCH  21  22
ATOM     22  C   UNL     1       3.513   9.675   6.888  1.00  0.00     0.041 C 
ATOM     23  O   UNL     1       3.659   8.550   7.431  1.00  0.00    -0.550 OA
ATOM     24  O   UNL     1       2.238  10.194   6.710  1.00  0.00    -0.550 OA
ENDBRANCH  21  22
ENDBRANCH  20  21
ENDBRANCH  19  20
ENDBRANCH  18  19
ENDBRANCH  17  18
ENDBRANCH  16  17
ENDBRANCH  15  16
ENDBRANCH  14  15
ENDBRANCH  13  14
ENDBRANCH   1  13
TORSDOF 20
ENDMDL
MODEL 5
REMARK VINA RESULT:    -0.796      2.389      3.822
REMARK INTER + INTRA:          -2.257
REMARK INTER:                  -2.043
REMARK INTRA:                  -0.214
REMARK UNBOUND:                -0.531
REMARK SMILES CCCCCCCCCCCCCCCCCCCCCC(=O)[O-]
REMARK SMILES IDX 12 1 11 2 10 3 9 4 8 5 7 6 6 7 5 8 4 9 3 10 2 11 1 12 13 13
REMARK SMILES IDX 14 14 15 15 16 16 17 17 18 18 19 19 20 20 21 21 22 22 23 23
REMARK SMILES IDX 24 24
REMARK H PARENT
REMARK Flexibility Score: inf
ROOT
ATOM      1  C   UNL     1       4.988  10.717   5.155  1.00  0.00     0.000 C 
ENDROOT
BRANCH   1   2
ATOM      2  C   UNL     1       4.981  12.218   4.817  1.00  0.00     0.000 C 
BRANCH   2   3
ATOM      3  C   UNL     1       6.197  13.009   5.337  1.00  0.00     0.000 C 
BRANCH   3   4
ATOM      4  C   UNL     1       6.381  12.933   6.868  1.00  0.00    -0.000 C 
BRANCH   4   5
ATOM      5  C   UNL     1       7.522  11.984   7.275  1.00  0.00    -0.000 C 
BRANCH   5   6
ATOM      6  C   UNL     1       8.588  12.673   8.140  1.00  0.00    -0.000 C 
BRANCH   6   7
ATOM      7  C   UNL     1      10.009  12.498   7.583  1.00  0.00    -0.000 C 
BRANCH   7   8
ATOM      8  C   UNL     1       9.970  11.991   6.134  1.00  0.00    -0.000 C 
BRANCH   8   9
ATOM      9  C   UNL     1      10.098  13.125   5.103  1.00  0.00    -0.000 C 
BRANCH   9  10
ATOM     10  C   UNL     1       9.765  12.662   3.674  1.00  0.00    -0.000 C 
BRANCH  10  11
ATOM     11  C   UNL     1       8.352  12.071   3.560  1.00  0.00    -0.003 C 
ATOM     12  C   UNL     1       8.253  10.656   4.131  1.00  0.00     0.004 C 
ENDBRANCH  10  11
ENDBRANCH   9  10
ENDBRANCH   8   9
ENDBRANCH   7   8
ENDBRANCH   6   7
ENDBRANCH   5   6
ENDBRANCH   4   5
ENDBRANCH   3   4
ENDBRANCH   2   3
ENDBRANCH   1   2
BRANCH   1  13
ATOM     13  C   UNL     1       3.698  10.193   5.818  1.00  0.00     0.000 C 
BRANCH  13  14
ATOM     14  C   UNL     1       3.059  11.187   6.813  1.00  0.00     0.000 C 
BRANCH  14  15
ATOM     15  C   UNL     1       1.703  10.693   7.345  1.00  0.00     0.000 C 
BRANCH  15  16
ATOM     16  C   UNL     1       1.555  10.875   8.866  1.00  0.00     0.000 C 
BRANCH  16  17
ATOM     17  C   UNL     1       1.358  12.330   9.336  1.00  0.00     0.000 C 
BRANCH  17  18
ATOM     18  C   UNL     1       2.621  13.026   9.876  1.00  0.00     0.000 C 
BRANCH  18  19
ATOM     19  C   UNL     1       3.880  12.707   9.053  1.00  0.00     0.000 C 
BRANCH  19  20
ATOM     20  C   UNL     1       4.907  11.884   9.847  1.00  0.00     0.006 C 
BRANCH  20  21
ATOM     21  C   UNL     1       4.446  10.441  10.092  1.00  0.00     0.053 C 
BRANCH  21  22
ATOM     22  C   UNL     1       5.076   9.519   9.097  1.00  0.00     0.041 C 
ATOM     23  O   UNL     1       6.266   9.699   8.729  1.00  0.00    -0.550 OA
ATOM     24  O   UNL     1       4.364   8.429   8.614  1.00  0.00    -0.550 OA
ENDBRANCH  21  22
ENDBRANCH  20  21
ENDBRANCH  19  20
ENDBRANCH  18  19
ENDBRANCH  17  18
ENDBRANCH  16  17
ENDBRANCH  15  16
ENDBRANCH  14  15
ENDBRANCH  13  14
ENDBRANCH   1  13
TORSDOF 20
ENDMDL
MODEL 6
REMARK VINA RESULT:    -0.653      1.957      3.909
REMARK INTER + INTRA:          -1.948
REMARK INTER:                  -2.192
REMARK INTRA:                   0.244
REMARK UNBOUND:                -0.531
REMARK SMILES CCCCCCCCCCCCCCCCCCCCCC(=O)[O-]
REMARK SMILES IDX 12 1 11 2 10 3 9 4 8 5 7 6 6 7 5 8 4 9 3 10 2 11 1 12 13 13
REMARK SMILES IDX 14 14 15 15 16 16 17 17 18 18 19 19 20 20 21 21 22 22 23 23
REMARK SMILES IDX 24 24
REMARK H PARENT
REMARK Flexibility Score: inf
ROOT
ATOM      1  C   UNL     1       6.818  10.896   4.736  1.00  0.00     0.000 C 
ENDROOT
BRANCH   1   2
ATOM      2  C   UNL     1       7.714  11.304   3.554  1.00  0.00     0.000 C 
BRANCH   2   3
ATOM      3  C   UNL     1       8.325  12.716   3.656  1.00  0.00     0.000 C 
BRANCH   3   4
ATOM      4  C   UNL     1       8.821  13.078   5.072  1.00  0.00    -0.000 C 
BRANCH   4   5
ATOM      5  C   UNL     1      10.017  12.217   5.514  1.00  0.00    -0.000 C 
BRANCH   5   6
ATOM      6  C   UNL     1      10.048  11.977   7.030  1.00  0.00    -0.000 C 
BRANCH   6   7
ATOM      7  C   UNL     1       9.220  13.009   7.812  1.00  0.00    -0.000 C 
BRANCH   7   8
ATOM      8  C   UNL     1       7.723  12.672   7.745  1.00  0.00    -0.000 C 
BRANCH   8   9
ATOM      9  C   UNL     1       7.088  12.503   9.135  1.00  0.00    -0.000 C 
BRANCH   9  10
ATOM     10  C   UNL     1       5.841  11.602   9.107  1.00  0.00    -0.000 C 
BRANCH  10  11
ATOM     11  C   UNL     1       6.162  10.165   8.670  1.00  0.00    -0.003 C 
ATOM     12  C   UNL     1       5.353   9.116   9.435  1.00  0.00     0.004 C 
ENDBRANCH  10  11
ENDBRANCH   9  10
ENDBRANCH   8   9
ENDBRANCH   7   8
ENDBRANCH   6   7
ENDBRANCH   5   6
ENDBRANCH   4   5
ENDBRANCH   3   4
ENDBRANCH   2   3
ENDBRANCH   1   2
BRANCH   1  13
ATOM     13  C   UNL     1       5.307  11.102   4.509  1.00  0.00     0.000 C 
BRANCH  13  14
ATOM     14  C   UNL     1       4.505  11.328   5.809  1.00  0.00     0.000 C 
BRANCH  14  15
ATOM     15  C   UNL     1       4.064  10.007   6.462  1.00  0.00     0.000 C 
BRANCH  15  16
ATOM     16  C   UNL     1       2.564   9.984   6.811  1.00  0.00     0.000 C 
BRANCH  16  17
ATOM     17  C   UNL     1       2.186  10.699   8.123  1.00  0.00     0.000 C 
BRANCH  17  18
ATOM     18  C   UNL     1       0.985  11.658   8.029  1.00  0.00     0.000 C 
BRANCH  18  19
ATOM     19  C   UNL     1       0.984  12.729   9.133  1.00  0.00     0.000 C 
BRANCH  19  20
ATOM     20  C   UNL     1       1.539  12.200  10.465  1.00  0.00     0.006 C 
BRANCH  20  21
ATOM     21  C   UNL     1       0.960  10.831  10.845  1.00  0.00     0.053 C 
BRANCH  21  22
ATOM     22  C   UNL     1       2.059   9.830  11.012  1.00  0.00     0.041 C 
ATOM     23  O   UNL     1       3.255  10.211  11.103  1.00  0.00    -0.550 OA
ATOM     24  O   UNL     1       1.757   8.480  11.121  1.00  0.00    -0.550 OA
ENDBRANCH  21  22
ENDBRANCH  20  21
ENDBRANCH  19  20
ENDBRANCH  18  19
ENDBRANCH  17  18
ENDBRANCH  16  17
ENDBRANCH  15  16
ENDBRANCH  14  15
ENDBRANCH  13  14
ENDBRANCH   1  13
TORSDOF 20
ENDMDL
