MODEL 1
REMARK VINA RESULT:    -2.496      0.000      0.000
REMARK INTER + INTRA:          -2.692
REMARK INTER:                  -3.007
REMARK INTRA:                   0.315
REMARK UNBOUND:                 0.315
REMARK SMILES O=c1c(O)c(-c2ccc(O)c(O)c2)oc2cc(O)cc(O)c12
REMARK SMILES IDX 5 1 3 2 2 3 1 4 22 5 20 6 19 7 17 8 16 9 15 10 14 11 6 12
REMARK SMILES IDX 7 13 8 14 9 15 13 16 11 17 10 18 12 20 4 22 21 24 18 26
REMARK H PARENT 10 19 12 21 4 23 21 25 18 27
REMARK Flexibility Score: inf
ROOT
ATOM      1  C   UNL     1     -12.084  -5.734  -6.542  1.00  0.00     0.180 A 
ATOM      2  C   UNL     1     -12.756  -6.967  -6.458  1.00  0.00     0.208 A 
ATOM      3  C   UNL     1     -14.128  -6.976  -6.162  1.00  0.00     0.238 A 
ATOM      4  O   UNL     1     -14.711  -8.084  -6.035  1.00  0.00    -0.285 OA
ATOM      5  C   UNL     1     -14.815  -5.753  -5.970  1.00  0.00     0.111 A 
ATOM      6  C   UNL     1     -16.214  -5.642  -5.705  1.00  0.00     0.134 A 
ATOM      7  C   UNL     1     -16.762  -4.390  -5.402  1.00  0.00     0.093 A 
ATOM      8  C   UNL     1     -15.975  -3.236  -5.420  1.00  0.00     0.123 A 
ATOM      9  C   UNL     1     -14.621  -3.327  -5.735  1.00  0.00     0.094 A 
ATOM     10  C   UNL     1     -14.038  -4.567  -6.006  1.00  0.00     0.146 A 
ATOM     11  O   UNL     1     -12.743  -4.609  -6.292  1.00  0.00    -0.452 OA
ENDROOT
BRANCH   1  12
ATOM     12  C   UNL     1     -10.644  -5.643  -6.874  1.00  0.00     0.025 A 
ATOM     13  C   UNL     1      -9.992  -6.660  -7.594  1.00  0.00     0.016 A 
ATOM     14  C   UNL     1      -8.639  -6.540  -7.917  1.00  0.00     0.051 A 
ATOM     15  C   UNL     1      -7.919  -5.399  -7.539  1.00  0.00     0.157 A 
ATOM     16  C   UNL     1      -9.924  -4.491  -6.517  1.00  0.00     0.062 A 
ATOM     17  C   UNL     1      -8.567  -4.369  -6.838  1.00  0.00     0.158 A 
BRANCH  15  18
ATOM     18  O   UNL     1      -6.567  -5.283  -7.862  1.00  0.00    -0.504 OA
ATOM     19  H   UNL     1      -5.850  -5.270  -7.147  1.00  0.00     0.293 HD
ENDBRANCH  15  18
BRANCH  17  20
ATOM     20  O   UNL     1      -7.881  -3.217  -6.453  1.00  0.00    -0.504 OA
ATOM     21  H   UNL     1      -7.562  -2.531  -7.127  1.00  0.00     0.293 HD
ENDBRANCH  17  20
ENDBRANCH   1  12
BRANCH   2  22
ATOM     22  O   UNL     1     -12.053  -8.162  -6.630  1.00  0.00    -0.502 OA
ATOM     23  H   UNL     1     -12.503  -9.019  -6.930  1.00  0.00     0.293 HD
ENDBRANCH   2  22
BRANCH   6  24
ATOM     24  O   UNL     1     -17.104  -6.719  -5.754  1.00  0.00    -0.507 OA
ATOM     25  H   UNL     1     -17.246  -7.383  -5.006  1.00  0.00     0.293 HD
ENDBRANCH   6  24
BRANCH   8  26
ATOM     26  O   UNL     1     -16.533  -1.992  -5.133  1.00  0.00    -0.508 OA
ATOM     27  H   UNL     1     -17.376  -1.905  -4.579  1.00  0.00     0.293 HD
ENDBRANCH   8  26
TORSDOF 6
ENDMDL
MODEL 2
REMARK VINA RESULT:    -2.034      1.318      2.923
REMARK INTER + INTRA:          -2.136
REMARK INTER:                  -2.679
REMARK INTRA:                   0.544
REMARK UNBOUND:                 0.315
REMARK SMILES O=c1c(O)c(-c2ccc(O)c(O)c2)oc2cc(O)cc(O)c12
REMARK SMILES IDX 5 1 3 2 2 3 1 4 22 5 20 6 19 7 17 8 16 9 15 10 14 11 6 12
REMARK SMILES IDX 7 13 8 14 9 15 13 16 11 17 10 18 12 20 4 22 21 24 18 26
REMARK H PARENT 10 19 12 21 4 23 21 25 18 27
REMARK Flexibility Score: inf
ROOT
ATOM      1  C   UNL     1     -12.550  -5.452  -6.358  1.00  0.00     0.180 A 
ATOM      2  C   UNL     1     -13.172  -4.306  -5.831  1.00  0.00     0.208 A 
ATOM      3  C   UNL     1     -14.542  -4.352  -5.531  1.00  0.00     0.238 A 
ATOM      4  O   UNL     1     -15.104  -3.306  -5.111  1.00  0.00    -0.285 OA
ATOM      5  C   UNL     1     -15.271  -5.547  -5.745  1.00  0.00     0.111 A 
ATOM      6  C   UNL     1     -16.655  -5.718  -5.440  1.00  0.00     0.134 A 
ATOM      7  C   UNL     1     -17.304  -6.900  -5.814  1.00  0.00     0.093 A 
ATOM      8  C   UNL     1     -16.603  -7.943  -6.425  1.00  0.00     0.123 A 
ATOM      9  C   UNL     1     -15.239  -7.808  -6.674  1.00  0.00     0.094 A 
ATOM     10  C   UNL     1     -14.573  -6.626  -6.344  1.00  0.00     0.146 A 
ATOM     11  O   UNL     1     -13.275  -6.536  -6.608  1.00  0.00    -0.452 OA
ENDROOT
BRANCH   1  12
ATOM     12  C   UNL     1     -11.104  -5.488  -6.675  1.00  0.00     0.025 A 
ATOM     13  C   UNL     1     -10.485  -6.662  -7.139  1.00  0.00     0.016 A 
ATOM     14  C   UNL     1      -9.124  -6.665  -7.455  1.00  0.00     0.051 A 
ATOM     15  C   UNL     1      -8.365  -5.495  -7.326  1.00  0.00     0.157 A 
ATOM     16  C   UNL     1     -10.344  -4.312  -6.569  1.00  0.00     0.062 A 
ATOM     17  C   UNL     1      -8.980  -4.312  -6.883  1.00  0.00     0.158 A 
BRANCH  15  18
ATOM     18  O   UNL     1      -7.007  -5.502  -7.641  1.00  0.00    -0.504 OA
ATOM     19  H   UNL     1      -6.447  -4.659  -7.596  1.00  0.00     0.293 HD
ENDBRANCH  15  18
BRANCH  17  20
ATOM     20  O   UNL     1      -8.255  -3.129  -6.751  1.00  0.00    -0.504 OA
ATOM     21  H   UNL     1      -8.650  -2.300  -6.323  1.00  0.00     0.293 HD
ENDBRANCH  17  20
ENDBRANCH   1  12
BRANCH   2  22
ATOM     22  O   UNL     1     -12.438  -3.131  -5.648  1.00  0.00    -0.502 OA
ATOM     23  H   UNL     1     -12.198  -2.777  -4.729  1.00  0.00     0.293 HD
ENDBRANCH   2  22
BRANCH   6  24
ATOM     24  O   UNL     1     -17.423  -4.776  -4.750  1.00  0.00    -0.507 OA
ATOM     25  H   UNL     1     -17.049  -4.056  -4.150  1.00  0.00     0.293 HD
ENDBRANCH   6  24
BRANCH   8  26
ATOM     26  O   UNL     1     -17.254  -9.123  -6.781  1.00  0.00    -0.508 OA
ATOM     27  H   UNL     1     -18.179  -9.114  -7.192  1.00  0.00     0.293 HD
ENDBRANCH   8  26
TORSDOF 6
ENDMDL
MODEL 3
REMARK VINA RESULT:    -0.181      1.756      7.097
REMARK INTER + INTRA:           0.097
REMARK INTER:                  -0.232
REMARK INTRA:                   0.329
REMARK UNBOUND:                 0.315
REMARK SMILES O=c1c(O)c(-c2ccc(O)c(O)c2)oc2cc(O)cc(O)c12
REMARK SMILES IDX 5 1 3 2 2 3 1 4 22 5 20 6 19 7 17 8 16 9 15 10 14 11 6 12
REMARK SMILES IDX 7 13 8 14 9 15 13 16 11 17 10 18 12 20 4 22 21 24 18 26
REMARK H PARENT 10 19 12 21 4 23 21 25 18 27
REMARK Flexibility Score: inf
ROOT
ATOM      1  C   UNL     1     -12.545  -6.273  -6.470  1.00  0.00     0.180 A 
ATOM      2  C   UNL     1     -12.431  -4.963  -5.973  1.00  0.00     0.208 A 
ATOM      3  C   UNL     1     -11.202  -4.294  -6.091  1.00  0.00     0.238 A 
ATOM      4  O   UNL     1     -11.092  -3.141  -5.596  1.00  0.00    -0.285 OA
ATOM      5  C   UNL     1     -10.108  -4.936  -6.720  1.00  0.00     0.111 A 
ATOM      6  C   UNL     1      -8.829  -4.338  -6.930  1.00  0.00     0.134 A 
ATOM      7  C   UNL     1      -7.781  -5.111  -7.444  1.00  0.00     0.093 A 
ATOM      8  C   UNL     1      -7.985  -6.442  -7.817  1.00  0.00     0.123 A 
ATOM      9  C   UNL     1      -9.245  -7.017  -7.671  1.00  0.00     0.094 A 
ATOM     10  C   UNL     1     -10.300  -6.281  -7.127  1.00  0.00     0.146 A 
ATOM     11  O   UNL     1     -11.482  -6.871  -6.995  1.00  0.00    -0.452 OA
ENDROOT
BRANCH   1  12
ATOM     12  C   UNL     1     -13.814  -7.032  -6.405  1.00  0.00     0.025 A 
ATOM     13  C   UNL     1     -13.825  -8.433  -6.282  1.00  0.00     0.016 A 
ATOM     14  C   UNL     1     -15.035  -9.125  -6.197  1.00  0.00     0.051 A 
ATOM     15  C   UNL     1     -16.252  -8.430  -6.220  1.00  0.00     0.157 A 
ATOM     16  C   UNL     1     -15.036  -6.338  -6.405  1.00  0.00     0.062 A 
ATOM     17  C   UNL     1     -16.250  -7.029  -6.321  1.00  0.00     0.158 A 
BRANCH  15  18
ATOM     18  O   UNL     1     -17.458  -9.125  -6.136  1.00  0.00    -0.504 OA
ATOM     19  H   UNL     1     -18.280  -8.824  -6.647  1.00  0.00     0.293 HD
ENDBRANCH  15  18
BRANCH  17  20
ATOM     20  O   UNL     1     -17.443  -6.307  -6.340  1.00  0.00    -0.504 OA
ATOM     21  H   UNL     1     -18.265  -6.638  -6.830  1.00  0.00     0.293 HD
ENDBRANCH  17  20
ENDBRANCH   1  12
BRANCH   2  22
ATOM     22  O   UNL     1     -13.518  -4.356  -5.338  1.00  0.00    -0.502 OA
ATOM     23  H   UNL     1     -13.449  -3.448  -4.892  1.00  0.00     0.293 HD
ENDBRANCH   2  22
BRANCH   6  24
ATOM     24  O   UNL     1      -8.547  -2.993  -6.678  1.00  0.00    -0.507 OA
ATOM     25  H   UNL     1      -7.659  -2.547  -6.861  1.00  0.00     0.293 HD
ENDBRANCH   6  24
BRANCH   8  26
ATOM     26  O   UNL     1      -6.940  -7.200  -8.342  1.00  0.00    -0.508 OA
ATOM     27  H   UNL     1      -6.230  -7.608  -7.746  1.00  0.00     0.293 HD
ENDBRANCH   8  26
TORSDOF 6
ENDMDL
MODEL 4
REMARK VINA RESULT:    -0.172      1.691      3.228
REMARK INTER + INTRA:           0.107
REMARK INTER:                   0.313
REMARK INTRA:                  -0.206
REMARK UNBOUND:                 0.315
REMARK SMILES O=c1c(O)c(-c2ccc(O)c(O)c2)oc2cc(O)cc(O)c12
REMARK SMILES IDX 5 1 3 2 2 3 1 4 22 5 20 6 19 7 17 8 16 9 15 10 14 11 6 12
REMARK SMILES IDX 7 13 8 14 9 15 13 16 11 17 10 18 12 20 4 22 21 24 18 26
REMARK H PARENT 10 19 12 21 4 23 21 25 18 27
REMARK Flexibility Score: inf
ROOT
ATOM      1  C   UNL     1     -10.916  -5.906  -7.020  1.00  0.00     0.180 A 
ATOM      2  C   UNL     1     -11.185  -4.725  -6.306  1.00  0.00     0.208 A 
ATOM      3  C   UNL     1     -12.487  -4.494  -5.837  1.00  0.00     0.238 A 
ATOM      4  O   UNL     1     -12.733  -3.410  -5.245  1.00  0.00    -0.285 OA
ATOM      5  C   UNL     1     -13.501  -5.454  -6.071  1.00  0.00     0.111 A 
ATOM      6  C   UNL     1     -14.846  -5.342  -5.607  1.00  0.00     0.134 A 
ATOM      7  C   UNL     1     -15.797  -6.287  -6.010  1.00  0.00     0.093 A 
ATOM      8  C   UNL     1     -15.436  -7.377  -6.806  1.00  0.00     0.123 A 
ATOM      9  C   UNL     1     -14.113  -7.526  -7.216  1.00  0.00     0.094 A 
ATOM     10  C   UNL     1     -13.150  -6.579  -6.860  1.00  0.00     0.146 A 
ATOM     11  O   UNL     1     -11.903  -6.755  -7.281  1.00  0.00    -0.452 OA
ENDROOT
BRANCH   1  12
ATOM     12  C   UNL     1      -9.562  -6.231  -7.525  1.00  0.00     0.025 A 
ATOM     13  C   UNL     1      -9.265  -6.196  -8.898  1.00  0.00     0.016 A 
ATOM     14  C   UNL     1      -7.974  -6.482  -9.348  1.00  0.00     0.051 A 
ATOM     15  C   UNL     1      -6.958  -6.795  -8.435  1.00  0.00     0.157 A 
ATOM     16  C   UNL     1      -8.536  -6.522  -6.611  1.00  0.00     0.062 A 
ATOM     17  C   UNL     1      -7.242  -6.811  -7.059  1.00  0.00     0.158 A 
BRANCH  15  18
ATOM     18  O   UNL     1      -5.671  -7.081  -8.888  1.00  0.00    -0.504 OA
ATOM     19  H   UNL     1      -5.136  -7.855  -8.512  1.00  0.00     0.293 HD
ENDBRANCH  15  18
BRANCH  17  20
ATOM     20  O   UNL     1      -6.252  -7.111  -6.123  1.00  0.00    -0.504 OA
ATOM     21  H   UNL     1      -6.116  -8.049  -5.766  1.00  0.00     0.293 HD
ENDBRANCH  17  20
ENDBRANCH   1  12
BRANCH   2  22
ATOM     22  O   UNL     1     -10.173  -3.781  -6.104  1.00  0.00    -0.502 OA
ATOM     23  H   UNL     1     -10.364  -2.843  -5.772  1.00  0.00     0.293 HD
ENDBRANCH   2  22
BRANCH   6  24
ATOM     24  O   UNL     1     -15.289  -4.345  -4.733  1.00  0.00    -0.507 OA
ATOM     25  H   UNL     1     -15.207  -3.353  -4.903  1.00  0.00     0.293 HD
ENDBRANCH   6  24
BRANCH   8  26
ATOM     26  O   UNL     1     -16.386  -8.322  -7.190  1.00  0.00    -0.508 OA
ATOM     27  H   UNL     1     -16.292  -9.299  -6.939  1.00  0.00     0.293 HD
ENDBRANCH   8  26
TORSDOF 6
ENDMDL
MODEL 5
REMARK VINA RESULT:    -0.071      1.604      7.398
REMARK INTER + INTRA:           0.229
REMARK INTER:                   0.095
REMARK INTRA:                   0.134
REMARK UNBOUND:                 0.315
REMARK SMILES O=c1c(O)c(-c2ccc(O)c(O)c2)oc2cc(O)cc(O)c12
REMARK SMILES IDX 5 1 3 2 2 3 1 4 22 5 20 6 19 7 17 8 16 9 15 10 14 11 6 12
REMARK SMILES IDX 7 13 8 14 9 15 13 16 11 17 10 18 12 20 4 22 21 24 18 26
REMARK H PARENT 10 19 12 21 4 23 21 25 18 27
REMARK Flexibility Score: inf
ROOT
ATOM      1  C   UNL     1     -10.921  -5.515  -7.030  1.00  0.00     0.180 A 
ATOM      2  C   UNL     1     -10.098  -4.674  -6.260  1.00  0.00     0.208 A 
ATOM      3  C   UNL     1      -8.755  -4.509  -6.634  1.00  0.00     0.238 A 
ATOM      4  O   UNL     1      -8.010  -3.797  -5.910  1.00  0.00    -0.285 OA
ATOM      5  C   UNL     1      -8.256  -5.171  -7.782  1.00  0.00     0.111 A 
ATOM      6  C   UNL     1      -6.923  -5.044  -8.275  1.00  0.00     0.134 A 
ATOM      7  C   UNL     1      -6.502  -5.847  -9.342  1.00  0.00     0.093 A 
ATOM      8  C   UNL     1      -7.386  -6.726  -9.974  1.00  0.00     0.123 A 
ATOM      9  C   UNL     1      -8.705  -6.814  -9.536  1.00  0.00     0.094 A 
ATOM     10  C   UNL     1      -9.144  -6.052  -8.452  1.00  0.00     0.146 A 
ATOM     11  O   UNL     1     -10.407  -6.174  -8.061  1.00  0.00    -0.452 OA
ENDROOT
BRANCH   1  12
ATOM     12  C   UNL     1     -12.353  -5.720  -6.712  1.00  0.00     0.025 A 
ATOM     13  C   UNL     1     -12.930  -7.002  -6.723  1.00  0.00     0.016 A 
ATOM     14  C   UNL     1     -14.278  -7.173  -6.396  1.00  0.00     0.051 A 
ATOM     15  C   UNL     1     -15.066  -6.070  -6.041  1.00  0.00     0.157 A 
ATOM     16  C   UNL     1     -13.142  -4.620  -6.334  1.00  0.00     0.062 A 
ATOM     17  C   UNL     1     -14.492  -4.788  -6.008  1.00  0.00     0.158 A 
BRANCH  15  18
ATOM     18  O   UNL     1     -16.410  -6.244  -5.717  1.00  0.00    -0.504 OA
ATOM     19  H   UNL     1     -16.702  -6.882  -4.986  1.00  0.00     0.293 HD
ENDBRANCH  15  18
BRANCH  17  20
ATOM     20  O   UNL     1     -15.246  -3.670  -5.652  1.00  0.00    -0.504 OA
ATOM     21  H   UNL     1     -15.571  -2.999  -6.338  1.00  0.00     0.293 HD
ENDBRANCH  17  20
ENDBRANCH   1  12
BRANCH   2  22
ATOM     22  O   UNL     1     -10.606  -4.047  -5.119  1.00  0.00    -0.502 OA
ATOM     23  H   UNL     1     -10.118  -3.292  -4.651  1.00  0.00     0.293 HD
ENDBRANCH   2  22
BRANCH   6  24
ATOM     24  O   UNL     1      -5.990  -4.131  -7.776  1.00  0.00    -0.507 OA
ATOM     25  H   UNL     1      -4.989  -4.254  -7.810  1.00  0.00     0.293 HD
ENDBRANCH   6  24
BRANCH   8  26
ATOM     26  O   UNL     1      -6.962  -7.511 -11.045  1.00  0.00    -0.508 OA
ATOM     27  H   UNL     1      -5.998  -7.806 -11.136  1.00  0.00     0.293 HD
ENDBRANCH   8  26
TORSDOF 6
ENDMDL
