MODEL 1
REMARK VINA RESULT:    -6.517      0.000      0.000
REMARK INTER + INTRA:         -10.978
REMARK INTER:                 -10.137
REMARK INTRA:                  -0.840
REMARK UNBOUND:                -0.840
REMARK SMILES COc1cc(CNC(=O)CCCCC=CC(C)C)ccc1O
REMARK SMILES IDX 11 1 12 2 13 3 14 4 15 5 16 6 17 7 18 8 10 9 8 10 9 11 7 12
REMARK SMILES IDX 6 14 5 15 4 16 19 17 3 18 20 19 21 20 2 21 1 22 22 23
REMARK H PARENT 7 13 22 24
REMARK Flexibility Score: inf
ROOT
ATOM      1  C   UNL     1     -23.878 -16.779  -6.968  1.00  0.00     0.010 C 
ENDROOT
BRANCH   1   2
ATOM      2  C   UNL     1     -23.677 -17.988  -6.042  1.00  0.00     0.005 C 
BRANCH   2   3
ATOM      3  C   UNL     1     -22.439 -17.840  -5.143  1.00  0.00     0.027 C 
BRANCH   3   4
ATOM      4  C   UNL     1     -21.751 -16.525  -5.382  1.00  0.00    -0.031 C 
ATOM      5  C   UNL     1     -20.839 -16.378  -6.358  1.00  0.00    -0.028 C 
BRANCH   5   6
ATOM      6  C   UNL     1     -20.138 -15.066  -6.633  1.00  0.00     0.005 C 
ATOM      7  C   UNL     1     -20.971 -13.875  -6.141  1.00  0.00     0.012 C 
ATOM      8  C   UNL     1     -19.781 -14.920  -8.116  1.00  0.00     0.012 C 
ENDBRANCH   5   6
ENDBRANCH   3   4
ENDBRANCH   2   3
ENDBRANCH   1   2
BRANCH   1   9
ATOM      9  C   UNL     1     -23.790 -17.154  -8.454  1.00  0.00     0.100 C 
BRANCH   9  10
ATOM     10  C   UNL     1     -23.117 -16.060  -9.226  1.00  0.00     0.220 C 
ATOM     11  O   UNL     1     -23.141 -14.881  -8.781  1.00  0.00    -0.275 OA
ATOM     12  N   UNL     1     -22.403 -16.366 -10.432  1.00  0.00    -0.352 N 
ATOM     13  H   UNL     1     -22.358 -17.358 -10.755  1.00  0.00     0.163 HD
BRANCH  12  14
ATOM     14  C   UNL     1     -21.689 -15.349 -11.202  1.00  0.00     0.151 C 
BRANCH  14  15
ATOM     15  C   UNL     1     -22.191 -15.315 -12.621  1.00  0.00    -0.025 A 
ATOM     16  C   UNL     1     -23.083 -16.300 -13.075  1.00  0.00     0.056 A 
ATOM     17  C   UNL     1     -21.787 -14.293 -13.494  1.00  0.00     0.009 A 
ATOM     18  C   UNL     1     -23.571 -16.270 -14.398  1.00  0.00     0.160 A 
ATOM     19  C   UNL     1     -22.266 -14.260 -14.805  1.00  0.00     0.050 A 
ATOM     20  C   UNL     1     -23.152 -15.240 -15.262  1.00  0.00     0.157 A 
BRANCH  18  21
ATOM     21  O   UNL     1     -24.465 -17.238 -14.882  1.00  0.00    -0.493 OA
ATOM     22  C   UNL     1     -25.430 -17.917 -14.084  1.00  0.00     0.278 C 
ENDBRANCH  18  21
BRANCH  20  23
ATOM     23  O   UNL     1     -23.608 -15.175 -16.578  1.00  0.00    -0.504 OA
ATOM     24  H   UNL     1     -23.281 -14.469 -17.226  1.00  0.00     0.293 HD
ENDBRANCH  20  23
ENDBRANCH  14  15
ENDBRANCH  12  14
ENDBRANCH   9  10
ENDBRANCH   1   9
TORSDOF 10
ENDMDL
MODEL 2
REMARK VINA RESULT:    -6.455      1.581      3.174
REMARK INTER + INTRA:         -10.880
REMARK INTER:                  -9.993
REMARK INTRA:                  -0.887
REMARK UNBOUND:                -0.840
REMARK SMILES COc1cc(CNC(=O)CCCCC=CC(C)C)ccc1O
REMARK SMILES IDX 11 1 12 2 13 3 14 4 15 5 16 6 17 7 18 8 10 9 8 10 9 11 7 12
REMARK SMILES IDX 6 14 5 15 4 16 19 17 3 18 20 19 21 20 2 21 1 22 22 23
REMARK H PARENT 7 13 22 24
REMARK Flexibility Score: inf
ROOT
ATOM      1  C   UNL     1     -20.454 -13.990  -9.097  1.00  0.00     0.010 C 
ENDROOT
BRANCH   1   2
ATOM      2  C   UNL     1     -20.662 -13.878  -7.579  1.00  0.00     0.005 C 
BRANCH   2   3
ATOM      3  C   UNL     1     -20.118 -15.097  -6.819  1.00  0.00     0.027 C 
BRANCH   3   4
ATOM      4  C   UNL     1     -21.203 -16.111  -6.577  1.00  0.00    -0.031 C 
ATOM      5  C   UNL     1     -22.486 -15.853  -6.887  1.00  0.00    -0.028 C 
BRANCH   5   6
ATOM      6  C   UNL     1     -23.597 -16.855  -6.668  1.00  0.00     0.005 C 
ATOM      7  C   UNL     1     -23.224 -17.875  -5.585  1.00  0.00     0.012 C 
ATOM      8  C   UNL     1     -23.990 -17.551  -7.975  1.00  0.00     0.012 C 
ENDBRANCH   5   6
ENDBRANCH   3   4
ENDBRANCH   2   3
ENDBRANCH   1   2
BRANCH   1   9
ATOM      9  C   UNL     1     -21.772 -13.910  -9.880  1.00  0.00     0.100 C 
BRANCH   9  10
ATOM     10  C   UNL     1     -21.745 -14.858 -11.040  1.00  0.00     0.220 C 
ATOM     11  O   UNL     1     -22.005 -16.077 -10.852  1.00  0.00    -0.275 OA
ATOM     12  N   UNL     1     -21.481 -14.369 -12.362  1.00  0.00    -0.352 N 
ATOM     13  H   UNL     1     -21.315 -13.347 -12.499  1.00  0.00     0.163 HD
BRANCH  12  14
ATOM     14  C   UNL     1     -21.486 -15.237 -13.538  1.00  0.00     0.151 C 
BRANCH  14  15
ATOM     15  C   UNL     1     -22.895 -15.474 -14.012  1.00  0.00    -0.025 A 
ATOM     16  C   UNL     1     -23.426 -16.774 -14.016  1.00  0.00     0.056 A 
ATOM     17  C   UNL     1     -23.693 -14.401 -14.437  1.00  0.00     0.009 A 
ATOM     18  C   UNL     1     -24.749 -17.007 -14.445  1.00  0.00     0.160 A 
ATOM     19  C   UNL     1     -25.003 -14.626 -14.864  1.00  0.00     0.050 A 
ATOM     20  C   UNL     1     -25.534 -15.920 -14.872  1.00  0.00     0.157 A 
BRANCH  18  21
ATOM     21  O   UNL     1     -25.310 -18.295 -14.458  1.00  0.00    -0.493 OA
ATOM     22  C   UNL     1     -24.646 -19.460 -14.938  1.00  0.00     0.278 C 
ENDBRANCH  18  21
BRANCH  20  23
ATOM     23  O   UNL     1     -26.846 -16.106 -15.306  1.00  0.00    -0.504 OA
ATOM     24  H   UNL     1     -27.080 -16.200 -16.286  1.00  0.00     0.293 HD
ENDBRANCH  20  23
ENDBRANCH  14  15
ENDBRANCH  12  14
ENDBRANCH   9  10
ENDBRANCH   1   9
TORSDOF 10
ENDMDL
MODEL 3
REMARK VINA RESULT:    -5.927      1.385      3.319
REMARK INTER + INTRA:         -10.059
REMARK INTER:                 -10.788
REMARK INTRA:                   0.729
REMARK UNBOUND:                -0.840
REMARK SMILES COc1cc(CNC(=O)CCCCC=CC(C)C)ccc1O
REMARK SMILES IDX 11 1 12 2 13 3 14 4 15 5 16 6 17 7 18 8 10 9 8 10 9 11 7 12
REMARK SMILES IDX 6 14 5 15 4 16 19 17 3 18 20 19 21 20 2 21 1 22 22 23
REMARK H PARENT 7 13 22 24
REMARK Flexibility Score: inf
ROOT
ATOM      1  C   UNL     1     -20.685 -14.783  -8.542  1.00  0.00     0.010 C 
ENDROOT
BRANCH   1   2
ATOM      2  C   UNL     1     -19.942 -14.161  -7.351  1.00  0.00     0.005 C 
BRANCH   2   3
ATOM      3  C   UNL     1     -20.749 -14.242  -6.046  1.00  0.00     0.027 C 
BRANCH   3   4
ATOM      4  C   UNL     1     -21.872 -15.237  -6.166  1.00  0.00    -0.031 C 
ATOM      5  C   UNL     1     -21.663 -16.554  -6.001  1.00  0.00    -0.028 C 
BRANCH   5   6
ATOM      6  C   UNL     1     -22.772 -17.577  -6.103  1.00  0.00     0.005 C 
ATOM      7  C   UNL     1     -23.811 -17.170  -7.155  1.00  0.00     0.012 C 
ATOM      8  C   UNL     1     -23.428 -17.830  -4.741  1.00  0.00     0.012 C 
ENDBRANCH   5   6
ENDBRANCH   3   4
ENDBRANCH   2   3
ENDBRANCH   1   2
BRANCH   1   9
ATOM      9  C   UNL     1     -21.815 -13.886  -9.066  1.00  0.00     0.100 C 
BRANCH   9  10
ATOM     10  C   UNL     1     -21.915 -13.995 -10.557  1.00  0.00     0.220 C 
ATOM     11  O   UNL     1     -23.040 -13.877 -11.113  1.00  0.00    -0.275 OA
ATOM     12  N   UNL     1     -20.731 -14.174 -11.346  1.00  0.00    -0.352 N 
ATOM     13  H   UNL     1     -19.805 -14.222 -10.865  1.00  0.00     0.163 HD
BRANCH  12  14
ATOM     14  C   UNL     1     -20.762 -14.242 -12.806  1.00  0.00     0.151 C 
BRANCH  14  15
ATOM     15  C   UNL     1     -21.839 -15.186 -13.267  1.00  0.00    -0.025 A 
ATOM     16  C   UNL     1     -22.554 -14.915 -14.445  1.00  0.00     0.056 A 
ATOM     17  C   UNL     1     -22.127 -16.349 -12.537  1.00  0.00     0.009 A 
ATOM     18  C   UNL     1     -23.556 -15.799 -14.896  1.00  0.00     0.160 A 
ATOM     19  C   UNL     1     -23.118 -17.227 -12.978  1.00  0.00     0.050 A 
ATOM     20  C   UNL     1     -23.834 -16.960 -14.149  1.00  0.00     0.157 A 
BRANCH  18  21
ATOM     21  O   UNL     1     -24.286 -15.558 -16.071  1.00  0.00    -0.493 OA
ATOM     22  C   UNL     1     -23.905 -14.632 -17.083  1.00  0.00     0.278 C 
ENDBRANCH  18  21
BRANCH  20  23
ATOM     23  O   UNL     1     -24.818 -17.859 -14.557  1.00  0.00    -0.504 OA
ATOM     24  H   UNL     1     -25.725 -17.552 -14.886  1.00  0.00     0.293 HD
ENDBRANCH  20  23
ENDBRANCH  14  15
ENDBRANCH  12  14
ENDBRANCH   9  10
ENDBRANCH   1   9
TORSDOF 10
ENDMDL
MODEL 4
REMARK VINA RESULT:    -5.740      1.902      7.742
REMARK INTER + INTRA:          -9.768
REMARK INTER:                  -9.125
REMARK INTRA:                  -0.643
REMARK UNBOUND:                -0.840
REMARK SMILES COc1cc(CNC(=O)CCCCC=CC(C)C)ccc1O
REMARK SMILES IDX 11 1 12 2 13 3 14 4 15 5 16 6 17 7 18 8 10 9 8 10 9 11 7 12
REMARK SMILES IDX 6 14 5 15 4 16 19 17 3 18 20 19 21 20 2 21 1 22 22 23
REMARK H PARENT 7 13 22 24
REMARK Flexibility Score: inf
ROOT
ATOM      1  C   UNL     1     -24.491 -17.717 -12.736  1.00  0.00     0.010 C 
ENDROOT
BRANCH   1   2
ATOM      2  C   UNL     1     -25.299 -18.046 -14.000  1.00  0.00     0.005 C 
BRANCH   2   3
ATOM      3  C   UNL     1     -26.054 -16.826 -14.550  1.00  0.00     0.027 C 
BRANCH   3   4
ATOM      4  C   UNL     1     -25.183 -16.024 -15.478  1.00  0.00    -0.031 C 
ATOM      5  C   UNL     1     -24.632 -14.860 -15.092  1.00  0.00    -0.028 C 
BRANCH   5   6
ATOM      6  C   UNL     1     -23.742 -14.037 -15.996  1.00  0.00     0.005 C 
ATOM      7  C   UNL     1     -23.684 -14.628 -17.410  1.00  0.00     0.012 C 
ATOM      8  C   UNL     1     -22.338 -13.875 -15.403  1.00  0.00     0.012 C 
ENDBRANCH   5   6
ENDBRANCH   3   4
ENDBRANCH   2   3
ENDBRANCH   1   2
BRANCH   1   9
ATOM      9  C   UNL     1     -22.989 -17.577 -13.016  1.00  0.00     0.100 C 
BRANCH   9  10
ATOM     10  C   UNL     1     -22.456 -16.328 -12.381  1.00  0.00     0.220 C 
ATOM     11  O   UNL     1     -21.553 -15.672 -12.966  1.00  0.00    -0.275 OA
ATOM     12  N   UNL     1     -23.013 -15.856 -11.147  1.00  0.00    -0.352 N 
ATOM     13  H   UNL     1     -23.794 -16.392 -10.706  1.00  0.00     0.163 HD
BRANCH  12  14
ATOM     14  C   UNL     1     -22.567 -14.622 -10.504  1.00  0.00     0.151 C 
BRANCH  14  15
ATOM     15  C   UNL     1     -22.018 -14.910  -9.133  1.00  0.00    -0.025 A 
ATOM     16  C   UNL     1     -22.797 -15.608  -8.196  1.00  0.00     0.056 A 
ATOM     17  C   UNL     1     -20.722 -14.500  -8.784  1.00  0.00     0.009 A 
ATOM     18  C   UNL     1     -22.289 -15.897  -6.913  1.00  0.00     0.160 A 
ATOM     19  C   UNL     1     -20.215 -14.782  -7.514  1.00  0.00     0.050 A 
ATOM     20  C   UNL     1     -20.989 -15.475  -6.578  1.00  0.00     0.157 A 
BRANCH  18  21
ATOM     21  O   UNL     1     -23.042 -16.595  -5.955  1.00  0.00    -0.493 OA
ATOM     22  C   UNL     1     -22.753 -17.916  -5.507  1.00  0.00     0.278 C 
ENDBRANCH  18  21
BRANCH  20  23
ATOM     23  O   UNL     1     -20.448 -15.737  -5.320  1.00  0.00    -0.504 OA
ATOM     24  H   UNL     1     -20.998 -15.663  -4.473  1.00  0.00     0.293 HD
ENDBRANCH  20  23
ENDBRANCH  14  15
ENDBRANCH  12  14
ENDBRANCH   9  10
ENDBRANCH   1   9
TORSDOF 10
ENDMDL
MODEL 5
REMARK VINA RESULT:    -5.493      2.284      7.861
REMARK INTER + INTRA:          -9.384
REMARK INTER:                  -8.726
REMARK INTRA:                  -0.658
REMARK UNBOUND:                -0.840
REMARK SMILES COc1cc(CNC(=O)CCCCC=CC(C)C)ccc1O
REMARK SMILES IDX 11 1 12 2 13 3 14 4 15 5 16 6 17 7 18 8 10 9 8 10 9 11 7 12
REMARK SMILES IDX 6 14 5 15 4 16 19 17 3 18 20 19 21 20 2 21 1 22 22 23
REMARK H PARENT 7 13 22 24
REMARK Flexibility Score: inf
ROOT
ATOM      1  C   UNL     1     -21.761 -14.593 -14.850  1.00  0.00     0.010 C 
ENDROOT
BRANCH   1   2
ATOM      2  C   UNL     1     -22.760 -14.480 -16.011  1.00  0.00     0.005 C 
BRANCH   2   3
ATOM      3  C   UNL     1     -24.170 -14.094 -15.538  1.00  0.00     0.027 C 
BRANCH   3   4
ATOM      4  C   UNL     1     -25.053 -15.306 -15.425  1.00  0.00    -0.031 C 
ATOM      5  C   UNL     1     -24.718 -16.348 -14.645  1.00  0.00    -0.028 C 
BRANCH   5   6
ATOM      6  C   UNL     1     -25.589 -17.576 -14.500  1.00  0.00     0.005 C 
ATOM      7  C   UNL     1     -27.078 -17.206 -14.496  1.00  0.00     0.012 C 
ATOM      8  C   UNL     1     -25.214 -18.385 -13.254  1.00  0.00     0.012 C 
ENDBRANCH   5   6
ENDBRANCH   3   4
ENDBRANCH   2   3
ENDBRANCH   1   2
BRANCH   1   9
ATOM      9  C   UNL     1     -22.297 -13.981 -13.549  1.00  0.00     0.100 C 
BRANCH   9  10
ATOM     10  C   UNL     1     -21.220 -13.951 -12.507  1.00  0.00     0.220 C 
ATOM     11  O   UNL     1     -20.013 -13.877 -12.864  1.00  0.00    -0.275 OA
ATOM     12  N   UNL     1     -21.566 -13.950 -11.116  1.00  0.00    -0.352 N 
ATOM     13  H   UNL     1     -22.575 -13.965 -10.845  1.00  0.00     0.163 HD
BRANCH  12  14
ATOM     14  C   UNL     1     -20.562 -13.877 -10.056  1.00  0.00     0.151 C 
BRANCH  14  15
ATOM     15  C   UNL     1     -21.002 -14.675  -8.858  1.00  0.00    -0.025 A 
ATOM     16  C   UNL     1     -22.226 -15.363  -8.882  1.00  0.00     0.056 A 
ATOM     17  C   UNL     1     -20.189 -14.752  -7.717  1.00  0.00     0.009 A 
ATOM     18  C   UNL     1     -22.642 -16.126  -7.771  1.00  0.00     0.160 A 
ATOM     19  C   UNL     1     -20.596 -15.504  -6.613  1.00  0.00     0.050 A 
ATOM     20  C   UNL     1     -21.816 -16.189  -6.633  1.00  0.00     0.157 A 
BRANCH  18  21
ATOM     21  O   UNL     1     -23.858 -16.828  -7.765  1.00  0.00    -0.493 OA
ATOM     22  C   UNL     1     -24.263 -17.750  -8.772  1.00  0.00     0.278 C 
ENDBRANCH  18  21
BRANCH  20  23
ATOM     23  O   UNL     1     -22.190 -16.930  -5.512  1.00  0.00    -0.504 OA
ATOM     24  H   UNL     1     -22.686 -17.808  -5.589  1.00  0.00     0.293 HD
ENDBRANCH  20  23
ENDBRANCH  14  15
ENDBRANCH  12  14
ENDBRANCH   9  10
ENDBRANCH   1   9
TORSDOF 10
ENDMDL
MODEL 6
REMARK VINA RESULT:    -5.381      1.878      8.155
REMARK INTER + INTRA:          -9.211
REMARK INTER:                  -8.497
REMARK INTRA:                  -0.714
REMARK UNBOUND:                -0.840
REMARK SMILES COc1cc(CNC(=O)CCCCC=CC(C)C)ccc1O
REMARK SMILES IDX 11 1 12 2 13 3 14 4 15 5 16 6 17 7 18 8 10 9 8 10 9 11 7 12
REMARK SMILES IDX 6 14 5 15 4 16 19 17 3 18 20 19 21 20 2 21 1 22 22 23
REMARK H PARENT 7 13 22 24
REMARK Flexibility Score: inf
ROOT
ATOM      1  C   UNL     1     -22.120 -14.140 -14.270  1.00  0.00     0.010 C 
ENDROOT
BRANCH   1   2
ATOM      2  C   UNL     1     -22.184 -14.219 -15.802  1.00  0.00     0.005 C 
BRANCH   2   3
ATOM      3  C   UNL     1     -23.613 -14.049 -16.341  1.00  0.00     0.027 C 
BRANCH   3   4
ATOM      4  C   UNL     1     -24.603 -14.802 -15.495  1.00  0.00    -0.031 C 
ATOM      5  C   UNL     1     -24.478 -16.123 -15.279  1.00  0.00    -0.028 C 
BRANCH   5   6
ATOM      6  C   UNL     1     -25.449 -16.906 -14.424  1.00  0.00     0.005 C 
ATOM      7  C   UNL     1     -25.163 -18.412 -14.492  1.00  0.00     0.012 C 
ATOM      8  C   UNL     1     -26.902 -16.599 -14.801  1.00  0.00     0.012 C 
ENDBRANCH   5   6
ENDBRANCH   3   4
ENDBRANCH   2   3
ENDBRANCH   1   2
BRANCH   1   9
ATOM      9  C   UNL     1     -21.294 -15.278 -13.655  1.00  0.00     0.100 C 
BRANCH   9  10
ATOM     10  C   UNL     1     -22.035 -15.896 -12.508  1.00  0.00     0.220 C 
ATOM     11  O   UNL     1     -22.229 -17.142 -12.495  1.00  0.00    -0.275 OA
ATOM     12  N   UNL     1     -22.467 -15.083 -11.409  1.00  0.00    -0.352 N 
ATOM     13  H   UNL     1     -22.252 -14.061 -11.421  1.00  0.00     0.163 HD
BRANCH  12  14
ATOM     14  C   UNL     1     -23.153 -15.637 -10.244  1.00  0.00     0.151 C 
BRANCH  14  15
ATOM     15  C   UNL     1     -22.401 -15.305  -8.982  1.00  0.00    -0.025 A 
ATOM     16  C   UNL     1     -22.508 -16.142  -7.860  1.00  0.00     0.056 A 
ATOM     17  C   UNL     1     -21.578 -14.171  -8.922  1.00  0.00     0.009 A 
ATOM     18  C   UNL     1     -21.798 -15.850  -6.677  1.00  0.00     0.160 A 
ATOM     19  C   UNL     1     -20.874 -13.875  -7.753  1.00  0.00     0.050 A 
ATOM     20  C   UNL     1     -20.979 -14.706  -6.633  1.00  0.00     0.157 A 
BRANCH  18  21
ATOM     21  O   UNL     1     -21.881 -16.668  -5.539  1.00  0.00    -0.493 OA
ATOM     22  C   UNL     1     -22.818 -17.727  -5.372  1.00  0.00     0.278 C 
ENDBRANCH  18  21
BRANCH  20  23
ATOM     23  O   UNL     1     -20.262 -14.378  -5.482  1.00  0.00    -0.504 OA
ATOM     24  H   UNL     1     -19.620 -13.596  -5.454  1.00  0.00     0.293 HD
ENDBRANCH  20  23
ENDBRANCH  14  15
ENDBRANCH  12  14
ENDBRANCH   9  10
ENDBRANCH   1   9
TORSDOF 10
ENDMDL
MODEL 7
REMARK VINA RESULT:    -5.297      2.580      7.796
REMARK INTER + INTRA:          -9.079
REMARK INTER:                  -8.623
REMARK INTRA:                  -0.456
REMARK UNBOUND:                -0.840
REMARK SMILES COc1cc(CNC(=O)CCCCC=CC(C)C)ccc1O
REMARK SMILES IDX 11 1 12 2 13 3 14 4 15 5 16 6 17 7 18 8 10 9 8 10 9 11 7 12
REMARK SMILES IDX 6 14 5 15 4 16 19 17 3 18 20 19 21 20 2 21 1 22 22 23
REMARK H PARENT 7 13 22 24
REMARK Flexibility Score: inf
ROOT
ATOM      1  C   UNL     1     -22.422 -13.934 -14.503  1.00  0.00     0.010 C 
ENDROOT
BRANCH   1   2
ATOM      2  C   UNL     1     -23.134 -13.936 -15.863  1.00  0.00     0.005 C 
BRANCH   2   3
ATOM      3  C   UNL     1     -24.651 -14.150 -15.733  1.00  0.00     0.027 C 
BRANCH   3   4
ATOM      4  C   UNL     1     -24.955 -15.432 -15.008  1.00  0.00    -0.031 C 
ATOM      5  C   UNL     1     -24.042 -16.412 -14.903  1.00  0.00    -0.028 C 
BRANCH   5   6
ATOM      6  C   UNL     1     -24.313 -17.707 -14.170  1.00  0.00     0.005 C 
ATOM      7  C   UNL     1     -25.804 -18.066 -14.202  1.00  0.00     0.012 C 
ATOM      8  C   UNL     1     -23.783 -17.659 -12.733  1.00  0.00     0.012 C 
ENDBRANCH   5   6
ENDBRANCH   3   4
ENDBRANCH   2   3
ENDBRANCH   1   2
BRANCH   1   9
ATOM      9  C   UNL     1     -20.894 -13.877 -14.637  1.00  0.00     0.100 C 
BRANCH   9  10
ATOM     10  C   UNL     1     -20.252 -13.930 -13.284  1.00  0.00     0.220 C 
ATOM     11  O   UNL     1     -18.996 -13.879 -13.191  1.00  0.00    -0.275 OA
ATOM     12  N   UNL     1     -21.065 -13.980 -12.104  1.00  0.00    -0.352 N 
ATOM     13  H   UNL     1     -22.104 -13.974 -12.205  1.00  0.00     0.163 HD
BRANCH  12  14
ATOM     14  C   UNL     1     -20.496 -13.988 -10.757  1.00  0.00     0.151 C 
BRANCH  14  15
ATOM     15  C   UNL     1     -21.368 -14.783  -9.822  1.00  0.00    -0.025 A 
ATOM     16  C   UNL     1     -21.189 -14.676  -8.433  1.00  0.00     0.056 A 
ATOM     17  C   UNL     1     -22.372 -15.622 -10.326  1.00  0.00     0.009 A 
ATOM     18  C   UNL     1     -22.008 -15.405  -7.546  1.00  0.00     0.160 A 
ATOM     19  C   UNL     1     -23.185 -16.347  -9.453  1.00  0.00     0.050 A 
ATOM     20  C   UNL     1     -23.009 -16.245  -8.069  1.00  0.00     0.157 A 
BRANCH  18  21
ATOM     21  O   UNL     1     -21.857 -15.317  -6.153  1.00  0.00    -0.493 OA
ATOM     22  C   UNL     1     -20.881 -14.513  -5.496  1.00  0.00     0.278 C 
ENDBRANCH  18  21
BRANCH  20  23
ATOM     23  O   UNL     1     -23.839 -16.985  -7.228  1.00  0.00    -0.504 OA
ATOM     24  H   UNL     1     -23.527 -17.835  -6.776  1.00  0.00     0.293 HD
ENDBRANCH  20  23
ENDBRANCH  14  15
ENDBRANCH  12  14
ENDBRANCH   9  10
ENDBRANCH   1   9
TORSDOF 10
ENDMDL
MODEL 8
REMARK VINA RESULT:    -4.841      1.968      7.256
REMARK INTER + INTRA:          -8.370
REMARK INTER:                  -8.049
REMARK INTRA:                  -0.321
REMARK UNBOUND:                -0.840
REMARK SMILES COc1cc(CNC(=O)CCCCC=CC(C)C)ccc1O
REMARK SMILES IDX 11 1 12 2 13 3 14 4 15 5 16 6 17 7 18 8 10 9 8 10 9 11 7 12
REMARK SMILES IDX 6 14 5 15 4 16 19 17 3 18 20 19 21 20 2 21 1 22 22 23
REMARK H PARENT 7 13 22 24
REMARK Flexibility Score: inf
ROOT
ATOM      1  C   UNL     1     -22.059 -17.356 -13.128  1.00  0.00     0.010 C 
ENDROOT
BRANCH   1   2
ATOM      2  C   UNL     1     -23.450 -17.650 -12.549  1.00  0.00     0.005 C 
BRANCH   2   3
ATOM      3  C   UNL     1     -24.507 -17.879 -13.641  1.00  0.00     0.027 C 
BRANCH   3   4
ATOM      4  C   UNL     1     -24.915 -16.579 -14.278  1.00  0.00    -0.031 C 
ATOM      5  C   UNL     1     -24.286 -16.103 -15.367  1.00  0.00    -0.028 C 
BRANCH   5   6
ATOM      6  C   UNL     1     -24.680 -14.806 -16.038  1.00  0.00     0.005 C 
ATOM      7  C   UNL     1     -23.464 -14.110 -16.663  1.00  0.00     0.012 C 
ATOM      8  C   UNL     1     -25.417 -13.875 -15.069  1.00  0.00     0.012 C 
ENDBRANCH   5   6
ENDBRANCH   3   4
ENDBRANCH   2   3
ENDBRANCH   1   2
BRANCH   1   9
ATOM      9  C   UNL     1     -21.915 -15.904 -13.606  1.00  0.00     0.100 C 
BRANCH   9  10
ATOM     10  C   UNL     1     -22.051 -14.961 -12.450  1.00  0.00     0.220 C 
ATOM     11  O   UNL     1     -23.057 -14.204 -12.382  1.00  0.00    -0.275 OA
ATOM     12  N   UNL     1     -21.073 -14.962 -11.402  1.00  0.00    -0.352 N 
ATOM     13  H   UNL     1     -20.273 -15.631 -11.457  1.00  0.00     0.163 HD
BRANCH  12  14
ATOM     14  C   UNL     1     -21.177 -14.098 -10.228  1.00  0.00     0.151 C 
BRANCH  14  15
ATOM     15  C   UNL     1     -21.600 -14.894  -9.022  1.00  0.00    -0.025 A 
ATOM     16  C   UNL     1     -22.710 -15.750  -9.100  1.00  0.00     0.056 A 
ATOM     17  C   UNL     1     -20.882 -14.801  -7.821  1.00  0.00     0.009 A 
ATOM     18  C   UNL     1     -23.108 -16.511  -7.981  1.00  0.00     0.160 A 
ATOM     19  C   UNL     1     -21.272 -15.552  -6.710  1.00  0.00     0.050 A 
ATOM     20  C   UNL     1     -22.379 -16.404  -6.782  1.00  0.00     0.157 A 
BRANCH  18  21
ATOM     21  O   UNL     1     -24.212 -17.378  -8.027  1.00  0.00    -0.493 OA
ATOM     22  C   UNL     1     -24.538 -18.213  -9.135  1.00  0.00     0.278 C 
ENDBRANCH  18  21
BRANCH  20  23
ATOM     23  O   UNL     1     -22.739 -17.137  -5.652  1.00  0.00    -0.504 OA
ATOM     24  H   UNL     1     -22.265 -17.025  -4.765  1.00  0.00     0.293 HD
ENDBRANCH  20  23
ENDBRANCH  14  15
ENDBRANCH  12  14
ENDBRANCH   9  10
ENDBRANCH   1   9
TORSDOF 10
ENDMDL
