MODEL 1
REMARK VINA RESULT:    -4.829      0.000      0.000
REMARK INTER + INTRA:         -10.396
REMARK INTER:                  -8.498
REMARK INTRA:                  -1.897
REMARK UNBOUND:                -1.897
REMARK SMILES CCCCCCCCCCCCCCC(=O)[O-]
REMARK SMILES IDX 9 1 10 2 11 3 12 4 13 5 14 6 15 7 16 8 17 9 8 10 7 11 6 12
REMARK SMILES IDX 5 13 4 14 3 15 2 16 1 17
REMARK H PARENT
REMARK Flexibility Score: inf
ROOT
ATOM      1  C   UNL     1      -0.636   9.171  23.763  1.00  0.00     0.000 C 
ENDROOT
BRANCH   1   2
ATOM      2  C   UNL     1       0.007   9.697  25.056  1.00  0.00     0.000 C 
BRANCH   2   3
ATOM      3  C   UNL     1      -1.033  10.017  26.144  1.00  0.00     0.000 C 
BRANCH   3   4
ATOM      4  C   UNL     1      -1.214  11.528  26.373  1.00  0.00     0.000 C 
BRANCH   4   5
ATOM      5  C   UNL     1       0.093  12.331  26.513  1.00  0.00     0.006 C 
BRANCH   5   6
ATOM      6  C   UNL     1      -0.020  13.759  25.963  1.00  0.00     0.053 C 
BRANCH   6   7
ATOM      7  C   UNL     1       1.324  14.266  25.544  1.00  0.00     0.041 C 
ATOM      8  O   UNL     1       2.234  13.457  25.226  1.00  0.00    -0.550 OA
ATOM      9  O   UNL     1       1.587  15.629  25.553  1.00  0.00    -0.550 OA
ENDBRANCH   6   7
ENDBRANCH   5   6
ENDBRANCH   4   5
ENDBRANCH   3   4
ENDBRANCH   2   3
ENDBRANCH   1   2
BRANCH   1  10
ATOM     10  C   UNL     1      -1.846   8.257  24.029  1.00  0.00     0.000 C 
BRANCH  10  11
ATOM     11  C   UNL     1      -2.642   7.939  22.753  1.00  0.00    -0.000 C 
BRANCH  11  12
ATOM     12  C   UNL     1      -1.912   8.393  21.476  1.00  0.00    -0.000 C 
BRANCH  12  13
ATOM     13  C   UNL     1      -2.779   9.306  20.593  1.00  0.00    -0.000 C 
BRANCH  13  14
ATOM     14  C   UNL     1      -3.798  10.121  21.408  1.00  0.00    -0.000 C 
BRANCH  14  15
ATOM     15  C   UNL     1      -3.310  11.549  21.704  1.00  0.00    -0.000 C 
BRANCH  15  16
ATOM     16  C   UNL     1      -3.121  11.812  23.205  1.00  0.00    -0.003 C 
ATOM     17  C   UNL     1      -4.208  11.119  24.024  1.00  0.00     0.004 C 
ENDBRANCH  15  16
ENDBRANCH  14  15
ENDBRANCH  13  14
ENDBRANCH  12  13
ENDBRANCH  11  12
ENDBRANCH  10  11
ENDBRANCH   1  10
TORSDOF 13
ENDMDL
MODEL 2
REMARK VINA RESULT:    -4.589      2.168      2.531
REMARK INTER + INTRA:          -9.974
REMARK INTER:                  -8.204
REMARK INTRA:                  -1.771
REMARK UNBOUND:                -1.897
REMARK SMILES CCCCCCCCCCCCCCC(=O)[O-]
REMARK SMILES IDX 9 1 10 2 11 3 12 4 13 5 14 6 15 7 16 8 17 9 8 10 7 11 6 12
REMARK SMILES IDX 5 13 4 14 3 15 2 16 1 17
REMARK H PARENT
REMARK Flexibility Score: inf
ROOT
ATOM      1  C   UNL     1      -0.553   9.241  23.818  1.00  0.00     0.000 C 
ENDROOT
BRANCH   1   2
ATOM      2  C   UNL     1       0.109   9.716  25.121  1.00  0.00     0.000 C 
BRANCH   2   3
ATOM      3  C   UNL     1      -0.708  10.809  25.834  1.00  0.00     0.000 C 
BRANCH   3   4
ATOM      4  C   UNL     1       0.171  11.930  26.416  1.00  0.00     0.000 C 
BRANCH   4   5
ATOM      5  C   UNL     1      -0.512  13.306  26.528  1.00  0.00     0.006 C 
BRANCH   5   6
ATOM      6  C   UNL     1      -2.035  13.208  26.682  1.00  0.00     0.053 C 
BRANCH   6   7
ATOM      7  C   UNL     1      -2.410  13.112  28.127  1.00  0.00     0.041 C 
ATOM      8  O   UNL     1      -2.722  14.148  28.770  1.00  0.00    -0.550 OA
ATOM      9  O   UNL     1      -2.365  11.886  28.778  1.00  0.00    -0.550 OA
ENDBRANCH   6   7
ENDBRANCH   5   6
ENDBRANCH   4   5
ENDBRANCH   3   4
ENDBRANCH   2   3
ENDBRANCH   1   2
BRANCH   1  10
ATOM     10  C   UNL     1      -1.651   8.188  24.058  1.00  0.00     0.000 C 
BRANCH  10  11
ATOM     11  C   UNL     1      -2.641   8.086  22.887  1.00  0.00    -0.000 C 
BRANCH  11  12
ATOM     12  C   UNL     1      -1.989   8.423  21.534  1.00  0.00    -0.000 C 
BRANCH  12  13
ATOM     13  C   UNL     1      -2.931   9.204  20.603  1.00  0.00    -0.000 C 
BRANCH  13  14
ATOM     14  C   UNL     1      -3.894  10.124  21.372  1.00  0.00    -0.000 C 
BRANCH  14  15
ATOM     15  C   UNL     1      -3.299  11.519  21.629  1.00  0.00    -0.000 C 
BRANCH  15  16
ATOM     16  C   UNL     1      -3.078  11.803  23.122  1.00  0.00    -0.003 C 
ATOM     17  C   UNL     1      -4.173  11.161  23.971  1.00  0.00     0.004 C 
ENDBRANCH  15  16
ENDBRANCH  14  15
ENDBRANCH  13  14
ENDBRANCH  12  13
ENDBRANCH  11  12
ENDBRANCH  10  11
ENDBRANCH   1  10
TORSDOF 13
ENDMDL
MODEL 3
REMARK VINA RESULT:    -4.573      3.048      4.445
REMARK INTER + INTRA:          -9.946
REMARK INTER:                  -7.885
REMARK INTRA:                  -2.061
REMARK UNBOUND:                -1.897
REMARK SMILES CCCCCCCCCCCCCCC(=O)[O-]
REMARK SMILES IDX 9 1 10 2 11 3 12 4 13 5 14 6 15 7 16 8 17 9 8 10 7 11 6 12
REMARK SMILES IDX 5 13 4 14 3 15 2 16 1 17
REMARK H PARENT
REMARK Flexibility Score: inf
ROOT
ATOM      1  C   UNL     1      -3.232  11.748  23.396  1.00  0.00     0.000 C 
ENDROOT
BRANCH   1   2
ATOM      2  C   UNL     1      -4.455  11.139  24.101  1.00  0.00     0.000 C 
BRANCH   2   3
ATOM      3  C   UNL     1      -4.093  10.477  25.442  1.00  0.00     0.000 C 
BRANCH   3   4
ATOM      4  C   UNL     1      -2.891  11.143  26.135  1.00  0.00     0.000 C 
BRANCH   4   5
ATOM      5  C   UNL     1      -2.231  10.308  27.248  1.00  0.00     0.006 C 
BRANCH   5   6
ATOM      6  C   UNL     1      -3.138  10.117  28.470  1.00  0.00     0.053 C 
BRANCH   6   7
ATOM      7  C   UNL     1      -2.939  11.232  29.448  1.00  0.00     0.041 C 
ATOM      8  O   UNL     1      -3.660  12.263  29.387  1.00  0.00    -0.550 OA
ATOM      9  O   UNL     1      -1.925  11.156  30.394  1.00  0.00    -0.550 OA
ENDBRANCH   6   7
ENDBRANCH   5   6
ENDBRANCH   4   5
ENDBRANCH   3   4
ENDBRANCH   2   3
ENDBRANCH   1   2
BRANCH   1  10
ATOM     10  C   UNL     1      -3.249  11.521  21.873  1.00  0.00     0.000 C 
BRANCH  10  11
ATOM     11  C   UNL     1      -3.868  10.170  21.482  1.00  0.00    -0.000 C 
BRANCH  11  12
ATOM     12  C   UNL     1      -2.915   9.310  20.631  1.00  0.00    -0.000 C 
BRANCH  12  13
ATOM     13  C   UNL     1      -1.982   8.440  21.488  1.00  0.00    -0.000 C 
BRANCH  13  14
ATOM     14  C   UNL     1      -2.601   8.070  22.847  1.00  0.00    -0.000 C 
BRANCH  14  15
ATOM     15  C   UNL     1      -1.642   8.326  24.022  1.00  0.00    -0.000 C 
BRANCH  15  16
ATOM     16  C   UNL     1      -0.430   9.179  23.622  1.00  0.00    -0.003 C 
ATOM     17  C   UNL     1       0.410   9.547  24.843  1.00  0.00     0.004 C 
ENDBRANCH  15  16
ENDBRANCH  14  15
ENDBRANCH  13  14
ENDBRANCH  12  13
ENDBRANCH  11  12
ENDBRANCH  10  11
ENDBRANCH   1  10
TORSDOF 13
ENDMDL
MODEL 4
REMARK VINA RESULT:    -4.541      7.644      9.719
REMARK INTER + INTRA:          -9.889
REMARK INTER:                  -7.629
REMARK INTRA:                  -2.260
REMARK UNBOUND:                -1.897
REMARK SMILES CCCCCCCCCCCCCCC(=O)[O-]
REMARK SMILES IDX 9 1 10 2 11 3 12 4 13 5 14 6 15 7 16 8 17 9 8 10 7 11 6 12
REMARK SMILES IDX 5 13 4 14 3 15 2 16 1 17
REMARK H PARENT
REMARK Flexibility Score: inf
ROOT
ATOM      1  C   UNL     1       1.807  16.585  24.363  1.00  0.00     0.000 C 
ENDROOT
BRANCH   1   2
ATOM      2  C   UNL     1       2.862  16.250  23.296  1.00  0.00     0.000 C 
BRANCH   2   3
ATOM      3  C   UNL     1       4.284  16.653  23.725  1.00  0.00     0.000 C 
BRANCH   3   4
ATOM      4  C   UNL     1       4.518  18.173  23.668  1.00  0.00     0.000 C 
BRANCH   4   5
ATOM      5  C   UNL     1       4.197  18.835  22.315  1.00  0.00     0.006 C 
BRANCH   5   6
ATOM      6  C   UNL     1       4.907  20.182  22.124  1.00  0.00     0.053 C 
BRANCH   6   7
ATOM      7  C   UNL     1       4.183  21.017  21.115  1.00  0.00     0.041 C 
ATOM      8  O   UNL     1       4.218  20.707  19.896  1.00  0.00    -0.550 OA
ATOM      9  O   UNL     1       3.510  22.164  21.515  1.00  0.00    -0.550 OA
ENDBRANCH   6   7
ENDBRANCH   5   6
ENDBRANCH   4   5
ENDBRANCH   3   4
ENDBRANCH   2   3
ENDBRANCH   1   2
BRANCH   1  10
ATOM     10  C   UNL     1       2.300  16.308  25.795  1.00  0.00     0.000 C 
BRANCH  10  11
ATOM     11  C   UNL     1       2.256  17.557  26.689  1.00  0.00    -0.000 C 
BRANCH  11  12
ATOM     12  C   UNL     1       1.485  18.720  26.038  1.00  0.00    -0.000 C 
BRANCH  12  13
ATOM     13  C   UNL     1       2.303  20.022  25.999  1.00  0.00    -0.000 C 
BRANCH  13  14
ATOM     14  C   UNL     1       2.159  20.770  24.663  1.00  0.00    -0.000 C 
BRANCH  14  15
ATOM     15  C   UNL     1       0.750  20.638  24.061  1.00  0.00    -0.000 C 
BRANCH  15  16
ATOM     16  C   UNL     1       0.754  19.946  22.690  1.00  0.00    -0.003 C 
ATOM     17  C   UNL     1      -0.428  18.989  22.554  1.00  0.00     0.004 C 
ENDBRANCH  15  16
ENDBRANCH  14  15
ENDBRANCH  13  14
ENDBRANCH  12  13
ENDBRANCH  11  12
ENDBRANCH  10  11
ENDBRANCH   1  10
TORSDOF 13
ENDMDL
MODEL 5
REMARK VINA RESULT:    -4.476      1.444      2.105
REMARK INTER + INTRA:          -9.775
REMARK INTER:                  -8.043
REMARK INTRA:                  -1.732
REMARK UNBOUND:                -1.897
REMARK SMILES CCCCCCCCCCCCCCC(=O)[O-]
REMARK SMILES IDX 9 1 10 2 11 3 12 4 13 5 14 6 15 7 16 8 17 9 8 10 7 11 6 12
REMARK SMILES IDX 5 13 4 14 3 15 2 16 1 17
REMARK H PARENT
REMARK Flexibility Score: inf
ROOT
ATOM      1  C   UNL     1      -3.228   9.708  25.660  1.00  0.00     0.000 C 
ENDROOT
BRANCH   1   2
ATOM      2  C   UNL     1      -2.815   9.532  27.130  1.00  0.00     0.000 C 
BRANCH   2   3
ATOM      3  C   UNL     1      -2.045  10.748  27.676  1.00  0.00     0.000 C 
BRANCH   3   4
ATOM      4  C   UNL     1      -2.854  12.055  27.595  1.00  0.00     0.000 C 
BRANCH   4   5
ATOM      5  C   UNL     1      -2.100  13.256  26.993  1.00  0.00     0.006 C 
BRANCH   5   6
ATOM      6  C   UNL     1      -1.230  12.873  25.789  1.00  0.00     0.053 C 
BRANCH   6   7
ATOM      7  C   UNL     1       0.219  13.054  26.112  1.00  0.00     0.041 C 
ATOM      8  O   UNL     1       0.970  12.051  26.238  1.00  0.00    -0.550 OA
ATOM      9  O   UNL     1       0.731  14.328  26.325  1.00  0.00    -0.550 OA
ENDBRANCH   6   7
ENDBRANCH   5   6
ENDBRANCH   4   5
ENDBRANCH   3   4
ENDBRANCH   2   3
ENDBRANCH   1   2
BRANCH   1  10
ATOM     10  C   UNL     1      -2.551   8.688  24.726  1.00  0.00     0.000 C 
BRANCH  10  11
ATOM     11  C   UNL     1      -1.147   9.132  24.283  1.00  0.00    -0.000 C 
BRANCH  11  12
ATOM     12  C   UNL     1      -0.913   8.922  22.775  1.00  0.00    -0.000 C 
BRANCH  12  13
ATOM     13  C   UNL     1      -2.087   8.205  22.090  1.00  0.00    -0.000 C 
BRANCH  13  14
ATOM     14  C   UNL     1      -2.649   8.998  20.897  1.00  0.00    -0.000 C 
BRANCH  14  15
ATOM     15  C   UNL     1      -3.761   9.975  21.309  1.00  0.00    -0.000 C 
BRANCH  15  16
ATOM     16  C   UNL     1      -3.249  11.411  21.494  1.00  0.00    -0.003 C 
ATOM     17  C   UNL     1      -3.648  11.965  22.859  1.00  0.00     0.004 C 
ENDBRANCH  15  16
ENDBRANCH  14  15
ENDBRANCH  13  14
ENDBRANCH  12  13
ENDBRANCH  11  12
ENDBRANCH  10  11
ENDBRANCH   1  10
TORSDOF 13
ENDMDL
MODEL 6
REMARK VINA RESULT:    -4.463      0.807      2.935
REMARK INTER + INTRA:          -9.752
REMARK INTER:                  -7.938
REMARK INTRA:                  -1.814
REMARK UNBOUND:                -1.897
REMARK SMILES CCCCCCCCCCCCCCC(=O)[O-]
REMARK SMILES IDX 9 1 10 2 11 3 12 4 13 5 14 6 15 7 16 8 17 9 8 10 7 11 6 12
REMARK SMILES IDX 5 13 4 14 3 15 2 16 1 17
REMARK H PARENT
REMARK Flexibility Score: inf
ROOT
ATOM      1  C   UNL     1      -4.074  11.170  23.880  1.00  0.00     0.000 C 
ENDROOT
BRANCH   1   2
ATOM      2  C   UNL     1      -3.394  11.051  25.253  1.00  0.00     0.000 C 
BRANCH   2   3
ATOM      3  C   UNL     1      -2.255  12.070  25.438  1.00  0.00     0.000 C 
BRANCH   3   4
ATOM      4  C   UNL     1      -1.615  12.007  26.837  1.00  0.00     0.000 C 
BRANCH   4   5
ATOM      5  C   UNL     1      -0.174  12.544  26.923  1.00  0.00     0.006 C 
BRANCH   5   6
ATOM      6  C   UNL     1       0.059  13.775  26.038  1.00  0.00     0.053 C 
BRANCH   6   7
ATOM      7  C   UNL     1       1.459  13.780  25.508  1.00  0.00     0.041 C 
ATOM      8  O   UNL     1       1.975  14.851  25.096  1.00  0.00    -0.550 OA
ATOM      9  O   UNL     1       2.175  12.593  25.423  1.00  0.00    -0.550 OA
ENDBRANCH   6   7
ENDBRANCH   5   6
ENDBRANCH   4   5
ENDBRANCH   3   4
ENDBRANCH   2   3
ENDBRANCH   1   2
BRANCH   1  10
ATOM     10  C   UNL     1      -3.194  11.891  22.842  1.00  0.00     0.000 C 
BRANCH  10  11
ATOM     11  C   UNL     1      -3.425  11.380  21.411  1.00  0.00    -0.000 C 
BRANCH  11  12
ATOM     12  C   UNL     1      -3.830   9.895  21.375  1.00  0.00    -0.000 C 
BRANCH  12  13
ATOM     13  C   UNL     1      -2.669   8.977  20.958  1.00  0.00    -0.000 C 
BRANCH  13  14
ATOM     14  C   UNL     1      -2.076   8.198  22.144  1.00  0.00    -0.000 C 
BRANCH  14  15
ATOM     15  C   UNL     1      -0.827   8.877  22.731  1.00  0.00    -0.000 C 
BRANCH  15  16
ATOM     16  C   UNL     1      -0.812   8.864  24.267  1.00  0.00    -0.003 C 
ATOM     17  C   UNL     1       0.433   9.561  24.810  1.00  0.00     0.004 C 
ENDBRANCH  15  16
ENDBRANCH  14  15
ENDBRANCH  13  14
ENDBRANCH  12  13
ENDBRANCH  11  12
ENDBRANCH  10  11
ENDBRANCH   1  10
TORSDOF 13
ENDMDL
MODEL 7
REMARK VINA RESULT:    -4.420      1.667      2.654
REMARK INTER + INTRA:          -9.676
REMARK INTER:                  -8.189
REMARK INTRA:                  -1.486
REMARK UNBOUND:                -1.897
REMARK SMILES CCCCCCCCCCCCCCC(=O)[O-]
REMARK SMILES IDX 9 1 10 2 11 3 12 4 13 5 14 6 15 7 16 8 17 9 8 10 7 11 6 12
REMARK SMILES IDX 5 13 4 14 3 15 2 16 1 17
REMARK H PARENT
REMARK Flexibility Score: inf
ROOT
ATOM      1  C   UNL     1      -1.017   8.886  26.020  1.00  0.00     0.000 C 
ENDROOT
BRANCH   1   2
ATOM      2  C   UNL     1      -0.721   9.443  24.618  1.00  0.00     0.000 C 
BRANCH   2   3
ATOM      3  C   UNL     1       0.787   9.538  24.327  1.00  0.00     0.000 C 
BRANCH   3   4
ATOM      4  C   UNL     1       1.598  10.053  25.529  1.00  0.00     0.000 C 
BRANCH   4   5
ATOM      5  C   UNL     1       1.681  11.585  25.657  1.00  0.00     0.006 C 
BRANCH   5   6
ATOM      6  C   UNL     1       0.605  12.167  26.583  1.00  0.00     0.053 C 
BRANCH   6   7
ATOM      7  C   UNL     1      -0.016  13.381  25.965  1.00  0.00     0.041 C 
ATOM      8  O   UNL     1      -1.209  13.348  25.566  1.00  0.00    -0.550 OA
ATOM      9  O   UNL     1       0.739  14.532  25.785  1.00  0.00    -0.550 OA
ENDBRANCH   6   7
ENDBRANCH   5   6
ENDBRANCH   4   5
ENDBRANCH   3   4
ENDBRANCH   2   3
ENDBRANCH   1   2
BRANCH   1  10
ATOM     10  C   UNL     1      -2.477   9.112  26.453  1.00  0.00     0.000 C 
BRANCH  10  11
ATOM     11  C   UNL     1      -3.322   9.789  25.362  1.00  0.00    -0.000 C 
BRANCH  11  12
ATOM     12  C   UNL     1      -4.424   8.866  24.813  1.00  0.00    -0.000 C 
BRANCH  12  13
ATOM     13  C   UNL     1      -3.988   8.116  23.543  1.00  0.00    -0.000 C 
BRANCH  13  14
ATOM     14  C   UNL     1      -4.880   8.436  22.332  1.00  0.00    -0.000 C 
BRANCH  14  15
ATOM     15  C   UNL     1      -4.080   8.974  21.135  1.00  0.00    -0.000 C 
BRANCH  15  16
ATOM     16  C   UNL     1      -2.889   9.845  21.561  1.00  0.00    -0.003 C 
ATOM     17  C   UNL     1      -3.306  11.304  21.723  1.00  0.00     0.004 C 
ENDBRANCH  15  16
ENDBRANCH  14  15
ENDBRANCH  13  14
ENDBRANCH  12  13
ENDBRANCH  11  12
ENDBRANCH  10  11
ENDBRANCH   1  10
TORSDOF 13
ENDMDL
MODEL 8
REMARK VINA RESULT:    -4.389      1.329      2.150
REMARK INTER + INTRA:          -9.621
REMARK INTER:                  -8.098
REMARK INTRA:                  -1.523
REMARK UNBOUND:                -1.897
REMARK SMILES CCCCCCCCCCCCCCC(=O)[O-]
REMARK SMILES IDX 9 1 10 2 11 3 12 4 13 5 14 6 15 7 16 8 17 9 8 10 7 11 6 12
REMARK SMILES IDX 5 13 4 14 3 15 2 16 1 17
REMARK H PARENT
REMARK Flexibility Score: inf
ROOT
ATOM      1  C   UNL     1      -1.342  10.410  25.732  1.00  0.00     0.000 C 
ENDROOT
BRANCH   1   2
ATOM      2  C   UNL     1      -2.046  11.648  25.154  1.00  0.00     0.000 C 
BRANCH   2   3
ATOM      3  C   UNL     1      -1.480  12.965  25.715  1.00  0.00     0.000 C 
BRANCH   3   4
ATOM      4  C   UNL     1      -0.205  12.760  26.552  1.00  0.00     0.000 C 
BRANCH   4   5
ATOM      5  C   UNL     1       1.084  13.336  25.934  1.00  0.00     0.006 C 
BRANCH   5   6
ATOM      6  C   UNL     1       0.858  14.674  25.218  1.00  0.00     0.053 C 
BRANCH   6   7
ATOM      7  C   UNL     1       2.050  15.562  25.383  1.00  0.00     0.041 C 
ATOM      8  O   UNL     1       3.152  15.245  24.865  1.00  0.00    -0.550 OA
ATOM      9  O   UNL     1       1.957  16.716  26.151  1.00  0.00    -0.550 OA
ENDBRANCH   6   7
ENDBRANCH   5   6
ENDBRANCH   4   5
ENDBRANCH   3   4
ENDBRANCH   2   3
ENDBRANCH   1   2
BRANCH   1  10
ATOM     10  C   UNL     1      -2.147   9.115  25.520  1.00  0.00     0.000 C 
BRANCH  10  11
ATOM     11  C   UNL     1      -3.582   9.381  25.036  1.00  0.00    -0.000 C 
BRANCH  11  12
ATOM     12  C   UNL     1      -3.927   8.595  23.758  1.00  0.00    -0.000 C 
BRANCH  12  13
ATOM     13  C   UNL     1      -2.677   8.162  22.975  1.00  0.00    -0.000 C 
BRANCH  13  14
ATOM     14  C   UNL     1      -2.277   9.179  21.892  1.00  0.00    -0.000 C 
BRANCH  14  15
ATOM     15  C   UNL     1      -3.455  10.058  21.443  1.00  0.00    -0.000 C 
BRANCH  15  16
ATOM     16  C   UNL     1      -3.176  11.558  21.618  1.00  0.00    -0.003 C 
ATOM     17  C   UNL     1      -4.376  12.272  22.233  1.00  0.00     0.004 C 
ENDBRANCH  15  16
ENDBRANCH  14  15
ENDBRANCH  13  14
ENDBRANCH  12  13
ENDBRANCH  11  12
ENDBRANCH  10  11
ENDBRANCH   1  10
TORSDOF 13
ENDMDL
MODEL 9
REMARK VINA RESULT:    -4.334      5.192      9.326
REMARK INTER + INTRA:          -9.525
REMARK INTER:                  -7.576
REMARK INTRA:                  -1.949
REMARK UNBOUND:                -1.897
REMARK SMILES CCCCCCCCCCCCCCC(=O)[O-]
REMARK SMILES IDX 9 1 10 2 11 3 12 4 13 5 14 6 15 7 16 8 17 9 8 10 7 11 6 12
REMARK SMILES IDX 5 13 4 14 3 15 2 16 1 17
REMARK H PARENT
REMARK Flexibility Score: inf
ROOT
ATOM      1  C   UNL     1       4.760  18.963  23.856  1.00  0.00     0.000 C 
ENDROOT
BRANCH   1   2
ATOM      2  C   UNL     1       4.210  17.875  22.919  1.00  0.00     0.000 C 
BRANCH   2   3
ATOM      3  C   UNL     1       4.024  16.523  23.630  1.00  0.00     0.000 C 
BRANCH   3   4
ATOM      4  C   UNL     1       2.545  16.133  23.799  1.00  0.00     0.000 C 
BRANCH   4   5
ATOM      5  C   UNL     1       2.298  14.801  24.532  1.00  0.00     0.006 C 
BRANCH   5   6
ATOM      6  C   UNL     1       1.277  14.925  25.671  1.00  0.00     0.053 C 
BRANCH   6   7
ATOM      7  C   UNL     1       0.556  13.630  25.871  1.00  0.00     0.041 C 
ATOM      8  O   UNL     1       1.204  12.556  25.984  1.00  0.00    -0.550 OA
ATOM      9  O   UNL     1      -0.832  13.601  25.884  1.00  0.00    -0.550 OA
ENDBRANCH   6   7
ENDBRANCH   5   6
ENDBRANCH   4   5
ENDBRANCH   3   4
ENDBRANCH   2   3
ENDBRANCH   1   2
BRANCH   1  10
ATOM     10  C   UNL     1       4.474  20.387  23.345  1.00  0.00     0.000 C 
BRANCH  10  11
ATOM     11  C   UNL     1       4.303  20.447  21.819  1.00  0.00    -0.000 C 
BRANCH  11  12
ATOM     12  C   UNL     1       2.916  20.967  21.401  1.00  0.00    -0.000 C 
BRANCH  12  13
ATOM     13  C   UNL     1       1.908  20.956  22.562  1.00  0.00    -0.000 C 
BRANCH  13  14
ATOM     14  C   UNL     1       0.900  19.799  22.459  1.00  0.00    -0.000 C 
BRANCH  14  15
ATOM     15  C   UNL     1       0.480  19.257  23.835  1.00  0.00    -0.000 C 
BRANCH  15  16
ATOM     16  C   UNL     1       1.277  19.886  24.988  1.00  0.00    -0.003 C 
ATOM     17  C   UNL     1       1.597  18.851  26.063  1.00  0.00     0.004 C 
ENDBRANCH  15  16
ENDBRANCH  14  15
ENDBRANCH  13  14
ENDBRANCH  12  13
ENDBRANCH  11  12
ENDBRANCH  10  11
ENDBRANCH   1  10
TORSDOF 13
ENDMDL
