MODEL 1
REMARK VINA RESULT:    -4.407      0.000      0.000
REMARK INTER + INTRA:          -4.728
REMARK INTER:                  -4.664
REMARK INTRA:                  -0.063
REMARK UNBOUND:                -0.063
REMARK SMILES CC(C)[C@H]1CC[C@H](C)CC1=O
REMARK SMILES IDX 8 1 7 2 6 3 5 4 4 5 10 6 11 7 9 8 2 9 1 10 3 11
REMARK H PARENT
REMARK Flexibility Score: inf
ROOT
ATOM      1  C   UNL     1      34.304  -4.271  32.427  1.00  0.00     0.008 C 
ATOM      2  C   UNL     1      33.071  -4.451  33.318  1.00  0.00    -0.007 C 
ATOM      3  C   UNL     1      32.690  -3.118  33.994  1.00  0.00     0.004 C 
ATOM      4  C   UNL     1      31.441  -3.268  34.885  1.00  0.00     0.012 C 
ATOM      5  C   UNL     1      30.227  -3.802  34.085  1.00  0.00     0.058 C 
ATOM      6  C   UNL     1      30.672  -5.070  33.375  1.00  0.00     0.136 C 
ATOM      7  O   UNL     1      30.119  -6.144  33.563  1.00  0.00    -0.299 OA
ATOM      8  C   UNL     1      31.890  -5.002  32.500  1.00  0.00     0.079 C 
ENDROOT
BRANCH   5   9
ATOM      9  C   UNL     1      28.951  -4.012  34.966  1.00  0.00    -0.007 C 
ATOM     10  C   UNL     1      27.677  -3.981  34.101  1.00  0.00     0.008 C 
ATOM     11  C   UNL     1      28.814  -2.956  36.076  1.00  0.00     0.008 C 
ENDBRANCH   5   9
TORSDOF 1
ENDMDL
MODEL 2
REMARK VINA RESULT:    -4.360      2.230      4.951
REMARK INTER + INTRA:          -4.678
REMARK INTER:                  -4.504
REMARK INTRA:                  -0.174
REMARK UNBOUND:                -0.063
REMARK SMILES CC(C)[C@H]1CC[C@H](C)CC1=O
REMARK SMILES IDX 8 1 7 2 6 3 5 4 4 5 10 6 11 7 9 8 2 9 1 10 3 11
REMARK H PARENT
REMARK Flexibility Score: inf
ROOT
ATOM      1  C   UNL     1      26.299  -1.101  35.869  1.00  0.00     0.008 C 
ATOM      2  C   UNL     1      27.119  -2.385  35.696  1.00  0.00    -0.007 C 
ATOM      3  C   UNL     1      26.894  -2.989  34.295  1.00  0.00     0.004 C 
ATOM      4  C   UNL     1      27.720  -4.273  34.090  1.00  0.00     0.012 C 
ATOM      5  C   UNL     1      29.233  -4.022  34.302  1.00  0.00     0.058 C 
ATOM      6  C   UNL     1      29.398  -3.357  35.658  1.00  0.00     0.136 C 
ATOM      7  O   UNL     1      30.080  -3.853  36.544  1.00  0.00    -0.299 OA
ATOM      8  C   UNL     1      28.613  -2.107  35.935  1.00  0.00     0.079 C 
ENDROOT
BRANCH   5   9
ATOM      9  C   UNL     1      30.101  -5.314  34.148  1.00  0.00    -0.007 C 
ATOM     10  C   UNL     1      30.731  -5.388  32.743  1.00  0.00     0.008 C 
ATOM     11  C   UNL     1      29.299  -6.604  34.391  1.00  0.00     0.008 C 
ENDBRANCH   5   9
TORSDOF 1
ENDMDL
MODEL 3
REMARK VINA RESULT:    -4.264      1.675      4.304
REMARK INTER + INTRA:          -4.577
REMARK INTER:                  -4.418
REMARK INTRA:                  -0.159
REMARK UNBOUND:                -0.063
REMARK SMILES CC(C)[C@H]1CC[C@H](C)CC1=O
REMARK SMILES IDX 8 1 7 2 6 3 5 4 4 5 10 6 11 7 9 8 2 9 1 10 3 11
REMARK H PARENT
REMARK Flexibility Score: inf
ROOT
ATOM      1  C   UNL     1      28.380  -4.602  34.221  1.00  0.00     0.008 C 
ATOM      2  C   UNL     1      29.859  -4.249  34.027  1.00  0.00    -0.007 C 
ATOM      3  C   UNL     1      30.515  -3.898  35.378  1.00  0.00     0.004 C 
ATOM      4  C   UNL     1      32.008  -3.555  35.212  1.00  0.00     0.012 C 
ATOM      5  C   UNL     1      32.792  -4.713  34.548  1.00  0.00     0.058 C 
ATOM      6  C   UNL     1      32.066  -5.076  33.263  1.00  0.00     0.136 C 
ATOM      7  O   UNL     1      32.616  -5.024  32.172  1.00  0.00    -0.299 OA
ATOM      8  C   UNL     1      30.605  -5.410  33.345  1.00  0.00     0.079 C 
ENDROOT
BRANCH   5   9
ATOM      9  C   UNL     1      34.305  -4.384  34.320  1.00  0.00    -0.007 C 
ATOM     10  C   UNL     1      35.185  -5.612  34.624  1.00  0.00     0.008 C 
ATOM     11  C   UNL     1      34.795  -3.208  35.182  1.00  0.00     0.008 C 
ENDBRANCH   5   9
TORSDOF 1
ENDMDL
MODEL 4
REMARK VINA RESULT:    -4.132      3.092      4.909
REMARK INTER + INTRA:          -4.437
REMARK INTER:                  -4.262
REMARK INTRA:                  -0.175
REMARK UNBOUND:                -0.063
REMARK SMILES CC(C)[C@H]1CC[C@H](C)CC1=O
REMARK SMILES IDX 8 1 7 2 6 3 5 4 4 5 10 6 11 7 9 8 2 9 1 10 3 11
REMARK H PARENT
REMARK Flexibility Score: inf
ROOT
ATOM      1  C   UNL     1      30.098  -4.800  34.990  1.00  0.00     0.008 C 
ATOM      2  C   UNL     1      29.097  -3.678  34.690  1.00  0.00    -0.007 C 
ATOM      3  C   UNL     1      27.765  -4.262  34.177  1.00  0.00     0.004 C 
ATOM      4  C   UNL     1      26.735  -3.154  33.883  1.00  0.00     0.012 C 
ATOM      5  C   UNL     1      26.464  -2.277  35.130  1.00  0.00     0.058 C 
ATOM      6  C   UNL     1      27.808  -1.790  35.645  1.00  0.00     0.136 C 
ATOM      7  O   UNL     1      28.070  -0.600  35.743  1.00  0.00    -0.299 OA
ATOM      8  C   UNL     1      28.866  -2.813  35.941  1.00  0.00     0.079 C 
ENDROOT
BRANCH   5   9
ATOM      9  C   UNL     1      25.456  -1.111  34.858  1.00  0.00    -0.007 C 
ATOM     10  C   UNL     1      24.071  -1.433  35.450  1.00  0.00     0.008 C 
ATOM     11  C   UNL     1      25.288  -0.807  33.359  1.00  0.00     0.008 C 
ENDBRANCH   5   9
TORSDOF 1
ENDMDL
MODEL 5
REMARK VINA RESULT:    -4.093      2.019      2.964
REMARK INTER + INTRA:          -4.395
REMARK INTER:                  -4.224
REMARK INTRA:                  -0.171
REMARK UNBOUND:                -0.063
REMARK SMILES CC(C)[C@H]1CC[C@H](C)CC1=O
REMARK SMILES IDX 8 1 7 2 6 3 5 4 4 5 10 6 11 7 9 8 2 9 1 10 3 11
REMARK H PARENT
REMARK Flexibility Score: inf
ROOT
ATOM      1  C   UNL     1      35.519  -2.800  34.962  1.00  0.00     0.008 C 
ATOM      2  C   UNL     1      34.139  -3.139  34.389  1.00  0.00    -0.007 C 
ATOM      3  C   UNL     1      34.045  -4.640  34.051  1.00  0.00     0.004 C 
ATOM      4  C   UNL     1      32.659  -5.011  33.488  1.00  0.00     0.012 C 
ATOM      5  C   UNL     1      31.522  -4.635  34.469  1.00  0.00     0.058 C 
ATOM      6  C   UNL     1      31.701  -3.170  34.834  1.00  0.00     0.136 C 
ATOM      7  O   UNL     1      30.830  -2.339  34.621  1.00  0.00    -0.299 OA
ATOM      8  C   UNL     1      33.031  -2.733  35.377  1.00  0.00     0.079 C 
ENDROOT
BRANCH   5   9
ATOM      9  C   UNL     1      30.095  -4.953  33.912  1.00  0.00    -0.007 C 
ATOM     10  C   UNL     1      29.597  -6.318  34.426  1.00  0.00     0.008 C 
ATOM     11  C   UNL     1      30.044  -4.962  32.374  1.00  0.00     0.008 C 
ENDBRANCH   5   9
TORSDOF 1
ENDMDL
MODEL 6
REMARK VINA RESULT:    -3.961      1.630      4.690
REMARK INTER + INTRA:          -4.256
REMARK INTER:                  -4.106
REMARK INTRA:                  -0.150
REMARK UNBOUND:                -0.063
REMARK SMILES CC(C)[C@H]1CC[C@H](C)CC1=O
REMARK SMILES IDX 8 1 7 2 6 3 5 4 4 5 10 6 11 7 9 8 2 9 1 10 3 11
REMARK H PARENT
REMARK Flexibility Score: inf
ROOT
ATOM      1  C   UNL     1      28.352  -4.679  34.208  1.00  0.00     0.008 C 
ATOM      2  C   UNL     1      29.883  -4.698  34.128  1.00  0.00    -0.007 C 
ATOM      3  C   UNL     1      30.349  -4.757  32.658  1.00  0.00     0.004 C 
ATOM      4  C   UNL     1      31.886  -4.761  32.550  1.00  0.00     0.012 C 
ATOM      5  C   UNL     1      32.514  -3.523  33.237  1.00  0.00     0.058 C 
ATOM      6  C   UNL     1      31.966  -3.463  34.653  1.00  0.00     0.136 C 
ATOM      7  O   UNL     1      32.698  -3.493  35.632  1.00  0.00    -0.299 OA
ATOM      8  C   UNL     1      30.476  -3.469  34.838  1.00  0.00     0.079 C 
ENDROOT
BRANCH   5   9
ATOM      9  C   UNL     1      34.077  -3.516  33.188  1.00  0.00    -0.007 C 
ATOM     10  C   UNL     1      34.614  -2.080  33.032  1.00  0.00     0.008 C 
ATOM     11  C   UNL     1      34.641  -4.375  32.043  1.00  0.00     0.008 C 
ENDBRANCH   5   9
TORSDOF 1
ENDMDL
MODEL 7
REMARK VINA RESULT:    -3.959      6.487      8.705
REMARK INTER + INTRA:          -4.254
REMARK INTER:                  -4.079
REMARK INTRA:                  -0.175
REMARK UNBOUND:                -0.063
REMARK SMILES CC(C)[C@H]1CC[C@H](C)CC1=O
REMARK SMILES IDX 8 1 7 2 6 3 5 4 4 5 10 6 11 7 9 8 2 9 1 10 3 11
REMARK H PARENT
REMARK Flexibility Score: inf
ROOT
ATOM      1  C   UNL     1      23.376   3.117  31.308  1.00  0.00     0.008 C 
ATOM      2  C   UNL     1      23.630   1.741  31.932  1.00  0.00    -0.007 C 
ATOM      3  C   UNL     1      25.143   1.453  32.015  1.00  0.00     0.004 C 
ATOM      4  C   UNL     1      25.426   0.080  32.655  1.00  0.00     0.012 C 
ATOM      5  C   UNL     1      24.805  -0.034  34.068  1.00  0.00     0.058 C 
ATOM      6  C   UNL     1      23.335   0.333  33.950  1.00  0.00     0.136 C 
ATOM      7  O   UNL     1      22.446  -0.443  34.271  1.00  0.00    -0.299 OA
ATOM      8  C   UNL     1      22.982   1.652  33.325  1.00  0.00     0.079 C 
ENDROOT
BRANCH   5   9
ATOM      9  C   UNL     1      25.032  -1.432  34.732  1.00  0.00    -0.007 C 
ATOM     10  C   UNL     1      26.161  -1.366  35.779  1.00  0.00     0.008 C 
ATOM     11  C   UNL     1      25.378  -2.528  33.709  1.00  0.00     0.008 C 
ENDBRANCH   5   9
TORSDOF 1
ENDMDL
MODEL 8
REMARK VINA RESULT:    -3.949      6.410      9.264
REMARK INTER + INTRA:          -4.243
REMARK INTER:                  -4.077
REMARK INTRA:                  -0.166
REMARK UNBOUND:                -0.063
REMARK SMILES CC(C)[C@H]1CC[C@H](C)CC1=O
REMARK SMILES IDX 8 1 7 2 6 3 5 4 4 5 10 6 11 7 9 8 2 9 1 10 3 11
REMARK H PARENT
REMARK Flexibility Score: inf
ROOT
ATOM      1  C   UNL     1      22.328   2.017  38.068  1.00  0.00     0.008 C 
ATOM      2  C   UNL     1      22.726   1.375  36.734  1.00  0.00    -0.007 C 
ATOM      3  C   UNL     1      24.221   1.615  36.441  1.00  0.00     0.004 C 
ATOM      4  C   UNL     1      24.651   0.966  35.111  1.00  0.00     0.012 C 
ATOM      5  C   UNL     1      24.363  -0.556  35.096  1.00  0.00     0.058 C 
ATOM      6  C   UNL     1      22.901  -0.746  35.465  1.00  0.00     0.136 C 
ATOM      7  O   UNL     1      22.113  -1.309  34.720  1.00  0.00    -0.299 OA
ATOM      8  C   UNL     1      22.408  -0.130  36.743  1.00  0.00     0.079 C 
ENDROOT
BRANCH   5   9
ATOM      9  C   UNL     1      24.744  -1.243  33.743  1.00  0.00    -0.007 C 
ATOM     10  C   UNL     1      25.649  -2.466  33.984  1.00  0.00     0.008 C 
ATOM     11  C   UNL     1      25.461  -0.289  32.771  1.00  0.00     0.008 C 
ENDBRANCH   5   9
TORSDOF 1
ENDMDL
MODEL 9
REMARK VINA RESULT:    -3.934      6.635      8.802
REMARK INTER + INTRA:          -4.228
REMARK INTER:                  -4.062
REMARK INTRA:                  -0.166
REMARK UNBOUND:                -0.063
REMARK SMILES CC(C)[C@H]1CC[C@H](C)CC1=O
REMARK SMILES IDX 8 1 7 2 6 3 5 4 4 5 10 6 11 7 9 8 2 9 1 10 3 11
REMARK H PARENT
REMARK Flexibility Score: inf
ROOT
ATOM      1  C   UNL     1      25.879  -2.796  33.845  1.00  0.00     0.008 C 
ATOM      2  C   UNL     1      25.041  -1.633  34.386  1.00  0.00    -0.007 C 
ATOM      3  C   UNL     1      25.117  -0.420  33.437  1.00  0.00     0.004 C 
ATOM      4  C   UNL     1      24.269   0.760  33.951  1.00  0.00     0.012 C 
ATOM      5  C   UNL     1      22.787   0.357  34.149  1.00  0.00     0.058 C 
ATOM      6  C   UNL     1      22.766  -0.885  35.025  1.00  0.00     0.136 C 
ATOM      7  O   UNL     1      22.177  -0.912  36.096  1.00  0.00    -0.299 OA
ATOM      8  C   UNL     1      23.580  -2.070  34.592  1.00  0.00     0.079 C 
ENDROOT
BRANCH   5   9
ATOM      9  C   UNL     1      21.902   1.516  34.715  1.00  0.00    -0.007 C 
ATOM     10  C   UNL     1      20.636   1.709  33.858  1.00  0.00     0.008 C 
ATOM     11  C   UNL     1      22.652   2.858  34.786  1.00  0.00     0.008 C 
ENDBRANCH   5   9
TORSDOF 1
ENDMDL
