MODEL 1
REMARK VINA RESULT:    -7.531      0.000      0.000
REMARK INTER + INTRA:         -12.644
REMARK INTER:                 -11.053
REMARK INTRA:                  -1.591
REMARK UNBOUND:                -1.591
REMARK SMILES O=c1c(O[C@H]2O[C@@H](CO)[C@H](O)[C@@H](O)[C@H]2O)c(-c2ccc(O)c(O)c2)oc2cc(O)cc(O)c12
REMARK SMILES IDX 4 1 3 2 16 3 25 4 2 5 26 6 1 7 33 8 27 9 31 10 28 11 30 12
REMARK SMILES IDX 17 13 18 14 19 15 20 16 24 17 22 18 21 19 23 21 32 23 29 25
REMARK SMILES IDX 5 27 14 28 6 29 12 30 7 31 10 32 15 33 13 35 8 37 9 38 11 40
REMARK H PARENT 21 20 23 22 32 24 29 26 15 34 13 36 9 39 11 41
REMARK Flexibility Score: inf
ROOT
ATOM      1  O   UNL     1      35.321  44.955 163.552  1.00  0.00    -0.454 OA
ENDROOT
BRANCH   1   2
ATOM      2  C   UNL     1      36.207  45.651 164.404  1.00  0.00     0.214 A 
ATOM      3  C   UNL     1      37.126  46.536 163.810  1.00  0.00     0.180 A 
ATOM      4  O   UNL     1      38.013  47.180 164.558  1.00  0.00    -0.452 OA
ATOM      5  C   UNL     1      36.242  45.496 165.812  1.00  0.00     0.239 A 
ATOM      6  C   UNL     1      38.101  47.040 165.872  1.00  0.00     0.146 A 
ATOM      7  O   UNL     1      35.364  44.806 166.386  1.00  0.00    -0.285 OA
ATOM      8  C   UNL     1      37.241  46.156 166.569  1.00  0.00     0.111 A 
ATOM      9  C   UNL     1      39.059  47.792 166.558  1.00  0.00     0.094 A 
ATOM     10  C   UNL     1      37.412  46.012 167.979  1.00  0.00     0.134 A 
ATOM     11  C   UNL     1      39.177  47.691 167.941  1.00  0.00     0.123 A 
ATOM     12  C   UNL     1      38.352  46.810 168.645  1.00  0.00     0.093 A 
BRANCH   3  13
ATOM     13  C   UNL     1      37.164  46.761 162.348  1.00  0.00     0.025 A 
ATOM     14  C   UNL     1      36.478  47.837 161.755  1.00  0.00     0.016 A 
ATOM     15  C   UNL     1      36.548  48.041 160.375  1.00  0.00     0.051 A 
ATOM     16  C   UNL     1      37.311  47.184 159.572  1.00  0.00     0.157 A 
ATOM     17  C   UNL     1      37.940  45.917 161.540  1.00  0.00     0.062 A 
ATOM     18  C   UNL     1      38.010  46.121 160.155  1.00  0.00     0.158 A 
BRANCH  16  19
ATOM     19  O   UNL     1      37.386  47.389 158.196  1.00  0.00    -0.504 OA
ATOM     20  H   UNL     1      36.565  47.607 157.645  1.00  0.00     0.293 HD
ENDBRANCH  16  19
BRANCH  18  21
ATOM     21  O   UNL     1      38.770  45.272 159.355  1.00  0.00    -0.504 OA
ATOM     22  H   UNL     1      38.352  44.497 158.855  1.00  0.00     0.293 HD
ENDBRANCH  18  21
ENDBRANCH   3  13
BRANCH  10  23
ATOM     23  O   UNL     1      36.715  45.084 168.760  1.00  0.00    -0.507 OA
ATOM     24  H   UNL     1      36.410  44.176 168.437  1.00  0.00     0.293 HD
ENDBRANCH  10  23
BRANCH  11  25
ATOM     25  O   UNL     1      40.125  48.467 168.608  1.00  0.00    -0.508 OA
ATOM     26  H   UNL     1      40.318  49.423 168.332  1.00  0.00     0.293 HD
ENDBRANCH  11  25
ENDBRANCH   1   2
BRANCH   1  27
ATOM     27  C   UNL     1      33.911  45.136 163.379  1.00  0.00     0.339 C 
ATOM     28  C   UNL     1      33.125  43.776 163.533  1.00  0.00     0.214 C 
ATOM     29  O   UNL     1      33.722  45.923 162.205  1.00  0.00    -0.332 OA
ATOM     30  C   UNL     1      32.112  43.400 162.421  1.00  0.00     0.180 C 
ATOM     31  C   UNL     1      33.100  45.298 161.103  1.00  0.00     0.179 C 
ATOM     32  C   UNL     1      31.810  44.569 161.496  1.00  0.00     0.177 C 
BRANCH  28  33
ATOM     33  O   UNL     1      34.027  42.715 163.736  1.00  0.00    -0.384 OA
ATOM     34  H   UNL     1      33.563  42.038 164.295  1.00  0.00     0.211 HD
ENDBRANCH  28  33
BRANCH  30  35
ATOM     35  O   UNL     1      32.579  42.313 161.659  1.00  0.00    -0.387 OA
ATOM     36  H   UNL     1      32.301  42.458 160.718  1.00  0.00     0.211 HD
ENDBRANCH  30  35
BRANCH  31  37
ATOM     37  C   UNL     1      34.092  44.504 160.214  1.00  0.00     0.191 C 
BRANCH  37  38
ATOM     38  O   UNL     1      35.142  43.942 160.955  1.00  0.00    -0.394 OA
ATOM     39  H   UNL     1      35.117  44.348 161.861  1.00  0.00     0.210 HD
ENDBRANCH  37  38
ENDBRANCH  31  37
BRANCH  32  40
ATOM     40  O   UNL     1      30.951  45.476 162.140  1.00  0.00    -0.387 OA
ATOM     41  H   UNL     1      31.367  46.374 162.058  1.00  0.00     0.211 HD
ENDBRANCH  32  40
ENDBRANCH   1  27
TORSDOF 12
ENDMDL
MODEL 2
REMARK VINA RESULT:    -7.498      2.688      7.156
REMARK INTER + INTRA:         -12.596
REMARK INTER:                 -10.993
REMARK INTRA:                  -1.603
REMARK UNBOUND:                -1.591
REMARK SMILES O=c1c(O[C@H]2O[C@@H](CO)[C@H](O)[C@@H](O)[C@H]2O)c(-c2ccc(O)c(O)c2)oc2cc(O)cc(O)c12
REMARK SMILES IDX 4 1 3 2 16 3 25 4 2 5 26 6 1 7 33 8 27 9 31 10 28 11 30 12
REMARK SMILES IDX 17 13 18 14 19 15 20 16 24 17 22 18 21 19 23 21 32 23 29 25
REMARK SMILES IDX 5 27 14 28 6 29 12 30 7 31 10 32 15 33 13 35 8 37 9 38 11 40
REMARK H PARENT 21 20 23 22 32 24 29 26 15 34 13 36 9 39 11 41
REMARK Flexibility Score: inf
ROOT
ATOM      1  O   UNL     1      35.867  48.056 161.595  1.00  0.00    -0.454 OA
ENDROOT
BRANCH   1   2
ATOM      2  C   UNL     1      36.531  47.119 160.772  1.00  0.00     0.214 A 
ATOM      3  C   UNL     1      37.190  46.047 161.402  1.00  0.00     0.180 A 
ATOM      4  O   UNL     1      37.869  45.163 160.681  1.00  0.00    -0.452 OA
ATOM      5  C   UNL     1      36.594  47.206 159.360  1.00  0.00     0.239 A 
ATOM      6  C   UNL     1      37.979  45.225 159.362  1.00  0.00     0.146 A 
ATOM      7  O   UNL     1      35.923  48.080 158.758  1.00  0.00    -0.285 OA
ATOM      8  C   UNL     1      37.376  46.277 158.630  1.00  0.00     0.111 A 
ATOM      9  C   UNL     1      38.699  44.222 158.708  1.00  0.00     0.094 A 
ATOM     10  C   UNL     1      37.567  46.318 157.216  1.00  0.00     0.134 A 
ATOM     11  C   UNL     1      38.827  44.235 157.322  1.00  0.00     0.123 A 
ATOM     12  C   UNL     1      38.258  45.275 156.583  1.00  0.00     0.093 A 
BRANCH   3  13
ATOM     13  C   UNL     1      37.179  45.875 162.871  1.00  0.00     0.025 A 
ATOM     14  C   UNL     1      36.168  45.140 163.516  1.00  0.00     0.016 A 
ATOM     15  C   UNL     1      36.193  44.974 164.903  1.00  0.00     0.051 A 
ATOM     16  C   UNL     1      37.233  45.526 165.662  1.00  0.00     0.157 A 
ATOM     17  C   UNL     1      38.227  46.411 163.636  1.00  0.00     0.062 A 
ATOM     18  C   UNL     1      38.252  46.246 165.027  1.00  0.00     0.158 A 
BRANCH  16  19
ATOM     19  O   UNL     1      37.263  45.358 167.044  1.00  0.00    -0.504 OA
ATOM     20  H   UNL     1      36.435  45.484 167.613  1.00  0.00     0.293 HD
ENDBRANCH  16  19
BRANCH  18  21
ATOM     21  O   UNL     1      39.287  46.792 165.784  1.00  0.00    -0.504 OA
ATOM     22  H   UNL     1      39.106  47.297 166.643  1.00  0.00     0.293 HD
ENDBRANCH  18  21
ENDBRANCH   3  13
BRANCH  10  23
ATOM     23  O   UNL     1      37.132  47.366 156.399  1.00  0.00    -0.507 OA
ATOM     24  H   UNL     1      36.217  47.420 155.973  1.00  0.00     0.293 HD
ENDBRANCH  10  23
BRANCH  11  25
ATOM     25  O   UNL     1      39.531  43.212 156.688  1.00  0.00    -0.508 OA
ATOM     26  H   UNL     1      40.482  43.345 156.361  1.00  0.00     0.293 HD
ENDBRANCH  11  25
ENDBRANCH   1   2
BRANCH   1  27
ATOM     27  C   UNL     1      34.462  48.228 161.810  1.00  0.00     0.339 C 
ATOM     28  C   UNL     1      34.054  49.753 161.807  1.00  0.00     0.214 C 
ATOM     29  O   UNL     1      34.095  47.409 162.917  1.00  0.00    -0.332 OA
ATOM     30  C   UNL     1      33.193  50.270 162.989  1.00  0.00     0.180 C 
ATOM     31  C   UNL     1      33.675  48.066 164.094  1.00  0.00     0.179 C 
ATOM     32  C   UNL     1      32.614  49.136 163.820  1.00  0.00     0.177 C 
BRANCH  28  33
ATOM     33  O   UNL     1      35.198  50.561 161.661  1.00  0.00    -0.384 OA
ATOM     34  H   UNL     1      35.497  50.814 162.574  1.00  0.00     0.211 HD
ENDBRANCH  28  33
BRANCH  30  35
ATOM     35  O   UNL     1      33.939  51.123 163.823  1.00  0.00    -0.387 OA
ATOM     36  H   UNL     1      34.041  50.678 164.703  1.00  0.00     0.211 HD
ENDBRANCH  30  35
BRANCH  31  37
ATOM     37  C   UNL     1      34.855  48.489 165.007  1.00  0.00     0.191 C 
BRANCH  37  38
ATOM     38  O   UNL     1      35.969  48.925 164.275  1.00  0.00    -0.394 OA
ATOM     39  H   UNL     1      36.489  48.120 164.018  1.00  0.00     0.210 HD
ENDBRANCH  37  38
ENDBRANCH  31  37
BRANCH  32  40
ATOM     40  O   UNL     1      31.537  48.547 163.135  1.00  0.00    -0.387 OA
ATOM     41  H   UNL     1      31.561  48.897 162.205  1.00  0.00     0.211 HD
ENDBRANCH  32  40
ENDBRANCH   1  27
TORSDOF 12
ENDMDL
MODEL 3
REMARK VINA RESULT:    -7.403      2.625      7.178
REMARK INTER + INTRA:         -12.457
REMARK INTER:                 -10.887
REMARK INTRA:                  -1.570
REMARK UNBOUND:                -1.591
REMARK SMILES O=c1c(O[C@H]2O[C@@H](CO)[C@H](O)[C@@H](O)[C@H]2O)c(-c2ccc(O)c(O)c2)oc2cc(O)cc(O)c12
REMARK SMILES IDX 4 1 3 2 16 3 25 4 2 5 26 6 1 7 33 8 27 9 31 10 28 11 30 12
REMARK SMILES IDX 17 13 18 14 19 15 20 16 24 17 22 18 21 19 23 21 32 23 29 25
REMARK SMILES IDX 5 27 14 28 6 29 12 30 7 31 10 32 15 33 13 35 8 37 9 38 11 40
REMARK H PARENT 21 20 23 22 32 24 29 26 15 34 13 36 9 39 11 41
REMARK Flexibility Score: inf
ROOT
ATOM      1  O   UNL     1      35.896  48.053 161.591  1.00  0.00    -0.454 OA
ENDROOT
BRANCH   1   2
ATOM      2  C   UNL     1      36.567  47.128 160.761  1.00  0.00     0.214 A 
ATOM      3  C   UNL     1      37.252  46.068 161.383  1.00  0.00     0.180 A 
ATOM      4  O   UNL     1      37.938  45.196 160.655  1.00  0.00    -0.452 OA
ATOM      5  C   UNL     1      36.610  47.214 159.348  1.00  0.00     0.239 A 
ATOM      6  C   UNL     1      38.031  45.258 159.334  1.00  0.00     0.146 A 
ATOM      7  O   UNL     1      35.917  48.076 158.754  1.00  0.00    -0.285 OA
ATOM      8  C   UNL     1      37.400  46.299 158.609  1.00  0.00     0.111 A 
ATOM      9  C   UNL     1      38.760  44.268 158.672  1.00  0.00     0.094 A 
ATOM     10  C   UNL     1      37.573  46.342 157.192  1.00  0.00     0.134 A 
ATOM     11  C   UNL     1      38.871  44.282 157.285  1.00  0.00     0.123 A 
ATOM     12  C   UNL     1      38.274  45.311 156.552  1.00  0.00     0.093 A 
BRANCH   3  13
ATOM     13  C   UNL     1      37.263  45.897 162.853  1.00  0.00     0.025 A 
ATOM     14  C   UNL     1      38.266  46.476 163.650  1.00  0.00     0.016 A 
ATOM     15  C   UNL     1      38.242  46.319 165.038  1.00  0.00     0.051 A 
ATOM     16  C   UNL     1      37.211  45.594 165.648  1.00  0.00     0.157 A 
ATOM     17  C   UNL     1      36.224  45.186 163.472  1.00  0.00     0.062 A 
ATOM     18  C   UNL     1      36.199  45.027 164.864  1.00  0.00     0.158 A 
BRANCH  16  19
ATOM     19  O   UNL     1      37.181  45.439 167.032  1.00  0.00    -0.504 OA
ATOM     20  H   UNL     1      37.388  44.551 167.473  1.00  0.00     0.293 HD
ENDBRANCH  16  19
BRANCH  18  21
ATOM     21  O   UNL     1      35.173  44.309 165.474  1.00  0.00    -0.504 OA
ATOM     22  H   UNL     1      34.479  43.810 164.931  1.00  0.00     0.293 HD
ENDBRANCH  18  21
ENDBRANCH   3  13
BRANCH  10  23
ATOM     23  O   UNL     1      37.108  47.382 156.380  1.00  0.00    -0.507 OA
ATOM     24  H   UNL     1      37.396  48.347 156.463  1.00  0.00     0.293 HD
ENDBRANCH  10  23
BRANCH  11  25
ATOM     25  O   UNL     1      39.586  43.272 156.642  1.00  0.00    -0.508 OA
ATOM     26  H   UNL     1      39.222  42.806 155.818  1.00  0.00     0.293 HD
ENDBRANCH  11  25
ENDBRANCH   1   2
BRANCH   1  27
ATOM     27  C   UNL     1      34.489  48.222 161.798  1.00  0.00     0.339 C 
ATOM     28  C   UNL     1      34.079  49.746 161.800  1.00  0.00     0.214 C 
ATOM     29  O   UNL     1      34.117  47.397 162.899  1.00  0.00    -0.332 OA
ATOM     30  C   UNL     1      33.210  50.256 162.979  1.00  0.00     0.180 C 
ATOM     31  C   UNL     1      33.689  48.048 164.077  1.00  0.00     0.179 C 
ATOM     32  C   UNL     1      32.627  49.117 163.801  1.00  0.00     0.177 C 
BRANCH  28  33
ATOM     33  O   UNL     1      35.222  50.557 161.665  1.00  0.00    -0.384 OA
ATOM     34  H   UNL     1      35.024  51.420 162.114  1.00  0.00     0.211 HD
ENDBRANCH  28  33
BRANCH  30  35
ATOM     35  O   UNL     1      33.949  51.106 163.822  1.00  0.00    -0.387 OA
ATOM     36  H   UNL     1      33.442  51.952 163.925  1.00  0.00     0.211 HD
ENDBRANCH  30  35
BRANCH  31  37
ATOM     37  C   UNL     1      34.862  48.468 164.999  1.00  0.00     0.191 C 
BRANCH  37  38
ATOM     38  O   UNL     1      35.970  48.936 164.277  1.00  0.00    -0.394 OA
ATOM     39  H   UNL     1      36.453  48.142 163.927  1.00  0.00     0.210 HD
ENDBRANCH  37  38
ENDBRANCH  31  37
BRANCH  32  40
ATOM     40  O   UNL     1      31.556  48.529 163.107  1.00  0.00    -0.387 OA
ATOM     41  H   UNL     1      30.721  48.914 163.486  1.00  0.00     0.211 HD
ENDBRANCH  32  40
ENDBRANCH   1  27
TORSDOF 12
ENDMDL
MODEL 4
REMARK VINA RESULT:    -7.341      1.412      4.918
REMARK INTER + INTRA:         -12.365
REMARK INTER:                 -10.741
REMARK INTRA:                  -1.624
REMARK UNBOUND:                -1.591
REMARK SMILES O=c1c(O[C@H]2O[C@@H](CO)[C@H](O)[C@@H](O)[C@H]2O)c(-c2ccc(O)c(O)c2)oc2cc(O)cc(O)c12
REMARK SMILES IDX 4 1 3 2 16 3 25 4 2 5 26 6 1 7 33 8 27 9 31 10 28 11 30 12
REMARK SMILES IDX 17 13 18 14 19 15 20 16 24 17 22 18 21 19 23 21 32 23 29 25
REMARK SMILES IDX 5 27 14 28 6 29 12 30 7 31 10 32 15 33 13 35 8 37 9 38 11 40
REMARK H PARENT 21 20 23 22 32 24 29 26 15 34 13 36 9 39 11 41
REMARK Flexibility Score: inf
ROOT
ATOM      1  O   UNL     1      36.438  46.637 162.749  1.00  0.00    -0.454 OA
ENDROOT
BRANCH   1   2
ATOM      2  C   UNL     1      36.585  46.367 164.127  1.00  0.00     0.214 A 
ATOM      3  C   UNL     1      35.817  45.322 164.674  1.00  0.00     0.180 A 
ATOM      4  O   UNL     1      35.879  45.055 165.972  1.00  0.00    -0.452 OA
ATOM      5  C   UNL     1      37.437  47.094 164.994  1.00  0.00     0.239 A 
ATOM      6  C   UNL     1      36.638  45.730 166.823  1.00  0.00     0.146 A 
ATOM      7  O   UNL     1      38.221  47.954 164.521  1.00  0.00    -0.285 OA
ATOM      8  C   UNL     1      37.433  46.818 166.383  1.00  0.00     0.111 A 
ATOM      9  C   UNL     1      36.643  45.341 168.164  1.00  0.00     0.094 A 
ATOM     10  C   UNL     1      38.195  47.538 167.352  1.00  0.00     0.134 A 
ATOM     11  C   UNL     1      37.437  46.009 169.090  1.00  0.00     0.123 A 
ATOM     12  C   UNL     1      38.213  47.097 168.682  1.00  0.00     0.093 A 
BRANCH   3  13
ATOM     13  C   UNL     1      34.899  44.508 163.846  1.00  0.00     0.025 A 
ATOM     14  C   UNL     1      35.341  43.345 163.192  1.00  0.00     0.016 A 
ATOM     15  C   UNL     1      34.449  42.581 162.434  1.00  0.00     0.051 A 
ATOM     16  C   UNL     1      33.105  42.961 162.331  1.00  0.00     0.157 A 
ATOM     17  C   UNL     1      33.548  44.874 163.753  1.00  0.00     0.062 A 
ATOM     18  C   UNL     1      32.653  44.109 162.993  1.00  0.00     0.158 A 
BRANCH  16  19
ATOM     19  O   UNL     1      32.212  42.199 161.581  1.00  0.00    -0.504 OA
ATOM     20  H   UNL     1      32.086  42.353 160.588  1.00  0.00     0.293 HD
ENDBRANCH  16  19
BRANCH  18  21
ATOM     21  O   UNL     1      31.315  44.484 162.890  1.00  0.00    -0.504 OA
ATOM     22  H   UNL     1      30.718  44.126 162.154  1.00  0.00     0.293 HD
ENDBRANCH  18  21
ENDBRANCH   3  13
BRANCH  10  23
ATOM     23  O   UNL     1      38.919  48.701 167.069  1.00  0.00    -0.507 OA
ATOM     24  H   UNL     1      39.892  48.843 167.302  1.00  0.00     0.293 HD
ENDBRANCH  10  23
BRANCH  11  25
ATOM     25  O   UNL     1      37.443  45.590 170.421  1.00  0.00    -0.508 OA
ATOM     26  H   UNL     1      37.410  44.607 170.667  1.00  0.00     0.293 HD
ENDBRANCH  11  25
ENDBRANCH   1   2
BRANCH   1  27
ATOM     27  C   UNL     1      37.423  46.580 161.710  1.00  0.00     0.339 C 
ATOM     28  C   UNL     1      37.282  47.790 160.706  1.00  0.00     0.214 C 
ATOM     29  O   UNL     1      37.432  45.249 161.203  1.00  0.00    -0.332 OA
ATOM     30  C   UNL     1      37.242  47.466 159.190  1.00  0.00     0.180 C 
ATOM     31  C   UNL     1      36.992  45.061 159.875  1.00  0.00     0.179 C 
ATOM     32  C   UNL     1      37.658  46.033 158.895  1.00  0.00     0.177 C 
BRANCH  28  33
ATOM     33  O   UNL     1      36.172  48.583 161.054  1.00  0.00    -0.384 OA
ATOM     34  H   UNL     1      35.992  48.429 162.018  1.00  0.00     0.211 HD
ENDBRANCH  28  33
BRANCH  30  35
ATOM     35  O   UNL     1      35.961  47.696 158.657  1.00  0.00    -0.387 OA
ATOM     36  H   UNL     1      35.669  46.871 158.192  1.00  0.00     0.211 HD
ENDBRANCH  30  35
BRANCH  31  37
ATOM     37  C   UNL     1      35.452  44.921 159.760  1.00  0.00     0.191 C 
BRANCH  37  38
ATOM     38  O   UNL     1      34.769  45.801 160.611  1.00  0.00    -0.394 OA
ATOM     39  H   UNL     1      35.448  46.381 161.045  1.00  0.00     0.210 HD
ENDBRANCH  37  38
ENDBRANCH  31  37
BRANCH  32  40
ATOM     40  O   UNL     1      39.054  45.910 159.008  1.00  0.00    -0.387 OA
ATOM     41  H   UNL     1      39.227  45.217 159.699  1.00  0.00     0.211 HD
ENDBRANCH  32  40
ENDBRANCH   1  27
TORSDOF 12
ENDMDL
MODEL 5
REMARK VINA RESULT:    -7.304      1.791      4.891
REMARK INTER + INTRA:         -12.311
REMARK INTER:                 -11.026
REMARK INTRA:                  -1.285
REMARK UNBOUND:                -1.591
REMARK SMILES O=c1c(O[C@H]2O[C@@H](CO)[C@H](O)[C@@H](O)[C@H]2O)c(-c2ccc(O)c(O)c2)oc2cc(O)cc(O)c12
REMARK SMILES IDX 4 1 3 2 16 3 25 4 2 5 26 6 1 7 33 8 27 9 31 10 28 11 30 12
REMARK SMILES IDX 17 13 18 14 19 15 20 16 24 17 22 18 21 19 23 21 32 23 29 25
REMARK SMILES IDX 5 27 14 28 6 29 12 30 7 31 10 32 15 33 13 35 8 37 9 38 11 40
REMARK H PARENT 21 20 23 22 32 24 29 26 15 34 13 36 9 39 11 41
REMARK Flexibility Score: inf
ROOT
ATOM      1  O   UNL     1      36.478  46.691 162.686  1.00  0.00    -0.454 OA
ENDROOT
BRANCH   1   2
ATOM      2  C   UNL     1      36.617  46.427 164.066  1.00  0.00     0.214 A 
ATOM      3  C   UNL     1      35.840  45.390 164.615  1.00  0.00     0.180 A 
ATOM      4  O   UNL     1      35.895  45.128 165.915  1.00  0.00    -0.452 OA
ATOM      5  C   UNL     1      37.470  47.153 164.933  1.00  0.00     0.239 A 
ATOM      6  C   UNL     1      36.655  45.803 166.765  1.00  0.00     0.146 A 
ATOM      7  O   UNL     1      38.262  48.005 164.460  1.00  0.00    -0.285 OA
ATOM      8  C   UNL     1      37.459  46.883 166.324  1.00  0.00     0.111 A 
ATOM      9  C   UNL     1      36.651  45.419 168.108  1.00  0.00     0.094 A 
ATOM     10  C   UNL     1      38.221  47.603 167.292  1.00  0.00     0.134 A 
ATOM     11  C   UNL     1      37.446  46.087 169.035  1.00  0.00     0.123 A 
ATOM     12  C   UNL     1      38.230  47.168 168.625  1.00  0.00     0.093 A 
BRANCH   3  13
ATOM     13  C   UNL     1      34.921  44.577 163.787  1.00  0.00     0.025 A 
ATOM     14  C   UNL     1      35.405  43.612 162.886  1.00  0.00     0.016 A 
ATOM     15  C   UNL     1      34.516  42.842 162.132  1.00  0.00     0.051 A 
ATOM     16  C   UNL     1      33.134  43.017 162.277  1.00  0.00     0.157 A 
ATOM     17  C   UNL     1      33.535  44.735 163.939  1.00  0.00     0.062 A 
ATOM     18  C   UNL     1      32.642  43.964 163.183  1.00  0.00     0.158 A 
BRANCH  16  19
ATOM     19  O   UNL     1      32.245  42.248 161.530  1.00  0.00    -0.504 OA
ATOM     20  H   UNL     1      31.242  42.360 161.617  1.00  0.00     0.293 HD
ENDBRANCH  16  19
BRANCH  18  21
ATOM     21  O   UNL     1      31.267  44.134 163.326  1.00  0.00    -0.504 OA
ATOM     22  H   UNL     1      30.795  44.961 162.982  1.00  0.00     0.293 HD
ENDBRANCH  18  21
ENDBRANCH   3  13
BRANCH  10  23
ATOM     23  O   UNL     1      38.953  48.760 167.007  1.00  0.00    -0.507 OA
ATOM     24  H   UNL     1      39.295  49.409 167.702  1.00  0.00     0.293 HD
ENDBRANCH  10  23
BRANCH  11  25
ATOM     25  O   UNL     1      37.443  45.674 170.367  1.00  0.00    -0.508 OA
ATOM     26  H   UNL     1      38.215  45.149 170.761  1.00  0.00     0.293 HD
ENDBRANCH  11  25
ENDBRANCH   1   2
BRANCH   1  27
ATOM     27  C   UNL     1      35.354  47.234 161.982  1.00  0.00     0.339 C 
ATOM     28  C   UNL     1      35.519  47.086 160.419  1.00  0.00     0.214 C 
ATOM     29  O   UNL     1      35.081  48.517 162.538  1.00  0.00    -0.332 OA
ATOM     30  C   UNL     1      35.291  48.349 159.549  1.00  0.00     0.180 C 
ATOM     31  C   UNL     1      35.292  49.638 161.706  1.00  0.00     0.179 C 
ATOM     32  C   UNL     1      34.636  49.478 160.331  1.00  0.00     0.177 C 
BRANCH  28  33
ATOM     33  O   UNL     1      36.770  46.516 160.114  1.00  0.00    -0.384 OA
ATOM     34  H   UNL     1      36.599  45.718 159.550  1.00  0.00     0.211 HD
ENDBRANCH  28  33
BRANCH  30  35
ATOM     35  O   UNL     1      36.501  48.808 158.997  1.00  0.00    -0.387 OA
ATOM     36  H   UNL     1      36.501  48.584 158.032  1.00  0.00     0.211 HD
ENDBRANCH  30  35
BRANCH  31  37
ATOM     37  C   UNL     1      36.763  50.130 161.711  1.00  0.00     0.191 C 
BRANCH  37  38
ATOM     38  O   UNL     1      37.208  50.472 162.995  1.00  0.00    -0.394 OA
ATOM     39  H   UNL     1      36.988  51.430 163.141  1.00  0.00     0.210 HD
ENDBRANCH  37  38
ENDBRANCH  31  37
BRANCH  32  40
ATOM     40  O   UNL     1      33.268  49.204 160.506  1.00  0.00    -0.387 OA
ATOM     41  H   UNL     1      33.055  48.423 159.929  1.00  0.00     0.211 HD
ENDBRANCH  32  40
ENDBRANCH   1  27
TORSDOF 12
ENDMDL
MODEL 6
REMARK VINA RESULT:    -7.152      3.025      5.099
REMARK INTER + INTRA:         -12.088
REMARK INTER:                 -10.539
REMARK INTRA:                  -1.549
REMARK UNBOUND:                -1.591
REMARK SMILES O=c1c(O[C@H]2O[C@@H](CO)[C@H](O)[C@@H](O)[C@H]2O)c(-c2ccc(O)c(O)c2)oc2cc(O)cc(O)c12
REMARK SMILES IDX 4 1 3 2 16 3 25 4 2 5 26 6 1 7 33 8 27 9 31 10 28 11 30 12
REMARK SMILES IDX 17 13 18 14 19 15 20 16 24 17 22 18 21 19 23 21 32 23 29 25
REMARK SMILES IDX 5 27 14 28 6 29 12 30 7 31 10 32 15 33 13 35 8 37 9 38 11 40
REMARK H PARENT 21 20 23 22 32 24 29 26 15 34 13 36 9 39 11 41
REMARK Flexibility Score: inf
ROOT
ATOM      1  O   UNL     1      36.301  48.075 160.848  1.00  0.00    -0.454 OA
ENDROOT
BRANCH   1   2
ATOM      2  C   UNL     1      36.769  47.646 162.109  1.00  0.00     0.214 A 
ATOM      3  C   UNL     1      37.534  46.466 162.156  1.00  0.00     0.180 A 
ATOM      4  O   UNL     1      37.960  45.990 163.319  1.00  0.00    -0.452 OA
ATOM      5  C   UNL     1      36.498  48.315 163.328  1.00  0.00     0.239 A 
ATOM      6  C   UNL     1      37.703  46.567 164.484  1.00  0.00     0.146 A 
ATOM      7  O   UNL     1      35.919  49.429 163.313  1.00  0.00    -0.285 OA
ATOM      8  C   UNL     1      36.920  47.746 164.555  1.00  0.00     0.111 A 
ATOM      9  C   UNL     1      38.227  45.988 165.642  1.00  0.00     0.094 A 
ATOM     10  C   UNL     1      36.636  48.297 165.841  1.00  0.00     0.134 A 
ATOM     11  C   UNL     1      37.997  46.568 166.886  1.00  0.00     0.123 A 
ATOM     12  C   UNL     1      37.211  47.719 166.981  1.00  0.00     0.093 A 
BRANCH   3  13
ATOM     13  C   UNL     1      37.868  45.700 160.934  1.00  0.00     0.025 A 
ATOM     14  C   UNL     1      39.166  45.710 160.395  1.00  0.00     0.016 A 
ATOM     15  C   UNL     1      39.461  44.961 159.253  1.00  0.00     0.051 A 
ATOM     16  C   UNL     1      38.469  44.182 158.644  1.00  0.00     0.157 A 
ATOM     17  C   UNL     1      36.883  44.904 160.329  1.00  0.00     0.062 A 
ATOM     18  C   UNL     1      37.177  44.153 159.184  1.00  0.00     0.158 A 
BRANCH  16  19
ATOM     19  O   UNL     1      38.761  43.430 157.509  1.00  0.00    -0.504 OA
ATOM     20  H   UNL     1      38.901  42.427 157.557  1.00  0.00     0.293 HD
ENDBRANCH  16  19
BRANCH  18  21
ATOM     21  O   UNL     1      36.193  43.375 158.578  1.00  0.00    -0.504 OA
ATOM     22  H   UNL     1      35.518  43.777 157.938  1.00  0.00     0.293 HD
ENDBRANCH  18  21
ENDBRANCH   3  13
BRANCH  10  23
ATOM     23  O   UNL     1      35.777  49.380 166.054  1.00  0.00    -0.507 OA
ATOM     24  H   UNL     1      36.081  50.323 166.251  1.00  0.00     0.293 HD
ENDBRANCH  10  23
BRANCH  11  25
ATOM     25  O   UNL     1      38.549  45.986 168.028  1.00  0.00    -0.508 OA
ATOM     26  H   UNL     1      38.039  45.300 168.573  1.00  0.00     0.293 HD
ENDBRANCH  11  25
ENDBRANCH   1   2
BRANCH   1  27
ATOM     27  C   UNL     1      36.732  49.191 160.059  1.00  0.00     0.339 C 
ATOM     28  C   UNL     1      35.531  49.852 159.278  1.00  0.00     0.214 C 
ATOM     29  O   UNL     1      37.893  48.782 159.341  1.00  0.00    -0.332 OA
ATOM     30  C   UNL     1      35.711  50.100 157.758  1.00  0.00     0.180 C 
ATOM     31  C   UNL     1      37.783  48.690 157.936  1.00  0.00     0.179 C 
ATOM     32  C   UNL     1      37.158  49.943 157.315  1.00  0.00     0.177 C 
BRANCH  28  33
ATOM     33  O   UNL     1      34.346  49.126 159.505  1.00  0.00    -0.384 OA
ATOM     34  H   UNL     1      34.512  48.193 159.209  1.00  0.00     0.211 HD
ENDBRANCH  28  33
BRANCH  30  35
ATOM     35  O   UNL     1      34.898  49.234 157.004  1.00  0.00    -0.387 OA
ATOM     36  H   UNL     1      33.954  49.505 157.140  1.00  0.00     0.211 HD
ENDBRANCH  30  35
BRANCH  31  37
ATOM     37  C   UNL     1      37.210  47.330 157.461  1.00  0.00     0.191 C 
BRANCH  37  38
ATOM     38  O   UNL     1      36.993  47.295 156.076  1.00  0.00    -0.394 OA
ATOM     39  H   UNL     1      37.881  47.210 155.638  1.00  0.00     0.210 HD
ENDBRANCH  37  38
ENDBRANCH  31  37
BRANCH  32  40
ATOM     40  O   UNL     1      37.901  51.069 157.710  1.00  0.00    -0.387 OA
ATOM     41  H   UNL     1      38.665  50.734 158.251  1.00  0.00     0.211 HD
ENDBRANCH  32  40
ENDBRANCH   1  27
TORSDOF 12
ENDMDL
MODEL 7
REMARK VINA RESULT:    -6.964      2.754      7.571
REMARK INTER + INTRA:         -11.812
REMARK INTER:                 -10.271
REMARK INTRA:                  -1.541
REMARK UNBOUND:                -1.591
REMARK SMILES O=c1c(O[C@H]2O[C@@H](CO)[C@H](O)[C@@H](O)[C@H]2O)c(-c2ccc(O)c(O)c2)oc2cc(O)cc(O)c12
REMARK SMILES IDX 4 1 3 2 16 3 25 4 2 5 26 6 1 7 33 8 27 9 31 10 28 11 30 12
REMARK SMILES IDX 17 13 18 14 19 15 20 16 24 17 22 18 21 19 23 21 32 23 29 25
REMARK SMILES IDX 5 27 14 28 6 29 12 30 7 31 10 32 15 33 13 35 8 37 9 38 11 40
REMARK H PARENT 21 20 23 22 32 24 29 26 15 34 13 36 9 39 11 41
REMARK Flexibility Score: inf
ROOT
ATOM      1  O   UNL     1      36.646  47.076 162.848  1.00  0.00    -0.454 OA
ENDROOT
BRANCH   1   2
ATOM      2  C   UNL     1      36.552  47.434 161.485  1.00  0.00     0.214 A 
ATOM      3  C   UNL     1      35.609  48.416 161.130  1.00  0.00     0.180 A 
ATOM      4  O   UNL     1      35.444  48.757 159.858  1.00  0.00    -0.452 OA
ATOM      5  C   UNL     1      37.328  46.849 160.454  1.00  0.00     0.239 A 
ATOM      6  C   UNL     1      36.126  48.214 158.861  1.00  0.00     0.146 A 
ATOM      7  O   UNL     1      38.257  46.056 160.746  1.00  0.00    -0.285 OA
ATOM      8  C   UNL     1      37.083  47.197 159.103  1.00  0.00     0.111 A 
ATOM      9  C   UNL     1      35.886  48.672 157.564  1.00  0.00     0.094 A 
ATOM     10  C   UNL     1      37.755  46.616 157.985  1.00  0.00     0.134 A 
ATOM     11  C   UNL     1      36.591  48.144 156.486  1.00  0.00     0.123 A 
ATOM     12  C   UNL     1      37.524  47.126 156.700  1.00  0.00     0.093 A 
BRANCH   3  13
ATOM     13  C   UNL     1      34.753  49.081 162.138  1.00  0.00     0.025 A 
ATOM     14  C   UNL     1      35.128  50.303 162.726  1.00  0.00     0.016 A 
ATOM     15  C   UNL     1      34.292  50.922 163.658  1.00  0.00     0.051 A 
ATOM     16  C   UNL     1      33.068  50.338 164.006  1.00  0.00     0.157 A 
ATOM     17  C   UNL     1      33.518  48.510 162.478  1.00  0.00     0.062 A 
ATOM     18  C   UNL     1      32.679  49.130 163.414  1.00  0.00     0.158 A 
BRANCH  16  19
ATOM     19  O   UNL     1      32.230  50.955 164.932  1.00  0.00    -0.504 OA
ATOM     20  H   UNL     1      32.052  51.952 164.906  1.00  0.00     0.293 HD
ENDBRANCH  16  19
BRANCH  18  21
ATOM     21  O   UNL     1      31.459  48.552 163.759  1.00  0.00    -0.504 OA
ATOM     22  H   UNL     1      30.779  49.046 164.325  1.00  0.00     0.293 HD
ENDBRANCH  18  21
ENDBRANCH   3  13
BRANCH  10  23
ATOM     23  O   UNL     1      38.625  45.525 158.078  1.00  0.00    -0.507 OA
ATOM     24  H   UNL     1      38.435  44.682 158.603  1.00  0.00     0.293 HD
ENDBRANCH  10  23
BRANCH  11  25
ATOM     25  O   UNL     1      36.350  48.631 155.202  1.00  0.00    -0.508 OA
ATOM     26  H   UNL     1      36.656  49.555 154.919  1.00  0.00     0.293 HD
ENDBRANCH  11  25
ENDBRANCH   1   2
BRANCH   1  27
ATOM     27  C   UNL     1      37.769  47.182 163.730  1.00  0.00     0.339 C 
ATOM     28  C   UNL     1      37.846  45.958 164.725  1.00  0.00     0.214 C 
ATOM     29  O   UNL     1      37.781  48.508 164.251  1.00  0.00    -0.332 OA
ATOM     30  C   UNL     1      38.013  46.269 166.235  1.00  0.00     0.180 C 
ATOM     31  C   UNL     1      37.532  48.660 165.633  1.00  0.00     0.179 C 
ATOM     32  C   UNL     1      38.389  47.721 166.488  1.00  0.00     0.177 C 
BRANCH  28  33
ATOM     33  O   UNL     1      36.741  45.107 164.533  1.00  0.00    -0.384 OA
ATOM     34  H   UNL     1      37.092  44.247 164.182  1.00  0.00     0.211 HD
ENDBRANCH  28  33
BRANCH  30  35
ATOM     35  O   UNL     1      36.839  45.963 166.948  1.00  0.00    -0.387 OA
ATOM     36  H   UNL     1      37.021  45.167 167.510  1.00  0.00     0.211 HD
ENDBRANCH  30  35
BRANCH  31  37
ATOM     37  C   UNL     1      36.021  48.713 165.976  1.00  0.00     0.191 C 
BRANCH  37  38
ATOM     38  O   UNL     1      35.282  47.741 165.288  1.00  0.00    -0.394 OA
ATOM     39  H   UNL     1      35.266  48.003 164.330  1.00  0.00     0.210 HD
ENDBRANCH  37  38
ENDBRANCH  31  37
BRANCH  32  40
ATOM     40  O   UNL     1      39.744  47.923 166.172  1.00  0.00    -0.387 OA
ATOM     41  H   UNL     1      39.878  48.905 166.096  1.00  0.00     0.211 HD
ENDBRANCH  32  40
ENDBRANCH   1  27
TORSDOF 12
ENDMDL
MODEL 8
REMARK VINA RESULT:    -6.796      1.794      6.384
REMARK INTER + INTRA:         -11.565
REMARK INTER:                 -10.067
REMARK INTRA:                  -1.498
REMARK UNBOUND:                -1.591
REMARK SMILES O=c1c(O[C@H]2O[C@@H](CO)[C@H](O)[C@@H](O)[C@H]2O)c(-c2ccc(O)c(O)c2)oc2cc(O)cc(O)c12
REMARK SMILES IDX 4 1 3 2 16 3 25 4 2 5 26 6 1 7 33 8 27 9 31 10 28 11 30 12
REMARK SMILES IDX 17 13 18 14 19 15 20 16 24 17 22 18 21 19 23 21 32 23 29 25
REMARK SMILES IDX 5 27 14 28 6 29 12 30 7 31 10 32 15 33 13 35 8 37 9 38 11 40
REMARK H PARENT 21 20 23 22 32 24 29 26 15 34 13 36 9 39 11 41
REMARK Flexibility Score: inf
ROOT
ATOM      1  O   UNL     1      35.919  45.559 163.735  1.00  0.00    -0.454 OA
ENDROOT
BRANCH   1   2
ATOM      2  C   UNL     1      34.606  45.206 163.354  1.00  0.00     0.214 A 
ATOM      3  C   UNL     1      34.312  45.168 161.978  1.00  0.00     0.180 A 
ATOM      4  O   UNL     1      33.083  44.888 161.564  1.00  0.00    -0.452 OA
ATOM      5  C   UNL     1      33.565  44.912 164.268  1.00  0.00     0.239 A 
ATOM      6  C   UNL     1      32.073  44.638 162.386  1.00  0.00     0.146 A 
ATOM      7  O   UNL     1      33.818  44.822 165.495  1.00  0.00    -0.285 OA
ATOM      8  C   UNL     1      32.253  44.674 163.791  1.00  0.00     0.111 A 
ATOM      9  C   UNL     1      30.828  44.330 161.833  1.00  0.00     0.094 A 
ATOM     10  C   UNL     1      31.119  44.443 164.627  1.00  0.00     0.134 A 
ATOM     11  C   UNL     1      29.743  44.043 162.656  1.00  0.00     0.123 A 
ATOM     12  C   UNL     1      29.892  44.093 164.044  1.00  0.00     0.093 A 
BRANCH   3  13
ATOM     13  C   UNL     1      35.335  45.461 160.950  1.00  0.00     0.025 A 
ATOM     14  C   UNL     1      35.733  46.780 160.668  1.00  0.00     0.016 A 
ATOM     15  C   UNL     1      36.718  47.029 159.708  1.00  0.00     0.051 A 
ATOM     16  C   UNL     1      37.325  45.965 159.028  1.00  0.00     0.157 A 
ATOM     17  C   UNL     1      35.960  44.400 160.277  1.00  0.00     0.062 A 
ATOM     18  C   UNL     1      36.947  44.648 159.314  1.00  0.00     0.158 A 
BRANCH  16  19
ATOM     19  O   UNL     1      38.310  46.210 158.074  1.00  0.00    -0.504 OA
ATOM     20  H   UNL     1      38.135  46.083 157.084  1.00  0.00     0.293 HD
ENDBRANCH  16  19
BRANCH  18  21
ATOM     21  O   UNL     1      37.554  43.592 158.638  1.00  0.00    -0.504 OA
ATOM     22  H   UNL     1      37.290  42.630 158.808  1.00  0.00     0.293 HD
ENDBRANCH  18  21
ENDBRANCH   3  13
BRANCH  10  23
ATOM     23  O   UNL     1      31.135  44.573 166.019  1.00  0.00    -0.507 OA
ATOM     24  H   UNL     1      30.906  45.421 166.519  1.00  0.00     0.293 HD
ENDBRANCH  10  23
BRANCH  11  25
ATOM     25  O   UNL     1      28.514  43.716 162.083  1.00  0.00    -0.508 OA
ATOM     26  H   UNL     1      28.029  42.858 162.320  1.00  0.00     0.293 HD
ENDBRANCH  11  25
ENDBRANCH   1   2
BRANCH   1  27
ATOM     27  C   UNL     1      36.381  46.756 164.372  1.00  0.00     0.339 C 
ATOM     28  C   UNL     1      37.856  47.116 163.938  1.00  0.00     0.214 C 
ATOM     29  O   UNL     1      36.065  46.652 165.757  1.00  0.00    -0.332 OA
ATOM     30  C   UNL     1      38.881  47.421 165.061  1.00  0.00     0.180 C 
ATOM     31  C   UNL     1      37.146  46.554 166.660  1.00  0.00     0.179 C 
ATOM     32  C   UNL     1      38.213  47.626 166.412  1.00  0.00     0.177 C 
BRANCH  28  33
ATOM     33  O   UNL     1      38.367  46.121 163.084  1.00  0.00    -0.384 OA
ATOM     34  H   UNL     1      39.037  45.604 163.603  1.00  0.00     0.211 HD
ENDBRANCH  28  33
BRANCH  30  35
ATOM     35  O   UNL     1      39.836  46.393 165.167  1.00  0.00    -0.387 OA
ATOM     36  H   UNL     1      39.366  45.527 165.066  1.00  0.00     0.211 HD
ENDBRANCH  30  35
BRANCH  31  37
ATOM     37  C   UNL     1      37.661  45.103 166.835  1.00  0.00     0.191 C 
BRANCH  37  38
ATOM     38  O   UNL     1      36.776  44.153 166.306  1.00  0.00    -0.394 OA
ATOM     39  H   UNL     1      37.227  43.727 165.530  1.00  0.00     0.210 HD
ENDBRANCH  37  38
ENDBRANCH  31  37
BRANCH  32  40
ATOM     40  O   UNL     1      37.606  48.894 166.455  1.00  0.00    -0.387 OA
ATOM     41  H   UNL     1      36.730  48.808 165.995  1.00  0.00     0.211 HD
ENDBRANCH  32  40
ENDBRANCH   1  27
TORSDOF 12
ENDMDL
MODEL 9
REMARK VINA RESULT:    -6.724      6.124      9.992
REMARK INTER + INTRA:         -11.459
REMARK INTER:                  -9.943
REMARK INTRA:                  -1.516
REMARK UNBOUND:                -1.591
REMARK SMILES O=c1c(O[C@H]2O[C@@H](CO)[C@H](O)[C@@H](O)[C@H]2O)c(-c2ccc(O)c(O)c2)oc2cc(O)cc(O)c12
REMARK SMILES IDX 4 1 3 2 16 3 25 4 2 5 26 6 1 7 33 8 27 9 31 10 28 11 30 12
REMARK SMILES IDX 17 13 18 14 19 15 20 16 24 17 22 18 21 19 23 21 32 23 29 25
REMARK SMILES IDX 5 27 14 28 6 29 12 30 7 31 10 32 15 33 13 35 8 37 9 38 11 40
REMARK H PARENT 21 20 23 22 32 24 29 26 15 34 13 36 9 39 11 41
REMARK Flexibility Score: inf
ROOT
ATOM      1  O   UNL     1      27.014  41.892 161.879  1.00  0.00    -0.454 OA
ENDROOT
BRANCH   1   2
ATOM      2  C   UNL     1      28.249  42.549 161.681  1.00  0.00     0.214 A 
ATOM      3  C   UNL     1      28.741  42.635 160.366  1.00  0.00     0.180 A 
ATOM      4  O   UNL     1      29.918  43.199 160.127  1.00  0.00    -0.452 OA
ATOM      5  C   UNL     1      29.029  43.104 162.725  1.00  0.00     0.239 A 
ATOM      6  C   UNL     1      30.693  43.703 161.076  1.00  0.00     0.146 A 
ATOM      7  O   UNL     1      28.569  43.149 163.892  1.00  0.00    -0.285 OA
ATOM      8  C   UNL     1      30.306  43.647 162.438  1.00  0.00     0.111 A 
ATOM      9  C   UNL     1      31.901  44.297 160.702  1.00  0.00     0.094 A 
ATOM     10  C   UNL     1      31.203  44.163 163.422  1.00  0.00     0.134 A 
ATOM     11  C   UNL     1      32.740  44.854 161.662  1.00  0.00     0.123 A 
ATOM     12  C   UNL     1      32.387  44.792 163.013  1.00  0.00     0.093 A 
BRANCH   3  13
ATOM     13  C   UNL     1      27.995  42.083 159.213  1.00  0.00     0.025 A 
ATOM     14  C   UNL     1      28.277  40.803 158.703  1.00  0.00     0.016 A 
ATOM     15  C   UNL     1      27.544  40.296 157.627  1.00  0.00     0.051 A 
ATOM     16  C   UNL     1      26.513  41.053 157.056  1.00  0.00     0.157 A 
ATOM     17  C   UNL     1      26.950  42.829 158.647  1.00  0.00     0.062 A 
ATOM     18  C   UNL     1      26.214  42.322 157.568  1.00  0.00     0.158 A 
BRANCH  16  19
ATOM     19  O   UNL     1      25.777  40.548 155.987  1.00  0.00    -0.504 OA
ATOM     20  H   UNL     1      24.851  40.896 155.767  1.00  0.00     0.293 HD
ENDBRANCH  16  19
BRANCH  18  21
ATOM     21  O   UNL     1      25.187  43.071 156.999  1.00  0.00    -0.504 OA
ATOM     22  H   UNL     1      24.799  43.881 157.468  1.00  0.00     0.293 HD
ENDBRANCH  18  21
ENDBRANCH   3  13
BRANCH  10  23
ATOM     23  O   UNL     1      30.996  44.056 164.800  1.00  0.00    -0.507 OA
ATOM     24  H   UNL     1      30.937  44.841 165.435  1.00  0.00     0.293 HD
ENDBRANCH  10  23
BRANCH  11  25
ATOM     25  O   UNL     1      33.931  45.462 161.264  1.00  0.00    -0.508 OA
ATOM     26  H   UNL     1      34.528  45.048 160.557  1.00  0.00     0.293 HD
ENDBRANCH  11  25
ENDBRANCH   1   2
BRANCH   1  27
ATOM     27  C   UNL     1      25.850  42.353 162.575  1.00  0.00     0.339 C 
ATOM     28  C   UNL     1      25.285  41.254 163.557  1.00  0.00     0.214 C 
ATOM     29  O   UNL     1      24.981  42.942 161.611  1.00  0.00    -0.332 OA
ATOM     30  C   UNL     1      23.771  40.926 163.475  1.00  0.00     0.180 C 
ATOM     31  C   UNL     1      23.754  42.289 161.364  1.00  0.00     0.179 C 
ATOM     32  C   UNL     1      23.002  41.950 162.656  1.00  0.00     0.177 C 
BRANCH  28  33
ATOM     33  O   UNL     1      26.037  40.069 163.444  1.00  0.00    -0.384 OA
ATOM     34  H   UNL     1      25.733  39.459 164.166  1.00  0.00     0.211 HD
ENDBRANCH  28  33
BRANCH  30  35
ATOM     35  O   UNL     1      23.561  39.645 162.933  1.00  0.00    -0.387 OA
ATOM     36  H   UNL     1      23.170  39.073 163.642  1.00  0.00     0.211 HD
ENDBRANCH  30  35
BRANCH  31  37
ATOM     37  C   UNL     1      23.872  41.148 160.321  1.00  0.00     0.191 C 
BRANCH  37  38
ATOM     38  O   UNL     1      25.082  40.447 160.428  1.00  0.00    -0.394 OA
ATOM     39  H   UNL     1      24.871  39.479 160.364  1.00  0.00     0.210 HD
ENDBRANCH  37  38
ENDBRANCH  31  37
BRANCH  32  40
ATOM     40  O   UNL     1      22.830  43.127 163.406  1.00  0.00    -0.387 OA
ATOM     41  H   UNL     1      22.080  43.628 162.988  1.00  0.00     0.211 HD
ENDBRANCH  32  40
ENDBRANCH   1  27
TORSDOF 12
ENDMDL
