MODEL 1
REMARK VINA RESULT:     2.172      0.000      0.000
REMARK INTER + INTRA:           4.988
REMARK INTER:                   3.442
REMARK INTRA:                   1.547
REMARK UNBOUND:                 1.547
REMARK SMILES CCCCCCCCCCCC(=O)[O-]
REMARK SMILES IDX 7 1 8 2 9 3 10 4 11 5 12 6 13 7 14 8 6 9 5 10 4 11 3 12 2 13
REMARK SMILES IDX 1 14
REMARK H PARENT
REMARK Flexibility Score: inf
ROOT
ATOM      1  C   UNL     1     100.953  96.172  10.417  1.00  0.00     0.000 C 
ENDROOT
BRANCH   1   2
ATOM      2  C   UNL     1     101.270  94.686  10.171  1.00  0.00     0.000 C 
BRANCH   2   3
ATOM      3  C   UNL     1     100.404  93.689  10.968  1.00  0.00     0.000 C 
BRANCH   3   4
ATOM      4  C   UNL     1      98.906  94.041  11.051  1.00  0.00     0.006 C 
BRANCH   4   5
ATOM      5  C   UNL     1      98.617  95.532  11.285  1.00  0.00     0.053 C 
BRANCH   5   6
ATOM      6  C   UNL     1      98.233  95.813  12.705  1.00  0.00     0.041 C 
ATOM      7  O   UNL     1      97.853  96.966  13.041  1.00  0.00    -0.550 OA
ATOM      8  O   UNL     1      98.261  94.795  13.648  1.00  0.00    -0.550 OA
ENDBRANCH   5   6
ENDBRANCH   4   5
ENDBRANCH   3   4
ENDBRANCH   2   3
ENDBRANCH   1   2
BRANCH   1   9
ATOM      9  C   UNL     1     102.204  97.066  10.361  1.00  0.00     0.000 C 
BRANCH   9  10
ATOM     10  C   UNL     1     101.862  98.545  10.120  1.00  0.00    -0.000 C 
BRANCH  10  11
ATOM     11  C   UNL     1     100.551  98.971  10.799  1.00  0.00    -0.000 C 
BRANCH  11  12
ATOM     12  C   UNL     1     100.276 100.464  10.569  1.00  0.00    -0.000 C 
BRANCH  12  13
ATOM     13  C   UNL     1     101.265 101.103   9.582  1.00  0.00    -0.003 C 
ATOM     14  C   UNL     1     102.699 101.125  10.112  1.00  0.00     0.004 C 
ENDBRANCH  12  13
ENDBRANCH  11  12
ENDBRANCH  10  11
ENDBRANCH   9  10
ENDBRANCH   1   9
TORSDOF 10
ENDMDL
MODEL 2
REMARK VINA RESULT:     2.551     16.441     19.960
REMARK INTER + INTRA:           5.590
REMARK INTER:                   5.977
REMARK INTRA:                  -0.388
REMARK UNBOUND:                 1.547
REMARK SMILES CCCCCCCCCCCC(=O)[O-]
REMARK SMILES IDX 7 1 8 2 9 3 10 4 11 5 12 6 13 7 14 8 6 9 5 10 4 11 3 12 2 13
REMARK SMILES IDX 1 14
REMARK H PARENT
REMARK Flexibility Score: inf
ROOT
ATOM      1  C   UNL     1      89.800  82.353  19.498  1.00  0.00     0.000 C 
ENDROOT
BRANCH   1   2
ATOM      2  C   UNL     1      89.215  83.771  19.365  1.00  0.00     0.000 C 
BRANCH   2   3
ATOM      3  C   UNL     1      90.254  84.910  19.324  1.00  0.00     0.000 C 
BRANCH   3   4
ATOM      4  C   UNL     1      90.588  85.442  17.916  1.00  0.00     0.006 C 
BRANCH   4   5
ATOM      5  C   UNL     1      91.644  86.559  17.895  1.00  0.00     0.053 C 
BRANCH   5   6
ATOM      6  C   UNL     1      91.678  87.275  16.580  1.00  0.00     0.041 C 
ATOM      7  O   UNL     1      92.779  87.602  16.065  1.00  0.00    -0.550 OA
ATOM      8  O   UNL     1      90.495  87.550  15.907  1.00  0.00    -0.550 OA
ENDBRANCH   5   6
ENDBRANCH   4   5
ENDBRANCH   3   4
ENDBRANCH   2   3
ENDBRANCH   1   2
BRANCH   1   9
ATOM      9  C   UNL     1      89.069  81.321  18.621  1.00  0.00     0.000 C 
BRANCH   9  10
ATOM     10  C   UNL     1      87.727  80.878  19.225  1.00  0.00    -0.000 C 
BRANCH  10  11
ATOM     11  C   UNL     1      86.517  81.451  18.469  1.00  0.00    -0.000 C 
BRANCH  11  12
ATOM     12  C   UNL     1      85.446  81.950  19.450  1.00  0.00    -0.000 C 
BRANCH  12  13
ATOM     13  C   UNL     1      84.018  81.741  18.923  1.00  0.00    -0.003 C 
ATOM     14  C   UNL     1      83.095  82.920  19.231  1.00  0.00     0.004 C 
ENDBRANCH  12  13
ENDBRANCH  11  12
ENDBRANCH  10  11
ENDBRANCH   9  10
ENDBRANCH   1   9
TORSDOF 10
ENDMDL
MODEL 3
REMARK VINA RESULT:     2.606     17.063     19.702
REMARK INTER + INTRA:           5.676
REMARK INTER:                   5.999
REMARK INTRA:                  -0.323
REMARK UNBOUND:                 1.547
REMARK SMILES CCCCCCCCCCCC(=O)[O-]
REMARK SMILES IDX 7 1 8 2 9 3 10 4 11 5 12 6 13 7 14 8 6 9 5 10 4 11 3 12 2 13
REMARK SMILES IDX 1 14
REMARK H PARENT
REMARK Flexibility Score: inf
ROOT
ATOM      1  C   UNL     1      89.233  83.154  19.392  1.00  0.00     0.000 C 
ENDROOT
BRANCH   1   2
ATOM      2  C   UNL     1      87.787  82.648  19.544  1.00  0.00     0.000 C 
BRANCH   2   3
ATOM      3  C   UNL     1      87.457  81.357  18.768  1.00  0.00     0.000 C 
BRANCH   3   4
ATOM      4  C   UNL     1      85.983  80.910  18.834  1.00  0.00     0.006 C 
BRANCH   4   5
ATOM      5  C   UNL     1      85.073  81.844  19.646  1.00  0.00     0.053 C 
BRANCH   5   6
ATOM      6  C   UNL     1      83.693  81.925  19.069  1.00  0.00     0.041 C 
ATOM      7  O   UNL     1      83.092  80.876  18.719  1.00  0.00    -0.550 OA
ATOM      8  O   UNL     1      83.059  83.154  18.952  1.00  0.00    -0.550 OA
ENDBRANCH   5   6
ENDBRANCH   4   5
ENDBRANCH   3   4
ENDBRANCH   2   3
ENDBRANCH   1   2
BRANCH   1   9
ATOM      9  C   UNL     1      89.316  84.681  19.222  1.00  0.00     0.000 C 
BRANCH   9  10
ATOM     10  C   UNL     1      90.765  85.189  19.151  1.00  0.00    -0.000 C 
BRANCH  10  11
ATOM     11  C   UNL     1      91.152  85.690  17.751  1.00  0.00    -0.000 C 
BRANCH  11  12
ATOM     12  C   UNL     1      92.250  86.760  17.837  1.00  0.00    -0.000 C 
BRANCH  12  13
ATOM     13  C   UNL     1      92.250  87.706  16.627  1.00  0.00    -0.003 C 
ATOM     14  C   UNL     1      90.994  87.567  15.766  1.00  0.00     0.004 C 
ENDBRANCH  12  13
ENDBRANCH  11  12
ENDBRANCH  10  11
ENDBRANCH   9  10
ENDBRANCH   1   9
TORSDOF 10
ENDMDL
MODEL 4
REMARK VINA RESULT:     3.258      0.807      1.727
REMARK INTER + INTRA:           6.709
REMARK INTER:                   6.399
REMARK INTRA:                   0.310
REMARK UNBOUND:                 1.547
REMARK SMILES CCCCCCCCCCCC(=O)[O-]
REMARK SMILES IDX 7 1 8 2 9 3 10 4 11 5 12 6 13 7 14 8 6 9 5 10 4 11 3 12 2 13
REMARK SMILES IDX 1 14
REMARK H PARENT
REMARK Flexibility Score: inf
ROOT
ATOM      1  C   UNL     1     102.127  96.809  10.263  1.00  0.00     0.000 C 
ENDROOT
BRANCH   1   2
ATOM      2  C   UNL     1     100.790  96.055  10.375  1.00  0.00     0.000 C 
BRANCH   2   3
ATOM      3  C   UNL     1     100.907  94.518  10.445  1.00  0.00     0.000 C 
BRANCH   3   4
ATOM      4  C   UNL     1      99.708  93.799  11.096  1.00  0.00     0.006 C 
BRANCH   4   5
ATOM      5  C   UNL     1      98.466  94.683  11.287  1.00  0.00     0.053 C 
BRANCH   5   6
ATOM      6  C   UNL     1      98.313  95.136  12.707  1.00  0.00     0.041 C 
ATOM      7  O   UNL     1      97.960  96.319  12.959  1.00  0.00    -0.550 OA
ATOM      8  O   UNL     1      98.525  94.244  13.749  1.00  0.00    -0.550 OA
ENDBRANCH   5   6
ENDBRANCH   4   5
ENDBRANCH   3   4
ENDBRANCH   2   3
ENDBRANCH   1   2
BRANCH   1   9
ATOM      9  C   UNL     1     102.019  98.282  10.696  1.00  0.00     0.000 C 
BRANCH   9  10
ATOM     10  C   UNL     1     102.267  99.258   9.535  1.00  0.00    -0.000 C 
BRANCH  10  11
ATOM     11  C   UNL     1     102.043 100.725   9.934  1.00  0.00    -0.000 C 
BRANCH  11  12
ATOM     12  C   UNL     1     100.554 101.000  10.194  1.00  0.00    -0.000 C 
BRANCH  12  13
ATOM     13  C   UNL     1      99.965 100.085  11.278  1.00  0.00    -0.003 C 
ATOM     14  C   UNL     1      98.837  99.196  10.754  1.00  0.00     0.004 C 
ENDBRANCH  12  13
ENDBRANCH  11  12
ENDBRANCH  10  11
ENDBRANCH   9  10
ENDBRANCH   1   9
TORSDOF 10
ENDMDL
MODEL 5
REMARK VINA RESULT:     3.402      2.866      5.080
REMARK INTER + INTRA:           6.938
REMARK INTER:                   7.490
REMARK INTRA:                  -0.551
REMARK UNBOUND:                 1.547
REMARK SMILES CCCCCCCCCCCC(=O)[O-]
REMARK SMILES IDX 7 1 8 2 9 3 10 4 11 5 12 6 13 7 14 8 6 9 5 10 4 11 3 12 2 13
REMARK SMILES IDX 1 14
REMARK H PARENT
REMARK Flexibility Score: inf
ROOT
ATOM      1  C   UNL     1     100.440  94.438  10.880  1.00  0.00     0.000 C 
ENDROOT
BRANCH   1   2
ATOM      2  C   UNL     1     101.240  95.467  10.063  1.00  0.00     0.000 C 
BRANCH   2   3
ATOM      3  C   UNL     1     101.807  96.652  10.872  1.00  0.00     0.000 C 
BRANCH   3   4
ATOM      4  C   UNL     1     101.908  97.983  10.103  1.00  0.00     0.006 C 
BRANCH   4   5
ATOM      5  C   UNL     1     101.257  99.178  10.816  1.00  0.00     0.053 C 
BRANCH   5   6
ATOM      6  C   UNL     1     101.540 100.472  10.116  1.00  0.00     0.041 C 
ATOM      7  O   UNL     1     100.602 101.125   9.587  1.00  0.00    -0.550 OA
ATOM      8  O   UNL     1     102.834 100.974  10.079  1.00  0.00    -0.550 OA
ENDBRANCH   5   6
ENDBRANCH   4   5
ENDBRANCH   3   4
ENDBRANCH   2   3
ENDBRANCH   1   2
BRANCH   1   9
ATOM      9  C   UNL     1      98.993  94.885  11.151  1.00  0.00     0.000 C 
BRANCH   9  10
ATOM     10  C   UNL     1      98.655  96.227  10.481  1.00  0.00    -0.000 C 
BRANCH  10  11
ATOM     11  C   UNL     1      98.358  97.340  11.498  1.00  0.00    -0.000 C 
BRANCH  11  12
ATOM     12  C   UNL     1      97.800  96.754  12.803  1.00  0.00    -0.000 C 
BRANCH  12  13
ATOM     13  C   UNL     1      97.186  97.826  13.718  1.00  0.00    -0.003 C 
ATOM     14  C   UNL     1      97.091  99.195  13.044  1.00  0.00     0.004 C 
ENDBRANCH  12  13
ENDBRANCH  11  12
ENDBRANCH  10  11
ENDBRANCH   9  10
ENDBRANCH   1   9
TORSDOF 10
ENDMDL
MODEL 6
REMARK VINA RESULT:     4.104      1.453      2.274
REMARK INTER + INTRA:           8.050
REMARK INTER:                   8.934
REMARK INTRA:                  -0.884
REMARK UNBOUND:                 1.547
REMARK SMILES CCCCCCCCCCCC(=O)[O-]
REMARK SMILES IDX 7 1 8 2 9 3 10 4 11 5 12 6 13 7 14 8 6 9 5 10 4 11 3 12 2 13
REMARK SMILES IDX 1 14
REMARK H PARENT
REMARK Flexibility Score: inf
ROOT
ATOM      1  C   UNL     1     100.822  94.948  10.735  1.00  0.00     0.000 C 
ENDROOT
BRANCH   1   2
ATOM      2  C   UNL     1      99.339  95.358  10.715  1.00  0.00     0.000 C 
BRANCH   2   3
ATOM      3  C   UNL     1      98.540  94.999  11.985  1.00  0.00     0.000 C 
BRANCH   3   4
ATOM      4  C   UNL     1      98.191  96.190  12.900  1.00  0.00     0.006 C 
BRANCH   4   5
ATOM      5  C   UNL     1      98.019  97.527  12.162  1.00  0.00     0.053 C 
BRANCH   5   6
ATOM      6  C   UNL     1      97.391  98.571  13.032  1.00  0.00     0.041 C 
ATOM      7  O   UNL     1      96.773  98.237  14.077  1.00  0.00    -0.550 OA
ATOM      8  O   UNL     1      97.518  99.916  12.708  1.00  0.00    -0.550 OA
ENDBRANCH   5   6
ENDBRANCH   4   5
ENDBRANCH   3   4
ENDBRANCH   2   3
ENDBRANCH   1   2
BRANCH   1   9
ATOM      9  C   UNL     1     101.750  96.037  10.171  1.00  0.00     0.000 C 
BRANCH   9  10
ATOM     10  C   UNL     1     101.631  97.367  10.933  1.00  0.00    -0.000 C 
BRANCH  10  11
ATOM     11  C   UNL     1     101.577  98.585   9.998  1.00  0.00    -0.000 C 
BRANCH  11  12
ATOM     12  C   UNL     1     100.722  99.706  10.608  1.00  0.00    -0.000 C 
BRANCH  12  13
ATOM     13  C   UNL     1     101.227 101.107  10.231  1.00  0.00    -0.003 C 
ATOM     14  C   UNL     1     102.713 101.125   9.873  1.00  0.00     0.004 C 
ENDBRANCH  12  13
ENDBRANCH  11  12
ENDBRANCH  10  11
ENDBRANCH   9  10
ENDBRANCH   1   9
TORSDOF 10
ENDMDL
MODEL 7
REMARK VINA RESULT:     4.620      2.918      6.150
REMARK INTER + INTRA:           8.868
REMARK INTER:                   9.481
REMARK INTRA:                  -0.613
REMARK UNBOUND:                 1.547
REMARK SMILES CCCCCCCCCCCC(=O)[O-]
REMARK SMILES IDX 7 1 8 2 9 3 10 4 11 5 12 6 13 7 14 8 6 9 5 10 4 11 3 12 2 13
REMARK SMILES IDX 1 14
REMARK H PARENT
REMARK Flexibility Score: inf
ROOT
ATOM      1  C   UNL     1     100.631  95.327  10.077  1.00  0.00     0.000 C 
ENDROOT
BRANCH   1   2
ATOM      2  C   UNL     1     102.084  95.707  10.413  1.00  0.00     0.000 C 
BRANCH   2   3
ATOM      3  C   UNL     1     102.391  97.218  10.386  1.00  0.00     0.000 C 
BRANCH   3   4
ATOM      4  C   UNL     1     101.165  98.134  10.200  1.00  0.00     0.006 C 
BRANCH   4   5
ATOM      5  C   UNL     1     101.253  99.471  10.951  1.00  0.00     0.053 C 
BRANCH   5   6
ATOM      6  C   UNL     1     101.577 100.610  10.034  1.00  0.00     0.041 C 
ATOM      7  O   UNL     1     100.675 101.125   9.321  1.00  0.00    -0.550 OA
ATOM      8  O   UNL     1     102.866 101.125   9.991  1.00  0.00    -0.550 OA
ENDBRANCH   5   6
ENDBRANCH   4   5
ENDBRANCH   3   4
ENDBRANCH   2   3
ENDBRANCH   1   2
BRANCH   1   9
ATOM      9  C   UNL     1     100.184  94.019  10.752  1.00  0.00     0.000 C 
BRANCH   9  10
ATOM     10  C   UNL     1      98.746  94.093  11.291  1.00  0.00    -0.000 C 
BRANCH  10  11
ATOM     11  C   UNL     1      98.504  95.328  12.172  1.00  0.00    -0.000 C 
BRANCH  11  12
ATOM     12  C   UNL     1      98.226  94.917  13.625  1.00  0.00    -0.000 C 
BRANCH  12  13
ATOM     13  C   UNL     1      98.643  93.468  13.920  1.00  0.00    -0.003 C 
ATOM     14  C   UNL     1      97.683  92.757  14.873  1.00  0.00     0.004 C 
ENDBRANCH  12  13
ENDBRANCH  11  12
ENDBRANCH  10  11
ENDBRANCH   9  10
ENDBRANCH   1   9
TORSDOF 10
ENDMDL
MODEL 8
REMARK VINA RESULT:     4.984      1.836      3.365
REMARK INTER + INTRA:           9.444
REMARK INTER:                   9.590
REMARK INTRA:                  -0.146
REMARK UNBOUND:                 1.547
REMARK SMILES CCCCCCCCCCCC(=O)[O-]
REMARK SMILES IDX 7 1 8 2 9 3 10 4 11 5 12 6 13 7 14 8 6 9 5 10 4 11 3 12 2 13
REMARK SMILES IDX 1 14
REMARK H PARENT
REMARK Flexibility Score: inf
ROOT
ATOM      1  C   UNL     1     102.133  98.656  10.389  1.00  0.00     0.000 C 
ENDROOT
BRANCH   1   2
ATOM      2  C   UNL     1     101.304  97.416  10.009  1.00  0.00     0.000 C 
BRANCH   2   3
ATOM      3  C   UNL     1     101.667  96.124  10.770  1.00  0.00     0.000 C 
BRANCH   3   4
ATOM      4  C   UNL     1     101.078  94.828  10.180  1.00  0.00     0.006 C 
BRANCH   4   5
ATOM      5  C   UNL     1     100.056  94.125  11.088  1.00  0.00     0.053 C 
BRANCH   5   6
ATOM      6  C   UNL     1      98.884  95.004  11.398  1.00  0.00     0.041 C 
ATOM      7  O   UNL     1      98.457  95.097  12.580  1.00  0.00    -0.550 OA
ATOM      8  O   UNL     1      98.285  95.748  10.390  1.00  0.00    -0.550 OA
ENDBRANCH   5   6
ENDBRANCH   4   5
ENDBRANCH   3   4
ENDBRANCH   2   3
ENDBRANCH   1   2
BRANCH   1   9
ATOM      9  C   UNL     1     101.390  99.976  10.120  1.00  0.00     0.000 C 
BRANCH   9  10
ATOM     10  C   UNL     1     100.168 100.163  11.033  1.00  0.00    -0.000 C 
BRANCH  10  11
ATOM     11  C   UNL     1      98.938  99.379  10.549  1.00  0.00    -0.000 C 
BRANCH  11  12
ATOM     12  C   UNL     1      98.320  98.569  11.697  1.00  0.00    -0.000 C 
BRANCH  12  13
ATOM     13  C   UNL     1      97.522  99.444  12.676  1.00  0.00    -0.003 C 
ATOM     14  C   UNL     1      96.843  98.631  13.779  1.00  0.00     0.004 C 
ENDBRANCH  12  13
ENDBRANCH  11  12
ENDBRANCH  10  11
ENDBRANCH   9  10
ENDBRANCH   1   9
TORSDOF 10
ENDMDL
