MODEL 1
REMARK VINA RESULT:    -3.691      0.000      0.000
REMARK INTER + INTRA:          -4.599
REMARK INTER:                  -4.554
REMARK INTRA:                  -0.044
REMARK UNBOUND:                -0.044
REMARK SMILES CCCCCC(=O)[O-]
REMARK SMILES IDX 4 1 5 2 6 3 7 4 8 5 3 6 2 7 1 8
REMARK H PARENT
REMARK Flexibility Score: inf
ROOT
ATOM      1  C   UNL     1     256.174 261.273 245.897  1.00  0.00     0.006 C 
ENDROOT
BRANCH   1   2
ATOM      2  C   UNL     1     256.892 260.949 244.580  1.00  0.00     0.053 C 
BRANCH   2   3
ATOM      3  C   UNL     1     258.306 261.435 244.623  1.00  0.00     0.041 C 
ATOM      4  O   UNL     1     258.638 262.476 243.997  1.00  0.00    -0.550 OA
ATOM      5  O   UNL     1     259.270 260.712 245.314  1.00  0.00    -0.550 OA
ENDBRANCH   2   3
ENDBRANCH   1   2
BRANCH   1   6
ATOM      6  C   UNL     1     254.795 260.604 245.999  1.00  0.00     0.000 C 
BRANCH   6   7
ATOM      7  C   UNL     1     254.132 260.820 247.367  1.00  0.00    -0.003 C 
ATOM      8  C   UNL     1     252.671 261.231 247.211  1.00  0.00     0.004 C 
ENDBRANCH   6   7
ENDBRANCH   1   6
TORSDOF 4
ENDMDL
MODEL 2
REMARK VINA RESULT:    -3.586      5.056      6.474
REMARK INTER + INTRA:          -4.469
REMARK INTER:                  -4.358
REMARK INTRA:                  -0.111
REMARK UNBOUND:                -0.044
REMARK SMILES CCCCCC(=O)[O-]
REMARK SMILES IDX 4 1 5 2 6 3 7 4 8 5 3 6 2 7 1 8
REMARK H PARENT
REMARK Flexibility Score: inf
ROOT
ATOM      1  C   UNL     1     252.541 261.037 247.242  1.00  0.00     0.006 C 
ENDROOT
BRANCH   1   2
ATOM      2  C   UNL     1     251.787 259.715 247.041  1.00  0.00     0.053 C 
BRANCH   2   3
ATOM      3  C   UNL     1     250.311 259.944 247.088  1.00  0.00     0.041 C 
ATOM      4  O   UNL     1     249.525 258.980 247.281  1.00  0.00    -0.550 OA
ATOM      5  O   UNL     1     249.797 261.217 246.869  1.00  0.00    -0.550 OA
ENDBRANCH   2   3
ENDBRANCH   1   2
BRANCH   1   6
ATOM      6  C   UNL     1     254.066 260.864 247.175  1.00  0.00     0.000 C 
BRANCH   6   7
ATOM      7  C   UNL     1     254.489 259.671 246.305  1.00  0.00    -0.003 C 
ATOM      8  C   UNL     1     254.842 260.120 244.890  1.00  0.00     0.004 C 
ENDBRANCH   6   7
ENDBRANCH   1   6
TORSDOF 4
ENDMDL
MODEL 3
REMARK VINA RESULT:    -3.534      7.192      8.614
REMARK INTER + INTRA:          -4.405
REMARK INTER:                  -4.280
REMARK INTRA:                  -0.126
REMARK UNBOUND:                -0.044
REMARK SMILES CCCCCC(=O)[O-]
REMARK SMILES IDX 4 1 5 2 6 3 7 4 8 5 3 6 2 7 1 8
REMARK H PARENT
REMARK Flexibility Score: inf
ROOT
ATOM      1  C   UNL     1     254.463 262.217 252.611  1.00  0.00     0.006 C 
ENDROOT
BRANCH   1   2
ATOM      2  C   UNL     1     254.803 261.985 254.090  1.00  0.00     0.053 C 
BRANCH   2   3
ATOM      3  C   UNL     1     254.121 260.754 254.595  1.00  0.00     0.041 C 
ATOM      4  O   UNL     1     254.469 260.241 255.691  1.00  0.00    -0.550 OA
ATOM      5  O   UNL     1     253.134 260.142 253.832  1.00  0.00    -0.550 OA
ENDBRANCH   2   3
ENDBRANCH   1   2
BRANCH   1   6
ATOM      6  C   UNL     1     255.686 262.070 251.693  1.00  0.00     0.000 C 
BRANCH   6   7
ATOM      7  C   UNL     1     255.696 260.738 250.929  1.00  0.00    -0.003 C 
ATOM      8  C   UNL     1     255.043 260.886 249.558  1.00  0.00     0.004 C 
ENDBRANCH   6   7
ENDBRANCH   1   6
TORSDOF 4
ENDMDL
MODEL 4
REMARK VINA RESULT:    -3.529      6.526      8.076
REMARK INTER + INTRA:          -4.398
REMARK INTER:                  -4.220
REMARK INTRA:                  -0.178
REMARK UNBOUND:                -0.044
REMARK SMILES CCCCCC(=O)[O-]
REMARK SMILES IDX 4 1 5 2 6 3 7 4 8 5 3 6 2 7 1 8
REMARK H PARENT
REMARK Flexibility Score: inf
ROOT
ATOM      1  C   UNL     1     248.701 257.728 246.806  1.00  0.00     0.006 C 
ENDROOT
BRANCH   1   2
ATOM      2  C   UNL     1     250.199 257.930 247.071  1.00  0.00     0.053 C 
BRANCH   2   3
ATOM      3  C   UNL     1     250.537 259.387 247.076  1.00  0.00     0.041 C 
ATOM      4  O   UNL     1     251.731 259.761 246.933  1.00  0.00    -0.550 OA
ATOM      5  O   UNL     1     249.541 260.331 247.289  1.00  0.00    -0.550 OA
ENDBRANCH   2   3
ENDBRANCH   1   2
BRANCH   1   6
ATOM      6  C   UNL     1     248.431 256.886 245.551  1.00  0.00     0.000 C 
BRANCH   6   7
ATOM      7  C   UNL     1     247.380 257.519 244.628  1.00  0.00    -0.003 C 
ATOM      8  C   UNL     1     247.103 258.967 245.022  1.00  0.00     0.004 C 
ENDBRANCH   6   7
ENDBRANCH   1   6
TORSDOF 4
ENDMDL
MODEL 5
REMARK VINA RESULT:    -3.473      5.576      6.986
REMARK INTER + INTRA:          -4.330
REMARK INTER:                  -4.215
REMARK INTRA:                  -0.115
REMARK UNBOUND:                -0.044
REMARK SMILES CCCCCC(=O)[O-]
REMARK SMILES IDX 4 1 5 2 6 3 7 4 8 5 3 6 2 7 1 8
REMARK H PARENT
REMARK Flexibility Score: inf
ROOT
ATOM      1  C   UNL     1     252.015 258.118 247.066  1.00  0.00     0.006 C 
ENDROOT
BRANCH   1   2
ATOM      2  C   UNL     1     251.358 259.503 247.009  1.00  0.00     0.053 C 
BRANCH   2   3
ATOM      3  C   UNL     1     249.868 259.374 247.002  1.00  0.00     0.041 C 
ATOM      4  O   UNL     1     249.311 258.414 247.596  1.00  0.00    -0.550 OA
ATOM      5  O   UNL     1     249.094 260.286 246.294  1.00  0.00    -0.550 OA
ENDBRANCH   2   3
ENDBRANCH   1   2
BRANCH   1   6
ATOM      6  C   UNL     1     253.434 258.112 246.477  1.00  0.00     0.000 C 
BRANCH   6   7
ATOM      7  C   UNL     1     254.071 259.509 246.454  1.00  0.00    -0.003 C 
ATOM      8  C   UNL     1     254.576 259.860 245.058  1.00  0.00     0.004 C 
ENDBRANCH   6   7
ENDBRANCH   1   6
TORSDOF 4
ENDMDL
MODEL 6
REMARK VINA RESULT:    -3.468      3.705      5.229
REMARK INTER + INTRA:          -4.323
REMARK INTER:                  -4.235
REMARK INTRA:                  -0.088
REMARK UNBOUND:                -0.044
REMARK SMILES CCCCCC(=O)[O-]
REMARK SMILES IDX 4 1 5 2 6 3 7 4 8 5 3 6 2 7 1 8
REMARK H PARENT
REMARK Flexibility Score: inf
ROOT
ATOM      1  C   UNL     1     255.188 260.202 247.053  1.00  0.00     0.006 C 
ENDROOT
BRANCH   1   2
ATOM      2  C   UNL     1     254.082 260.920 247.839  1.00  0.00     0.053 C 
BRANCH   2   3
ATOM      3  C   UNL     1     252.749 260.671 247.209  1.00  0.00     0.041 C 
ATOM      4  O   UNL     1     252.482 259.545 246.712  1.00  0.00    -0.550 OA
ATOM      5  O   UNL     1     251.816 261.697 247.125  1.00  0.00    -0.550 OA
ENDBRANCH   2   3
ENDBRANCH   1   2
BRANCH   1   6
ATOM      6  C   UNL     1     255.599 260.961 245.783  1.00  0.00     0.000 C 
BRANCH   6   7
ATOM      7  C   UNL     1     257.015 261.548 245.876  1.00  0.00    -0.003 C 
ATOM      8  C   UNL     1     257.767 261.381 244.559  1.00  0.00     0.004 C 
ENDBRANCH   6   7
ENDBRANCH   1   6
TORSDOF 4
ENDMDL
MODEL 7
REMARK VINA RESULT:    -3.448      5.529      7.082
REMARK INTER + INTRA:          -4.299
REMARK INTER:                  -4.217
REMARK INTRA:                  -0.082
REMARK UNBOUND:                -0.044
REMARK SMILES CCCCCC(=O)[O-]
REMARK SMILES IDX 4 1 5 2 6 3 7 4 8 5 3 6 2 7 1 8
REMARK H PARENT
REMARK Flexibility Score: inf
ROOT
ATOM      1  C   UNL     1     251.525 259.446 246.979  1.00  0.00     0.006 C 
ENDROOT
BRANCH   1   2
ATOM      2  C   UNL     1     250.005 259.439 247.192  1.00  0.00     0.053 C 
BRANCH   2   3
ATOM      3  C   UNL     1     249.389 260.665 246.598  1.00  0.00     0.041 C 
ATOM      4  O   UNL     1     248.497 260.562 245.715  1.00  0.00    -0.550 OA
ATOM      5  O   UNL     1     249.835 261.923 246.981  1.00  0.00    -0.550 OA
ENDBRANCH   2   3
ENDBRANCH   1   2
BRANCH   1   6
ATOM      6  C   UNL     1     252.165 258.074 247.234  1.00  0.00     0.000 C 
BRANCH   6   7
ATOM      7  C   UNL     1     253.527 257.917 246.541  1.00  0.00    -0.003 C 
ATOM      8  C   UNL     1     253.942 259.212 245.847  1.00  0.00     0.004 C 
ENDBRANCH   6   7
ENDBRANCH   1   6
TORSDOF 4
ENDMDL
MODEL 8
REMARK VINA RESULT:    -3.445      5.708      6.658
REMARK INTER + INTRA:          -4.294
REMARK INTER:                  -4.186
REMARK INTRA:                  -0.109
REMARK UNBOUND:                -0.044
REMARK SMILES CCCCCC(=O)[O-]
REMARK SMILES IDX 4 1 5 2 6 3 7 4 8 5 3 6 2 7 1 8
REMARK H PARENT
REMARK Flexibility Score: inf
ROOT
ATOM      1  C   UNL     1     249.620 259.887 246.963  1.00  0.00     0.006 C 
ENDROOT
BRANCH   1   2
ATOM      2  C   UNL     1     251.154 259.887 247.016  1.00  0.00     0.053 C 
BRANCH   2   3
ATOM      3  C   UNL     1     251.678 258.488 246.964  1.00  0.00     0.041 C 
ATOM      4  O   UNL     1     250.883 257.516 246.871  1.00  0.00    -0.550 OA
ATOM      5  O   UNL     1     253.044 258.251 247.069  1.00  0.00    -0.550 OA
ENDBRANCH   2   3
ENDBRANCH   1   2
BRANCH   1   6
ATOM      6  C   UNL     1     249.044 261.242 246.525  1.00  0.00     0.000 C 
BRANCH   6   7
ATOM      7  C   UNL     1     250.037 262.398 246.717  1.00  0.00    -0.003 C 
ATOM      8  C   UNL     1     249.719 263.557 245.777  1.00  0.00     0.004 C 
ENDBRANCH   6   7
ENDBRANCH   1   6
TORSDOF 4
ENDMDL
MODEL 9
REMARK VINA RESULT:    -3.398      3.158      4.525
REMARK INTER + INTRA:          -4.236
REMARK INTER:                  -3.992
REMARK INTRA:                  -0.244
REMARK UNBOUND:                -0.044
REMARK SMILES CCCCCC(=O)[O-]
REMARK SMILES IDX 4 1 5 2 6 3 7 4 8 5 3 6 2 7 1 8
REMARK H PARENT
REMARK Flexibility Score: inf
ROOT
ATOM      1  C   UNL     1     253.880 260.999 247.717  1.00  0.00     0.006 C 
ENDROOT
BRANCH   1   2
ATOM      2  C   UNL     1     252.943 260.033 246.979  1.00  0.00     0.053 C 
BRANCH   2   3
ATOM      3  C   UNL     1     253.718 259.178 246.029  1.00  0.00     0.041 C 
ATOM      4  O   UNL     1     253.759 257.930 246.188  1.00  0.00    -0.550 OA
ATOM      5  O   UNL     1     254.439 259.763 244.995  1.00  0.00    -0.550 OA
ENDBRANCH   2   3
ENDBRANCH   1   2
BRANCH   1   6
ATOM      6  C   UNL     1     254.795 260.284 248.722  1.00  0.00     0.000 C 
BRANCH   6   7
ATOM      7  C   UNL     1     256.207 260.885 248.769  1.00  0.00    -0.003 C 
ATOM      8  C   UNL     1     256.833 260.928 247.378  1.00  0.00     0.004 C 
ENDBRANCH   6   7
ENDBRANCH   1   6
TORSDOF 4
ENDMDL
