MODEL 1
REMARK VINA RESULT:    -2.015      0.000      0.000
REMARK INTER + INTRA:          -5.132
REMARK INTER:                  -3.900
REMARK INTRA:                  -1.232
REMARK UNBOUND:                -1.232
REMARK SMILES CCCCCCCCCCCCCCCCCC(=O)[O-]
REMARK SMILES IDX 10 1 11 2 12 3 13 4 14 5 15 6 16 7 17 8 18 9 19 10 20 11
REMARK SMILES IDX 9 12 8 13 7 14 6 15 5 16 4 17 3 18 2 19 1 20
REMARK H PARENT
REMARK Flexibility Score: inf
ROOT
ATOM      1  C   UNL     1      11.771  11.472  14.597  1.00  0.00     0.000 C 
ENDROOT
BRANCH   1   2
ATOM      2  C   UNL     1      12.949  10.586  15.029  1.00  0.00     0.000 C 
BRANCH   2   3
ATOM      3  C   UNL     1      12.626   9.082  14.960  1.00  0.00     0.000 C 
BRANCH   3   4
ATOM      4  C   UNL     1      13.750   8.151  15.450  1.00  0.00     0.000 C 
BRANCH   4   5
ATOM      5  C   UNL     1      13.286   6.699  15.636  1.00  0.00     0.000 C 
BRANCH   5   6
ATOM      6  C   UNL     1      12.484   6.540  16.933  1.00  0.00     0.000 C 
BRANCH   6   7
ATOM      7  C   UNL     1      13.066   5.418  17.806  1.00  0.00     0.006 C 
BRANCH   7   8
ATOM      8  C   UNL     1      12.378   5.330  19.175  1.00  0.00     0.053 C 
BRANCH   8   9
ATOM      9  C   UNL     1      12.018   3.920  19.528  1.00  0.00     0.041 C 
ATOM     10  O   UNL     1      12.417   2.965  18.811  1.00  0.00    -0.550 OA
ATOM     11  O   UNL     1      11.214   3.662  20.632  1.00  0.00    -0.550 OA
ENDBRANCH   8   9
ENDBRANCH   7   8
ENDBRANCH   6   7
ENDBRANCH   5   6
ENDBRANCH   4   5
ENDBRANCH   3   4
ENDBRANCH   2   3
ENDBRANCH   1   2
BRANCH   1  12
ATOM     12  C   UNL     1      11.829  12.839  15.290  1.00  0.00     0.000 C 
BRANCH  12  13
ATOM     13  C   UNL     1      13.230  13.107  15.857  1.00  0.00    -0.000 C 
BRANCH  13  14
ATOM     14  C   UNL     1      13.838  14.419  15.335  1.00  0.00    -0.000 C 
BRANCH  14  15
ATOM     15  C   UNL     1      12.841  15.244  14.506  1.00  0.00    -0.000 C 
BRANCH  15  16
ATOM     16  C   UNL     1      13.572  16.125  13.485  1.00  0.00    -0.000 C 
BRANCH  16  17
ATOM     17  C   UNL     1      13.220  15.712  12.048  1.00  0.00    -0.000 C 
BRANCH  17  18
ATOM     18  C   UNL     1      12.172  14.586  11.989  1.00  0.00    -0.000 C 
BRANCH  18  19
ATOM     19  C   UNL     1      12.749  13.177  11.765  1.00  0.00    -0.003 C 
ATOM     20  C   UNL     1      11.767  12.232  11.074  1.00  0.00     0.004 C 
ENDBRANCH  18  19
ENDBRANCH  17  18
ENDBRANCH  16  17
ENDBRANCH  15  16
ENDBRANCH  14  15
ENDBRANCH  13  14
ENDBRANCH  12  13
ENDBRANCH   1  12
TORSDOF 16
ENDMDL
MODEL 2
REMARK VINA RESULT:    -1.981      4.870     10.281
REMARK INTER + INTRA:          -5.066
REMARK INTER:                  -4.866
REMARK INTRA:                  -0.201
REMARK UNBOUND:                -1.232
REMARK SMILES CCCCCCCCCCCCCCCCCC(=O)[O-]
REMARK SMILES IDX 10 1 11 2 12 3 13 4 14 5 15 6 16 7 17 8 18 9 19 10 20 11
REMARK SMILES IDX 9 12 8 13 7 14 6 15 5 16 4 17 3 18 2 19 1 20
REMARK H PARENT
REMARK Flexibility Score: inf
ROOT
ATOM      1  C   UNL     1      14.421   7.684  14.962  1.00  0.00     0.000 C 
ENDROOT
BRANCH   1   2
ATOM      2  C   UNL     1      13.157   8.461  15.362  1.00  0.00     0.000 C 
BRANCH   2   3
ATOM      3  C   UNL     1      13.274   9.974  15.100  1.00  0.00     0.000 C 
BRANCH   3   4
ATOM      4  C   UNL     1      11.955  10.674  14.726  1.00  0.00     0.000 C 
BRANCH   4   5
ATOM      5  C   UNL     1      12.162  12.109  14.219  1.00  0.00     0.000 C 
BRANCH   5   6
ATOM      6  C   UNL     1      12.655  13.024  15.346  1.00  0.00     0.000 C 
BRANCH   6   7
ATOM      7  C   UNL     1      13.381  14.253  14.779  1.00  0.00     0.006 C 
BRANCH   7   8
ATOM      8  C   UNL     1      13.251  14.354  13.254  1.00  0.00     0.053 C 
BRANCH   8   9
ATOM      9  C   UNL     1      13.368  15.769  12.776  1.00  0.00     0.041 C 
ATOM     10  O   UNL     1      13.173  16.046  11.564  1.00  0.00    -0.550 OA
ATOM     11  O   UNL     1      13.723  16.777  13.665  1.00  0.00    -0.550 OA
ENDBRANCH   8   9
ENDBRANCH   7   8
ENDBRANCH   6   7
ENDBRANCH   5   6
ENDBRANCH   4   5
ENDBRANCH   3   4
ENDBRANCH   2   3
ENDBRANCH   1   2
BRANCH   1  12
ATOM     12  C   UNL     1      14.065   6.280  14.460  1.00  0.00     0.000 C 
BRANCH  12  13
ATOM     13  C   UNL     1      14.509   5.208  15.465  1.00  0.00    -0.000 C 
BRANCH  13  14
ATOM     14  C   UNL     1      13.370   4.761  16.395  1.00  0.00    -0.000 C 
BRANCH  14  15
ATOM     15  C   UNL     1      12.545   5.942  16.929  1.00  0.00    -0.000 C 
BRANCH  15  16
ATOM     16  C   UNL     1      12.662   6.048  18.455  1.00  0.00    -0.000 C 
BRANCH  16  17
ATOM     17  C   UNL     1      12.645   4.658  19.107  1.00  0.00    -0.000 C 
BRANCH  17  18
ATOM     18  C   UNL     1      11.406   4.427  19.991  1.00  0.00    -0.000 C 
BRANCH  18  19
ATOM     19  C   UNL     1      11.345   3.050  20.674  1.00  0.00    -0.003 C 
ATOM     20  C   UNL     1      12.051   3.023  22.029  1.00  0.00     0.004 C 
ENDBRANCH  18  19
ENDBRANCH  17  18
ENDBRANCH  16  17
ENDBRANCH  15  16
ENDBRANCH  14  15
ENDBRANCH  13  14
ENDBRANCH  12  13
ENDBRANCH   1  12
TORSDOF 16
ENDMDL
MODEL 3
REMARK VINA RESULT:    -1.942      4.588      9.898
REMARK INTER + INTRA:          -4.991
REMARK INTER:                  -4.075
REMARK INTRA:                  -0.916
REMARK UNBOUND:                -1.232
REMARK SMILES CCCCCCCCCCCCCCCCCC(=O)[O-]
REMARK SMILES IDX 10 1 11 2 12 3 13 4 14 5 15 6 16 7 17 8 18 9 19 10 20 11
REMARK SMILES IDX 9 12 8 13 7 14 6 15 5 16 4 17 3 18 2 19 1 20
REMARK H PARENT
REMARK Flexibility Score: inf
ROOT
ATOM      1  C   UNL     1      13.085   8.521  15.306  1.00  0.00     0.000 C 
ENDROOT
BRANCH   1   2
ATOM      2  C   UNL     1      13.352  10.008  15.026  1.00  0.00     0.000 C 
BRANCH   2   3
ATOM      3  C   UNL     1      12.132  10.737  14.433  1.00  0.00     0.000 C 
BRANCH   3   4
ATOM      4  C   UNL     1      12.043  12.237  14.770  1.00  0.00     0.000 C 
BRANCH   4   5
ATOM      5  C   UNL     1      12.951  12.642  15.941  1.00  0.00     0.000 C 
BRANCH   5   6
ATOM      6  C   UNL     1      13.657  13.972  15.654  1.00  0.00     0.000 C 
BRANCH   6   7
ATOM      7  C   UNL     1      12.749  14.917  14.854  1.00  0.00     0.006 C 
BRANCH   7   8
ATOM      8  C   UNL     1      13.526  15.717  13.800  1.00  0.00     0.053 C 
BRANCH   8   9
ATOM      9  C   UNL     1      13.117  15.348  12.407  1.00  0.00     0.041 C 
ATOM     10  O   UNL     1      12.896  14.145  12.109  1.00  0.00    -0.550 OA
ATOM     11  O   UNL     1      13.009  16.331  11.429  1.00  0.00    -0.550 OA
ENDBRANCH   8   9
ENDBRANCH   7   8
ENDBRANCH   6   7
ENDBRANCH   5   6
ENDBRANCH   4   5
ENDBRANCH   3   4
ENDBRANCH   2   3
ENDBRANCH   1   2
BRANCH   1  12
ATOM     12  C   UNL     1      14.304   7.666  14.940  1.00  0.00     0.000 C 
BRANCH  12  13
ATOM     13  C   UNL     1      13.883   6.234  14.580  1.00  0.00    -0.000 C 
BRANCH  13  14
ATOM     14  C   UNL     1      14.540   5.180  15.486  1.00  0.00    -0.000 C 
BRANCH  14  15
ATOM     15  C   UNL     1      13.521   4.431  16.357  1.00  0.00    -0.000 C 
BRANCH  15  16
ATOM     16  C   UNL     1      12.439   5.384  16.880  1.00  0.00    -0.000 C 
BRANCH  16  17
ATOM     17  C   UNL     1      12.939   6.167  18.104  1.00  0.00    -0.000 C 
BRANCH  17  18
ATOM     18  C   UNL     1      12.740   5.402  19.425  1.00  0.00    -0.000 C 
BRANCH  18  19
ATOM     19  C   UNL     1      11.883   4.129  19.313  1.00  0.00    -0.003 C 
ATOM     20  C   UNL     1      11.551   3.511  20.671  1.00  0.00     0.004 C 
ENDBRANCH  18  19
ENDBRANCH  17  18
ENDBRANCH  16  17
ENDBRANCH  15  16
ENDBRANCH  14  15
ENDBRANCH  13  14
ENDBRANCH  12  13
ENDBRANCH   1  12
TORSDOF 16
ENDMDL
MODEL 4
REMARK VINA RESULT:    -1.676      4.658      9.975
REMARK INTER + INTRA:          -4.476
REMARK INTER:                  -3.489
REMARK INTRA:                  -0.987
REMARK UNBOUND:                -1.232
REMARK SMILES CCCCCCCCCCCCCCCCCC(=O)[O-]
REMARK SMILES IDX 10 1 11 2 12 3 13 4 14 5 15 6 16 7 17 8 18 9 19 10 20 11
REMARK SMILES IDX 9 12 8 13 7 14 6 15 5 16 4 17 3 18 2 19 1 20
REMARK H PARENT
REMARK Flexibility Score: inf
ROOT
ATOM      1  C   UNL     1      13.241   8.550  15.558  1.00  0.00     0.000 C 
ENDROOT
BRANCH   1   2
ATOM      2  C   UNL     1      12.999   9.764  14.648  1.00  0.00     0.000 C 
BRANCH   2   3
ATOM      3  C   UNL     1      12.904  11.089  15.426  1.00  0.00     0.000 C 
BRANCH   3   4
ATOM      4  C   UNL     1      12.393  12.289  14.609  1.00  0.00     0.000 C 
BRANCH   4   5
ATOM      5  C   UNL     1      11.329  11.898  13.573  1.00  0.00     0.000 C 
BRANCH   5   6
ATOM      6  C   UNL     1      11.627  12.535  12.210  1.00  0.00     0.000 C 
BRANCH   6   7
ATOM      7  C   UNL     1      12.902  13.391  12.269  1.00  0.00     0.006 C 
BRANCH   7   8
ATOM      8  C   UNL     1      12.628  14.865  11.942  1.00  0.00     0.053 C 
BRANCH   8   9
ATOM      9  C   UNL     1      13.338  15.786  12.886  1.00  0.00     0.041 C 
ATOM     10  O   UNL     1      14.079  16.701  12.441  1.00  0.00    -0.550 OA
ATOM     11  O   UNL     1      13.207  15.614  14.259  1.00  0.00    -0.550 OA
ENDBRANCH   8   9
ENDBRANCH   7   8
ENDBRANCH   6   7
ENDBRANCH   5   6
ENDBRANCH   4   5
ENDBRANCH   3   4
ENDBRANCH   2   3
ENDBRANCH   1   2
BRANCH   1  12
ATOM     12  C   UNL     1      14.353   7.656  14.996  1.00  0.00     0.000 C 
BRANCH  12  13
ATOM     13  C   UNL     1      13.811   6.264  14.639  1.00  0.00    -0.000 C 
BRANCH  13  14
ATOM     14  C   UNL     1      14.468   5.145  15.463  1.00  0.00    -0.000 C 
BRANCH  14  15
ATOM     15  C   UNL     1      13.501   4.511  16.474  1.00  0.00    -0.000 C 
BRANCH  15  16
ATOM     16  C   UNL     1      12.386   5.491  16.857  1.00  0.00    -0.000 C 
BRANCH  16  17
ATOM     17  C   UNL     1      12.601   6.045  18.274  1.00  0.00    -0.000 C 
BRANCH  17  18
ATOM     18  C   UNL     1      12.787   4.938  19.327  1.00  0.00    -0.000 C 
BRANCH  18  19
ATOM     19  C   UNL     1      11.515   4.135  19.653  1.00  0.00    -0.003 C 
ATOM     20  C   UNL     1      11.620   3.354  20.962  1.00  0.00     0.004 C 
ENDBRANCH  18  19
ENDBRANCH  17  18
ENDBRANCH  16  17
ENDBRANCH  15  16
ENDBRANCH  14  15
ENDBRANCH  13  14
ENDBRANCH  12  13
ENDBRANCH   1  12
TORSDOF 16
ENDMDL
MODEL 5
REMARK VINA RESULT:    -1.457      5.029      9.419
REMARK INTER + INTRA:          -4.052
REMARK INTER:                  -3.038
REMARK INTRA:                  -1.015
REMARK UNBOUND:                -1.232
REMARK SMILES CCCCCCCCCCCCCCCCCC(=O)[O-]
REMARK SMILES IDX 10 1 11 2 12 3 13 4 14 5 15 6 16 7 17 8 18 9 19 10 20 11
REMARK SMILES IDX 9 12 8 13 7 14 6 15 5 16 4 17 3 18 2 19 1 20
REMARK H PARENT
REMARK Flexibility Score: inf
ROOT
ATOM      1  C   UNL     1      13.255   7.372  15.463  1.00  0.00     0.000 C 
ENDROOT
BRANCH   1   2
ATOM      2  C   UNL     1      13.697   8.840  15.368  1.00  0.00     0.000 C 
BRANCH   2   3
ATOM      3  C   UNL     1      12.514   9.816  15.230  1.00  0.00     0.000 C 
BRANCH   3   4
ATOM      4  C   UNL     1      12.811  11.089  14.417  1.00  0.00     0.000 C 
BRANCH   4   5
ATOM      5  C   UNL     1      11.857  12.246  14.749  1.00  0.00     0.000 C 
BRANCH   5   6
ATOM      6  C   UNL     1      12.545  13.288  15.640  1.00  0.00     0.000 C 
BRANCH   6   7
ATOM      7  C   UNL     1      13.647  14.030  14.870  1.00  0.00     0.006 C 
BRANCH   7   8
ATOM      8  C   UNL     1      13.129  15.313  14.206  1.00  0.00     0.053 C 
BRANCH   8   9
ATOM      9  C   UNL     1      13.215  15.242  12.713  1.00  0.00     0.041 C 
ATOM     10  O   UNL     1      13.611  16.238  12.052  1.00  0.00    -0.550 OA
ATOM     11  O   UNL     1      12.827  14.085  12.047  1.00  0.00    -0.550 OA
ENDBRANCH   8   9
ENDBRANCH   7   8
ENDBRANCH   6   7
ENDBRANCH   5   6
ENDBRANCH   4   5
ENDBRANCH   3   4
ENDBRANCH   2   3
ENDBRANCH   1   2
BRANCH   1  12
ATOM     12  C   UNL     1      12.708   7.052  16.859  1.00  0.00     0.000 C 
BRANCH  12  13
ATOM     13  C   UNL     1      12.860   5.559  17.180  1.00  0.00    -0.000 C 
BRANCH  13  14
ATOM     14  C   UNL     1      13.213   4.721  15.941  1.00  0.00    -0.000 C 
BRANCH  14  15
ATOM     15  C   UNL     1      14.443   3.828  16.162  1.00  0.00    -0.000 C 
BRANCH  15  16
ATOM     16  C   UNL     1      15.621   4.289  15.294  1.00  0.00    -0.000 C 
BRANCH  16  17
ATOM     17  C   UNL     1      15.125   4.914  13.981  1.00  0.00    -0.000 C 
BRANCH  17  18
ATOM     18  C   UNL     1      16.172   4.850  12.855  1.00  0.00    -0.000 C 
BRANCH  18  19
ATOM     19  C   UNL     1      15.731   4.070  11.604  1.00  0.00    -0.003 C 
ATOM     20  C   UNL     1      14.420   4.584  11.011  1.00  0.00     0.004 C 
ENDBRANCH  18  19
ENDBRANCH  17  18
ENDBRANCH  16  17
ENDBRANCH  15  16
ENDBRANCH  14  15
ENDBRANCH  13  14
ENDBRANCH  12  13
ENDBRANCH   1  12
TORSDOF 16
ENDMDL
MODEL 6
REMARK VINA RESULT:    -1.395      3.535      5.544
REMARK INTER + INTRA:          -3.932
REMARK INTER:                  -3.162
REMARK INTRA:                  -0.770
REMARK UNBOUND:                -1.232
REMARK SMILES CCCCCCCCCCCCCCCCCC(=O)[O-]
REMARK SMILES IDX 10 1 11 2 12 3 13 4 14 5 15 6 16 7 17 8 18 9 19 10 20 11
REMARK SMILES IDX 9 12 8 13 7 14 6 15 5 16 4 17 3 18 2 19 1 20
REMARK H PARENT
REMARK Flexibility Score: inf
ROOT
ATOM      1  C   UNL     1      12.548   7.280  16.949  1.00  0.00     0.000 C 
ENDROOT
BRANCH   1   2
ATOM      2  C   UNL     1      12.823   5.919  17.606  1.00  0.00     0.000 C 
BRANCH   2   3
ATOM      3  C   UNL     1      12.832   4.756  16.596  1.00  0.00     0.000 C 
BRANCH   3   4
ATOM      4  C   UNL     1      14.040   3.808  16.706  1.00  0.00     0.000 C 
BRANCH   4   5
ATOM      5  C   UNL     1      15.054   3.998  15.569  1.00  0.00     0.000 C 
BRANCH   5   6
ATOM      6  C   UNL     1      14.449   4.818  14.423  1.00  0.00     0.000 C 
BRANCH   6   7
ATOM      7  C   UNL     1      15.524   5.211  13.399  1.00  0.00     0.006 C 
BRANCH   7   8
ATOM      8  C   UNL     1      16.919   4.711  13.799  1.00  0.00     0.053 C 
BRANCH   8   9
ATOM      9  C   UNL     1      17.582   3.959  12.686  1.00  0.00     0.041 C 
ATOM     10  O   UNL     1      18.731   3.471  12.848  1.00  0.00    -0.550 OA
ATOM     11  O   UNL     1      16.943   3.823  11.459  1.00  0.00    -0.550 OA
ENDBRANCH   8   9
ENDBRANCH   7   8
ENDBRANCH   6   7
ENDBRANCH   5   6
ENDBRANCH   4   5
ENDBRANCH   3   4
ENDBRANCH   2   3
ENDBRANCH   1   2
BRANCH   1  12
ATOM     12  C   UNL     1      13.233   7.378  15.580  1.00  0.00     0.000 C 
BRANCH  12  13
ATOM     13  C   UNL     1      13.678   8.818  15.290  1.00  0.00    -0.000 C 
BRANCH  13  14
ATOM     14  C   UNL     1      12.492   9.778  15.108  1.00  0.00    -0.000 C 
BRANCH  14  15
ATOM     15  C   UNL     1      12.902  11.254  15.223  1.00  0.00    -0.000 C 
BRANCH  15  16
ATOM     16  C   UNL     1      12.015  12.141  14.341  1.00  0.00    -0.000 C 
BRANCH  16  17
ATOM     17  C   UNL     1      12.857  13.172  13.573  1.00  0.00    -0.000 C 
BRANCH  17  18
ATOM     18  C   UNL     1      13.269  14.374  14.442  1.00  0.00    -0.000 C 
BRANCH  18  19
ATOM     19  C   UNL     1      13.218  15.736  13.728  1.00  0.00    -0.003 C 
ATOM     20  C   UNL     1      13.196  15.613  12.205  1.00  0.00     0.004 C 
ENDBRANCH  18  19
ENDBRANCH  17  18
ENDBRANCH  16  17
ENDBRANCH  15  16
ENDBRANCH  14  15
ENDBRANCH  13  14
ENDBRANCH  12  13
ENDBRANCH   1  12
TORSDOF 16
ENDMDL
MODEL 7
REMARK VINA RESULT:    -1.314      1.165      2.586
REMARK INTER + INTRA:          -3.774
REMARK INTER:                  -2.927
REMARK INTRA:                  -0.848
REMARK UNBOUND:                -1.232
REMARK SMILES CCCCCCCCCCCCCCCCCC(=O)[O-]
REMARK SMILES IDX 10 1 11 2 12 3 13 4 14 5 15 6 16 7 17 8 18 9 19 10 20 11
REMARK SMILES IDX 9 12 8 13 7 14 6 15 5 16 4 17 3 18 2 19 1 20
REMARK H PARENT
REMARK Flexibility Score: inf
ROOT
ATOM      1  C   UNL     1      13.230   8.488  15.508  1.00  0.00     0.000 C 
ENDROOT
BRANCH   1   2
ATOM      2  C   UNL     1      14.349   7.561  15.010  1.00  0.00     0.000 C 
BRANCH   2   3
ATOM      3  C   UNL     1      13.853   6.139  14.688  1.00  0.00     0.000 C 
BRANCH   3   4
ATOM      4  C   UNL     1      14.410   5.032  15.601  1.00  0.00     0.000 C 
BRANCH   4   5
ATOM      5  C   UNL     1      13.365   4.487  16.585  1.00  0.00     0.000 C 
BRANCH   5   6
ATOM      6  C   UNL     1      12.630   5.629  17.295  1.00  0.00     0.000 C 
BRANCH   6   7
ATOM      7  C   UNL     1      12.637   5.427  18.818  1.00  0.00     0.006 C 
BRANCH   7   8
ATOM      8  C   UNL     1      12.368   3.968  19.212  1.00  0.00     0.053 C 
BRANCH   8   9
ATOM      9  C   UNL     1      11.332   3.864  20.289  1.00  0.00     0.041 C 
ATOM     10  O   UNL     1      10.145   4.219  20.062  1.00  0.00    -0.550 OA
ATOM     11  O   UNL     1      11.684   3.403  21.552  1.00  0.00    -0.550 OA
ENDBRANCH   8   9
ENDBRANCH   7   8
ENDBRANCH   6   7
ENDBRANCH   5   6
ENDBRANCH   4   5
ENDBRANCH   3   4
ENDBRANCH   2   3
ENDBRANCH   1   2
BRANCH   1  12
ATOM     12  C   UNL     1      13.449   9.925  15.017  1.00  0.00     0.000 C 
BRANCH  12  13
ATOM     13  C   UNL     1      12.117  10.581  14.627  1.00  0.00    -0.000 C 
BRANCH  13  14
ATOM     14  C   UNL     1      12.231  12.106  14.480  1.00  0.00    -0.000 C 
BRANCH  14  15
ATOM     15  C   UNL     1      12.777  12.784  15.745  1.00  0.00    -0.000 C 
BRANCH  15  16
ATOM     16  C   UNL     1      12.908  14.299  15.544  1.00  0.00    -0.000 C 
BRANCH  16  17
ATOM     17  C   UNL     1      13.743  14.618  14.295  1.00  0.00    -0.000 C 
BRANCH  17  18
ATOM     18  C   UNL     1      13.321  15.932  13.612  1.00  0.00    -0.000 C 
BRANCH  18  19
ATOM     19  C   UNL     1      13.071  15.823  12.098  1.00  0.00    -0.003 C 
ATOM     20  C   UNL     1      12.533  14.457  11.677  1.00  0.00     0.004 C 
ENDBRANCH  18  19
ENDBRANCH  17  18
ENDBRANCH  16  17
ENDBRANCH  15  16
ENDBRANCH  14  15
ENDBRANCH  13  14
ENDBRANCH  12  13
ENDBRANCH   1  12
TORSDOF 16
ENDMDL
MODEL 8
REMARK VINA RESULT:    -1.148      1.132      2.769
REMARK INTER + INTRA:          -3.454
REMARK INTER:                  -3.037
REMARK INTRA:                  -0.417
REMARK UNBOUND:                -1.232
REMARK SMILES CCCCCCCCCCCCCCCCCC(=O)[O-]
REMARK SMILES IDX 10 1 11 2 12 3 13 4 14 5 15 6 16 7 17 8 18 9 19 10 20 11
REMARK SMILES IDX 9 12 8 13 7 14 6 15 5 16 4 17 3 18 2 19 1 20
REMARK H PARENT
REMARK Flexibility Score: inf
ROOT
ATOM      1  C   UNL     1      13.002   8.878  15.780  1.00  0.00     0.000 C 
ENDROOT
BRANCH   1   2
ATOM      2  C   UNL     1      13.786   7.776  15.051  1.00  0.00     0.000 C 
BRANCH   2   3
ATOM      3  C   UNL     1      13.524   6.371  15.625  1.00  0.00     0.000 C 
BRANCH   3   4
ATOM      4  C   UNL     1      12.467   6.311  16.742  1.00  0.00     0.000 C 
BRANCH   4   5
ATOM      5  C   UNL     1      13.039   6.657  18.125  1.00  0.00     0.000 C 
BRANCH   5   6
ATOM      6  C   UNL     1      12.882   5.480  19.095  1.00  0.00     0.000 C 
BRANCH   6   7
ATOM      7  C   UNL     1      12.644   4.167  18.334  1.00  0.00     0.006 C 
BRANCH   7   8
ATOM      8  C   UNL     1      12.185   3.033  19.261  1.00  0.00     0.053 C 
BRANCH   8   9
ATOM      9  C   UNL     1      11.354   3.544  20.397  1.00  0.00     0.041 C 
ATOM     10  O   UNL     1      11.698   3.314  21.587  1.00  0.00    -0.550 OA
ATOM     11  O   UNL     1      10.182   4.247  20.143  1.00  0.00    -0.550 OA
ENDBRANCH   8   9
ENDBRANCH   7   8
ENDBRANCH   6   7
ENDBRANCH   5   6
ENDBRANCH   4   5
ENDBRANCH   3   4
ENDBRANCH   2   3
ENDBRANCH   1   2
BRANCH   1  12
ATOM     12  C   UNL     1      12.569   9.980  14.806  1.00  0.00     0.000 C 
BRANCH  12  13
ATOM     13  C   UNL     1      12.921  11.369  15.356  1.00  0.00    -0.000 C 
BRANCH  13  14
ATOM     14  C   UNL     1      12.285  12.506  14.541  1.00  0.00    -0.000 C 
BRANCH  14  15
ATOM     15  C   UNL     1      11.379  11.990  13.412  1.00  0.00    -0.000 C 
BRANCH  15  16
ATOM     16  C   UNL     1      11.761  12.624  12.069  1.00  0.00    -0.000 C 
BRANCH  16  17
ATOM     17  C   UNL     1      12.994  13.529  12.217  1.00  0.00    -0.000 C 
BRANCH  17  18
ATOM     18  C   UNL     1      12.700  15.000  11.876  1.00  0.00    -0.000 C 
BRANCH  18  19
ATOM     19  C   UNL     1      13.267  16.022  12.877  1.00  0.00    -0.003 C 
ATOM     20  C   UNL     1      13.322  15.490  14.309  1.00  0.00     0.004 C 
ENDBRANCH  18  19
ENDBRANCH  17  18
ENDBRANCH  16  17
ENDBRANCH  15  16
ENDBRANCH  14  15
ENDBRANCH  13  14
ENDBRANCH  12  13
ENDBRANCH   1  12
TORSDOF 16
ENDMDL
MODEL 9
REMARK VINA RESULT:    -0.958      5.087      9.360
REMARK INTER + INTRA:          -3.086
REMARK INTER:                  -2.233
REMARK INTRA:                  -0.854
REMARK UNBOUND:                -1.232
REMARK SMILES CCCCCCCCCCCCCCCCCC(=O)[O-]
REMARK SMILES IDX 10 1 11 2 12 3 13 4 14 5 15 6 16 7 17 8 18 9 19 10 20 11
REMARK SMILES IDX 9 12 8 13 7 14 6 15 5 16 4 17 3 18 2 19 1 20
REMARK H PARENT
REMARK Flexibility Score: inf
ROOT
ATOM      1  C   UNL     1      13.103   6.816  17.942  1.00  0.00     0.000 C 
ENDROOT
BRANCH   1   2
ATOM      2  C   UNL     1      12.296   7.435  16.790  1.00  0.00     0.000 C 
BRANCH   2   3
ATOM      3  C   UNL     1      13.149   7.707  15.538  1.00  0.00     0.000 C 
BRANCH   3   4
ATOM      4  C   UNL     1      13.611   9.166  15.369  1.00  0.00     0.000 C 
BRANCH   4   5
ATOM      5  C   UNL     1      12.481  10.102  14.915  1.00  0.00     0.000 C 
BRANCH   5   6
ATOM      6  C   UNL     1      12.744  11.543  15.369  1.00  0.00     0.000 C 
BRANCH   6   7
ATOM      7  C   UNL     1      12.743  12.506  14.172  1.00  0.00     0.006 C 
BRANCH   7   8
ATOM      8  C   UNL     1      13.005  13.958  14.595  1.00  0.00     0.053 C 
BRANCH   8   9
ATOM      9  C   UNL     1      13.194  14.857  13.412  1.00  0.00     0.041 C 
ATOM     10  O   UNL     1      12.999  14.420  12.247  1.00  0.00    -0.550 OA
ATOM     11  O   UNL     1      13.617  16.168  13.593  1.00  0.00    -0.550 OA
ENDBRANCH   8   9
ENDBRANCH   7   8
ENDBRANCH   6   7
ENDBRANCH   5   6
ENDBRANCH   4   5
ENDBRANCH   3   4
ENDBRANCH   2   3
ENDBRANCH   1   2
BRANCH   1  12
ATOM     12  C   UNL     1      12.495   5.477  18.380  1.00  0.00     0.000 C 
BRANCH  12  13
ATOM     13  C   UNL     1      13.335   4.299  17.866  1.00  0.00    -0.000 C 
BRANCH  13  14
ATOM     14  C   UNL     1      13.208   4.101  16.347  1.00  0.00    -0.000 C 
BRANCH  14  15
ATOM     15  C   UNL     1      14.548   4.270  15.616  1.00  0.00    -0.000 C 
BRANCH  15  16
ATOM     16  C   UNL     1      14.359   5.009  14.285  1.00  0.00    -0.000 C 
BRANCH  16  17
ATOM     17  C   UNL     1      15.702   5.198  13.564  1.00  0.00    -0.000 C 
BRANCH  17  18
ATOM     18  C   UNL     1      15.736   4.528  12.179  1.00  0.00    -0.000 C 
BRANCH  18  19
ATOM     19  C   UNL     1      17.007   3.712  11.885  1.00  0.00    -0.003 C 
ATOM     20  C   UNL     1      18.113   3.936  12.917  1.00  0.00     0.004 C 
ENDBRANCH  18  19
ENDBRANCH  17  18
ENDBRANCH  16  17
ENDBRANCH  15  16
ENDBRANCH  14  15
ENDBRANCH  13  14
ENDBRANCH  12  13
ENDBRANCH   1  12
TORSDOF 16
ENDMDL
