MODEL 1
REMARK VINA RESULT:    -3.482      0.000      0.000
REMARK INTER + INTRA:          -7.841
REMARK INTER:                  -6.331
REMARK INTRA:                  -1.510
REMARK UNBOUND:                -1.510
REMARK SMILES CCCCCC=CCC=CCCCCCCCC(=O)[O-]
REMARK SMILES IDX 11 1 12 2 13 3 14 4 15 5 16 6 17 7 18 8 19 9 20 10 10 11
REMARK SMILES IDX 9 12 8 13 7 14 6 15 5 16 4 17 3 18 2 19 1 20
REMARK H PARENT
REMARK Flexibility Score: inf
ROOT
ATOM      1  C   UNL     1      17.133  22.562   3.834  1.00  0.00     0.027 C 
ENDROOT
BRANCH   1   2
ATOM      2  C   UNL     1      16.386  22.550   2.488  1.00  0.00     0.004 C 
BRANCH   2   3
ATOM      3  C   UNL     1      16.469  23.873   1.704  1.00  0.00     0.000 C 
BRANCH   3   4
ATOM      4  C   UNL     1      15.316  24.049   0.705  1.00  0.00     0.000 C 
BRANCH   4   5
ATOM      5  C   UNL     1      15.229  22.852  -0.250  1.00  0.00     0.000 C 
BRANCH   5   6
ATOM      6  C   UNL     1      15.180  23.314  -1.710  1.00  0.00     0.006 C 
BRANCH   6   7
ATOM      7  C   UNL     1      15.794  24.708  -1.867  1.00  0.00     0.053 C 
BRANCH   7   8
ATOM      8  C   UNL     1      17.190  24.610  -2.394  1.00  0.00     0.041 C 
ATOM      9  O   UNL     1      17.406  24.676  -3.633  1.00  0.00    -0.550 OA
ATOM     10  O   UNL     1      18.249  24.393  -1.522  1.00  0.00    -0.550 OA
ENDBRANCH   7   8
ENDBRANCH   6   7
ENDBRANCH   5   6
ENDBRANCH   4   5
ENDBRANCH   3   4
ENDBRANCH   2   3
ENDBRANCH   1   2
BRANCH   1  11
ATOM     11  C   UNL     1      17.695  23.923   4.167  1.00  0.00    -0.031 C 
ATOM     12  C   UNL     1      17.123  24.796   5.014  1.00  0.00    -0.027 C 
BRANCH  12  13
ATOM     13  C   UNL     1      15.861  24.503   5.788  1.00  0.00     0.054 C 
BRANCH  13  14
ATOM     14  C   UNL     1      16.159  24.274   7.243  1.00  0.00    -0.027 C 
ATOM     15  C   UNL     1      17.414  24.314   7.716  1.00  0.00    -0.031 C 
BRANCH  15  16
ATOM     16  C   UNL     1      17.715  24.094   9.173  1.00  0.00     0.027 C 
BRANCH  16  17
ATOM     17  C   UNL     1      17.043  22.816   9.690  1.00  0.00     0.004 C 
BRANCH  17  18
ATOM     18  C   UNL     1      17.585  21.578   8.961  1.00  0.00     0.000 C 
BRANCH  18  19
ATOM     19  C   UNL     1      16.475  20.586   8.579  1.00  0.00    -0.003 C 
ATOM     20  C   UNL     1      16.120  20.638   7.093  1.00  0.00     0.004 C 
ENDBRANCH  18  19
ENDBRANCH  17  18
ENDBRANCH  16  17
ENDBRANCH  15  16
ENDBRANCH  13  14
ENDBRANCH  12  13
ENDBRANCH   1  11
TORSDOF 14
ENDMDL
MODEL 2
REMARK VINA RESULT:    -3.223      3.465      8.855
REMARK INTER + INTRA:          -7.371
REMARK INTER:                  -6.350
REMARK INTRA:                  -1.021
REMARK UNBOUND:                -1.510
REMARK SMILES CCCCCC=CCC=CCCCCCCCC(=O)[O-]
REMARK SMILES IDX 11 1 12 2 13 3 14 4 15 5 16 6 17 7 18 8 19 9 20 10 10 11
REMARK SMILES IDX 9 12 8 13 7 14 6 15 5 16 4 17 3 18 2 19 1 20
REMARK H PARENT
REMARK Flexibility Score: inf
ROOT
ATOM      1  C   UNL     1      16.479  22.113   5.883  1.00  0.00     0.027 C 
ENDROOT
BRANCH   1   2
ATOM      2  C   UNL     1      16.387  20.942   6.878  1.00  0.00     0.004 C 
BRANCH   2   3
ATOM      3  C   UNL     1      16.615  21.339   8.348  1.00  0.00     0.000 C 
BRANCH   3   4
ATOM      4  C   UNL     1      15.383  22.000   8.986  1.00  0.00     0.000 C 
BRANCH   4   5
ATOM      5  C   UNL     1      15.651  23.477   9.295  1.00  0.00     0.000 C 
BRANCH   5   6
ATOM      6  C   UNL     1      16.943  23.646  10.103  1.00  0.00     0.006 C 
BRANCH   6   7
ATOM      7  C   UNL     1      17.525  25.050   9.924  1.00  0.00     0.053 C 
BRANCH   7   8
ATOM      8  C   UNL     1      18.500  25.073   8.789  1.00  0.00     0.041 C 
ATOM      9  O   UNL     1      19.737  25.104   9.016  1.00  0.00    -0.550 OA
ATOM     10  O   UNL     1      18.040  25.113   7.478  1.00  0.00    -0.550 OA
ENDBRANCH   7   8
ENDBRANCH   6   7
ENDBRANCH   5   6
ENDBRANCH   4   5
ENDBRANCH   3   4
ENDBRANCH   2   3
ENDBRANCH   1   2
BRANCH   1  11
ATOM     11  C   UNL     1      17.367  21.798   4.703  1.00  0.00    -0.031 C 
ATOM     12  C   UNL     1      17.765  22.698   3.788  1.00  0.00    -0.027 C 
BRANCH  12  13
ATOM     13  C   UNL     1      17.414  24.164   3.852  1.00  0.00     0.054 C 
BRANCH  13  14
ATOM     14  C   UNL     1      16.678  24.599   2.616  1.00  0.00    -0.027 C 
ATOM     15  C   UNL     1      17.296  24.695   1.429  1.00  0.00    -0.031 C 
BRANCH  15  16
ATOM     16  C   UNL     1      16.561  25.121   0.189  1.00  0.00     0.027 C 
BRANCH  16  17
ATOM     17  C   UNL     1      15.961  23.913  -0.541  1.00  0.00     0.004 C 
BRANCH  17  18
ATOM     18  C   UNL     1      16.701  23.648  -1.861  1.00  0.00     0.000 C 
BRANCH  18  19
ATOM     19  C   UNL     1      17.628  24.806  -2.261  1.00  0.00    -0.003 C 
ATOM     20  C   UNL     1      17.800  24.931  -3.775  1.00  0.00     0.004 C 
ENDBRANCH  18  19
ENDBRANCH  17  18
ENDBRANCH  16  17
ENDBRANCH  15  16
ENDBRANCH  13  14
ENDBRANCH  12  13
ENDBRANCH   1  11
TORSDOF 14
ENDMDL
MODEL 3
REMARK VINA RESULT:    -3.161      3.632      9.218
REMARK INTER + INTRA:          -7.259
REMARK INTER:                  -6.265
REMARK INTRA:                  -0.994
REMARK UNBOUND:                -1.510
REMARK SMILES CCCCCC=CCC=CCCCCCCCC(=O)[O-]
REMARK SMILES IDX 11 1 12 2 13 3 14 4 15 5 16 6 17 7 18 8 19 9 20 10 10 11
REMARK SMILES IDX 9 12 8 13 7 14 6 15 5 16 4 17 3 18 2 19 1 20
REMARK H PARENT
REMARK Flexibility Score: inf
ROOT
ATOM      1  C   UNL     1      17.418  22.127   3.789  1.00  0.00     0.027 C 
ENDROOT
BRANCH   1   2
ATOM      2  C   UNL     1      16.980  21.360   5.049  1.00  0.00     0.004 C 
BRANCH   2   3
ATOM      3  C   UNL     1      16.666  22.257   6.261  1.00  0.00     0.000 C 
BRANCH   3   4
ATOM      4  C   UNL     1      16.257  21.456   7.507  1.00  0.00     0.000 C 
BRANCH   4   5
ATOM      5  C   UNL     1      17.182  21.770   8.689  1.00  0.00     0.000 C 
BRANCH   5   6
ATOM      6  C   UNL     1      16.635  22.935   9.522  1.00  0.00     0.006 C 
BRANCH   6   7
ATOM      7  C   UNL     1      17.773  23.797  10.075  1.00  0.00     0.053 C 
BRANCH   7   8
ATOM      8  C   UNL     1      18.302  24.711   9.016  1.00  0.00     0.041 C 
ATOM      9  O   UNL     1      17.562  25.071   8.063  1.00  0.00    -0.550 OA
ATOM     10  O   UNL     1      19.627  25.125   9.052  1.00  0.00    -0.550 OA
ENDBRANCH   7   8
ENDBRANCH   6   7
ENDBRANCH   5   6
ENDBRANCH   4   5
ENDBRANCH   3   4
ENDBRANCH   2   3
ENDBRANCH   1   2
BRANCH   1  11
ATOM     11  C   UNL     1      17.348  23.624   3.974  1.00  0.00    -0.031 C 
ATOM     12  C   UNL     1      16.549  24.442   3.266  1.00  0.00    -0.027 C 
BRANCH  12  13
ATOM     13  C   UNL     1      15.573  23.957   2.223  1.00  0.00     0.054 C 
BRANCH  13  14
ATOM     14  C   UNL     1      15.801  24.646   0.906  1.00  0.00    -0.027 C 
ATOM     15  C   UNL     1      16.833  24.319   0.115  1.00  0.00    -0.031 C 
BRANCH  15  16
ATOM     16  C   UNL     1      17.060  24.999  -1.207  1.00  0.00     0.027 C 
BRANCH  16  17
ATOM     17  C   UNL     1      16.824  24.032  -2.374  1.00  0.00     0.004 C 
BRANCH  17  18
ATOM     18  C   UNL     1      15.363  24.084  -2.844  1.00  0.00     0.000 C 
BRANCH  18  19
ATOM     19  C   UNL     1      15.197  23.634  -4.304  1.00  0.00    -0.003 C 
ATOM     20  C   UNL     1      15.352  24.784  -5.299  1.00  0.00     0.004 C 
ENDBRANCH  18  19
ENDBRANCH  17  18
ENDBRANCH  16  17
ENDBRANCH  15  16
ENDBRANCH  13  14
ENDBRANCH  12  13
ENDBRANCH   1  11
TORSDOF 14
ENDMDL
MODEL 4
REMARK VINA RESULT:    -3.146      1.224      2.028
REMARK INTER + INTRA:          -7.230
REMARK INTER:                  -5.904
REMARK INTRA:                  -1.326
REMARK UNBOUND:                -1.510
REMARK SMILES CCCCCC=CCC=CCCCCCCCC(=O)[O-]
REMARK SMILES IDX 11 1 12 2 13 3 14 4 15 5 16 6 17 7 18 8 19 9 20 10 10 11
REMARK SMILES IDX 9 12 8 13 7 14 6 15 5 16 4 17 3 18 2 19 1 20
REMARK H PARENT
REMARK Flexibility Score: inf
ROOT
ATOM      1  C   UNL     1      17.462  23.461   4.439  1.00  0.00     0.027 C 
ENDROOT
BRANCH   1   2
ATOM      2  C   UNL     1      17.034  22.577   3.254  1.00  0.00     0.004 C 
BRANCH   2   3
ATOM      3  C   UNL     1      16.220  23.313   2.174  1.00  0.00     0.000 C 
BRANCH   3   4
ATOM      4  C   UNL     1      15.504  22.356   1.210  1.00  0.00     0.000 C 
BRANCH   4   5
ATOM      5  C   UNL     1      15.092  23.079  -0.078  1.00  0.00     0.000 C 
BRANCH   5   6
ATOM      6  C   UNL     1      16.038  24.248  -0.379  1.00  0.00     0.006 C 
BRANCH   6   7
ATOM      7  C   UNL     1      17.074  23.859  -1.437  1.00  0.00     0.053 C 
BRANCH   7   8
ATOM      8  C   UNL     1      16.771  24.531  -2.739  1.00  0.00     0.041 C 
ATOM      9  O   UNL     1      15.628  25.010  -2.955  1.00  0.00    -0.550 OA
ATOM     10  O   UNL     1      17.739  24.583  -3.735  1.00  0.00    -0.550 OA
ENDBRANCH   7   8
ENDBRANCH   6   7
ENDBRANCH   5   6
ENDBRANCH   4   5
ENDBRANCH   3   4
ENDBRANCH   2   3
ENDBRANCH   1   2
BRANCH   1  11
ATOM     11  C   UNL     1      16.365  24.402   4.880  1.00  0.00    -0.031 C 
ATOM     12  C   UNL     1      16.296  24.974   6.094  1.00  0.00    -0.027 C 
BRANCH  12  13
ATOM     13  C   UNL     1      17.342  24.788   7.165  1.00  0.00     0.054 C 
BRANCH  13  14
ATOM     14  C   UNL     1      16.940  23.713   8.135  1.00  0.00    -0.027 C 
ATOM     15  C   UNL     1      17.136  22.415   7.863  1.00  0.00    -0.031 C 
BRANCH  15  16
ATOM     16  C   UNL     1      16.743  21.337   8.835  1.00  0.00     0.027 C 
BRANCH  16  17
ATOM     17  C   UNL     1      16.167  20.117   8.106  1.00  0.00     0.004 C 
BRANCH  17  18
ATOM     18  C   UNL     1      16.113  20.359   6.590  1.00  0.00     0.000 C 
BRANCH  18  19
ATOM     19  C   UNL     1      16.225  19.057   5.781  1.00  0.00    -0.003 C 
ATOM     20  C   UNL     1      15.811  17.824   6.583  1.00  0.00     0.004 C 
ENDBRANCH  18  19
ENDBRANCH  17  18
ENDBRANCH  16  17
ENDBRANCH  15  16
ENDBRANCH  13  14
ENDBRANCH  12  13
ENDBRANCH   1  11
TORSDOF 14
ENDMDL
MODEL 5
REMARK VINA RESULT:    -3.006      1.101      2.352
REMARK INTER + INTRA:          -6.976
REMARK INTER:                  -5.976
REMARK INTRA:                  -1.000
REMARK UNBOUND:                -1.510
REMARK SMILES CCCCCC=CCC=CCCCCCCCC(=O)[O-]
REMARK SMILES IDX 11 1 12 2 13 3 14 4 15 5 16 6 17 7 18 8 19 9 20 10 10 11
REMARK SMILES IDX 9 12 8 13 7 14 6 15 5 16 4 17 3 18 2 19 1 20
REMARK H PARENT
REMARK Flexibility Score: inf
ROOT
ATOM      1  C   UNL     1      16.200  24.337   3.935  1.00  0.00     0.027 C 
ENDROOT
BRANCH   1   2
ATOM      2  C   UNL     1      15.725  24.652   2.505  1.00  0.00     0.004 C 
BRANCH   2   3
ATOM      3  C   UNL     1      16.257  23.683   1.433  1.00  0.00     0.000 C 
BRANCH   3   4
ATOM      4  C   UNL     1      15.136  22.938   0.692  1.00  0.00     0.000 C 
BRANCH   4   5
ATOM      5  C   UNL     1      15.434  22.849  -0.809  1.00  0.00     0.000 C 
BRANCH   5   6
ATOM      6  C   UNL     1      15.463  24.242  -1.448  1.00  0.00     0.006 C 
BRANCH   6   7
ATOM      7  C   UNL     1      16.133  24.203  -2.824  1.00  0.00     0.053 C 
BRANCH   7   8
ATOM      8  C   UNL     1      17.558  24.647  -2.727  1.00  0.00     0.041 C 
ATOM      9  O   UNL     1      18.263  24.747  -3.765  1.00  0.00    -0.550 OA
ATOM     10  O   UNL     1      18.123  24.902  -1.484  1.00  0.00    -0.550 OA
ENDBRANCH   7   8
ENDBRANCH   6   7
ENDBRANCH   5   6
ENDBRANCH   4   5
ENDBRANCH   3   4
ENDBRANCH   2   3
ENDBRANCH   1   2
BRANCH   1  11
ATOM     11  C   UNL     1      17.620  23.826   3.970  1.00  0.00    -0.031 C 
ATOM     12  C   UNL     1      17.972  22.579   4.330  1.00  0.00    -0.027 C 
BRANCH  12  13
ATOM     13  C   UNL     1      16.978  21.506   4.699  1.00  0.00     0.054 C 
BRANCH  13  14
ATOM     14  C   UNL     1      16.389  21.758   6.059  1.00  0.00    -0.027 C 
ATOM     15  C   UNL     1      16.404  20.816   7.014  1.00  0.00    -0.031 C 
BRANCH  15  16
ATOM     16  C   UNL     1      15.824  21.067   8.378  1.00  0.00     0.027 C 
BRANCH  16  17
ATOM     17  C   UNL     1      16.095  22.504   8.839  1.00  0.00     0.004 C 
BRANCH  17  18
ATOM     18  C   UNL     1      17.510  22.637   9.421  1.00  0.00     0.000 C 
BRANCH  18  19
ATOM     19  C   UNL     1      17.863  24.087   9.790  1.00  0.00    -0.003 C 
ATOM     20  C   UNL     1      18.295  24.916   8.581  1.00  0.00     0.004 C 
ENDBRANCH  18  19
ENDBRANCH  17  18
ENDBRANCH  16  17
ENDBRANCH  15  16
ENDBRANCH  13  14
ENDBRANCH  12  13
ENDBRANCH   1  11
TORSDOF 14
ENDMDL
MODEL 6
REMARK VINA RESULT:    -2.976      3.370      8.792
REMARK INTER + INTRA:          -6.922
REMARK INTER:                  -5.872
REMARK INTRA:                  -1.050
REMARK UNBOUND:                -1.510
REMARK SMILES CCCCCC=CCC=CCCCCCCCC(=O)[O-]
REMARK SMILES IDX 11 1 12 2 13 3 14 4 15 5 16 6 17 7 18 8 19 9 20 10 10 11
REMARK SMILES IDX 9 12 8 13 7 14 6 15 5 16 4 17 3 18 2 19 1 20
REMARK H PARENT
REMARK Flexibility Score: inf
ROOT
ATOM      1  C   UNL     1      15.958  19.018   5.397  1.00  0.00     0.027 C 
ENDROOT
BRANCH   1   2
ATOM      2  C   UNL     1      15.954  19.051   6.936  1.00  0.00     0.004 C 
BRANCH   2   3
ATOM      3  C   UNL     1      15.853  20.464   7.540  1.00  0.00     0.000 C 
BRANCH   3   4
ATOM      4  C   UNL     1      16.725  20.642   8.792  1.00  0.00     0.000 C 
BRANCH   4   5
ATOM      5  C   UNL     1      17.615  21.884   8.669  1.00  0.00     0.000 C 
BRANCH   5   6
ATOM      6  C   UNL     1      17.307  22.895   9.780  1.00  0.00     0.006 C 
BRANCH   6   7
ATOM      7  C   UNL     1      17.393  24.331   9.256  1.00  0.00     0.053 C 
BRANCH   7   8
ATOM      8  C   UNL     1      16.649  24.464   7.965  1.00  0.00     0.041 C 
ATOM      9  O   UNL     1      17.256  24.806   6.916  1.00  0.00    -0.550 OA
ATOM     10  O   UNL     1      15.275  24.261   7.930  1.00  0.00    -0.550 OA
ENDBRANCH   7   8
ENDBRANCH   6   7
ENDBRANCH   5   6
ENDBRANCH   4   5
ENDBRANCH   3   4
ENDBRANCH   2   3
ENDBRANCH   1   2
BRANCH   1  11
ATOM     11  C   UNL     1      16.652  20.218   4.798  1.00  0.00    -0.031 C 
ATOM     12  C   UNL     1      16.559  20.586   3.508  1.00  0.00    -0.027 C 
BRANCH  12  13
ATOM     13  C   UNL     1      15.698  19.870   2.497  1.00  0.00     0.054 C 
BRANCH  13  14
ATOM     14  C   UNL     1      15.204  20.817   1.439  1.00  0.00    -0.027 C 
ATOM     15  C   UNL     1      15.479  22.128   1.490  1.00  0.00    -0.031 C 
BRANCH  15  16
ATOM     16  C   UNL     1      14.995  23.077   0.429  1.00  0.00     0.027 C 
BRANCH  16  17
ATOM     17  C   UNL     1      15.955  24.261   0.264  1.00  0.00     0.004 C 
BRANCH  17  18
ATOM     18  C   UNL     1      15.941  24.783  -1.180  1.00  0.00     0.000 C 
BRANCH  18  19
ATOM     19  C   UNL     1      16.152  23.664  -2.213  1.00  0.00    -0.003 C 
ATOM     20  C   UNL     1      15.533  23.990  -3.572  1.00  0.00     0.004 C 
ENDBRANCH  18  19
ENDBRANCH  17  18
ENDBRANCH  16  17
ENDBRANCH  15  16
ENDBRANCH  13  14
ENDBRANCH  12  13
ENDBRANCH   1  11
TORSDOF 14
ENDMDL
MODEL 7
REMARK VINA RESULT:    -2.976      3.405      8.925
REMARK INTER + INTRA:          -6.922
REMARK INTER:                  -5.927
REMARK INTRA:                  -0.995
REMARK UNBOUND:                -1.510
REMARK SMILES CCCCCC=CCC=CCCCCCCCC(=O)[O-]
REMARK SMILES IDX 11 1 12 2 13 3 14 4 15 5 16 6 17 7 18 8 19 9 20 10 10 11
REMARK SMILES IDX 9 12 8 13 7 14 6 15 5 16 4 17 3 18 2 19 1 20
REMARK H PARENT
REMARK Flexibility Score: inf
ROOT
ATOM      1  C   UNL     1      17.264  24.788   4.992  1.00  0.00     0.027 C 
ENDROOT
BRANCH   1   2
ATOM      2  C   UNL     1      16.465  24.269   6.200  1.00  0.00     0.004 C 
BRANCH   2   3
ATOM      3  C   UNL     1      16.429  22.735   6.327  1.00  0.00     0.000 C 
BRANCH   3   4
ATOM      4  C   UNL     1      16.865  22.239   7.714  1.00  0.00     0.000 C 
BRANCH   4   5
ATOM      5  C   UNL     1      15.649  21.857   8.567  1.00  0.00     0.000 C 
BRANCH   5   6
ATOM      6  C   UNL     1      15.062  20.514   8.117  1.00  0.00     0.006 C 
BRANCH   6   7
ATOM      7  C   UNL     1      16.169  19.493   7.842  1.00  0.00     0.053 C 
BRANCH   7   8
ATOM      8  C   UNL     1      15.912  18.775   6.555  1.00  0.00     0.041 C 
ATOM      9  O   UNL     1      15.573  17.563   6.562  1.00  0.00    -0.550 OA
ATOM     10  O   UNL     1      16.096  19.431   5.344  1.00  0.00    -0.550 OA
ENDBRANCH   7   8
ENDBRANCH   6   7
ENDBRANCH   5   6
ENDBRANCH   4   5
ENDBRANCH   3   4
ENDBRANCH   2   3
ENDBRANCH   1   2
BRANCH   1  11
ATOM     11  C   UNL     1      17.572  23.696   3.994  1.00  0.00    -0.031 C 
ATOM     12  C   UNL     1      16.828  23.426   2.907  1.00  0.00    -0.027 C 
BRANCH  12  13
ATOM     13  C   UNL     1      15.609  24.222   2.513  1.00  0.00     0.054 C 
BRANCH  13  14
ATOM     14  C   UNL     1      15.787  24.851   1.160  1.00  0.00    -0.027 C 
ATOM     15  C   UNL     1      16.794  24.494   0.348  1.00  0.00    -0.031 C 
BRANCH  15  16
ATOM     16  C   UNL     1      16.970  25.115  -1.009  1.00  0.00     0.027 C 
BRANCH  16  17
ATOM     17  C   UNL     1      17.514  24.096  -2.018  1.00  0.00     0.004 C 
BRANCH  17  18
ATOM     18  C   UNL     1      17.884  24.778  -3.343  1.00  0.00     0.000 C 
BRANCH  18  19
ATOM     19  C   UNL     1      16.651  25.123  -4.193  1.00  0.00    -0.003 C 
ATOM     20  C   UNL     1      15.583  24.031  -4.157  1.00  0.00     0.004 C 
ENDBRANCH  18  19
ENDBRANCH  17  18
ENDBRANCH  16  17
ENDBRANCH  15  16
ENDBRANCH  13  14
ENDBRANCH  12  13
ENDBRANCH   1  11
TORSDOF 14
ENDMDL
MODEL 8
REMARK VINA RESULT:    -2.949      1.493      3.447
REMARK INTER + INTRA:          -6.872
REMARK INTER:                  -5.119
REMARK INTRA:                  -1.753
REMARK UNBOUND:                -1.510
REMARK SMILES CCCCCC=CCC=CCCCCCCCC(=O)[O-]
REMARK SMILES IDX 11 1 12 2 13 3 14 4 15 5 16 6 17 7 18 8 19 9 20 10 10 11
REMARK SMILES IDX 9 12 8 13 7 14 6 15 5 16 4 17 3 18 2 19 1 20
REMARK H PARENT
REMARK Flexibility Score: inf
ROOT
ATOM      1  C   UNL     1      17.625  21.954   3.783  1.00  0.00     0.027 C 
ENDROOT
BRANCH   1   2
ATOM      2  C   UNL     1      17.138  23.186   4.566  1.00  0.00     0.004 C 
BRANCH   2   3
ATOM      3  C   UNL     1      17.760  24.517   4.106  1.00  0.00     0.000 C 
BRANCH   3   4
ATOM      4  C   UNL     1      17.428  24.858   2.645  1.00  0.00     0.000 C 
BRANCH   4   5
ATOM      5  C   UNL     1      15.912  24.930   2.429  1.00  0.00     0.000 C 
BRANCH   5   6
ATOM      6  C   UNL     1      15.567  24.899   0.936  1.00  0.00     0.006 C 
BRANCH   6   7
ATOM      7  C   UNL     1      16.139  23.648   0.265  1.00  0.00     0.053 C 
BRANCH   7   8
ATOM      8  C   UNL     1      16.854  24.011  -0.998  1.00  0.00     0.041 C 
ATOM      9  O   UNL     1      17.868  24.756  -0.961  1.00  0.00    -0.550 OA
ATOM     10  O   UNL     1      16.370  23.569  -2.223  1.00  0.00    -0.550 OA
ENDBRANCH   7   8
ENDBRANCH   6   7
ENDBRANCH   5   6
ENDBRANCH   4   5
ENDBRANCH   3   4
ENDBRANCH   2   3
ENDBRANCH   1   2
BRANCH   1  11
ATOM     11  C   UNL     1      16.493  21.218   3.106  1.00  0.00    -0.031 C 
ATOM     12  C   UNL     1      16.108  19.967   3.411  1.00  0.00    -0.027 C 
BRANCH  12  13
ATOM     13  C   UNL     1      16.729  19.149   4.516  1.00  0.00     0.054 C 
BRANCH  13  14
ATOM     14  C   UNL     1      15.921  19.245   5.780  1.00  0.00    -0.027 C 
ATOM     15  C   UNL     1      16.139  20.217   6.678  1.00  0.00    -0.031 C 
BRANCH  15  16
ATOM     16  C   UNL     1      15.327  20.321   7.939  1.00  0.00     0.027 C 
BRANCH  16  17
ATOM     17  C   UNL     1      15.423  21.727   8.545  1.00  0.00     0.004 C 
BRANCH  17  18
ATOM     18  C   UNL     1      16.836  22.304   8.370  1.00  0.00     0.000 C 
BRANCH  18  19
ATOM     19  C   UNL     1      17.300  23.109   9.595  1.00  0.00    -0.003 C 
ATOM     20  C   UNL     1      18.270  24.233   9.232  1.00  0.00     0.004 C 
ENDBRANCH  18  19
ENDBRANCH  17  18
ENDBRANCH  16  17
ENDBRANCH  15  16
ENDBRANCH  13  14
ENDBRANCH  12  13
ENDBRANCH   1  11
TORSDOF 14
ENDMDL
MODEL 9
REMARK VINA RESULT:    -2.850      1.150      3.082
REMARK INTER + INTRA:          -6.692
REMARK INTER:                  -5.758
REMARK INTRA:                  -0.934
REMARK UNBOUND:                -1.510
REMARK SMILES CCCCCC=CCC=CCCCCCCCC(=O)[O-]
REMARK SMILES IDX 11 1 12 2 13 3 14 4 15 5 16 6 17 7 18 8 19 9 20 10 10 11
REMARK SMILES IDX 9 12 8 13 7 14 6 15 5 16 4 17 3 18 2 19 1 20
REMARK H PARENT
REMARK Flexibility Score: inf
ROOT
ATOM      1  C   UNL     1      16.665  21.752   5.571  1.00  0.00     0.027 C 
ENDROOT
BRANCH   1   2
ATOM      2  C   UNL     1      17.465  22.236   4.349  1.00  0.00     0.004 C 
BRANCH   2   3
ATOM      3  C   UNL     1      16.745  22.044   3.002  1.00  0.00     0.000 C 
BRANCH   3   4
ATOM      4  C   UNL     1      16.630  23.345   2.194  1.00  0.00     0.000 C 
BRANCH   4   5
ATOM      5  C   UNL     1      15.785  23.136   0.932  1.00  0.00     0.000 C 
BRANCH   5   6
ATOM      6  C   UNL     1      15.740  24.410   0.081  1.00  0.00     0.006 C 
BRANCH   6   7
ATOM      7  C   UNL     1      17.066  24.631  -0.651  1.00  0.00     0.053 C 
BRANCH   7   8
ATOM      8  C   UNL     1      16.946  24.227  -2.086  1.00  0.00     0.041 C 
ATOM      9  O   UNL     1      17.912  24.397  -2.876  1.00  0.00    -0.550 OA
ATOM     10  O   UNL     1      15.748  23.712  -2.565  1.00  0.00    -0.550 OA
ENDBRANCH   7   8
ENDBRANCH   6   7
ENDBRANCH   5   6
ENDBRANCH   4   5
ENDBRANCH   3   4
ENDBRANCH   2   3
ENDBRANCH   1   2
BRANCH   1  11
ATOM     11  C   UNL     1      16.502  20.251   5.594  1.00  0.00    -0.031 C 
ATOM     12  C   UNL     1      15.994  19.556   6.627  1.00  0.00    -0.027 C 
BRANCH  12  13
ATOM     13  C   UNL     1      15.469  20.199   7.887  1.00  0.00     0.054 C 
BRANCH  13  14
ATOM     14  C   UNL     1      16.582  20.828   8.678  1.00  0.00    -0.027 C 
ATOM     15  C   UNL     1      16.617  22.148   8.910  1.00  0.00    -0.031 C 
BRANCH  15  16
ATOM     16  C   UNL     1      17.723  22.780   9.709  1.00  0.00     0.027 C 
BRANCH  16  17
ATOM     17  C   UNL     1      18.055  24.182   9.184  1.00  0.00     0.004 C 
BRANCH  17  18
ATOM     18  C   UNL     1      16.840  24.805   8.480  1.00  0.00     0.000 C 
BRANCH  18  19
ATOM     19  C   UNL     1      17.115  25.125   7.002  1.00  0.00    -0.003 C 
ATOM     20  C   UNL     1      15.845  25.122   6.150  1.00  0.00     0.004 C 
ENDBRANCH  18  19
ENDBRANCH  17  18
ENDBRANCH  16  17
ENDBRANCH  15  16
ENDBRANCH  13  14
ENDBRANCH  12  13
ENDBRANCH   1  11
TORSDOF 14
ENDMDL
