MODEL 1
REMARK VINA RESULT:    -3.449      0.000      0.000
REMARK INTER + INTRA:          -4.646
REMARK INTER:                  -5.063
REMARK INTRA:                   0.417
REMARK UNBOUND:                 0.417
REMARK SMILES C=C1CC=CC(C)(C)CC=C(C)CCC1
REMARK SMILES IDX 2 1 1 2 15 3 14 4 13 5 11 6 12 7 10 8 3 10 4 11 5 12 6 13
REMARK SMILES IDX 7 14 8 15 9 16
REMARK H PARENT
REMARK Flexibility Score: 60.00
ROOT
ATOM      1  C   UNL     1      20.473  63.717  14.560  1.00  0.00    -0.074 C 
ATOM      2  C   UNL     1      19.499  63.008  13.967  1.00  0.00     0.008 C 
ENDROOT
BRANCH   1   3
ATOM      3  C   UNL     1      21.844  63.821  13.922  1.00  0.00     0.031 C 
BRANCH   3   4
ATOM      4  C   UNL     1      22.721  62.591  14.252  1.00  0.00     0.009 C 
BRANCH   4   5
ATOM      5  C   UNL     1      24.014  62.929  15.019  1.00  0.00     0.030 C 
BRANCH   5   6
ATOM      6  C   UNL     1      24.154  62.205  16.350  1.00  0.00    -0.077 C 
ATOM      7  C   UNL     1      24.871  60.877  16.380  1.00  0.00     0.039 C 
ATOM      8  C   UNL     1      23.703  62.696  17.528  1.00  0.00    -0.027 CG0
ATOM      9  G   UNL     1      23.055  64.048  17.741  1.00  0.00     0.000 G0
ENDBRANCH   5   6
ENDBRANCH   4   5
ENDBRANCH   3   4
ENDBRANCH   1   3
BRANCH   1  10
ATOM     10  C   UNL     1      20.201  64.419  15.873  1.00  0.00     0.057 C 
BRANCH  10  11
ATOM     11  C   UNL     1      19.963  63.404  16.961  1.00  0.00    -0.026 C 
ATOM     12  C   UNL     1      20.615  63.270  18.138  1.00  0.00    -0.024 C 
BRANCH  12  13
ATOM     13  C   UNL     1      21.800  64.069  18.706  1.00  0.00    -0.014 C 
ATOM     14  C   UNL     1      21.331  65.545  18.791  1.00  0.00     0.016 C 
ATOM     15  C   UNL     1      22.113  63.634  20.159  1.00  0.00     0.016 C 
BRANCH  13  16
ATOM     16  C   UNL     1      23.042  64.045  17.743  1.00  0.00     0.038 CG0
ATOM     17  G   UNL     1      23.692  62.693  17.534  1.00  0.00     0.000 G0
ENDBRANCH  13  16
ENDBRANCH  12  13
ENDBRANCH  10  11
ENDBRANCH   1  10
TORSDOF 0
ENDMDL
MODEL 2
REMARK VINA RESULT:    -3.171      1.405      3.515
REMARK INTER + INTRA:          -4.237
REMARK INTER:                  -4.836
REMARK INTRA:                   0.599
REMARK UNBOUND:                 0.417
REMARK SMILES C=C1CC=CC(C)(C)CC=C(C)CCC1
REMARK SMILES IDX 2 1 1 2 15 3 14 4 13 5 11 6 12 7 10 8 3 10 4 11 5 12 6 13
REMARK SMILES IDX 7 14 8 15 9 16
REMARK H PARENT
REMARK Flexibility Score: 60.00
ROOT
ATOM      1  C   UNL     1      24.436  62.209  15.819  1.00  0.00    -0.074 C 
ATOM      2  C   UNL     1      24.859  60.951  15.617  1.00  0.00     0.008 C 
ENDROOT
BRANCH   1   3
ATOM      3  C   UNL     1      24.173  63.127  14.643  1.00  0.00     0.031 C 
BRANCH   3   4
ATOM      4  C   UNL     1      22.853  62.767  13.921  1.00  0.00     0.009 C 
BRANCH   4   5
ATOM      5  C   UNL     1      21.822  63.912  13.890  1.00  0.00     0.030 C 
BRANCH   5   6
ATOM      6  C   UNL     1      20.544  63.619  14.663  1.00  0.00    -0.077 C 
ATOM      7  C   UNL     1      19.574  62.609  14.099  1.00  0.00     0.039 C 
ATOM      8  C   UNL     1      20.233  64.185  15.852  1.00  0.00    -0.027 CG0
ATOM      9  G   UNL     1      21.108  65.135  16.642  1.00  0.00     0.000 G0
ENDBRANCH   5   6
ENDBRANCH   4   5
ENDBRANCH   3   4
ENDBRANCH   1   3
BRANCH   1  10
ATOM     10  C   UNL     1      24.216  62.713  17.229  1.00  0.00     0.057 C 
BRANCH  10  11
ATOM     11  C   UNL     1      22.851  62.300  17.717  1.00  0.00    -0.026 C 
ATOM     12  C   UNL     1      21.798  63.090  18.026  1.00  0.00    -0.024 C 
BRANCH  12  13
ATOM     13  C   UNL     1      21.678  64.623  18.011  1.00  0.00    -0.014 C 
ATOM     14  C   UNL     1      20.649  64.991  19.111  1.00  0.00     0.016 C 
ATOM     15  C   UNL     1      23.013  65.285  18.435  1.00  0.00     0.016 C 
BRANCH  13  16
ATOM     16  C   UNL     1      21.096  65.155  16.652  1.00  0.00     0.038 CG0
ATOM     17  G   UNL     1      20.244  64.180  15.868  1.00  0.00     0.000 G0
ENDBRANCH  13  16
ENDBRANCH  12  13
ENDBRANCH  10  11
ENDBRANCH   1  10
TORSDOF 0
ENDMDL
MODEL 3
REMARK VINA RESULT:    -3.161      1.369      1.866
REMARK INTER + INTRA:          -4.222
REMARK INTER:                  -4.480
REMARK INTRA:                   0.258
REMARK UNBOUND:                 0.417
REMARK SMILES C=C1CC=CC(C)(C)CC=C(C)CCC1
REMARK SMILES IDX 2 1 1 2 15 3 14 4 13 5 11 6 12 7 10 8 3 10 4 11 5 12 6 13
REMARK SMILES IDX 7 14 8 15 9 16
REMARK H PARENT
REMARK Flexibility Score: 60.00
ROOT
ATOM      1  C   UNL     1      19.256  64.210  15.734  1.00  0.00    -0.074 C 
ATOM      2  C   UNL     1      18.372  64.961  15.058  1.00  0.00     0.008 C 
ENDROOT
BRANCH   1   3
ATOM      3  C   UNL     1      19.863  62.978  15.093  1.00  0.00     0.031 C 
BRANCH   3   4
ATOM      4  C   UNL     1      20.682  63.337  13.831  1.00  0.00     0.009 C 
BRANCH   4   5
ATOM      5  C   UNL     1      21.930  64.194  14.115  1.00  0.00     0.030 C 
BRANCH   5   6
ATOM      6  C   UNL     1      23.081  63.425  14.749  1.00  0.00    -0.077 C 
ATOM      7  C   UNL     1      23.828  62.418  13.908  1.00  0.00     0.039 C 
ATOM      8  C   UNL     1      23.505  63.613  16.021  1.00  0.00    -0.027 CG0
ATOM      9  G   UNL     1      22.971  64.641  16.996  1.00  0.00     0.000 G0
ENDBRANCH   5   6
ENDBRANCH   4   5
ENDBRANCH   3   4
ENDBRANCH   1   3
BRANCH   1  10
ATOM     10  C   UNL     1      19.652  64.595  17.143  1.00  0.00     0.057 C 
BRANCH  10  11
ATOM     11  C   UNL     1      20.169  63.388  17.881  1.00  0.00    -0.026 C 
ATOM     12  C   UNL     1      21.391  63.203  18.430  1.00  0.00    -0.024 C 
BRANCH  12  13
ATOM     13  C   UNL     1      22.619  64.129  18.439  1.00  0.00    -0.014 C 
ATOM     14  C   UNL     1      22.225  65.368  19.285  1.00  0.00     0.016 C 
ATOM     15  C   UNL     1      23.806  63.465  19.179  1.00  0.00     0.016 C 
BRANCH  13  16
ATOM     16  C   UNL     1      22.969  64.658  17.000  1.00  0.00     0.038 CG0
ATOM     17  G   UNL     1      23.506  63.628  16.029  1.00  0.00     0.000 G0
ENDBRANCH  13  16
ENDBRANCH  12  13
ENDBRANCH  10  11
ENDBRANCH   1  10
TORSDOF 0
ENDMDL
MODEL 4
REMARK VINA RESULT:    -3.020      1.383      4.509
REMARK INTER + INTRA:          -4.016
REMARK INTER:                  -4.266
REMARK INTRA:                   0.251
REMARK UNBOUND:                 0.417
REMARK SMILES C=C1CC=CC(C)(C)CC=C(C)CCC1
REMARK SMILES IDX 2 1 1 2 15 3 14 4 13 5 11 6 12 7 10 8 3 10 4 11 5 12 6 13
REMARK SMILES IDX 7 14 8 15 9 16
REMARK H PARENT
REMARK Flexibility Score: 60.00
ROOT
ATOM      1  C   UNL     1      21.244  64.256  18.729  1.00  0.00    -0.074 C 
ATOM      2  C   UNL     1      20.854  65.208  19.591  1.00  0.00     0.008 C 
ENDROOT
BRANCH   1   3
ATOM      3  C   UNL     1      20.248  63.240  18.206  1.00  0.00     0.031 C 
BRANCH   3   4
ATOM      4  C   UNL     1      19.215  63.890  17.257  1.00  0.00     0.009 C 
BRANCH   4   5
ATOM      5  C   UNL     1      19.836  64.563  16.017  1.00  0.00     0.030 C 
BRANCH   5   6
ATOM      6  C   UNL     1      20.201  63.594  14.902  1.00  0.00    -0.077 C 
ATOM      7  C   UNL     1      19.090  62.884  14.167  1.00  0.00     0.039 C 
ATOM      8  C   UNL     1      21.471  63.350  14.499  1.00  0.00    -0.027 CG0
ATOM      9  G   UNL     1      22.718  64.029  15.022  1.00  0.00     0.000 G0
ENDBRANCH   5   6
ENDBRANCH   4   5
ENDBRANCH   3   4
ENDBRANCH   1   3
BRANCH   1  10
ATOM     10  C   UNL     1      22.686  64.197  18.272  1.00  0.00     0.057 C 
BRANCH  10  11
ATOM     11  C   UNL     1      23.057  62.779  17.921  1.00  0.00    -0.026 C 
ATOM     12  C   UNL     1      23.573  62.312  16.761  1.00  0.00    -0.024 C 
BRANCH  12  13
ATOM     13  C   UNL     1      23.898  63.058  15.456  1.00  0.00    -0.014 C 
ATOM     14  C   UNL     1      25.121  63.961  15.761  1.00  0.00     0.016 C 
ATOM     15  C   UNL     1      24.359  62.069  14.356  1.00  0.00     0.016 C 
BRANCH  13  16
ATOM     16  C   UNL     1      22.730  64.013  15.016  1.00  0.00     0.038 CG0
ATOM     17  G   UNL     1      21.476  63.335  14.507  1.00  0.00     0.000 G0
ENDBRANCH  13  16
ENDBRANCH  12  13
ENDBRANCH  10  11
ENDBRANCH   1  10
TORSDOF 0
ENDMDL
MODEL 5
REMARK VINA RESULT:    -3.010      1.838      4.014
REMARK INTER + INTRA:          -4.001
REMARK INTER:                  -4.254
REMARK INTRA:                   0.252
REMARK UNBOUND:                 0.417
REMARK SMILES C=C1CC=CC(C)(C)CC=C(C)CCC1
REMARK SMILES IDX 2 1 1 2 15 3 14 4 13 5 11 6 12 7 10 8 3 10 4 11 5 12 6 13
REMARK SMILES IDX 7 14 8 15 9 16
REMARK H PARENT
REMARK Flexibility Score: 60.00
ROOT
ATOM      1  C   UNL     1      23.858  62.935  17.797  1.00  0.00    -0.074 C 
ATOM      2  C   UNL     1      24.633  63.143  18.873  1.00  0.00     0.008 C 
ENDROOT
BRANCH   1   3
ATOM      3  C   UNL     1      23.933  61.624  17.039  1.00  0.00     0.031 C 
BRANCH   3   4
ATOM      4  C   UNL     1      24.688  61.782  15.699  1.00  0.00     0.009 C 
BRANCH   4   5
ATOM      5  C   UNL     1      23.773  61.787  14.459  1.00  0.00     0.030 C 
BRANCH   5   6
ATOM      6  C   UNL     1      23.579  63.162  13.835  1.00  0.00    -0.077 C 
ATOM      7  C   UNL     1      24.762  63.834  13.183  1.00  0.00     0.039 C 
ATOM      8  C   UNL     1      22.392  63.813  13.796  1.00  0.00    -0.027 CG0
ATOM      9  G   UNL     1      21.065  63.279  14.291  1.00  0.00     0.000 G0
ENDBRANCH   5   6
ENDBRANCH   4   5
ENDBRANCH   3   4
ENDBRANCH   1   3
BRANCH   1  10
ATOM     10  C   UNL     1      22.902  64.014  17.337  1.00  0.00     0.057 C 
BRANCH  10  11
ATOM     11  C   UNL     1      21.480  63.591  17.606  1.00  0.00    -0.026 C 
ATOM     12  C   UNL     1      20.415  63.659  16.775  1.00  0.00    -0.024 C 
BRANCH  12  13
ATOM     13  C   UNL     1      20.316  64.211  15.344  1.00  0.00    -0.014 C 
ATOM     14  C   UNL     1      18.813  64.173  14.964  1.00  0.00     0.016 C 
ATOM     15  C   UNL     1      20.731  65.703  15.297  1.00  0.00     0.016 C 
BRANCH  13  16
ATOM     16  C   UNL     1      21.067  63.300  14.306  1.00  0.00     0.038 CG0
ATOM     17  G   UNL     1      22.392  63.827  13.798  1.00  0.00     0.000 G0
ENDBRANCH  13  16
ENDBRANCH  12  13
ENDBRANCH  10  11
ENDBRANCH   1  10
TORSDOF 0
ENDMDL
MODEL 6
REMARK VINA RESULT:    -2.970      2.271      4.234
REMARK INTER + INTRA:          -3.942
REMARK INTER:                  -4.226
REMARK INTRA:                   0.285
REMARK UNBOUND:                 0.417
REMARK SMILES C=C1CC=CC(C)(C)CC=C(C)CCC1
REMARK SMILES IDX 2 1 1 2 15 3 14 4 13 5 11 6 12 7 10 8 3 10 4 11 5 12 6 13
REMARK SMILES IDX 7 14 8 15 9 16
REMARK H PARENT
REMARK Flexibility Score: 60.00
ROOT
ATOM      1  C   UNL     1      20.957  63.223  15.070  1.00  0.00    -0.074 C 
ATOM      2  C   UNL     1      21.492  63.265  13.840  1.00  0.00     0.008 C 
ENDROOT
BRANCH   1   3
ATOM      3  C   UNL     1      19.460  63.059  15.249  1.00  0.00     0.031 C 
BRANCH   3   4
ATOM      4  C   UNL     1      18.679  64.246  14.641  1.00  0.00     0.009 C 
BRANCH   4   5
ATOM      5  C   UNL     1      18.789  65.552  15.451  1.00  0.00     0.030 C 
BRANCH   5   6
ATOM      6  C   UNL     1      18.139  65.487  16.826  1.00  0.00    -0.077 C 
ATOM      7  C   UNL     1      16.688  65.082  16.921  1.00  0.00     0.039 C 
ATOM      8  C   UNL     1      18.794  65.738  17.984  1.00  0.00    -0.027 CG0
ATOM      9  G   UNL     1      20.267  66.053  18.124  1.00  0.00     0.000 G0
ENDBRANCH   5   6
ENDBRANCH   4   5
ENDBRANCH   3   4
ENDBRANCH   1   3
BRANCH   1  10
ATOM     10  C   UNL     1      21.850  63.338  16.286  1.00  0.00     0.057 C 
BRANCH  10  11
ATOM     11  C   UNL     1      21.114  62.865  17.513  1.00  0.00    -0.026 C 
ATOM     12  C   UNL     1      20.799  63.570  18.624  1.00  0.00    -0.024 C 
BRANCH  12  13
ATOM     13  C   UNL     1      21.120  65.028  18.990  1.00  0.00    -0.014 C 
ATOM     14  C   UNL     1      20.678  65.217  20.464  1.00  0.00     0.016 C 
ATOM     15  C   UNL     1      22.649  65.280  18.966  1.00  0.00     0.016 C 
BRANCH  13  16
ATOM     16  C   UNL     1      20.285  66.048  18.134  1.00  0.00     0.038 CG0
ATOM     17  G   UNL     1      18.809  65.743  17.993  1.00  0.00     0.000 G0
ENDBRANCH  13  16
ENDBRANCH  12  13
ENDBRANCH  10  11
ENDBRANCH   1  10
TORSDOF 0
ENDMDL
MODEL 7
REMARK VINA RESULT:    -2.953      1.421      3.975
REMARK INTER + INTRA:          -3.917
REMARK INTER:                  -4.552
REMARK INTRA:                   0.636
REMARK UNBOUND:                 0.417
REMARK SMILES C=C1CC=CC(C)(C)CC=C(C)CCC1
REMARK SMILES IDX 2 1 1 2 15 3 14 4 13 5 11 6 12 7 10 8 3 10 4 11 5 12 6 13
REMARK SMILES IDX 7 14 8 15 9 16
REMARK H PARENT
REMARK Flexibility Score: 60.00
ROOT
ATOM      1  C   UNL     1      23.772  62.333  14.752  1.00  0.00    -0.074 C 
ATOM      2  C   UNL     1      24.163  61.451  13.818  1.00  0.00     0.008 C 
ENDROOT
BRANCH   1   3
ATOM      3  C   UNL     1      24.344  62.268  16.154  1.00  0.00     0.031 C 
BRANCH   3   4
ATOM      4  C   UNL     1      23.234  62.355  17.227  1.00  0.00     0.009 C 
BRANCH   4   5
ATOM      5  C   UNL     1      23.091  63.748  17.871  1.00  0.00     0.030 C 
BRANCH   5   6
ATOM      6  C   UNL     1      21.684  64.067  18.356  1.00  0.00    -0.077 C 
ATOM      7  C   UNL     1      21.319  63.740  19.783  1.00  0.00     0.039 C 
ATOM      8  C   UNL     1      20.738  64.663  17.591  1.00  0.00    -0.027 CG0
ATOM      9  G   UNL     1      20.924  65.168  16.176  1.00  0.00     0.000 G0
ENDBRANCH   5   6
ENDBRANCH   4   5
ENDBRANCH   3   4
ENDBRANCH   1   3
BRANCH   1  10
ATOM     10  C   UNL     1      22.757  63.400  14.404  1.00  0.00     0.057 C 
BRANCH  10  11
ATOM     11  C   UNL     1      21.392  62.781  14.246  1.00  0.00    -0.026 C 
ATOM     12  C   UNL     1      20.188  63.328  14.526  1.00  0.00    -0.024 C 
BRANCH  12  13
ATOM     13  C   UNL     1      19.844  64.706  15.115  1.00  0.00    -0.014 C 
ATOM     14  C   UNL     1      19.901  65.712  13.936  1.00  0.00     0.016 C 
ATOM     15  C   UNL     1      18.384  64.736  15.633  1.00  0.00     0.016 C 
BRANCH  13  16
ATOM     16  C   UNL     1      20.912  65.181  16.166  1.00  0.00     0.038 CG0
ATOM     17  G   UNL     1      20.726  64.666  17.578  1.00  0.00     0.000 G0
ENDBRANCH  13  16
ENDBRANCH  12  13
ENDBRANCH  10  11
ENDBRANCH   1  10
TORSDOF 0
ENDMDL
MODEL 8
REMARK VINA RESULT:    -2.787      1.456      3.923
REMARK INTER + INTRA:          -3.674
REMARK INTER:                  -4.076
REMARK INTRA:                   0.402
REMARK UNBOUND:                 0.417
REMARK SMILES C=C1CC=CC(C)(C)CC=C(C)CCC1
REMARK SMILES IDX 2 1 1 2 15 3 14 4 13 5 11 6 12 7 10 8 3 10 4 11 5 12 6 13
REMARK SMILES IDX 7 14 8 15 9 16
REMARK H PARENT
REMARK Flexibility Score: 60.00
ROOT
ATOM      1  C   UNL     1      19.217  64.490  16.840  1.00  0.00    -0.074 C 
ATOM      2  C   UNL     1      18.363  65.331  17.445  1.00  0.00     0.008 C 
ENDROOT
BRANCH   1   3
ATOM      3  C   UNL     1      20.024  63.499  17.656  1.00  0.00     0.031 C 
BRANCH   3   4
ATOM      4  C   UNL     1      20.782  64.195  18.810  1.00  0.00     0.009 C 
BRANCH   4   5
ATOM      5  C   UNL     1      22.039  64.966  18.362  1.00  0.00     0.030 C 
BRANCH   5   6
ATOM      6  C   UNL     1      23.125  64.087  17.757  1.00  0.00    -0.077 C 
ATOM      7  C   UNL     1      23.857  63.121  18.656  1.00  0.00     0.039 C 
ATOM      8  C   UNL     1      23.456  64.092  16.445  1.00  0.00    -0.027 CG0
ATOM      9  G   UNL     1      22.780  64.898  15.357  1.00  0.00     0.000 G0
ENDBRANCH   5   6
ENDBRANCH   4   5
ENDBRANCH   3   4
ENDBRANCH   1   3
BRANCH   1  10
ATOM     10  C   UNL     1      19.374  64.527  15.336  1.00  0.00     0.057 C 
BRANCH  10  11
ATOM     11  C   UNL     1      20.024  63.256  14.853  1.00  0.00    -0.026 C 
ATOM     12  C   UNL     1      21.263  63.093  14.338  1.00  0.00    -0.024 C 
BRANCH  12  13
ATOM     13  C   UNL     1      22.358  64.135  14.055  1.00  0.00    -0.014 C 
ATOM     14  C   UNL     1      23.602  63.343  13.573  1.00  0.00     0.016 C 
ATOM     15  C   UNL     1      21.953  65.054  12.875  1.00  0.00     0.016 C 
BRANCH  13  16
ATOM     16  C   UNL     1      22.789  64.906  15.355  1.00  0.00     0.038 CG0
ATOM     17  G   UNL     1      23.437  64.069  16.437  1.00  0.00     0.000 G0
ENDBRANCH  13  16
ENDBRANCH  12  13
ENDBRANCH  10  11
ENDBRANCH   1  10
TORSDOF 0
ENDMDL
MODEL 9
REMARK VINA RESULT:    -2.781      1.997      5.332
REMARK INTER + INTRA:          -3.664
REMARK INTER:                  -4.743
REMARK INTRA:                   1.078
REMARK UNBOUND:                 0.417
REMARK SMILES C=C1CC=CC(C)(C)CC=C(C)CCC1
REMARK SMILES IDX 2 1 1 2 15 3 14 4 13 5 11 6 12 7 10 8 3 10 4 11 5 12 6 13
REMARK SMILES IDX 7 14 8 15 9 16
REMARK H PARENT
REMARK Flexibility Score: 60.00
ROOT
ATOM      1  C   UNL     1      22.789  63.253  17.663  1.00  0.00    -0.074 C 
ATOM      2  C   UNL     1      23.664  62.252  17.846  1.00  0.00     0.008 C 
ENDROOT
BRANCH   1   3
ATOM      3  C   UNL     1      21.713  63.528  18.695  1.00  0.00     0.031 C 
BRANCH   3   4
ATOM      4  C   UNL     1      20.307  63.581  18.052  1.00  0.00     0.009 C 
BRANCH   4   5
ATOM      5  C   UNL     1      19.668  64.984  18.053  1.00  0.00     0.030 C 
BRANCH   5   6
ATOM      6  C   UNL     1      18.715  65.233  16.892  1.00  0.00    -0.077 C 
ATOM      7  C   UNL     1      17.272  65.551  17.198  1.00  0.00     0.039 C 
ATOM      8  C   UNL     1      19.090  65.222  15.592  1.00  0.00    -0.027 CG0
ATOM      9  G   UNL     1      20.498  65.033  15.071  1.00  0.00     0.000 G0
ENDBRANCH   5   6
ENDBRANCH   4   5
ENDBRANCH   3   4
ENDBRANCH   1   3
BRANCH   1  10
ATOM     10  C   UNL     1      22.876  64.114  16.422  1.00  0.00     0.057 C 
BRANCH  10  11
ATOM     11  C   UNL     1      22.927  63.244  15.193  1.00  0.00    -0.026 C 
ATOM     12  C   UNL     1      22.039  63.180  14.175  1.00  0.00    -0.024 C 
BRANCH  12  13
ATOM     13  C   UNL     1      20.712  63.931  13.976  1.00  0.00    -0.014 C 
ATOM     14  C   UNL     1      20.821  64.658  12.611  1.00  0.00     0.016 C 
ATOM     15  C   UNL     1      19.531  62.938  13.839  1.00  0.00     0.016 C 
BRANCH  13  16
ATOM     16  C   UNL     1      20.496  65.044  15.065  1.00  0.00     0.038 CG0
ATOM     17  G   UNL     1      19.078  65.212  15.568  1.00  0.00     0.000 G0
ENDBRANCH  13  16
ENDBRANCH  12  13
ENDBRANCH  10  11
ENDBRANCH   1  10
TORSDOF 0
ENDMDL
