MODEL 1
REMARK VINA RESULT:    -5.355      0.000      0.000
REMARK INTER + INTRA:          -5.761
REMARK INTER:                  -5.668
REMARK INTRA:                  -0.094
REMARK UNBOUND:                -0.094
REMARK SMILES C=C(C)[C@H]1CC=C(C)C(=O)C1
REMARK SMILES IDX 8 1 7 2 6 3 5 4 4 5 11 6 9 7 10 8 2 9 1 10 3 11
REMARK H PARENT
REMARK Flexibility Score: inf
ROOT
ATOM      1  C   UNL     1      25.477  53.889  10.120  1.00  0.00     0.048 C 
ATOM      2  C   UNL     1      26.614  54.768  10.562  1.00  0.00    -0.012 C 
ATOM      3  C   UNL     1      27.857  54.262  10.646  1.00  0.00    -0.019 C 
ATOM      4  C   UNL     1      29.028  55.092  11.100  1.00  0.00     0.036 C 
ATOM      5  C   UNL     1      28.862  56.564  10.676  1.00  0.00     0.025 C 
ATOM      6  C   UNL     1      27.520  57.119  11.187  1.00  0.00     0.089 C 
ATOM      7  C   UNL     1      26.386  56.218  10.783  1.00  0.00     0.158 C 
ATOM      8  O   UNL     1      25.227  56.702  10.668  1.00  0.00    -0.295 OA
ENDROOT
BRANCH   5   9
ATOM      9  C   UNL     1      30.036  57.418  11.136  1.00  0.00    -0.077 C 
ATOM     10  C   UNL     1      31.306  57.061  10.874  1.00  0.00     0.008 C 
ATOM     11  C   UNL     1      29.790  58.692  11.902  1.00  0.00     0.039 C 
ENDBRANCH   5   9
TORSDOF 1
ENDMDL
MODEL 2
REMARK VINA RESULT:    -5.269      7.999      9.015
REMARK INTER + INTRA:          -5.671
REMARK INTER:                  -5.577
REMARK INTRA:                  -0.094
REMARK UNBOUND:                -0.094
REMARK SMILES C=C(C)[C@H]1CC=C(C)C(=O)C1
REMARK SMILES IDX 8 1 7 2 6 3 5 4 4 5 11 6 9 7 10 8 2 9 1 10 3 11
REMARK H PARENT
REMARK Flexibility Score: inf
ROOT
ATOM      1  C   UNL     1      25.233  52.037  17.485  1.00  0.00     0.048 C 
ATOM      2  C   UNL     1      26.422  51.234  17.036  1.00  0.00    -0.012 C 
ATOM      3  C   UNL     1      27.642  51.798  17.018  1.00  0.00    -0.019 C 
ATOM      4  C   UNL     1      28.863  51.045  16.561  1.00  0.00     0.036 C 
ATOM      5  C   UNL     1      28.753  49.547  16.903  1.00  0.00     0.025 C 
ATOM      6  C   UNL     1      27.454  48.961  16.320  1.00  0.00     0.089 C 
ATOM      7  C   UNL     1      26.267  49.789  16.733  1.00  0.00     0.158 C 
ATOM      8  O   UNL     1      25.129  49.249  16.784  1.00  0.00    -0.295 OA
ENDROOT
BRANCH   5   9
ATOM      9  C   UNL     1      29.978  48.772  16.438  1.00  0.00    -0.077 C 
ATOM     10  C   UNL     1      31.222  49.197  16.717  1.00  0.00     0.008 C 
ATOM     11  C   UNL     1      29.812  47.500  15.647  1.00  0.00     0.039 C 
ENDBRANCH   5   9
TORSDOF 1
ENDMDL
MODEL 3
REMARK VINA RESULT:    -5.202      2.087      2.743
REMARK INTER + INTRA:          -5.599
REMARK INTER:                  -5.505
REMARK INTRA:                  -0.095
REMARK UNBOUND:                -0.094
REMARK SMILES C=C(C)[C@H]1CC=C(C)C(=O)C1
REMARK SMILES IDX 8 1 7 2 6 3 5 4 4 5 11 6 9 7 10 8 2 9 1 10 3 11
REMARK H PARENT
REMARK Flexibility Score: inf
ROOT
ATOM      1  C   UNL     1      27.431  52.979  10.319  1.00  0.00     0.048 C 
ATOM      2  C   UNL     1      27.846  54.367  10.720  1.00  0.00    -0.012 C 
ATOM      3  C   UNL     1      26.921  55.336  10.833  1.00  0.00    -0.019 C 
ATOM      4  C   UNL     1      27.284  56.747  11.213  1.00  0.00     0.036 C 
ATOM      5  C   UNL     1      28.492  56.771  12.169  1.00  0.00     0.025 C 
ATOM      6  C   UNL     1      29.678  56.010  11.550  1.00  0.00     0.089 C 
ATOM      7  C   UNL     1      29.253  54.636  11.109  1.00  0.00     0.158 C 
ATOM      8  O   UNL     1      30.116  53.719  11.038  1.00  0.00    -0.295 OA
ENDROOT
BRANCH   5   9
ATOM      9  C   UNL     1      28.876  58.193  12.555  1.00  0.00    -0.077 C 
ATOM     10  C   UNL     1      29.821  58.870  11.880  1.00  0.00     0.008 C 
ATOM     11  C   UNL     1      28.193  58.872  13.715  1.00  0.00     0.039 C 
ENDBRANCH   5   9
TORSDOF 1
ENDMDL
MODEL 4
REMARK VINA RESULT:    -5.162      7.528      8.905
REMARK INTER + INTRA:          -5.558
REMARK INTER:                  -5.463
REMARK INTRA:                  -0.094
REMARK UNBOUND:                -0.094
REMARK SMILES C=C(C)[C@H]1CC=C(C)C(=O)C1
REMARK SMILES IDX 8 1 7 2 6 3 5 4 4 5 11 6 9 7 10 8 2 9 1 10 3 11
REMARK H PARENT
REMARK Flexibility Score: inf
ROOT
ATOM      1  C   UNL     1      27.479  53.171  17.351  1.00  0.00     0.048 C 
ATOM      2  C   UNL     1      27.910  51.794  16.930  1.00  0.00    -0.012 C 
ATOM      3  C   UNL     1      27.012  50.794  16.895  1.00  0.00    -0.019 C 
ATOM      4  C   UNL     1      27.393  49.392  16.498  1.00  0.00     0.036 C 
ATOM      5  C   UNL     1      28.525  49.399  15.453  1.00  0.00     0.025 C 
ATOM      6  C   UNL     1      29.729  50.206  15.974  1.00  0.00     0.089 C 
ATOM      7  C   UNL     1      29.292  51.569  16.437  1.00  0.00     0.158 C 
ATOM      8  O   UNL     1      30.126  52.515  16.435  1.00  0.00    -0.295 OA
ENDROOT
BRANCH   5   9
ATOM      9  C   UNL     1      28.928  47.987  15.049  1.00  0.00    -0.077 C 
ATOM     10  C   UNL     1      29.905  47.327  15.695  1.00  0.00     0.008 C 
ATOM     11  C   UNL     1      28.227  47.299  13.906  1.00  0.00     0.039 C 
ENDBRANCH   5   9
TORSDOF 1
ENDMDL
MODEL 5
REMARK VINA RESULT:    -4.961      7.399      8.277
REMARK INTER + INTRA:          -5.345
REMARK INTER:                  -5.249
REMARK INTRA:                  -0.096
REMARK UNBOUND:                -0.094
REMARK SMILES C=C(C)[C@H]1CC=C(C)C(=O)C1
REMARK SMILES IDX 8 1 7 2 6 3 5 4 4 5 11 6 9 7 10 8 2 9 1 10 3 11
REMARK H PARENT
REMARK Flexibility Score: inf
ROOT
ATOM      1  C   UNL     1      29.745  46.989  15.457  1.00  0.00     0.048 C 
ATOM      2  C   UNL     1      29.530  48.409  15.902  1.00  0.00    -0.012 C 
ATOM      3  C   UNL     1      30.557  49.116  16.402  1.00  0.00    -0.019 C 
ATOM      4  C   UNL     1      30.393  50.535  16.878  1.00  0.00     0.036 C 
ATOM      5  C   UNL     1      29.323  51.277  16.055  1.00  0.00     0.025 C 
ATOM      6  C   UNL     1      27.996  50.497  16.077  1.00  0.00     0.089 C 
ATOM      7  C   UNL     1      28.217  49.064  15.674  1.00  0.00     0.158 C 
ATOM      8  O   UNL     1      27.262  48.413  15.171  1.00  0.00    -0.295 OA
ENDROOT
BRANCH   5   9
ATOM      9  C   UNL     1      29.140  52.711  16.532  1.00  0.00    -0.077 C 
ATOM     10  C   UNL     1      28.022  53.099  17.172  1.00  0.00     0.008 C 
ATOM     11  C   UNL     1      30.222  53.732  16.293  1.00  0.00     0.039 C 
ENDBRANCH   5   9
TORSDOF 1
ENDMDL
MODEL 6
REMARK VINA RESULT:    -4.943      1.569      4.154
REMARK INTER + INTRA:          -5.326
REMARK INTER:                  -5.230
REMARK INTRA:                  -0.096
REMARK UNBOUND:                -0.094
REMARK SMILES C=C(C)[C@H]1CC=C(C)C(=O)C1
REMARK SMILES IDX 8 1 7 2 6 3 5 4 4 5 11 6 9 7 10 8 2 9 1 10 3 11
REMARK H PARENT
REMARK Flexibility Score: inf
ROOT
ATOM      1  C   UNL     1      29.733  59.056  12.141  1.00  0.00     0.048 C 
ATOM      2  C   UNL     1      29.480  57.647  11.682  1.00  0.00    -0.012 C 
ATOM      3  C   UNL     1      30.489  56.916  11.179  1.00  0.00    -0.019 C 
ATOM      4  C   UNL     1      30.287  55.507  10.687  1.00  0.00     0.036 C 
ATOM      5  C   UNL     1      29.193  54.788  11.499  1.00  0.00     0.025 C 
ATOM      6  C   UNL     1      27.889  55.605  11.481  1.00  0.00     0.089 C 
ATOM      7  C   UNL     1      28.149  57.027  11.899  1.00  0.00     0.158 C 
ATOM      8  O   UNL     1      27.210  57.700  12.405  1.00  0.00    -0.295 OA
ENDROOT
BRANCH   5   9
ATOM      9  C   UNL     1      28.971  53.364  11.007  1.00  0.00    -0.077 C 
ATOM     10  C   UNL     1      27.822  53.000  10.412  1.00  0.00     0.008 C 
ATOM     11  C   UNL     1      30.051  52.327  11.181  1.00  0.00     0.039 C 
ENDBRANCH   5   9
TORSDOF 1
ENDMDL
MODEL 7
REMARK VINA RESULT:    -4.939      2.074      4.615
REMARK INTER + INTRA:          -5.321
REMARK INTER:                  -5.228
REMARK INTRA:                  -0.093
REMARK UNBOUND:                -0.094
REMARK SMILES C=C(C)[C@H]1CC=C(C)C(=O)C1
REMARK SMILES IDX 8 1 7 2 6 3 5 4 4 5 11 6 9 7 10 8 2 9 1 10 3 11
REMARK H PARENT
REMARK Flexibility Score: inf
ROOT
ATOM      1  C   UNL     1      28.234  58.959  13.574  1.00  0.00     0.048 C 
ATOM      2  C   UNL     1      27.653  57.898  12.681  1.00  0.00    -0.012 C 
ATOM      3  C   UNL     1      26.398  57.463  12.888  1.00  0.00    -0.019 C 
ATOM      4  C   UNL     1      25.774  56.390  12.036  1.00  0.00     0.036 C 
ATOM      5  C   UNL     1      26.299  56.455  10.589  1.00  0.00     0.025 C 
ATOM      6  C   UNL     1      27.838  56.390  10.575  1.00  0.00     0.089 C 
ATOM      7  C   UNL     1      28.419  57.423  11.501  1.00  0.00     0.158 C 
ATOM      8  O   UNL     1      29.583  57.857  11.284  1.00  0.00    -0.295 OA
ENDROOT
BRANCH   5   9
ATOM      9  C   UNL     1      25.683  55.369   9.717  1.00  0.00    -0.077 C 
ATOM     10  C   UNL     1      25.962  54.069   9.917  1.00  0.00     0.008 C 
ATOM     11  C   UNL     1      24.739  55.739   8.602  1.00  0.00     0.039 C 
ENDBRANCH   5   9
TORSDOF 1
ENDMDL
MODEL 8
REMARK VINA RESULT:    -4.937      8.592      9.489
REMARK INTER + INTRA:          -5.319
REMARK INTER:                  -5.226
REMARK INTRA:                  -0.093
REMARK UNBOUND:                -0.094
REMARK SMILES C=C(C)[C@H]1CC=C(C)C(=O)C1
REMARK SMILES IDX 8 1 7 2 6 3 5 4 4 5 11 6 9 7 10 8 2 9 1 10 3 11
REMARK H PARENT
REMARK Flexibility Score: inf
ROOT
ATOM      1  C   UNL     1      28.643  47.061  14.130  1.00  0.00     0.048 C 
ATOM      2  C   UNL     1      28.015  48.137  14.971  1.00  0.00    -0.012 C 
ATOM      3  C   UNL     1      26.750  48.523  14.731  1.00  0.00    -0.019 C 
ATOM      4  C   UNL     1      26.080  49.608  15.530  1.00  0.00     0.036 C 
ATOM      5  C   UNL     1      26.586  49.619  16.986  1.00  0.00     0.025 C 
ATOM      6  C   UNL     1      28.121  49.734  17.016  1.00  0.00     0.089 C 
ATOM      7  C   UNL     1      28.749  48.684  16.141  1.00  0.00     0.158 C 
ATOM      8  O   UNL     1      29.923  48.298  16.390  1.00  0.00    -0.295 OA
ENDROOT
BRANCH   5   9
ATOM      9  C   UNL     1      25.923  50.718  17.804  1.00  0.00    -0.077 C 
ATOM     10  C   UNL     1      26.200  52.016  17.587  1.00  0.00     0.008 C 
ATOM     11  C   UNL     1      24.933  50.365  18.884  1.00  0.00     0.039 C 
ENDBRANCH   5   9
TORSDOF 1
ENDMDL
MODEL 9
REMARK VINA RESULT:    -4.888      3.765      5.825
REMARK INTER + INTRA:          -5.267
REMARK INTER:                  -5.173
REMARK INTRA:                  -0.095
REMARK UNBOUND:                -0.094
REMARK SMILES C=C(C)[C@H]1CC=C(C)C(=O)C1
REMARK SMILES IDX 8 1 7 2 6 3 5 4 4 5 11 6 9 7 10 8 2 9 1 10 3 11
REMARK H PARENT
REMARK Flexibility Score: inf
ROOT
ATOM      1  C   UNL     1      29.255  51.879  10.943  1.00  0.00     0.048 C 
ATOM      2  C   UNL     1      28.100  52.233  10.047  1.00  0.00    -0.012 C 
ATOM      3  C   UNL     1      27.859  51.501   8.946  1.00  0.00    -0.019 C 
ATOM      4  C   UNL     1      26.728  51.822   8.005  1.00  0.00     0.036 C 
ATOM      5  C   UNL     1      25.530  52.425   8.763  1.00  0.00     0.025 C 
ATOM      6  C   UNL     1      25.976  53.652   9.579  1.00  0.00     0.089 C 
ATOM      7  C   UNL     1      27.159  53.310  10.444  1.00  0.00     0.158 C 
ATOM      8  O   UNL     1      27.363  53.974  11.496  1.00  0.00    -0.295 OA
ENDROOT
BRANCH   5   9
ATOM      9  C   UNL     1      24.382  52.764   7.822  1.00  0.00    -0.077 C 
ATOM     10  C   UNL     1      24.594  53.000   6.515  1.00  0.00     0.008 C 
ATOM     11  C   UNL     1      22.971  52.840   8.347  1.00  0.00     0.039 C 
ENDBRANCH   5   9
TORSDOF 1
ENDMDL
