MODEL 1
REMARK VINA RESULT:    -5.606      0.000      0.000
REMARK INTER + INTRA:          -5.606
REMARK INTER:                  -5.606
REMARK INTRA:                   0.000
REMARK UNBOUND:                 0.000
REMARK SMILES CC(C)=C1CC[C@@H](C)CC1=O
REMARK SMILES IDX 8 1 7 2 6 3 5 4 4 5 2 6 1 7 3 8 10 9 11 10 9 11
REMARK H PARENT
REMARK Flexibility Score: inf
ROOT
ATOM      1  C   UNL     1     105.994  50.498  53.640  1.00  0.00     0.008 C 
ATOM      2  C   UNL     1     104.662  49.826  53.991  1.00  0.00    -0.006 C 
ATOM      3  C   UNL     1     104.683  49.304  55.436  1.00  0.00     0.008 C 
ATOM      4  C   UNL     1     103.324  48.720  55.839  1.00  0.00     0.039 C 
ATOM      5  C   UNL     1     102.820  47.678  54.849  1.00  0.00    -0.006 C 
ATOM      6  C   UNL     1     102.053  46.624  55.256  1.00  0.00    -0.070 C 
ATOM      7  C   UNL     1     101.657  46.457  56.705  1.00  0.00     0.039 C 
ATOM      8  C   UNL     1     101.595  45.554  54.293  1.00  0.00     0.039 C 
ATOM      9  C   UNL     1     103.116  47.945  53.409  1.00  0.00     0.159 C 
ATOM     10  O   UNL     1     102.325  47.576  52.500  1.00  0.00    -0.295 OA
ATOM     11  C   UNL     1     104.370  48.671  53.021  1.00  0.00     0.084 C 
ENDROOT
TORSDOF 0
ENDMDL
MODEL 2
REMARK VINA RESULT:    -5.162     10.434     11.523
REMARK INTER + INTRA:          -5.162
REMARK INTER:                  -5.162
REMARK INTRA:                   0.000
REMARK UNBOUND:                 0.000
REMARK SMILES CC(C)=C1CC[C@@H](C)CC1=O
REMARK SMILES IDX 8 1 7 2 6 3 5 4 4 5 2 6 1 7 3 8 10 9 11 10 9 11
REMARK H PARENT
REMARK Flexibility Score: inf
ROOT
ATOM      1  C   UNL     1     106.133  51.236  65.242  1.00  0.00     0.008 C 
ATOM      2  C   UNL     1     107.152  50.136  64.930  1.00  0.00    -0.006 C 
ATOM      3  C   UNL     1     106.956  49.605  63.501  1.00  0.00     0.008 C 
ATOM      4  C   UNL     1     108.032  48.576  63.134  1.00  0.00     0.039 C 
ATOM      5  C   UNL     1     108.143  47.457  64.162  1.00  0.00    -0.006 C 
ATOM      6  C   UNL     1     108.500  46.191  63.797  1.00  0.00    -0.070 C 
ATOM      7  C   UNL     1     108.818  45.850  62.359  1.00  0.00     0.039 C 
ATOM      8  C   UNL     1     108.559  45.061  64.798  1.00  0.00     0.039 C 
ATOM      9  C   UNL     1     107.954  47.857  65.588  1.00  0.00     0.159 C 
ATOM     10  O   UNL     1     108.567  47.268  66.519  1.00  0.00    -0.295 OA
ATOM     11  C   UNL     1     107.026  48.983  65.938  1.00  0.00     0.084 C 
ENDROOT
TORSDOF 0
ENDMDL
MODEL 3
REMARK VINA RESULT:    -5.053     10.019     11.030
REMARK INTER + INTRA:          -5.053
REMARK INTER:                  -5.053
REMARK INTRA:                   0.000
REMARK UNBOUND:                 0.000
REMARK SMILES CC(C)=C1CC[C@@H](C)CC1=O
REMARK SMILES IDX 8 1 7 2 6 3 5 4 4 5 2 6 1 7 3 8 10 9 11 10 9 11
REMARK H PARENT
REMARK Flexibility Score: inf
ROOT
ATOM      1  C   UNL     1     108.304  52.257  64.917  1.00  0.00     0.008 C 
ATOM      2  C   UNL     1     107.861  50.812  64.664  1.00  0.00    -0.006 C 
ATOM      3  C   UNL     1     108.311  49.899  65.816  1.00  0.00     0.008 C 
ATOM      4  C   UNL     1     107.790  48.468  65.632  1.00  0.00     0.039 C 
ATOM      5  C   UNL     1     108.133  47.895  64.263  1.00  0.00    -0.006 C 
ATOM      6  C   UNL     1     108.361  46.559  64.090  1.00  0.00    -0.070 C 
ATOM      7  C   UNL     1     108.266  45.592  65.248  1.00  0.00     0.039 C 
ATOM      8  C   UNL     1     108.757  45.987  62.750  1.00  0.00     0.039 C 
ATOM      9  C   UNL     1     108.087  48.854  63.120  1.00  0.00     0.159 C 
ATOM     10  O   UNL     1     107.754  48.479  61.963  1.00  0.00    -0.295 OA
ATOM     11  C   UNL     1     108.435  50.298  63.335  1.00  0.00     0.084 C 
ENDROOT
TORSDOF 0
ENDMDL
MODEL 4
REMARK VINA RESULT:    -5.017      1.690      3.740
REMARK INTER + INTRA:          -5.017
REMARK INTER:                  -5.017
REMARK INTRA:                   0.000
REMARK UNBOUND:                 0.000
REMARK SMILES CC(C)=C1CC[C@@H](C)CC1=O
REMARK SMILES IDX 8 1 7 2 6 3 5 4 4 5 2 6 1 7 3 8 10 9 11 10 9 11
REMARK H PARENT
REMARK Flexibility Score: inf
ROOT
ATOM      1  C   UNL     1     103.101  47.923  59.214  1.00  0.00     0.008 C 
ATOM      2  C   UNL     1     103.455  47.541  57.773  1.00  0.00    -0.006 C 
ATOM      3  C   UNL     1     104.265  48.661  57.100  1.00  0.00     0.008 C 
ATOM      4  C   UNL     1     104.717  48.254  55.692  1.00  0.00     0.039 C 
ATOM      5  C   UNL     1     103.562  47.766  54.827  1.00  0.00    -0.006 C 
ATOM      6  C   UNL     1     103.557  47.959  53.475  1.00  0.00    -0.070 C 
ATOM      7  C   UNL     1     104.707  48.651  52.778  1.00  0.00     0.039 C 
ATOM      8  C   UNL     1     102.392  47.531  52.614  1.00  0.00     0.039 C 
ATOM      9  C   UNL     1     102.509  46.972  55.526  1.00  0.00     0.159 C 
ATOM     10  O   UNL     1     101.883  46.051  54.935  1.00  0.00    -0.295 OA
ATOM     11  C   UNL     1     102.181  47.255  56.963  1.00  0.00     0.084 C 
ENDROOT
TORSDOF 0
ENDMDL
MODEL 5
REMARK VINA RESULT:    -5.016      1.533      2.429
REMARK INTER + INTRA:          -5.016
REMARK INTER:                  -5.016
REMARK INTRA:                   0.000
REMARK UNBOUND:                 0.000
REMARK SMILES CC(C)=C1CC[C@@H](C)CC1=O
REMARK SMILES IDX 8 1 7 2 6 3 5 4 4 5 2 6 1 7 3 8 10 9 11 10 9 11
REMARK H PARENT
REMARK Flexibility Score: inf
ROOT
ATOM      1  C   UNL     1     105.467  50.995  53.634  1.00  0.00     0.008 C 
ATOM      2  C   UNL     1     105.001  49.609  54.092  1.00  0.00    -0.006 C 
ATOM      3  C   UNL     1     104.031  48.999  53.068  1.00  0.00     0.008 C 
ATOM      4  C   UNL     1     103.633  47.569  53.458  1.00  0.00     0.039 C 
ATOM      5  C   UNL     1     103.108  47.480  54.885  1.00  0.00    -0.006 C 
ATOM      6  C   UNL     1     102.157  46.564  55.235  1.00  0.00    -0.070 C 
ATOM      7  C   UNL     1     101.597  45.590  54.224  1.00  0.00     0.039 C 
ATOM      8  C   UNL     1     101.588  46.503  56.633  1.00  0.00     0.039 C 
ATOM      9  C   UNL     1     103.777  48.363  55.886  1.00  0.00     0.159 C 
ATOM     10  O   UNL     1     103.902  48.010  57.090  1.00  0.00    -0.295 OA
ATOM     11  C   UNL     1     104.322  49.697  55.468  1.00  0.00     0.084 C 
ENDROOT
TORSDOF 0
ENDMDL
MODEL 6
REMARK VINA RESULT:    -4.930      1.643      3.976
REMARK INTER + INTRA:          -4.930
REMARK INTER:                  -4.930
REMARK INTRA:                   0.000
REMARK UNBOUND:                 0.000
REMARK SMILES CC(C)=C1CC[C@@H](C)CC1=O
REMARK SMILES IDX 8 1 7 2 6 3 5 4 4 5 2 6 1 7 3 8 10 9 11 10 9 11
REMARK H PARENT
REMARK Flexibility Score: inf
ROOT
ATOM      1  C   UNL     1     101.509  44.864  54.228  1.00  0.00     0.008 C 
ATOM      2  C   UNL     1     102.306  46.074  54.727  1.00  0.00    -0.006 C 
ATOM      3  C   UNL     1     101.647  46.677  55.978  1.00  0.00     0.008 C 
ATOM      4  C   UNL     1     102.486  47.825  56.553  1.00  0.00     0.039 C 
ATOM      5  C   UNL     1     102.826  48.878  55.506  1.00  0.00    -0.006 C 
ATOM      6  C   UNL     1     102.967  50.194  55.844  1.00  0.00    -0.070 C 
ATOM      7  C   UNL     1     102.807  50.658  57.274  1.00  0.00     0.039 C 
ATOM      8  C   UNL     1     103.248  51.256  54.807  1.00  0.00     0.039 C 
ATOM      9  C   UNL     1     103.108  48.369  54.131  1.00  0.00     0.159 C 
ATOM     10  O   UNL     1     103.933  48.950  53.375  1.00  0.00    -0.295 OA
ATOM     11  C   UNL     1     102.412  47.140  53.626  1.00  0.00     0.084 C 
ENDROOT
TORSDOF 0
ENDMDL
MODEL 7
REMARK VINA RESULT:    -4.877      1.963      3.669
REMARK INTER + INTRA:          -4.877
REMARK INTER:                  -4.877
REMARK INTRA:                   0.000
REMARK UNBOUND:                 0.000
REMARK SMILES CC(C)=C1CC[C@@H](C)CC1=O
REMARK SMILES IDX 8 1 7 2 6 3 5 4 4 5 2 6 1 7 3 8 10 9 11 10 9 11
REMARK H PARENT
REMARK Flexibility Score: inf
ROOT
ATOM      1  C   UNL     1     103.892  47.989  59.311  1.00  0.00     0.008 C 
ATOM      2  C   UNL     1     103.379  48.254  57.892  1.00  0.00    -0.006 C 
ATOM      3  C   UNL     1     102.630  47.027  57.349  1.00  0.00     0.008 C 
ATOM      4  C   UNL     1     102.021  47.309  55.970  1.00  0.00     0.039 C 
ATOM      5  C   UNL     1     103.044  47.853  54.982  1.00  0.00    -0.006 C 
ATOM      6  C   UNL     1     102.951  47.585  53.646  1.00  0.00    -0.070 C 
ATOM      7  C   UNL     1     101.820  46.750  53.090  1.00  0.00     0.039 C 
ATOM      8  C   UNL     1     103.991  48.071  52.663  1.00  0.00     0.039 C 
ATOM      9  C   UNL     1     104.069  48.781  55.544  1.00  0.00     0.159 C 
ATOM     10  O   UNL     1     104.549  49.722  54.854  1.00  0.00    -0.295 OA
ATOM     11  C   UNL     1     104.545  48.611  56.957  1.00  0.00     0.084 C 
ENDROOT
TORSDOF 0
ENDMDL
MODEL 8
REMARK VINA RESULT:    -4.753     16.125     17.439
REMARK INTER + INTRA:          -4.753
REMARK INTER:                  -4.753
REMARK INTRA:                   0.000
REMARK UNBOUND:                 0.000
REMARK SMILES CC(C)=C1CC[C@@H](C)CC1=O
REMARK SMILES IDX 8 1 7 2 6 3 5 4 4 5 2 6 1 7 3 8 10 9 11 10 9 11
REMARK H PARENT
REMARK Flexibility Score: inf
ROOT
ATOM      1  C   UNL     1     101.706  33.559  61.127  1.00  0.00     0.008 C 
ATOM      2  C   UNL     1     100.769  33.996  62.259  1.00  0.00    -0.006 C 
ATOM      3  C   UNL     1     100.624  32.877  63.303  1.00  0.00     0.008 C 
ATOM      4  C   UNL     1      99.772  33.332  64.495  1.00  0.00     0.039 C 
ATOM      5  C   UNL     1      98.430  33.909  64.065  1.00  0.00    -0.006 C 
ATOM      6  C   UNL     1      97.319  33.782  64.850  1.00  0.00    -0.070 C 
ATOM      7  C   UNL     1      97.380  33.078  66.186  1.00  0.00     0.039 C 
ATOM      8  C   UNL     1      95.970  34.299  64.409  1.00  0.00     0.039 C 
ATOM      9  C   UNL     1      98.433  34.712  62.806  1.00  0.00     0.159 C 
ATOM     10  O   UNL     1      97.647  35.685  62.648  1.00  0.00    -0.295 OA
ATOM     11  C   UNL     1      99.389  34.372  61.699  1.00  0.00     0.084 C 
ENDROOT
TORSDOF 0
ENDMDL
MODEL 9
REMARK VINA RESULT:    -4.597     16.525     17.928
REMARK INTER + INTRA:          -4.597
REMARK INTER:                  -4.597
REMARK INTRA:                   0.000
REMARK UNBOUND:                 0.000
REMARK SMILES CC(C)=C1CC[C@@H](C)CC1=O
REMARK SMILES IDX 8 1 7 2 6 3 5 4 4 5 2 6 1 7 3 8 10 9 11 10 9 11
REMARK H PARENT
REMARK Flexibility Score: inf
ROOT
ATOM      1  C   UNL     1     100.116  34.005  61.891  1.00  0.00     0.008 C 
ATOM      2  C   UNL     1      98.852  34.042  62.758  1.00  0.00    -0.006 C 
ATOM      3  C   UNL     1      98.143  35.400  62.623  1.00  0.00     0.008 C 
ATOM      4  C   UNL     1      96.822  35.420  63.402  1.00  0.00     0.039 C 
ATOM      5  C   UNL     1      96.995  34.993  64.853  1.00  0.00    -0.006 C 
ATOM      6  C   UNL     1      96.207  35.507  65.843  1.00  0.00    -0.070 C 
ATOM      7  C   UNL     1      95.118  36.509  65.536  1.00  0.00     0.039 C 
ATOM      8  C   UNL     1      96.406  35.134  67.293  1.00  0.00     0.039 C 
ATOM      9  C   UNL     1      97.987  33.905  65.103  1.00  0.00     0.159 C 
ATOM     10  O   UNL     1      97.826  33.074  66.038  1.00  0.00    -0.295 OA
ATOM     11  C   UNL     1      99.201  33.778  64.230  1.00  0.00     0.084 C 
ENDROOT
TORSDOF 0
ENDMDL
