MODEL 1
REMARK VINA RESULT:    -4.045      0.000      0.000
REMARK INTER + INTRA:          -9.603
REMARK INTER:                  -7.592
REMARK INTRA:                  -2.012
REMARK UNBOUND:                -2.012
REMARK SMILES O=C([O-])CCCCCCCCCCCCCCC(=O)[O-]
REMARK SMILES IDX 10 1 9 2 8 3 7 4 6 5 5 6 4 7 2 8 1 9 3 10 11 11 12 12 13 13
REMARK SMILES IDX 14 14 15 15 16 16 17 17 18 18 19 19 20 20
REMARK H PARENT
REMARK Flexibility Score: inf
ROOT
ATOM      1  C   UNL     1       0.708  25.299 114.079  1.00  0.00     0.000 C 
ENDROOT
BRANCH   1   2
ATOM      2  C   UNL     1       1.960  25.996 113.512  1.00  0.00     0.000 C 
BRANCH   2   3
ATOM      3  C   UNL     1       2.320  25.634 112.058  1.00  0.00     0.000 C 
BRANCH   3   4
ATOM      4  C   UNL     1       2.396  26.861 111.135  1.00  0.00     0.000 C 
BRANCH   4   5
ATOM      5  C   UNL     1       3.745  26.978 110.401  1.00  0.00     0.000 C 
BRANCH   5   6
ATOM      6  C   UNL     1       4.742  25.831 110.664  1.00  0.00     0.006 C 
BRANCH   6   7
ATOM      7  C   UNL     1       6.210  26.273 110.780  1.00  0.00     0.053 C 
BRANCH   7   8
ATOM      8  C   UNL     1       7.157  25.183 110.385  1.00  0.00     0.041 C 
ATOM      9  O   UNL     1       8.022  25.390 109.494  1.00  0.00    -0.550 OA
ATOM     10  O   UNL     1       7.106  23.951 111.023  1.00  0.00    -0.550 OA
ENDBRANCH   7   8
ENDBRANCH   6   7
ENDBRANCH   5   6
ENDBRANCH   4   5
ENDBRANCH   3   4
ENDBRANCH   2   3
ENDBRANCH   1   2
BRANCH   1  11
ATOM     11  C   UNL     1       0.455  23.916 113.457  1.00  0.00     0.000 C 
BRANCH  11  12
ATOM     12  C   UNL     1       0.860  22.760 114.388  1.00  0.00     0.000 C 
BRANCH  12  13
ATOM     13  C   UNL     1       1.864  21.774 113.752  1.00  0.00     0.000 C 
BRANCH  13  14
ATOM     14  C   UNL     1       3.248  21.853 114.417  1.00  0.00     0.000 C 
BRANCH  14  15
ATOM     15  C   UNL     1       4.165  22.892 113.750  1.00  0.00     0.000 C 
BRANCH  15  16
ATOM     16  C   UNL     1       4.872  23.793 114.773  1.00  0.00     0.006 C 
BRANCH  16  17
ATOM     17  C   UNL     1       5.417  25.059 114.102  1.00  0.00     0.053 C 
BRANCH  17  18
ATOM     18  C   UNL     1       6.815  25.333 114.558  1.00  0.00     0.041 C 
ATOM     19  O   UNL     1       7.077  26.384 115.199  1.00  0.00    -0.550 OA
ATOM     20  O   UNL     1       7.839  24.454 114.227  1.00  0.00    -0.550 OA
ENDBRANCH  17  18
ENDBRANCH  16  17
ENDBRANCH  15  16
ENDBRANCH  14  15
ENDBRANCH  13  14
ENDBRANCH  12  13
ENDBRANCH  11  12
ENDBRANCH   1  11
TORSDOF 15
ENDMDL
MODEL 2
REMARK VINA RESULT:    -4.014      3.674      5.161
REMARK INTER + INTRA:          -9.546
REMARK INTER:                  -7.686
REMARK INTRA:                  -1.860
REMARK UNBOUND:                -2.012
REMARK SMILES O=C([O-])CCCCCCCCCCCCCCC(=O)[O-]
REMARK SMILES IDX 10 1 9 2 8 3 7 4 6 5 5 6 4 7 2 8 1 9 3 10 11 11 12 12 13 13
REMARK SMILES IDX 14 14 15 15 16 16 17 17 18 18 19 19 20 20
REMARK H PARENT
REMARK Flexibility Score: inf
ROOT
ATOM      1  C   UNL     1       3.365  26.526 114.572  1.00  0.00     0.000 C 
ENDROOT
BRANCH   1   2
ATOM      2  C   UNL     1       4.125  27.853 114.760  1.00  0.00     0.000 C 
BRANCH   2   3
ATOM      3  C   UNL     1       4.988  28.299 113.565  1.00  0.00     0.000 C 
BRANCH   3   4
ATOM      4  C   UNL     1       4.280  29.321 112.660  1.00  0.00     0.000 C 
BRANCH   4   5
ATOM      5  C   UNL     1       4.101  30.696 113.332  1.00  0.00     0.000 C 
BRANCH   5   6
ATOM      6  C   UNL     1       5.390  31.527 113.490  1.00  0.00     0.006 C 
BRANCH   6   7
ATOM      7  C   UNL     1       5.874  31.689 114.940  1.00  0.00     0.053 C 
BRANCH   7   8
ATOM      8  C   UNL     1       7.327  32.040 115.011  1.00  0.00     0.041 C 
ATOM      9  O   UNL     1       7.778  32.672 116.001  1.00  0.00    -0.550 OA
ATOM     10  O   UNL     1       8.191  31.638 113.999  1.00  0.00    -0.550 OA
ENDBRANCH   7   8
ENDBRANCH   6   7
ENDBRANCH   5   6
ENDBRANCH   4   5
ENDBRANCH   3   4
ENDBRANCH   2   3
ENDBRANCH   1   2
BRANCH   1  11
ATOM     11  C   UNL     1       1.873  26.725 114.259  1.00  0.00     0.000 C 
BRANCH  11  12
ATOM     12  C   UNL     1       1.579  26.762 112.749  1.00  0.00     0.000 C 
BRANCH  12  13
ATOM     13  C   UNL     1       2.329  25.677 111.946  1.00  0.00     0.000 C 
BRANCH  13  14
ATOM     14  C   UNL     1       3.103  26.273 110.759  1.00  0.00     0.000 C 
BRANCH  14  15
ATOM     15  C   UNL     1       4.589  25.875 110.763  1.00  0.00     0.000 C 
BRANCH  15  16
ATOM     16  C   UNL     1       4.924  24.873 111.877  1.00  0.00     0.006 C 
BRANCH  16  17
ATOM     17  C   UNL     1       6.204  24.098 111.548  1.00  0.00     0.053 C 
BRANCH  17  18
ATOM     18  C   UNL     1       7.380  24.708 112.242  1.00  0.00     0.041 C 
ATOM     19  O   UNL     1       8.280  23.975 112.727  1.00  0.00    -0.550 OA
ATOM     20  O   UNL     1       7.454  26.087 112.400  1.00  0.00    -0.550 OA
ENDBRANCH  17  18
ENDBRANCH  16  17
ENDBRANCH  15  16
ENDBRANCH  14  15
ENDBRANCH  13  14
ENDBRANCH  12  13
ENDBRANCH  11  12
ENDBRANCH   1  11
TORSDOF 15
ENDMDL
MODEL 3
REMARK VINA RESULT:    -4.013      2.520      4.300
REMARK INTER + INTRA:          -9.544
REMARK INTER:                  -7.372
REMARK INTRA:                  -2.173
REMARK UNBOUND:                -2.012
REMARK SMILES O=C([O-])CCCCCCCCCCCCCCC(=O)[O-]
REMARK SMILES IDX 10 1 9 2 8 3 7 4 6 5 5 6 4 7 2 8 1 9 3 10 11 11 12 12 13 13
REMARK SMILES IDX 14 14 15 15 16 16 17 17 18 18 19 19 20 20
REMARK H PARENT
REMARK Flexibility Score: inf
ROOT
ATOM      1  C   UNL     1       1.788  22.100 114.113  1.00  0.00     0.000 C 
ENDROOT
BRANCH   1   2
ATOM      2  C   UNL     1       2.922  22.940 113.495  1.00  0.00     0.000 C 
BRANCH   2   3
ATOM      3  C   UNL     1       4.139  23.184 114.407  1.00  0.00     0.000 C 
BRANCH   3   4
ATOM      4  C   UNL     1       5.188  24.115 113.774  1.00  0.00     0.000 C 
BRANCH   4   5
ATOM      5  C   UNL     1       5.066  24.204 112.241  1.00  0.00     0.000 C 
BRANCH   5   6
ATOM      6  C   UNL     1       6.398  24.137 111.468  1.00  0.00     0.006 C 
BRANCH   6   7
ATOM      7  C   UNL     1       7.312  25.358 111.661  1.00  0.00     0.053 C 
BRANCH   7   8
ATOM      8  C   UNL     1       6.646  26.630 111.240  1.00  0.00     0.041 C 
ATOM      9  O   UNL     1       6.258  26.778 110.051  1.00  0.00    -0.550 OA
ATOM     10  O   UNL     1       6.423  27.640 112.168  1.00  0.00    -0.550 OA
ENDBRANCH   7   8
ENDBRANCH   6   7
ENDBRANCH   5   6
ENDBRANCH   4   5
ENDBRANCH   3   4
ENDBRANCH   2   3
ENDBRANCH   1   2
BRANCH   1  11
ATOM     11  C   UNL     1       0.626  22.956 114.644  1.00  0.00     0.000 C 
BRANCH  11  12
ATOM     12  C   UNL     1       0.319  24.167 113.747  1.00  0.00     0.000 C 
BRANCH  12  13
ATOM     13  C   UNL     1      -0.087  25.432 114.533  1.00  0.00     0.000 C 
BRANCH  13  14
ATOM     14  C   UNL     1       0.698  26.672 114.072  1.00  0.00     0.000 C 
BRANCH  14  15
ATOM     15  C   UNL     1       2.219  26.492 114.209  1.00  0.00     0.000 C 
BRANCH  15  16
ATOM     16  C   UNL     1       2.988  27.056 113.005  1.00  0.00     0.006 C 
BRANCH  16  17
ATOM     17  C   UNL     1       2.255  26.747 111.695  1.00  0.00     0.053 C 
BRANCH  17  18
ATOM     18  C   UNL     1       2.267  27.941 110.794  1.00  0.00     0.041 C 
ATOM     19  O   UNL     1       3.359  28.432 110.407  1.00  0.00    -0.550 OA
ATOM     20  O   UNL     1       1.071  28.544 110.424  1.00  0.00    -0.550 OA
ENDBRANCH  17  18
ENDBRANCH  16  17
ENDBRANCH  15  16
ENDBRANCH  14  15
ENDBRANCH  13  14
ENDBRANCH  12  13
ENDBRANCH  11  12
ENDBRANCH   1  11
TORSDOF 15
ENDMDL
MODEL 4
REMARK VINA RESULT:    -3.985      1.193      4.595
REMARK INTER + INTRA:          -9.491
REMARK INTER:                  -7.545
REMARK INTRA:                  -1.946
REMARK UNBOUND:                -2.012
REMARK SMILES O=C([O-])CCCCCCCCCCCCCCC(=O)[O-]
REMARK SMILES IDX 10 1 9 2 8 3 7 4 6 5 5 6 4 7 2 8 1 9 3 10 11 11 12 12 13 13
REMARK SMILES IDX 14 14 15 15 16 16 17 17 18 18 19 19 20 20
REMARK H PARENT
REMARK Flexibility Score: inf
ROOT
ATOM      1  C   UNL     1       0.561  24.162 113.424  1.00  0.00     0.000 C 
ENDROOT
BRANCH   1   2
ATOM      2  C   UNL     1       0.035  23.264 114.561  1.00  0.00     0.000 C 
BRANCH   2   3
ATOM      3  C   UNL     1       0.932  22.068 114.931  1.00  0.00     0.000 C 
BRANCH   3   4
ATOM      4  C   UNL     1       1.838  21.615 113.774  1.00  0.00     0.000 C 
BRANCH   4   5
ATOM      5  C   UNL     1       3.336  21.657 114.131  1.00  0.00     0.000 C 
BRANCH   5   6
ATOM      6  C   UNL     1       4.096  22.908 113.645  1.00  0.00     0.006 C 
BRANCH   6   7
ATOM      7  C   UNL     1       4.202  24.036 114.684  1.00  0.00     0.053 C 
BRANCH   7   8
ATOM      8  C   UNL     1       5.467  23.949 115.480  1.00  0.00     0.041 C 
ATOM      9  O   UNL     1       5.419  23.835 116.733  1.00  0.00    -0.550 OA
ATOM     10  O   UNL     1       6.698  23.960 114.837  1.00  0.00    -0.550 OA
ENDBRANCH   7   8
ENDBRANCH   6   7
ENDBRANCH   5   6
ENDBRANCH   4   5
ENDBRANCH   3   4
ENDBRANCH   2   3
ENDBRANCH   1   2
BRANCH   1  11
ATOM     11  C   UNL     1       0.843  25.604 113.877  1.00  0.00     0.000 C 
BRANCH  11  12
ATOM     12  C   UNL     1       1.509  26.454 112.782  1.00  0.00     0.000 C 
BRANCH  12  13
ATOM     13  C   UNL     1       2.513  25.668 111.912  1.00  0.00     0.000 C 
BRANCH  13  14
ATOM     14  C   UNL     1       2.884  26.431 110.630  1.00  0.00     0.000 C 
BRANCH  14  15
ATOM     15  C   UNL     1       4.399  26.440 110.366  1.00  0.00     0.000 C 
BRANCH  15  16
ATOM     16  C   UNL     1       5.202  25.862 111.539  1.00  0.00     0.006 C 
BRANCH  16  17
ATOM     17  C   UNL     1       6.683  26.238 111.427  1.00  0.00     0.053 C 
BRANCH  17  18
ATOM     18  C   UNL     1       7.547  25.034 111.631  1.00  0.00     0.041 C 
ATOM     19  O   UNL     1       7.174  23.908 111.211  1.00  0.00    -0.550 OA
ATOM     20  O   UNL     1       8.741  25.147 112.334  1.00  0.00    -0.550 OA
ENDBRANCH  17  18
ENDBRANCH  16  17
ENDBRANCH  15  16
ENDBRANCH  14  15
ENDBRANCH  13  14
ENDBRANCH  12  13
ENDBRANCH  11  12
ENDBRANCH   1  11
TORSDOF 15
ENDMDL
MODEL 5
REMARK VINA RESULT:    -3.889      2.797      3.406
REMARK INTER + INTRA:          -9.311
REMARK INTER:                  -7.502
REMARK INTRA:                  -1.809
REMARK UNBOUND:                -2.012
REMARK SMILES O=C([O-])CCCCCCCCCCCCCCC(=O)[O-]
REMARK SMILES IDX 10 1 9 2 8 3 7 4 6 5 5 6 4 7 2 8 1 9 3 10 11 11 12 12 13 13
REMARK SMILES IDX 14 14 15 15 16 16 17 17 18 18 19 19 20 20
REMARK H PARENT
REMARK Flexibility Score: inf
ROOT
ATOM      1  C   UNL     1       0.561  24.249 113.698  1.00  0.00     0.000 C 
ENDROOT
BRANCH   1   2
ATOM      2  C   UNL     1       1.330  25.426 114.326  1.00  0.00     0.000 C 
BRANCH   2   3
ATOM      3  C   UNL     1       1.504  26.662 113.423  1.00  0.00     0.000 C 
BRANCH   3   4
ATOM      4  C   UNL     1       2.680  27.557 113.847  1.00  0.00     0.000 C 
BRANCH   4   5
ATOM      5  C   UNL     1       3.121  28.535 112.742  1.00  0.00     0.000 C 
BRANCH   5   6
ATOM      6  C   UNL     1       3.831  27.891 111.534  1.00  0.00     0.006 C 
BRANCH   6   7
ATOM      7  C   UNL     1       2.949  27.727 110.286  1.00  0.00     0.053 C 
BRANCH   7   8
ATOM      8  C   UNL     1       2.123  28.947 110.019  1.00  0.00     0.041 C 
ATOM      9  O   UNL     1       2.662  29.987 109.556  1.00  0.00    -0.550 OA
ATOM     10  O   UNL     1       0.753  28.925 110.248  1.00  0.00    -0.550 OA
ENDBRANCH   7   8
ENDBRANCH   6   7
ENDBRANCH   5   6
ENDBRANCH   4   5
ENDBRANCH   3   4
ENDBRANCH   2   3
ENDBRANCH   1   2
BRANCH   1  11
ATOM     11  C   UNL     1       0.545  22.996 114.589  1.00  0.00     0.000 C 
BRANCH  11  12
ATOM     12  C   UNL     1       1.497  21.896 114.090  1.00  0.00     0.000 C 
BRANCH  12  13
ATOM     13  C   UNL     1       2.949  22.059 114.589  1.00  0.00     0.000 C 
BRANCH  13  14
ATOM     14  C   UNL     1       3.918  22.384 113.440  1.00  0.00     0.000 C 
BRANCH  14  15
ATOM     15  C   UNL     1       4.541  23.784 113.571  1.00  0.00     0.000 C 
BRANCH  15  16
ATOM     16  C   UNL     1       4.565  24.542 112.236  1.00  0.00     0.006 C 
BRANCH  16  17
ATOM     17  C   UNL     1       5.920  24.382 111.540  1.00  0.00     0.053 C 
BRANCH  17  18
ATOM     18  C   UNL     1       7.022  24.888 112.416  1.00  0.00     0.041 C 
ATOM     19  O   UNL     1       7.084  26.109 112.715  1.00  0.00    -0.550 OA
ATOM     20  O   UNL     1       8.013  24.020 112.857  1.00  0.00    -0.550 OA
ENDBRANCH  17  18
ENDBRANCH  16  17
ENDBRANCH  15  16
ENDBRANCH  14  15
ENDBRANCH  13  14
ENDBRANCH  12  13
ENDBRANCH  11  12
ENDBRANCH   1  11
TORSDOF 15
ENDMDL
MODEL 6
REMARK VINA RESULT:    -3.872      3.380      5.584
REMARK INTER + INTRA:          -9.279
REMARK INTER:                  -7.930
REMARK INTRA:                  -1.349
REMARK UNBOUND:                -2.012
REMARK SMILES O=C([O-])CCCCCCCCCCCCCCC(=O)[O-]
REMARK SMILES IDX 10 1 9 2 8 3 7 4 6 5 5 6 4 7 2 8 1 9 3 10 11 11 12 12 13 13
REMARK SMILES IDX 14 14 15 15 16 16 17 17 18 18 19 19 20 20
REMARK H PARENT
REMARK Flexibility Score: inf
ROOT
ATOM      1  C   UNL     1       3.246  26.149 111.676  1.00  0.00     0.000 C 
ENDROOT
BRANCH   1   2
ATOM      2  C   UNL     1       3.900  27.522 111.918  1.00  0.00     0.000 C 
BRANCH   2   3
ATOM      3  C   UNL     1       2.976  28.602 112.513  1.00  0.00     0.000 C 
BRANCH   3   4
ATOM      4  C   UNL     1       3.310  30.019 112.018  1.00  0.00     0.000 C 
BRANCH   4   5
ATOM      5  C   UNL     1       3.963  30.896 113.103  1.00  0.00     0.000 C 
BRANCH   5   6
ATOM      6  C   UNL     1       5.326  30.398 113.624  1.00  0.00     0.006 C 
BRANCH   6   7
ATOM      7  C   UNL     1       6.406  31.487 113.735  1.00  0.00     0.053 C 
BRANCH   7   8
ATOM      8  C   UNL     1       7.102  31.453 115.060  1.00  0.00     0.041 C 
ATOM      9  O   UNL     1       8.359  31.417 115.113  1.00  0.00    -0.550 OA
ATOM     10  O   UNL     1       6.365  31.496 116.236  1.00  0.00    -0.550 OA
ENDBRANCH   7   8
ENDBRANCH   6   7
ENDBRANCH   5   6
ENDBRANCH   4   5
ENDBRANCH   3   4
ENDBRANCH   2   3
ENDBRANCH   1   2
BRANCH   1  11
ATOM     11  C   UNL     1       3.298  25.231 112.909  1.00  0.00     0.000 C 
BRANCH  11  12
ATOM     12  C   UNL     1       4.668  24.559 113.095  1.00  0.00     0.000 C 
BRANCH  12  13
ATOM     13  C   UNL     1       5.283  24.032 111.781  1.00  0.00     0.000 C 
BRANCH  13  14
ATOM     14  C   UNL     1       6.792  24.321 111.695  1.00  0.00     0.000 C 
BRANCH  14  15
ATOM     15  C   UNL     1       7.150  25.737 112.175  1.00  0.00     0.000 C 
BRANCH  15  16
ATOM     16  C   UNL     1       7.444  26.694 111.011  1.00  0.00     0.006 C 
BRANCH  16  17
ATOM     17  C   UNL     1       8.101  25.949 109.843  1.00  0.00     0.053 C 
BRANCH  17  18
ATOM     18  C   UNL     1       7.284  26.101 108.599  1.00  0.00     0.041 C 
ATOM     19  O   UNL     1       6.248  26.815 108.605  1.00  0.00    -0.550 OA
ATOM     20  O   UNL     1       7.638  25.409 107.447  1.00  0.00    -0.550 OA
ENDBRANCH  17  18
ENDBRANCH  16  17
ENDBRANCH  15  16
ENDBRANCH  14  15
ENDBRANCH  13  14
ENDBRANCH  12  13
ENDBRANCH  11  12
ENDBRANCH   1  11
TORSDOF 15
ENDMDL
MODEL 7
REMARK VINA RESULT:    -3.866      2.577      4.374
REMARK INTER + INTRA:          -9.268
REMARK INTER:                  -7.170
REMARK INTRA:                  -2.098
REMARK UNBOUND:                -2.012
REMARK SMILES O=C([O-])CCCCCCCCCCCCCCC(=O)[O-]
REMARK SMILES IDX 10 1 9 2 8 3 7 4 6 5 5 6 4 7 2 8 1 9 3 10 11 11 12 12 13 13
REMARK SMILES IDX 14 14 15 15 16 16 17 17 18 18 19 19 20 20
REMARK H PARENT
REMARK Flexibility Score: inf
ROOT
ATOM      1  C   UNL     1       4.612  24.364 112.026  1.00  0.00     0.000 C 
ENDROOT
BRANCH   1   2
ATOM      2  C   UNL     1       5.187  24.605 113.435  1.00  0.00     0.000 C 
BRANCH   2   3
ATOM      3  C   UNL     1       6.418  25.529 113.500  1.00  0.00     0.000 C 
BRANCH   3   4
ATOM      4  C   UNL     1       7.750  24.761 113.459  1.00  0.00     0.000 C 
BRANCH   4   5
ATOM      5  C   UNL     1       8.417  24.788 112.071  1.00  0.00     0.000 C 
BRANCH   5   6
ATOM      6  C   UNL     1       7.989  25.952 111.155  1.00  0.00     0.006 C 
BRANCH   6   7
ATOM      7  C   UNL     1       8.665  25.962 109.774  1.00  0.00     0.053 C 
BRANCH   7   8
ATOM      8  C   UNL     1       7.664  25.961 108.660  1.00  0.00     0.041 C 
ATOM      9  O   UNL     1       7.795  25.166 107.693  1.00  0.00    -0.550 OA
ATOM     10  O   UNL     1       6.569  26.815 108.707  1.00  0.00    -0.550 OA
ENDBRANCH   7   8
ENDBRANCH   6   7
ENDBRANCH   5   6
ENDBRANCH   4   5
ENDBRANCH   3   4
ENDBRANCH   2   3
ENDBRANCH   1   2
BRANCH   1  11
ATOM     11  C   UNL     1       4.420  25.662 111.224  1.00  0.00     0.000 C 
BRANCH  11  12
ATOM     12  C   UNL     1       2.966  25.870 110.765  1.00  0.00     0.000 C 
BRANCH  12  13
ATOM     13  C   UNL     1       2.198  26.917 111.599  1.00  0.00     0.000 C 
BRANCH  13  14
ATOM     14  C   UNL     1       1.500  26.285 112.816  1.00  0.00     0.000 C 
BRANCH  14  15
ATOM     15  C   UNL     1       2.183  26.651 114.144  1.00  0.00     0.000 C 
BRANCH  15  16
ATOM     16  C   UNL     1       2.754  28.076 114.137  1.00  0.00     0.006 C 
BRANCH  16  17
ATOM     17  C   UNL     1       4.180  28.097 114.696  1.00  0.00     0.053 C 
BRANCH  17  18
ATOM     18  C   UNL     1       5.077  28.908 113.816  1.00  0.00     0.041 C 
ATOM     19  O   UNL     1       4.929  28.884 112.566  1.00  0.00    -0.550 OA
ATOM     20  O   UNL     1       6.113  29.649 114.372  1.00  0.00    -0.550 OA
ENDBRANCH  17  18
ENDBRANCH  16  17
ENDBRANCH  15  16
ENDBRANCH  14  15
ENDBRANCH  13  14
ENDBRANCH  12  13
ENDBRANCH  11  12
ENDBRANCH   1  11
TORSDOF 15
ENDMDL
MODEL 8
REMARK VINA RESULT:    -3.799      3.799      5.207
REMARK INTER + INTRA:          -9.142
REMARK INTER:                  -7.194
REMARK INTRA:                  -1.948
REMARK UNBOUND:                -2.012
REMARK SMILES O=C([O-])CCCCCCCCCCCCCCC(=O)[O-]
REMARK SMILES IDX 10 1 9 2 8 3 7 4 6 5 5 6 4 7 2 8 1 9 3 10 11 11 12 12 13 13
REMARK SMILES IDX 14 14 15 15 16 16 17 17 18 18 19 19 20 20
REMARK H PARENT
REMARK Flexibility Score: inf
ROOT
ATOM      1  C   UNL     1       3.959  29.159 112.329  1.00  0.00     0.000 C 
ENDROOT
BRANCH   1   2
ATOM      2  C   UNL     1       3.091  28.577 111.197  1.00  0.00     0.000 C 
BRANCH   2   3
ATOM      3  C   UNL     1       3.422  27.131 110.784  1.00  0.00     0.000 C 
BRANCH   3   4
ATOM      4  C   UNL     1       2.911  26.086 111.791  1.00  0.00     0.000 C 
BRANCH   4   5
ATOM      5  C   UNL     1       3.993  25.072 112.207  1.00  0.00     0.000 C 
BRANCH   5   6
ATOM      6  C   UNL     1       5.384  25.296 111.579  1.00  0.00     0.006 C 
BRANCH   6   7
ATOM      7  C   UNL     1       6.487  25.671 112.582  1.00  0.00     0.053 C 
BRANCH   7   8
ATOM      8  C   UNL     1       7.813  25.089 112.202  1.00  0.00     0.041 C 
ATOM      9  O   UNL     1       8.185  23.991 112.692  1.00  0.00    -0.550 OA
ATOM     10  O   UNL     1       8.623  25.742 111.282  1.00  0.00    -0.550 OA
ENDBRANCH   7   8
ENDBRANCH   6   7
ENDBRANCH   5   6
ENDBRANCH   4   5
ENDBRANCH   3   4
ENDBRANCH   2   3
ENDBRANCH   1   2
BRANCH   1  11
ATOM     11  C   UNL     1       3.138  29.590 113.556  1.00  0.00     0.000 C 
BRANCH  11  12
ATOM     12  C   UNL     1       3.141  28.537 114.677  1.00  0.00     0.000 C 
BRANCH  12  13
ATOM     13  C   UNL     1       4.478  27.776 114.807  1.00  0.00     0.000 C 
BRANCH  13  14
ATOM     14  C   UNL     1       5.625  28.700 115.250  1.00  0.00     0.000 C 
BRANCH  14  15
ATOM     15  C   UNL     1       5.287  29.494 116.522  1.00  0.00     0.000 C 
BRANCH  15  16
ATOM     16  C   UNL     1       5.651  30.980 116.401  1.00  0.00     0.006 C 
BRANCH  16  17
ATOM     17  C   UNL     1       6.107  31.317 114.978  1.00  0.00     0.053 C 
BRANCH  17  18
ATOM     18  C   UNL     1       7.482  31.907 114.993  1.00  0.00     0.041 C 
ATOM     19  O   UNL     1       7.878  32.564 115.991  1.00  0.00    -0.550 OA
ATOM     20  O   UNL     1       8.306  31.776 113.882  1.00  0.00    -0.550 OA
ENDBRANCH  17  18
ENDBRANCH  16  17
ENDBRANCH  15  16
ENDBRANCH  14  15
ENDBRANCH  13  14
ENDBRANCH  12  13
ENDBRANCH  11  12
ENDBRANCH   1  11
TORSDOF 15
ENDMDL
MODEL 9
REMARK VINA RESULT:    -3.778      3.534      5.238
REMARK INTER + INTRA:          -9.102
REMARK INTER:                  -7.477
REMARK INTRA:                  -1.625
REMARK UNBOUND:                -2.012
REMARK SMILES O=C([O-])CCCCCCCCCCCCCCC(=O)[O-]
REMARK SMILES IDX 10 1 9 2 8 3 7 4 6 5 5 6 4 7 2 8 1 9 3 10 11 11 12 12 13 13
REMARK SMILES IDX 14 14 15 15 16 16 17 17 18 18 19 19 20 20
REMARK H PARENT
REMARK Flexibility Score: inf
ROOT
ATOM      1  C   UNL     1       2.344  28.120 110.366  1.00  0.00     0.000 C 
ENDROOT
BRANCH   1   2
ATOM      2  C   UNL     1       1.546  28.948 111.392  1.00  0.00     0.000 C 
BRANCH   2   3
ATOM      3  C   UNL     1       2.073  30.372 111.649  1.00  0.00     0.000 C 
BRANCH   3   4
ATOM      4  C   UNL     1       2.707  30.537 113.040  1.00  0.00     0.000 C 
BRANCH   4   5
ATOM      5  C   UNL     1       4.192  30.131 113.077  1.00  0.00     0.000 C 
BRANCH   5   6
ATOM      6  C   UNL     1       4.955  30.531 114.356  1.00  0.00     0.006 C 
BRANCH   6   7
ATOM      7  C   UNL     1       5.713  31.865 114.258  1.00  0.00     0.053 C 
BRANCH   7   8
ATOM      8  C   UNL     1       7.195  31.664 114.193  1.00  0.00     0.041 C 
ATOM      9  O   UNL     1       7.826  31.273 115.210  1.00  0.00    -0.550 OA
ATOM     10  O   UNL     1       7.876  31.876 113.000  1.00  0.00    -0.550 OA
ENDBRANCH   7   8
ENDBRANCH   6   7
ENDBRANCH   5   6
ENDBRANCH   4   5
ENDBRANCH   3   4
ENDBRANCH   2   3
ENDBRANCH   1   2
BRANCH   1  11
ATOM     11  C   UNL     1       2.663  26.698 110.857  1.00  0.00     0.000 C 
BRANCH  11  12
ATOM     12  C   UNL     1       2.110  26.415 112.264  1.00  0.00     0.000 C 
BRANCH  12  13
ATOM     13  C   UNL     1       3.180  26.486 113.376  1.00  0.00     0.000 C 
BRANCH  13  14
ATOM     14  C   UNL     1       4.607  26.413 112.806  1.00  0.00     0.000 C 
BRANCH  14  15
ATOM     15  C   UNL     1       5.184  24.988 112.843  1.00  0.00     0.000 C 
BRANCH  15  16
ATOM     16  C   UNL     1       5.957  24.635 111.564  1.00  0.00     0.006 C 
BRANCH  16  17
ATOM     17  C   UNL     1       7.439  25.002 111.702  1.00  0.00     0.053 C 
BRANCH  17  18
ATOM     18  C   UNL     1       7.790  26.120 110.773  1.00  0.00     0.041 C 
ATOM     19  O   UNL     1       8.395  25.881 109.695  1.00  0.00    -0.550 OA
ATOM     20  O   UNL     1       7.499  27.433 111.123  1.00  0.00    -0.550 OA
ENDBRANCH  17  18
ENDBRANCH  16  17
ENDBRANCH  15  16
ENDBRANCH  14  15
ENDBRANCH  13  14
ENDBRANCH  12  13
ENDBRANCH  11  12
ENDBRANCH   1  11
TORSDOF 15
ENDMDL
