MODEL 1
REMARK VINA RESULT:    -2.897      0.000      0.000
REMARK INTER + INTRA:          -4.168
REMARK INTER:                  -3.744
REMARK INTRA:                  -0.425
REMARK UNBOUND:                -0.425
REMARK SMILES CCCCCCC(=O)[O-]
REMARK SMILES IDX 5 1 6 2 7 3 8 4 9 5 4 6 3 7 2 8 1 9
REMARK H PARENT
REMARK Flexibility Score: inf
ROOT
ATOM      1  C   UNL     1      -5.555  29.928 107.891  1.00  0.00     0.006 C 
ENDROOT
BRANCH   1   2
ATOM      2  C   UNL     1      -6.478  28.735 107.619  1.00  0.00     0.053 C 
BRANCH   2   3
ATOM      3  C   UNL     1      -7.662  29.163 106.810  1.00  0.00     0.041 C 
ATOM      4  O   UNL     1      -8.097  28.425 105.887  1.00  0.00    -0.550 OA
ATOM      5  O   UNL     1      -8.254  30.397 107.043  1.00  0.00    -0.550 OA
ENDBRANCH   2   3
ENDBRANCH   1   2
BRANCH   1   6
ATOM      6  C   UNL     1      -4.476  30.048 106.805  1.00  0.00     0.000 C 
BRANCH   6   7
ATOM      7  C   UNL     1      -4.737  31.233 105.852  1.00  0.00    -0.000 C 
BRANCH   7   8
ATOM      8  C   UNL     1      -5.129  30.803 104.428  1.00  0.00    -0.003 C 
ATOM      9  C   UNL     1      -6.527  31.268 104.026  1.00  0.00     0.004 C 
ENDBRANCH   7   8
ENDBRANCH   6   7
ENDBRANCH   1   6
TORSDOF 5
ENDMDL
MODEL 2
REMARK VINA RESULT:    -2.869     15.988     17.668
REMARK INTER + INTRA:          -4.132
REMARK INTER:                  -4.008
REMARK INTRA:                  -0.125
REMARK UNBOUND:                -0.425
REMARK SMILES CCCCCCC(=O)[O-]
REMARK SMILES IDX 5 1 6 2 7 3 8 4 9 5 4 6 3 7 2 8 1 9
REMARK H PARENT
REMARK Flexibility Score: inf
ROOT
ATOM      1  C   UNL     1      -3.009  43.589  96.456  1.00  0.00     0.006 C 
ENDROOT
BRANCH   1   2
ATOM      2  C   UNL     1      -2.782  44.548  95.283  1.00  0.00     0.053 C 
BRANCH   2   3
ATOM      3  C   UNL     1      -1.799  45.612  95.658  1.00  0.00     0.041 C 
ATOM      4  O   UNL     1      -0.958  46.021  94.816  1.00  0.00    -0.550 OA
ATOM      5  O   UNL     1      -1.780  46.116  96.952  1.00  0.00    -0.550 OA
ENDBRANCH   2   3
ENDBRANCH   1   2
BRANCH   1   6
ATOM      6  C   UNL     1      -2.800  42.130  96.024  1.00  0.00     0.000 C 
BRANCH   6   7
ATOM      7  C   UNL     1      -2.360  41.231  97.200  1.00  0.00    -0.000 C 
BRANCH   7   8
ATOM      8  C   UNL     1      -1.994  39.799  96.775  1.00  0.00    -0.003 C 
ATOM      9  C   UNL     1      -1.586  39.696  95.307  1.00  0.00     0.004 C 
ENDBRANCH   7   8
ENDBRANCH   6   7
ENDBRANCH   1   6
TORSDOF 5
ENDMDL
MODEL 3
REMARK VINA RESULT:    -2.852     15.301     16.831
REMARK INTER + INTRA:          -4.110
REMARK INTER:                  -4.018
REMARK INTRA:                  -0.092
REMARK UNBOUND:                -0.425
REMARK SMILES CCCCCCC(=O)[O-]
REMARK SMILES IDX 5 1 6 2 7 3 8 4 9 5 4 6 3 7 2 8 1 9
REMARK H PARENT
REMARK Flexibility Score: inf
ROOT
ATOM      1  C   UNL     1      -2.779  42.055  95.933  1.00  0.00     0.006 C 
ENDROOT
BRANCH   1   2
ATOM      2  C   UNL     1      -2.339  41.213  97.135  1.00  0.00     0.053 C 
BRANCH   2   3
ATOM      3  C   UNL     1      -1.928  39.844  96.693  1.00  0.00     0.041 C 
ATOM      4  O   UNL     1      -2.179  38.844  97.416  1.00  0.00    -0.550 OA
ATOM      5  O   UNL     1      -1.225  39.677  95.507  1.00  0.00    -0.550 OA
ENDBRANCH   2   3
ENDBRANCH   1   2
BRANCH   1   6
ATOM      6  C   UNL     1      -3.081  43.501  96.355  1.00  0.00     0.000 C 
BRANCH   6   7
ATOM      7  C   UNL     1      -2.709  44.519  95.256  1.00  0.00    -0.000 C 
BRANCH   7   8
ATOM      8  C   UNL     1      -1.804  45.659  95.754  1.00  0.00    -0.003 C 
ATOM      9  C   UNL     1      -0.932  46.256  94.652  1.00  0.00     0.004 C 
ENDBRANCH   7   8
ENDBRANCH   6   7
ENDBRANCH   1   6
TORSDOF 5
ENDMDL
MODEL 4
REMARK VINA RESULT:    -2.843     18.692     19.897
REMARK INTER + INTRA:          -4.099
REMARK INTER:                  -3.834
REMARK INTRA:                  -0.265
REMARK UNBOUND:                -0.425
REMARK SMILES CCCCCCC(=O)[O-]
REMARK SMILES IDX 5 1 6 2 7 3 8 4 9 5 4 6 3 7 2 8 1 9
REMARK H PARENT
REMARK Flexibility Score: inf
ROOT
ATOM      1  C   UNL     1     -17.398  40.800  95.952  1.00  0.00     0.006 C 
ENDROOT
BRANCH   1   2
ATOM      2  C   UNL     1     -18.439  41.627  96.713  1.00  0.00     0.053 C 
BRANCH   2   3
ATOM      3  C   UNL     1     -19.299  40.741  97.557  1.00  0.00     0.041 C 
ATOM      4  O   UNL     1     -19.839  39.720  97.056  1.00  0.00    -0.550 OA
ATOM      5  O   UNL     1     -19.543  41.068  98.884  1.00  0.00    -0.550 OA
ENDBRANCH   2   3
ENDBRANCH   1   2
BRANCH   1   6
ATOM      6  C   UNL     1     -17.339  41.213  94.474  1.00  0.00     0.000 C 
BRANCH   6   7
ATOM      7  C   UNL     1     -18.733  41.559  93.909  1.00  0.00    -0.000 C 
BRANCH   7   8
ATOM      8  C   UNL     1     -19.382  40.407  93.124  1.00  0.00    -0.003 C 
ATOM      9  C   UNL     1     -20.879  40.605  92.898  1.00  0.00     0.004 C 
ENDBRANCH   7   8
ENDBRANCH   6   7
ENDBRANCH   1   6
TORSDOF 5
ENDMDL
MODEL 5
REMARK VINA RESULT:    -2.763      1.974      2.849
REMARK INTER + INTRA:          -3.996
REMARK INTER:                  -3.588
REMARK INTRA:                  -0.408
REMARK UNBOUND:                -0.425
REMARK SMILES CCCCCCC(=O)[O-]
REMARK SMILES IDX 5 1 6 2 7 3 8 4 9 5 4 6 3 7 2 8 1 9
REMARK H PARENT
REMARK Flexibility Score: inf
ROOT
ATOM      1  C   UNL     1      -7.348  29.123 106.374  1.00  0.00     0.006 C 
ENDROOT
BRANCH   1   2
ATOM      2  C   UNL     1      -6.582  28.814 107.664  1.00  0.00     0.053 C 
BRANCH   2   3
ATOM      3  C   UNL     1      -5.359  29.668 107.765  1.00  0.00     0.041 C 
ATOM      4  O   UNL     1      -5.277  30.554 108.656  1.00  0.00    -0.550 OA
ATOM      5  O   UNL     1      -4.329  29.520 106.845  1.00  0.00    -0.550 OA
ENDBRANCH   2   3
ENDBRANCH   1   2
BRANCH   1   6
ATOM      6  C   UNL     1      -7.907  30.554 106.394  1.00  0.00     0.000 C 
BRANCH   6   7
ATOM      7  C   UNL     1      -7.487  31.362 105.147  1.00  0.00    -0.000 C 
BRANCH   7   8
ATOM      8  C   UNL     1      -6.532  30.599 104.213  1.00  0.00    -0.003 C 
ATOM      9  C   UNL     1      -5.236  31.357 103.934  1.00  0.00     0.004 C 
ENDBRANCH   7   8
ENDBRANCH   6   7
ENDBRANCH   1   6
TORSDOF 5
ENDMDL
MODEL 6
REMARK VINA RESULT:    -2.758     19.300     20.823
REMARK INTER + INTRA:          -3.988
REMARK INTER:                  -3.786
REMARK INTRA:                  -0.202
REMARK UNBOUND:                -0.425
REMARK SMILES CCCCCCC(=O)[O-]
REMARK SMILES IDX 5 1 6 2 7 3 8 4 9 5 4 6 3 7 2 8 1 9
REMARK H PARENT
REMARK Flexibility Score: inf
ROOT
ATOM      1  C   UNL     1     -19.235  41.394  93.648  1.00  0.00     0.006 C 
ENDROOT
BRANCH   1   2
ATOM      2  C   UNL     1     -18.911  40.522  94.865  1.00  0.00     0.053 C 
BRANCH   2   3
ATOM      3  C   UNL     1     -17.998  41.248  95.802  1.00  0.00     0.041 C 
ATOM      4  O   UNL     1     -16.755  41.243  95.606  1.00  0.00    -0.550 OA
ATOM      5  O   UNL     1     -18.516  41.890  96.920  1.00  0.00    -0.550 OA
ENDBRANCH   2   3
ENDBRANCH   1   2
BRANCH   1   6
ATOM      6  C   UNL     1     -20.585  41.000  93.032  1.00  0.00     0.000 C 
BRANCH   6   7
ATOM      7  C   UNL     1     -20.627  39.513  92.621  1.00  0.00    -0.000 C 
BRANCH   7   8
ATOM      8  C   UNL     1     -19.612  39.149  91.523  1.00  0.00    -0.003 C 
ATOM      9  C   UNL     1     -19.130  37.703  91.610  1.00  0.00     0.004 C 
ENDBRANCH   7   8
ENDBRANCH   6   7
ENDBRANCH   1   6
TORSDOF 5
ENDMDL
MODEL 7
REMARK VINA RESULT:    -2.757     19.571     21.070
REMARK INTER + INTRA:          -3.987
REMARK INTER:                  -3.645
REMARK INTRA:                  -0.343
REMARK UNBOUND:                -0.425
REMARK SMILES CCCCCCC(=O)[O-]
REMARK SMILES IDX 5 1 6 2 7 3 8 4 9 5 4 6 3 7 2 8 1 9
REMARK H PARENT
REMARK Flexibility Score: inf
ROOT
ATOM      1  C   UNL     1     -20.090  39.166  92.647  1.00  0.00     0.006 C 
ENDROOT
BRANCH   1   2
ATOM      2  C   UNL     1     -19.325  39.211  91.319  1.00  0.00     0.053 C 
BRANCH   2   3
ATOM      3  C   UNL     1     -18.026  38.479  91.437  1.00  0.00     0.041 C 
ATOM      4  O   UNL     1     -17.146  38.877  92.245  1.00  0.00    -0.550 OA
ATOM      5  O   UNL     1     -17.767  37.386  90.621  1.00  0.00    -0.550 OA
ENDBRANCH   2   3
ENDBRANCH   1   2
BRANCH   1   6
ATOM      6  C   UNL     1     -20.525  40.574  93.080  1.00  0.00     0.000 C 
BRANCH   6   7
ATOM      7  C   UNL     1     -19.323  41.467  93.453  1.00  0.00    -0.000 C 
BRANCH   7   8
ATOM      8  C   UNL     1     -18.710  41.133  94.824  1.00  0.00    -0.003 C 
ATOM      9  C   UNL     1     -17.188  41.257  94.846  1.00  0.00     0.004 C 
ENDBRANCH   7   8
ENDBRANCH   6   7
ENDBRANCH   1   6
TORSDOF 5
ENDMDL
MODEL 8
REMARK VINA RESULT:    -2.749     19.522     20.890
REMARK INTER + INTRA:          -3.978
REMARK INTER:                  -3.722
REMARK INTRA:                  -0.255
REMARK UNBOUND:                -0.425
REMARK SMILES CCCCCCC(=O)[O-]
REMARK SMILES IDX 5 1 6 2 7 3 8 4 9 5 4 6 3 7 2 8 1 9
REMARK H PARENT
REMARK Flexibility Score: inf
ROOT
ATOM      1  C   UNL     1     -19.931  40.404  93.148  1.00  0.00     0.006 C 
ENDROOT
BRANCH   1   2
ATOM      2  C   UNL     1     -19.024  39.201  92.869  1.00  0.00     0.053 C 
BRANCH   2   3
ATOM      3  C   UNL     1     -19.443  38.509  91.611  1.00  0.00     0.041 C 
ATOM      4  O   UNL     1     -19.955  37.360  91.661  1.00  0.00    -0.550 OA
ATOM      5  O   UNL     1     -19.223  39.112  90.379  1.00  0.00    -0.550 OA
ENDBRANCH   2   3
ENDBRANCH   1   2
BRANCH   1   6
ATOM      6  C   UNL     1     -19.161  41.518  93.872  1.00  0.00     0.000 C 
BRANCH   6   7
ATOM      7  C   UNL     1     -17.700  41.119  94.170  1.00  0.00    -0.000 C 
BRANCH   7   8
ATOM      8  C   UNL     1     -17.341  41.169  95.665  1.00  0.00    -0.003 C 
ATOM      9  C   UNL     1     -18.527  41.540  96.553  1.00  0.00     0.004 C 
ENDBRANCH   7   8
ENDBRANCH   6   7
ENDBRANCH   1   6
TORSDOF 5
ENDMDL
MODEL 9
REMARK VINA RESULT:    -2.730     19.659     20.666
REMARK INTER + INTRA:          -3.953
REMARK INTER:                  -3.778
REMARK INTRA:                  -0.175
REMARK UNBOUND:                -0.425
REMARK SMILES CCCCCCC(=O)[O-]
REMARK SMILES IDX 5 1 6 2 7 3 8 4 9 5 4 6 3 7 2 8 1 9
REMARK H PARENT
REMARK Flexibility Score: inf
ROOT
ATOM      1  C   UNL     1     -18.671  40.861  93.807  1.00  0.00     0.006 C 
ENDROOT
BRANCH   1   2
ATOM      2  C   UNL     1     -18.492  39.637  92.904  1.00  0.00     0.053 C 
BRANCH   2   3
ATOM      3  C   UNL     1     -19.624  39.531  91.932  1.00  0.00     0.041 C 
ATOM      4  O   UNL     1     -20.785  39.881  92.272  1.00  0.00    -0.550 OA
ATOM      5  O   UNL     1     -19.408  39.002  90.667  1.00  0.00    -0.550 OA
ENDBRANCH   2   3
ENDBRANCH   1   2
BRANCH   1   6
ATOM      6  C   UNL     1     -17.337  41.275  94.446  1.00  0.00     0.000 C 
BRANCH   6   7
ATOM      7  C   UNL     1     -17.368  41.161  95.986  1.00  0.00    -0.000 C 
BRANCH   7   8
ATOM      8  C   UNL     1     -18.782  40.963  96.559  1.00  0.00    -0.003 C 
ATOM      9  C   UNL     1     -19.049  41.815  97.798  1.00  0.00     0.004 C 
ENDBRANCH   7   8
ENDBRANCH   6   7
ENDBRANCH   1   6
TORSDOF 5
ENDMDL
