MODEL 1
REMARK VINA RESULT:    -5.106      0.000      0.000
REMARK INTER + INTRA:         -11.006
REMARK INTER:                  -9.584
REMARK INTRA:                  -1.421
REMARK UNBOUND:                -1.421
REMARK SMILES O=C([O-])CCCCCCCCCCCCCCC(=O)[O-]
REMARK SMILES IDX 10 1 9 2 8 3 7 4 6 5 5 6 4 7 2 8 1 9 3 10 11 11 12 12 13 13
REMARK SMILES IDX 14 14 15 15 16 16 17 17 18 18 19 19 20 20
REMARK H PARENT
REMARK Flexibility Score: inf
ROOT
ATOM      1  C   UNL     1      40.039  59.672   7.391  1.00  0.00     0.000 C 
ENDROOT
BRANCH   1   2
ATOM      2  C   UNL     1      39.811  61.029   8.076  1.00  0.00     0.000 C 
BRANCH   2   3
ATOM      3  C   UNL     1      41.105  61.852   8.204  1.00  0.00     0.000 C 
BRANCH   3   4
ATOM      4  C   UNL     1      40.834  63.336   8.495  1.00  0.00     0.000 C 
BRANCH   4   5
ATOM      5  C   UNL     1      39.348  63.628   8.756  1.00  0.00     0.000 C 
BRANCH   5   6
ATOM      6  C   UNL     1      38.954  65.006   8.201  1.00  0.00     0.006 C 
BRANCH   6   7
ATOM      7  C   UNL     1      38.965  65.039   6.667  1.00  0.00     0.053 C 
BRANCH   7   8
ATOM      8  C   UNL     1      38.028  66.075   6.127  1.00  0.00     0.041 C 
ATOM      9  O   UNL     1      38.209  66.558   4.978  1.00  0.00    -0.550 OA
ATOM     10  O   UNL     1      36.972  66.530   6.906  1.00  0.00    -0.550 OA
ENDBRANCH   7   8
ENDBRANCH   6   7
ENDBRANCH   5   6
ENDBRANCH   4   5
ENDBRANCH   3   4
ENDBRANCH   2   3
ENDBRANCH   1   2
BRANCH   1  11
ATOM     11  C   UNL     1      39.764  58.479   8.324  1.00  0.00     0.000 C 
BRANCH  11  12
ATOM     12  C   UNL     1      41.063  57.751   8.731  1.00  0.00     0.000 C 
BRANCH  12  13
ATOM     13  C   UNL     1      42.319  58.282   8.019  1.00  0.00     0.000 C 
BRANCH  13  14
ATOM     14  C   UNL     1      42.931  57.259   7.049  1.00  0.00     0.000 C 
BRANCH  14  15
ATOM     15  C   UNL     1      42.041  56.020   6.841  1.00  0.00     0.000 C 
BRANCH  15  16
ATOM     16  C   UNL     1      41.631  55.740   5.380  1.00  0.00     0.006 C 
BRANCH  16  17
ATOM     17  C   UNL     1      40.670  56.775   4.776  1.00  0.00     0.053 C 
BRANCH  17  18
ATOM     18  C   UNL     1      39.236  56.375   4.948  1.00  0.00     0.041 C 
ATOM     19  O   UNL     1      38.399  57.198   5.403  1.00  0.00    -0.550 OA
ATOM     20  O   UNL     1      38.820  55.103   4.576  1.00  0.00    -0.550 OA
ENDBRANCH  17  18
ENDBRANCH  16  17
ENDBRANCH  15  16
ENDBRANCH  14  15
ENDBRANCH  13  14
ENDBRANCH  12  13
ENDBRANCH  11  12
ENDBRANCH   1  11
TORSDOF 15
ENDMDL
MODEL 2
REMARK VINA RESULT:    -4.957      2.133      6.692
REMARK INTER + INTRA:         -10.724
REMARK INTER:                  -8.069
REMARK INTRA:                  -2.656
REMARK UNBOUND:                -1.421
REMARK SMILES O=C([O-])CCCCCCCCCCCCCCC(=O)[O-]
REMARK SMILES IDX 10 1 9 2 8 3 7 4 6 5 5 6 4 7 2 8 1 9 3 10 11 11 12 12 13 13
REMARK SMILES IDX 14 14 15 15 16 16 17 17 18 18 19 19 20 20
REMARK H PARENT
REMARK Flexibility Score: inf
ROOT
ATOM      1  C   UNL     1      41.306  57.138   7.609  1.00  0.00     0.000 C 
ENDROOT
BRANCH   1   2
ATOM      2  C   UNL     1      40.369  57.875   8.580  1.00  0.00     0.000 C 
BRANCH   2   3
ATOM      3  C   UNL     1      39.044  58.294   7.919  1.00  0.00     0.000 C 
BRANCH   3   4
ATOM      4  C   UNL     1      39.124  58.293   6.384  1.00  0.00     0.000 C 
BRANCH   4   5
ATOM      5  C   UNL     1      38.664  59.623   5.766  1.00  0.00     0.000 C 
BRANCH   5   6
ATOM      6  C   UNL     1      39.545  60.004   4.566  1.00  0.00     0.006 C 
BRANCH   6   7
ATOM      7  C   UNL     1      40.537  58.893   4.199  1.00  0.00     0.053 C 
BRANCH   7   8
ATOM      8  C   UNL     1      40.225  58.288   2.865  1.00  0.00     0.041 C 
ATOM      9  O   UNL     1      40.833  58.677   1.834  1.00  0.00    -0.550 OA
ATOM     10  O   UNL     1      39.240  57.315   2.757  1.00  0.00    -0.550 OA
ENDBRANCH   7   8
ENDBRANCH   6   7
ENDBRANCH   5   6
ENDBRANCH   4   5
ENDBRANCH   3   4
ENDBRANCH   2   3
ENDBRANCH   1   2
BRANCH   1  11
ATOM     11  C   UNL     1      42.632  57.885   7.379  1.00  0.00     0.000 C 
BRANCH  11  12
ATOM     12  C   UNL     1      42.578  59.337   7.903  1.00  0.00     0.000 C 
BRANCH  12  13
ATOM     13  C   UNL     1      42.762  60.397   6.803  1.00  0.00     0.000 C 
BRANCH  13  14
ATOM     14  C   UNL     1      41.781  61.572   6.940  1.00  0.00     0.000 C 
BRANCH  14  15
ATOM     15  C   UNL     1      41.049  61.590   8.295  1.00  0.00     0.000 C 
BRANCH  15  16
ATOM     16  C   UNL     1      39.639  62.217   8.275  1.00  0.00     0.006 C 
BRANCH  16  17
ATOM     17  C   UNL     1      39.548  63.607   8.920  1.00  0.00     0.053 C 
BRANCH  17  18
ATOM     18  C   UNL     1      39.640  64.704   7.903  1.00  0.00     0.041 C 
ATOM     19  O   UNL     1      38.608  65.337   7.557  1.00  0.00    -0.550 OA
ATOM     20  O   UNL     1      40.874  65.048   7.363  1.00  0.00    -0.550 OA
ENDBRANCH  17  18
ENDBRANCH  16  17
ENDBRANCH  15  16
ENDBRANCH  14  15
ENDBRANCH  13  14
ENDBRANCH  12  13
ENDBRANCH  11  12
ENDBRANCH   1  11
TORSDOF 15
ENDMDL
MODEL 3
REMARK VINA RESULT:    -4.946      2.674      6.536
REMARK INTER + INTRA:         -10.705
REMARK INTER:                  -8.388
REMARK INTRA:                  -2.316
REMARK UNBOUND:                -1.421
REMARK SMILES O=C([O-])CCCCCCCCCCCCCCC(=O)[O-]
REMARK SMILES IDX 10 1 9 2 8 3 7 4 6 5 5 6 4 7 2 8 1 9 3 10 11 11 12 12 13 13
REMARK SMILES IDX 14 14 15 15 16 16 17 17 18 18 19 19 20 20
REMARK H PARENT
REMARK Flexibility Score: inf
ROOT
ATOM      1  C   UNL     1      42.409  59.232   7.499  1.00  0.00     0.000 C 
ENDROOT
BRANCH   1   2
ATOM      2  C   UNL     1      41.453  58.406   8.375  1.00  0.00     0.000 C 
BRANCH   2   3
ATOM      3  C   UNL     1      40.361  57.699   7.554  1.00  0.00     0.000 C 
BRANCH   3   4
ATOM      4  C   UNL     1      38.950  58.212   7.882  1.00  0.00     0.000 C 
BRANCH   4   5
ATOM      5  C   UNL     1      38.236  58.806   6.657  1.00  0.00     0.000 C 
BRANCH   5   6
ATOM      6  C   UNL     1      39.035  58.536   5.373  1.00  0.00     0.006 C 
BRANCH   6   7
ATOM      7  C   UNL     1      39.293  59.817   4.569  1.00  0.00     0.053 C 
BRANCH   7   8
ATOM      8  C   UNL     1      38.523  59.832   3.284  1.00  0.00     0.041 C 
ATOM      9  O   UNL     1      37.474  59.147   3.165  1.00  0.00    -0.550 OA
ATOM     10  O   UNL     1      38.983  60.579   2.208  1.00  0.00    -0.550 OA
ENDBRANCH   7   8
ENDBRANCH   6   7
ENDBRANCH   5   6
ENDBRANCH   4   5
ENDBRANCH   3   4
ENDBRANCH   2   3
ENDBRANCH   1   2
BRANCH   1  11
ATOM     11  C   UNL     1      41.853  60.628   7.162  1.00  0.00     0.000 C 
BRANCH  11  12
ATOM     12  C   UNL     1      41.133  61.270   8.367  1.00  0.00     0.000 C 
BRANCH  12  13
ATOM     13  C   UNL     1      39.762  61.875   8.018  1.00  0.00     0.000 C 
BRANCH  13  14
ATOM     14  C   UNL     1      39.717  63.399   8.208  1.00  0.00     0.000 C 
BRANCH  14  15
ATOM     15  C   UNL     1      41.094  64.004   8.537  1.00  0.00     0.000 C 
BRANCH  15  16
ATOM     16  C   UNL     1      41.661  64.969   7.475  1.00  0.00     0.006 C 
BRANCH  16  17
ATOM     17  C   UNL     1      40.969  64.892   6.106  1.00  0.00     0.053 C 
BRANCH  17  18
ATOM     18  C   UNL     1      41.659  63.936   5.182  1.00  0.00     0.041 C 
ATOM     19  O   UNL     1      42.906  64.000   5.019  1.00  0.00    -0.550 OA
ATOM     20  O   UNL     1      40.927  62.954   4.525  1.00  0.00    -0.550 OA
ENDBRANCH  17  18
ENDBRANCH  16  17
ENDBRANCH  15  16
ENDBRANCH  14  15
ENDBRANCH  13  14
ENDBRANCH  12  13
ENDBRANCH  11  12
ENDBRANCH   1  11
TORSDOF 15
ENDMDL
MODEL 4
REMARK VINA RESULT:    -4.925      2.890      6.380
REMARK INTER + INTRA:         -10.664
REMARK INTER:                  -8.736
REMARK INTRA:                  -1.928
REMARK UNBOUND:                -1.421
REMARK SMILES O=C([O-])CCCCCCCCCCCCCCC(=O)[O-]
REMARK SMILES IDX 10 1 9 2 8 3 7 4 6 5 5 6 4 7 2 8 1 9 3 10 11 11 12 12 13 13
REMARK SMILES IDX 14 14 15 15 16 16 17 17 18 18 19 19 20 20
REMARK H PARENT
REMARK Flexibility Score: inf
ROOT
ATOM      1  C   UNL     1      40.064  64.658   8.000  1.00  0.00     0.000 C 
ENDROOT
BRANCH   1   2
ATOM      2  C   UNL     1      39.733  63.426   8.857  1.00  0.00     0.000 C 
BRANCH   2   3
ATOM      3  C   UNL     1      39.684  62.127   8.033  1.00  0.00     0.000 C 
BRANCH   3   4
ATOM      4  C   UNL     1      40.867  61.193   8.334  1.00  0.00     0.000 C 
BRANCH   4   5
ATOM      5  C   UNL     1      40.447  59.717   8.430  1.00  0.00     0.000 C 
BRANCH   5   6
ATOM      6  C   UNL     1      41.649  58.790   8.192  1.00  0.00     0.006 C 
BRANCH   6   7
ATOM      7  C   UNL     1      41.265  57.307   8.288  1.00  0.00     0.053 C 
BRANCH   7   8
ATOM      8  C   UNL     1      41.437  56.602   6.978  1.00  0.00     0.041 C 
ATOM      9  O   UNL     1      42.293  55.687   6.856  1.00  0.00    -0.550 OA
ATOM     10  O   UNL     1      40.672  56.979   5.881  1.00  0.00    -0.550 OA
ENDBRANCH   7   8
ENDBRANCH   6   7
ENDBRANCH   5   6
ENDBRANCH   4   5
ENDBRANCH   3   4
ENDBRANCH   2   3
ENDBRANCH   1   2
BRANCH   1  11
ATOM     11  C   UNL     1      41.552  64.732   7.613  1.00  0.00     0.000 C 
BRANCH  11  12
ATOM     12  C   UNL     1      41.746  65.083   6.122  1.00  0.00     0.000 C 
BRANCH  12  13
ATOM     13  C   UNL     1      40.988  64.148   5.163  1.00  0.00     0.000 C 
BRANCH  13  14
ATOM     14  C   UNL     1      41.637  62.760   5.049  1.00  0.00     0.000 C 
BRANCH  14  15
ATOM     15  C   UNL     1      40.920  61.842   4.041  1.00  0.00     0.000 C 
BRANCH  15  16
ATOM     16  C   UNL     1      40.660  60.402   4.530  1.00  0.00     0.006 C 
BRANCH  16  17
ATOM     17  C   UNL     1      39.210  60.122   4.951  1.00  0.00     0.053 C 
BRANCH  17  18
ATOM     18  C   UNL     1      38.450  59.388   3.888  1.00  0.00     0.041 C 
ATOM     19  O   UNL     1      38.317  59.891   2.742  1.00  0.00    -0.550 OA
ATOM     20  O   UNL     1      37.915  58.134   4.157  1.00  0.00    -0.550 OA
ENDBRANCH  17  18
ENDBRANCH  16  17
ENDBRANCH  15  16
ENDBRANCH  14  15
ENDBRANCH  13  14
ENDBRANCH  12  13
ENDBRANCH  11  12
ENDBRANCH   1  11
TORSDOF 15
ENDMDL
MODEL 5
REMARK VINA RESULT:    -4.902      2.349      3.249
REMARK INTER + INTRA:         -10.621
REMARK INTER:                  -8.325
REMARK INTRA:                  -2.296
REMARK UNBOUND:                -1.421
REMARK SMILES O=C([O-])CCCCCCCCCCCCCCC(=O)[O-]
REMARK SMILES IDX 10 1 9 2 8 3 7 4 6 5 5 6 4 7 2 8 1 9 3 10 11 11 12 12 13 13
REMARK SMILES IDX 14 14 15 15 16 16 17 17 18 18 19 19 20 20
REMARK H PARENT
REMARK Flexibility Score: inf
ROOT
ATOM      1  C   UNL     1      42.409  58.991   6.343  1.00  0.00     0.000 C 
ENDROOT
BRANCH   1   2
ATOM      2  C   UNL     1      42.810  60.439   6.671  1.00  0.00     0.000 C 
BRANCH   2   3
ATOM      3  C   UNL     1      41.596  61.377   6.785  1.00  0.00     0.000 C 
BRANCH   3   4
ATOM      4  C   UNL     1      41.178  61.628   8.243  1.00  0.00     0.000 C 
BRANCH   4   5
ATOM      5  C   UNL     1      39.750  62.182   8.363  1.00  0.00     0.000 C 
BRANCH   5   6
ATOM      6  C   UNL     1      39.763  63.610   8.932  1.00  0.00     0.006 C 
BRANCH   6   7
ATOM      7  C   UNL     1      39.353  64.655   7.886  1.00  0.00     0.053 C 
BRANCH   7   8
ATOM      8  C   UNL     1      40.488  64.998   6.970  1.00  0.00     0.041 C 
ATOM      9  O   UNL     1      40.279  65.185   5.743  1.00  0.00    -0.550 OA
ATOM     10  O   UNL     1      41.782  65.081   7.468  1.00  0.00    -0.550 OA
ENDBRANCH   7   8
ENDBRANCH   6   7
ENDBRANCH   5   6
ENDBRANCH   4   5
ENDBRANCH   3   4
ENDBRANCH   2   3
ENDBRANCH   1   2
BRANCH   1  11
ATOM     11  C   UNL     1      42.542  58.048   7.552  1.00  0.00     0.000 C 
BRANCH  11  12
ATOM     12  C   UNL     1      41.224  57.303   7.853  1.00  0.00     0.000 C 
BRANCH  12  13
ATOM     13  C   UNL     1      40.189  58.157   8.605  1.00  0.00     0.000 C 
BRANCH  13  14
ATOM     14  C   UNL     1      38.782  58.063   7.995  1.00  0.00     0.000 C 
BRANCH  14  15
ATOM     15  C   UNL     1      38.547  59.083   6.866  1.00  0.00     0.000 C 
BRANCH  15  16
ATOM     16  C   UNL     1      38.761  58.546   5.435  1.00  0.00     0.006 C 
BRANCH  16  17
ATOM     17  C   UNL     1      39.223  59.600   4.419  1.00  0.00     0.053 C 
BRANCH  17  18
ATOM     18  C   UNL     1      38.347  59.627   3.203  1.00  0.00     0.041 C 
ATOM     19  O   UNL     1      37.328  58.890   3.139  1.00  0.00    -0.550 OA
ATOM     20  O   UNL     1      38.640  60.492   2.155  1.00  0.00    -0.550 OA
ENDBRANCH  17  18
ENDBRANCH  16  17
ENDBRANCH  15  16
ENDBRANCH  14  15
ENDBRANCH  13  14
ENDBRANCH  12  13
ENDBRANCH  11  12
ENDBRANCH   1  11
TORSDOF 15
ENDMDL
MODEL 6
REMARK VINA RESULT:    -4.893      4.650      9.254
REMARK INTER + INTRA:         -10.604
REMARK INTER:                  -9.543
REMARK INTRA:                  -1.061
REMARK UNBOUND:                -1.421
REMARK SMILES O=C([O-])CCCCCCCCCCCCCCC(=O)[O-]
REMARK SMILES IDX 10 1 9 2 8 3 7 4 6 5 5 6 4 7 2 8 1 9 3 10 11 11 12 12 13 13
REMARK SMILES IDX 14 14 15 15 16 16 17 17 18 18 19 19 20 20
REMARK H PARENT
REMARK Flexibility Score: inf
ROOT
ATOM      1  C   UNL     1      40.124  65.479   5.748  1.00  0.00     0.000 C 
ENDROOT
BRANCH   1   2
ATOM      2  C   UNL     1      38.892  65.070   6.571  1.00  0.00     0.000 C 
BRANCH   2   3
ATOM      3  C   UNL     1      39.217  64.864   8.061  1.00  0.00     0.000 C 
BRANCH   3   4
ATOM      4  C   UNL     1      39.409  63.383   8.424  1.00  0.00     0.000 C 
BRANCH   4   5
ATOM      5  C   UNL     1      40.869  63.039   8.757  1.00  0.00     0.000 C 
BRANCH   5   6
ATOM      6  C   UNL     1      41.202  61.599   8.336  1.00  0.00     0.006 C 
BRANCH   6   7
ATOM      7  C   UNL     1      39.948  60.723   8.224  1.00  0.00     0.053 C 
BRANCH   7   8
ATOM      8  C   UNL     1      40.277  59.339   7.754  1.00  0.00     0.041 C 
ATOM      9  O   UNL     1      40.983  59.169   6.726  1.00  0.00    -0.550 OA
ATOM     10  O   UNL     1      39.777  58.237   8.436  1.00  0.00    -0.550 OA
ENDBRANCH   7   8
ENDBRANCH   6   7
ENDBRANCH   5   6
ENDBRANCH   4   5
ENDBRANCH   3   4
ENDBRANCH   2   3
ENDBRANCH   1   2
BRANCH   1  11
ATOM     11  C   UNL     1      40.953  64.272   5.275  1.00  0.00     0.000 C 
BRANCH  11  12
ATOM     12  C   UNL     1      42.393  64.304   5.833  1.00  0.00     0.000 C 
BRANCH  12  13
ATOM     13  C   UNL     1      43.371  65.121   4.972  1.00  0.00     0.000 C 
BRANCH  13  14
ATOM     14  C   UNL     1      43.786  66.444   5.635  1.00  0.00     0.000 C 
BRANCH  14  15
ATOM     15  C   UNL     1      44.968  67.128   4.925  1.00  0.00     0.000 C 
BRANCH  15  16
ATOM     16  C   UNL     1      44.659  68.508   4.310  1.00  0.00     0.006 C 
BRANCH  16  17
ATOM     17  C   UNL     1      45.074  68.660   2.839  1.00  0.00     0.053 C 
BRANCH  17  18
ATOM     18  C   UNL     1      44.243  69.682   2.125  1.00  0.00     0.041 C 
ATOM     19  O   UNL     1      43.278  69.321   1.400  1.00  0.00    -0.550 OA
ATOM     20  O   UNL     1      44.515  71.035   2.286  1.00  0.00    -0.550 OA
ENDBRANCH  17  18
ENDBRANCH  16  17
ENDBRANCH  15  16
ENDBRANCH  14  15
ENDBRANCH  13  14
ENDBRANCH  12  13
ENDBRANCH  11  12
ENDBRANCH   1  11
TORSDOF 15
ENDMDL
MODEL 7
REMARK VINA RESULT:    -4.890      3.330      5.623
REMARK INTER + INTRA:         -10.599
REMARK INTER:                  -8.490
REMARK INTRA:                  -2.110
REMARK UNBOUND:                -1.421
REMARK SMILES O=C([O-])CCCCCCCCCCCCCCC(=O)[O-]
REMARK SMILES IDX 10 1 9 2 8 3 7 4 6 5 5 6 4 7 2 8 1 9 3 10 11 11 12 12 13 13
REMARK SMILES IDX 14 14 15 15 16 16 17 17 18 18 19 19 20 20
REMARK H PARENT
REMARK Flexibility Score: inf
ROOT
ATOM      1  C   UNL     1      39.004  64.706   6.817  1.00  0.00     0.000 C 
ENDROOT
BRANCH   1   2
ATOM      2  C   UNL     1      40.015  65.220   5.778  1.00  0.00     0.000 C 
BRANCH   2   3
ATOM      3  C   UNL     1      41.474  64.994   6.211  1.00  0.00     0.000 C 
BRANCH   3   4
ATOM      4  C   UNL     1      42.196  63.960   5.333  1.00  0.00     0.000 C 
BRANCH   4   5
ATOM      5  C   UNL     1      41.225  63.007   4.619  1.00  0.00     0.000 C 
BRANCH   5   6
ATOM      6  C   UNL     1      41.989  61.883   3.901  1.00  0.00     0.006 C 
BRANCH   6   7
ATOM      7  C   UNL     1      41.963  60.568   4.690  1.00  0.00     0.053 C 
BRANCH   7   8
ATOM      8  C   UNL     1      43.344  60.089   5.018  1.00  0.00     0.041 C 
ATOM      9  O   UNL     1      44.324  60.876   4.939  1.00  0.00    -0.550 OA
ATOM     10  O   UNL     1      43.552  58.765   5.381  1.00  0.00    -0.550 OA
ENDBRANCH   7   8
ENDBRANCH   6   7
ENDBRANCH   5   6
ENDBRANCH   4   5
ENDBRANCH   3   4
ENDBRANCH   2   3
ENDBRANCH   1   2
BRANCH   1  11
ATOM     11  C   UNL     1      39.553  64.748   8.254  1.00  0.00     0.000 C 
BRANCH  11  12
ATOM     12  C   UNL     1      39.380  63.396   8.980  1.00  0.00     0.000 C 
BRANCH  12  13
ATOM     13  C   UNL     1      39.781  62.181   8.125  1.00  0.00     0.000 C 
BRANCH  13  14
ATOM     14  C   UNL     1      41.292  61.906   8.153  1.00  0.00     0.000 C 
BRANCH  14  15
ATOM     15  C   UNL     1      41.629  60.412   8.307  1.00  0.00     0.000 C 
BRANCH  15  16
ATOM     16  C   UNL     1      40.413  59.464   8.365  1.00  0.00     0.006 C 
BRANCH  16  17
ATOM     17  C   UNL     1      40.754  58.006   8.705  1.00  0.00     0.053 C 
BRANCH  17  18
ATOM     18  C   UNL     1      41.102  57.212   7.482  1.00  0.00     0.041 C 
ATOM     19  O   UNL     1      41.849  56.202   7.573  1.00  0.00    -0.550 OA
ATOM     20  O   UNL     1      40.575  57.571   6.248  1.00  0.00    -0.550 OA
ENDBRANCH  17  18
ENDBRANCH  16  17
ENDBRANCH  15  16
ENDBRANCH  14  15
ENDBRANCH  13  14
ENDBRANCH  12  13
ENDBRANCH  11  12
ENDBRANCH   1  11
TORSDOF 15
ENDMDL
MODEL 8
REMARK VINA RESULT:    -4.841      2.117      7.674
REMARK INTER + INTRA:         -10.507
REMARK INTER:                  -8.002
REMARK INTRA:                  -2.505
REMARK UNBOUND:                -1.421
REMARK SMILES O=C([O-])CCCCCCCCCCCCCCC(=O)[O-]
REMARK SMILES IDX 10 1 9 2 8 3 7 4 6 5 5 6 4 7 2 8 1 9 3 10 11 11 12 12 13 13
REMARK SMILES IDX 14 14 15 15 16 16 17 17 18 18 19 19 20 20
REMARK H PARENT
REMARK Flexibility Score: inf
ROOT
ATOM      1  C   UNL     1      38.982  58.020   6.843  1.00  0.00     0.000 C 
ENDROOT
BRANCH   1   2
ATOM      2  C   UNL     1      39.438  58.475   8.239  1.00  0.00     0.000 C 
BRANCH   2   3
ATOM      3  C   UNL     1      40.631  57.659   8.767  1.00  0.00     0.000 C 
BRANCH   3   4
ATOM      4  C   UNL     1      41.548  57.158   7.640  1.00  0.00     0.000 C 
BRANCH   4   5
ATOM      5  C   UNL     1      42.729  58.104   7.372  1.00  0.00     0.000 C 
BRANCH   5   6
ATOM      6  C   UNL     1      42.843  58.428   5.874  1.00  0.00     0.006 C 
BRANCH   6   7
ATOM      7  C   UNL     1      42.191  57.351   4.997  1.00  0.00     0.053 C 
BRANCH   7   8
ATOM      8  C   UNL     1      43.195  56.355   4.502  1.00  0.00     0.041 C 
ATOM      9  O   UNL     1      43.758  56.521   3.388  1.00  0.00    -0.550 OA
ATOM     10  O   UNL     1      43.485  55.227   5.259  1.00  0.00    -0.550 OA
ENDBRANCH   7   8
ENDBRANCH   6   7
ENDBRANCH   5   6
ENDBRANCH   4   5
ENDBRANCH   3   4
ENDBRANCH   2   3
ENDBRANCH   1   2
BRANCH   1  11
ATOM     11  C   UNL     1      38.991  59.162   5.811  1.00  0.00     0.000 C 
BRANCH  11  12
ATOM     12  C   UNL     1      39.218  60.538   6.472  1.00  0.00     0.000 C 
BRANCH  12  13
ATOM     13  C   UNL     1      40.447  61.289   5.932  1.00  0.00     0.000 C 
BRANCH  13  14
ATOM     14  C   UNL     1      41.462  61.639   7.031  1.00  0.00     0.000 C 
BRANCH  14  15
ATOM     15  C   UNL     1      40.799  61.941   8.388  1.00  0.00     0.000 C 
BRANCH  15  16
ATOM     16  C   UNL     1      40.676  63.437   8.743  1.00  0.00     0.006 C 
BRANCH  16  17
ATOM     17  C   UNL     1      39.285  64.040   8.499  1.00  0.00     0.053 C 
BRANCH  17  18
ATOM     18  C   UNL     1      39.247  64.879   7.258  1.00  0.00     0.041 C 
ATOM     19  O   UNL     1      40.253  64.941   6.504  1.00  0.00    -0.550 OA
ATOM     20  O   UNL     1      38.088  65.567   6.920  1.00  0.00    -0.550 OA
ENDBRANCH  17  18
ENDBRANCH  16  17
ENDBRANCH  15  16
ENDBRANCH  14  15
ENDBRANCH  13  14
ENDBRANCH  12  13
ENDBRANCH  11  12
ENDBRANCH   1  11
TORSDOF 15
ENDMDL
MODEL 9
REMARK VINA RESULT:    -4.836      2.493      3.570
REMARK INTER + INTRA:         -10.498
REMARK INTER:                  -8.393
REMARK INTRA:                  -2.105
REMARK UNBOUND:                -1.421
REMARK SMILES O=C([O-])CCCCCCCCCCCCCCC(=O)[O-]
REMARK SMILES IDX 10 1 9 2 8 3 7 4 6 5 5 6 4 7 2 8 1 9 3 10 11 11 12 12 13 13
REMARK SMILES IDX 14 14 15 15 16 16 17 17 18 18 19 19 20 20
REMARK H PARENT
REMARK Flexibility Score: inf
ROOT
ATOM      1  C   UNL     1      41.869  57.685   8.012  1.00  0.00     0.000 C 
ENDROOT
BRANCH   1   2
ATOM      2  C   UNL     1      40.440  58.097   8.399  1.00  0.00     0.000 C 
BRANCH   2   3
ATOM      3  C   UNL     1      40.226  59.619   8.339  1.00  0.00     0.000 C 
BRANCH   3   4
ATOM      4  C   UNL     1      41.502  60.379   7.943  1.00  0.00     0.000 C 
BRANCH   4   5
ATOM      5  C   UNL     1      41.309  61.904   7.947  1.00  0.00     0.000 C 
BRANCH   5   6
ATOM      6  C   UNL     1      39.828  62.268   8.134  1.00  0.00     0.006 C 
BRANCH   6   7
ATOM      7  C   UNL     1      39.648  63.597   8.879  1.00  0.00     0.053 C 
BRANCH   7   8
ATOM      8  C   UNL     1      39.283  64.712   7.946  1.00  0.00     0.041 C 
ATOM      9  O   UNL     1      38.378  65.529   8.257  1.00  0.00    -0.550 OA
ATOM     10  O   UNL     1      39.924  64.828   6.719  1.00  0.00    -0.550 OA
ENDBRANCH   7   8
ENDBRANCH   6   7
ENDBRANCH   5   6
ENDBRANCH   4   5
ENDBRANCH   3   4
ENDBRANCH   2   3
ENDBRANCH   1   2
BRANCH   1  11
ATOM     11  C   UNL     1      41.920  56.342   7.262  1.00  0.00     0.000 C 
BRANCH  11  12
ATOM     12  C   UNL     1      42.638  56.467   5.900  1.00  0.00     0.000 C 
BRANCH  12  13
ATOM     13  C   UNL     1      43.394  57.794   5.719  1.00  0.00     0.000 C 
BRANCH  13  14
ATOM     14  C   UNL     1      42.675  58.764   4.768  1.00  0.00     0.000 C 
BRANCH  14  15
ATOM     15  C   UNL     1      41.352  58.198   4.220  1.00  0.00     0.000 C 
BRANCH  15  16
ATOM     16  C   UNL     1      40.085  58.988   4.612  1.00  0.00     0.006 C 
BRANCH  16  17
ATOM     17  C   UNL     1      40.126  60.481   4.256  1.00  0.00     0.053 C 
BRANCH  17  18
ATOM     18  C   UNL     1      39.790  60.723   2.816  1.00  0.00     0.041 C 
ATOM     19  O   UNL     1      38.687  60.336   2.348  1.00  0.00    -0.550 OA
ATOM     20  O   UNL     1      40.683  61.405   1.999  1.00  0.00    -0.550 OA
ENDBRANCH  17  18
ENDBRANCH  16  17
ENDBRANCH  15  16
ENDBRANCH  14  15
ENDBRANCH  13  14
ENDBRANCH  12  13
ENDBRANCH  11  12
ENDBRANCH   1  11
TORSDOF 15
ENDMDL
