MODEL 1
REMARK VINA RESULT:    -4.580      0.000      0.000
REMARK INTER + INTRA:         -10.708
REMARK INTER:                  -8.596
REMARK INTRA:                  -2.112
REMARK UNBOUND:                -2.112
REMARK SMILES O=C([O-])CCCCCCCCCCCCCCC(=O)[O-]
REMARK SMILES IDX 10 1 9 2 8 3 7 4 6 5 5 6 4 7 2 8 1 9 3 10 11 11 12 12 13 13
REMARK SMILES IDX 14 14 15 15 16 16 17 17 18 18 19 19 20 20
REMARK H PARENT
REMARK Flexibility Score: inf
ROOT
ATOM      1  C   UNL     1      56.000  12.525  88.477  1.00  0.00     0.000 C 
ENDROOT
BRANCH   1   2
ATOM      2  C   UNL     1      57.069  11.416  88.377  1.00  0.00     0.000 C 
BRANCH   2   3
ATOM      3  C   UNL     1      57.023  10.441  89.563  1.00  0.00     0.000 C 
BRANCH   3   4
ATOM      4  C   UNL     1      58.434  10.121  90.068  1.00  0.00     0.000 C 
BRANCH   4   5
ATOM      5  C   UNL     1      59.484  10.976  89.347  1.00  0.00     0.000 C 
BRANCH   5   6
ATOM      6  C   UNL     1      60.867  10.806  89.988  1.00  0.00     0.006 C 
BRANCH   6   7
ATOM      7  C   UNL     1      60.756  10.168  91.375  1.00  0.00     0.053 C 
BRANCH   7   8
ATOM      8  C   UNL     1      61.951  10.509  92.207  1.00  0.00     0.041 C 
ATOM      9  O   UNL     1      62.117  11.685  92.625  1.00  0.00    -0.550 OA
ATOM     10  O   UNL     1      62.858   9.518  92.562  1.00  0.00    -0.550 OA
ENDBRANCH   7   8
ENDBRANCH   6   7
ENDBRANCH   5   6
ENDBRANCH   4   5
ENDBRANCH   3   4
ENDBRANCH   2   3
ENDBRANCH   1   2
BRANCH   1  11
ATOM     11  C   UNL     1      56.428  13.724  89.344  1.00  0.00     0.000 C 
BRANCH  11  12
ATOM     12  C   UNL     1      57.948  13.911  89.498  1.00  0.00     0.000 C 
BRANCH  12  13
ATOM     13  C   UNL     1      58.381  15.000  90.505  1.00  0.00     0.000 C 
BRANCH  13  14
ATOM     14  C   UNL     1      59.023  14.466  91.799  1.00  0.00     0.000 C 
BRANCH  14  15
ATOM     15  C   UNL     1      58.551  13.043  92.182  1.00  0.00     0.000 C 
BRANCH  15  16
ATOM     16  C   UNL     1      57.374  13.040  93.175  1.00  0.00     0.006 C 
BRANCH  16  17
ATOM     17  C   UNL     1      56.353  11.922  92.914  1.00  0.00     0.053 C 
BRANCH  17  18
ATOM     18  C   UNL     1      55.539  11.618  94.133  1.00  0.00     0.041 C 
ATOM     19  O   UNL     1      54.464  12.236  94.351  1.00  0.00    -0.550 OA
ATOM     20  O   UNL     1      55.955  10.632  95.019  1.00  0.00    -0.550 OA
ENDBRANCH  17  18
ENDBRANCH  16  17
ENDBRANCH  15  16
ENDBRANCH  14  15
ENDBRANCH  13  14
ENDBRANCH  12  13
ENDBRANCH  11  12
ENDBRANCH   1  11
TORSDOF 15
ENDMDL
MODEL 2
REMARK VINA RESULT:    -4.572      2.313      4.051
REMARK INTER + INTRA:         -10.693
REMARK INTER:                  -8.721
REMARK INTRA:                  -1.973
REMARK UNBOUND:                -2.112
REMARK SMILES O=C([O-])CCCCCCCCCCCCCCC(=O)[O-]
REMARK SMILES IDX 10 1 9 2 8 3 7 4 6 5 5 6 4 7 2 8 1 9 3 10 11 11 12 12 13 13
REMARK SMILES IDX 14 14 15 15 16 16 17 17 18 18 19 19 20 20
REMARK H PARENT
REMARK Flexibility Score: inf
ROOT
ATOM      1  C   UNL     1      59.609  15.598  91.806  1.00  0.00     0.000 C 
ENDROOT
BRANCH   1   2
ATOM      2  C   UNL     1      59.421  16.239  90.414  1.00  0.00     0.000 C 
BRANCH   2   3
ATOM      3  C   UNL     1      58.424  15.467  89.538  1.00  0.00     0.000 C 
BRANCH   3   4
ATOM      4  C   UNL     1      58.467  13.966  89.846  1.00  0.00     0.000 C 
BRANCH   4   5
ATOM      5  C   UNL     1      57.217  13.258  89.311  1.00  0.00     0.000 C 
BRANCH   5   6
ATOM      6  C   UNL     1      57.480  11.763  89.096  1.00  0.00     0.006 C 
BRANCH   6   7
ATOM      7  C   UNL     1      58.968  11.439  89.248  1.00  0.00     0.053 C 
BRANCH   7   8
ATOM      8  C   UNL     1      59.163  10.291  90.187  1.00  0.00     0.041 C 
ATOM      9  O   UNL     1      60.203  10.218  90.892  1.00  0.00    -0.550 OA
ATOM     10  O   UNL     1      58.172   9.326  90.321  1.00  0.00    -0.550 OA
ENDBRANCH   7   8
ENDBRANCH   6   7
ENDBRANCH   5   6
ENDBRANCH   4   5
ENDBRANCH   3   4
ENDBRANCH   2   3
ENDBRANCH   1   2
BRANCH   1  11
ATOM     11  C   UNL     1      59.749  16.621  92.948  1.00  0.00     0.000 C 
BRANCH  11  12
ATOM     12  C   UNL     1      60.096  16.023  94.324  1.00  0.00     0.000 C 
BRANCH  12  13
ATOM     13  C   UNL     1      59.268  14.785  94.733  1.00  0.00     0.000 C 
BRANCH  13  14
ATOM     14  C   UNL     1      58.050  15.086  95.626  1.00  0.00     0.000 C 
BRANCH  14  15
ATOM     15  C   UNL     1      56.720  14.527  95.067  1.00  0.00     0.000 C 
BRANCH  15  16
ATOM     16  C   UNL     1      56.533  14.797  93.562  1.00  0.00     0.006 C 
BRANCH  16  17
ATOM     17  C   UNL     1      55.946  13.604  92.793  1.00  0.00     0.053 C 
BRANCH  17  18
ATOM     18  C   UNL     1      56.683  12.335  93.090  1.00  0.00     0.041 C 
ATOM     19  O   UNL     1      56.077  11.351  93.592  1.00  0.00    -0.550 OA
ATOM     20  O   UNL     1      58.034  12.229  92.789  1.00  0.00    -0.550 OA
ENDBRANCH  17  18
ENDBRANCH  16  17
ENDBRANCH  15  16
ENDBRANCH  14  15
ENDBRANCH  13  14
ENDBRANCH  12  13
ENDBRANCH  11  12
ENDBRANCH   1  11
TORSDOF 15
ENDMDL
MODEL 3
REMARK VINA RESULT:    -4.541      1.672      2.890
REMARK INTER + INTRA:         -10.636
REMARK INTER:                  -8.701
REMARK INTRA:                  -1.935
REMARK UNBOUND:                -2.112
REMARK SMILES O=C([O-])CCCCCCCCCCCCCCC(=O)[O-]
REMARK SMILES IDX 10 1 9 2 8 3 7 4 6 5 5 6 4 7 2 8 1 9 3 10 11 11 12 12 13 13
REMARK SMILES IDX 14 14 15 15 16 16 17 17 18 18 19 19 20 20
REMARK H PARENT
REMARK Flexibility Score: inf
ROOT
ATOM      1  C   UNL     1      58.212  14.494  89.994  1.00  0.00     0.000 C 
ENDROOT
BRANCH   1   2
ATOM      2  C   UNL     1      56.874  14.782  89.280  1.00  0.00     0.000 C 
BRANCH   2   3
ATOM      3  C   UNL     1      56.113  13.500  88.910  1.00  0.00     0.000 C 
BRANCH   3   4
ATOM      4  C   UNL     1      56.741  12.274  89.584  1.00  0.00     0.000 C 
BRANCH   4   5
ATOM      5  C   UNL     1      57.381  11.343  88.547  1.00  0.00     0.000 C 
BRANCH   5   6
ATOM      6  C   UNL     1      58.837  11.031  88.911  1.00  0.00     0.006 C 
BRANCH   6   7
ATOM      7  C   UNL     1      58.926  10.315  90.261  1.00  0.00     0.053 C 
BRANCH   7   8
ATOM      8  C   UNL     1      60.020  10.902  91.095  1.00  0.00     0.041 C 
ATOM      9  O   UNL     1      61.204  10.494  90.965  1.00  0.00    -0.550 OA
ATOM     10  O   UNL     1      59.741  11.935  91.982  1.00  0.00    -0.550 OA
ENDBRANCH   7   8
ENDBRANCH   6   7
ENDBRANCH   5   6
ENDBRANCH   4   5
ENDBRANCH   3   4
ENDBRANCH   2   3
ENDBRANCH   1   2
BRANCH   1  11
ATOM     11  C   UNL     1      58.527  15.471  91.142  1.00  0.00     0.000 C 
BRANCH  11  12
ATOM     12  C   UNL     1      57.298  16.009  91.899  1.00  0.00     0.000 C 
BRANCH  12  13
ATOM     13  C   UNL     1      57.005  15.324  93.252  1.00  0.00     0.000 C 
BRANCH  13  14
ATOM     14  C   UNL     1      56.519  13.866  93.149  1.00  0.00     0.000 C 
BRANCH  14  15
ATOM     15  C   UNL     1      55.121  13.724  92.501  1.00  0.00     0.000 C 
BRANCH  15  16
ATOM     16  C   UNL     1      54.471  12.352  92.756  1.00  0.00     0.006 C 
BRANCH  16  17
ATOM     17  C   UNL     1      55.364  11.388  93.552  1.00  0.00     0.053 C 
BRANCH  17  18
ATOM     18  C   UNL     1      54.840   9.985  93.512  1.00  0.00     0.041 C 
ATOM     19  O   UNL     1      54.431   9.429  94.565  1.00  0.00    -0.550 OA
ATOM     20  O   UNL     1      54.781   9.300  92.306  1.00  0.00    -0.550 OA
ENDBRANCH  17  18
ENDBRANCH  16  17
ENDBRANCH  15  16
ENDBRANCH  14  15
ENDBRANCH  13  14
ENDBRANCH  12  13
ENDBRANCH  11  12
ENDBRANCH   1  11
TORSDOF 15
ENDMDL
MODEL 4
REMARK VINA RESULT:    -4.501      3.210      5.704
REMARK INTER + INTRA:         -10.559
REMARK INTER:                  -8.745
REMARK INTRA:                  -1.815
REMARK UNBOUND:                -2.112
REMARK SMILES O=C([O-])CCCCCCCCCCCCCCC(=O)[O-]
REMARK SMILES IDX 10 1 9 2 8 3 7 4 6 5 5 6 4 7 2 8 1 9 3 10 11 11 12 12 13 13
REMARK SMILES IDX 14 14 15 15 16 16 17 17 18 18 19 19 20 20
REMARK H PARENT
REMARK Flexibility Score: inf
ROOT
ATOM      1  C   UNL     1      56.749  12.225  92.887  1.00  0.00     0.000 C 
ENDROOT
BRANCH   1   2
ATOM      2  C   UNL     1      56.663  12.006  94.412  1.00  0.00     0.000 C 
BRANCH   2   3
ATOM      3  C   UNL     1      56.306  13.292  95.174  1.00  0.00     0.000 C 
BRANCH   3   4
ATOM      4  C   UNL     1      57.137  13.420  96.456  1.00  0.00     0.000 C 
BRANCH   4   5
ATOM      5  C   UNL     1      58.042  14.658  96.403  1.00  0.00     0.000 C 
BRANCH   5   6
ATOM      6  C   UNL     1      59.281  14.397  95.538  1.00  0.00     0.006 C 
BRANCH   6   7
ATOM      7  C   UNL     1      59.974  15.709  95.160  1.00  0.00     0.053 C 
BRANCH   7   8
ATOM      8  C   UNL     1      60.865  16.170  96.270  1.00  0.00     0.041 C 
ATOM      9  O   UNL     1      60.631  17.256  96.861  1.00  0.00    -0.550 OA
ATOM     10  O   UNL     1      61.926  15.375  96.686  1.00  0.00    -0.550 OA
ENDBRANCH   7   8
ENDBRANCH   6   7
ENDBRANCH   5   6
ENDBRANCH   4   5
ENDBRANCH   3   4
ENDBRANCH   2   3
ENDBRANCH   1   2
BRANCH   1  11
ATOM     11  C   UNL     1      58.023  12.964  92.436  1.00  0.00     0.000 C 
BRANCH  11  12
ATOM     12  C   UNL     1      57.812  14.427  92.003  1.00  0.00     0.000 C 
BRANCH  12  13
ATOM     13  C   UNL     1      57.041  14.619  90.679  1.00  0.00     0.000 C 
BRANCH  13  14
ATOM     14  C   UNL     1      57.556  13.772  89.500  1.00  0.00     0.000 C 
BRANCH  14  15
ATOM     15  C   UNL     1      56.555  12.690  89.032  1.00  0.00     0.000 C 
BRANCH  15  16
ATOM     16  C   UNL     1      57.235  11.370  88.622  1.00  0.00     0.006 C 
BRANCH  16  17
ATOM     17  C   UNL     1      58.705  11.277  89.058  1.00  0.00     0.053 C 
BRANCH  17  18
ATOM     18  C   UNL     1      58.913  10.209  90.087  1.00  0.00     0.041 C 
ATOM     19  O   UNL     1      57.975   9.425  90.388  1.00  0.00    -0.550 OA
ATOM     20  O   UNL     1      60.153  10.063  90.696  1.00  0.00    -0.550 OA
ENDBRANCH  17  18
ENDBRANCH  16  17
ENDBRANCH  15  16
ENDBRANCH  14  15
ENDBRANCH  13  14
ENDBRANCH  12  13
ENDBRANCH  11  12
ENDBRANCH   1  11
TORSDOF 15
ENDMDL
MODEL 5
REMARK VINA RESULT:    -4.465      2.391      5.458
REMARK INTER + INTRA:         -10.492
REMARK INTER:                  -8.599
REMARK INTRA:                  -1.893
REMARK UNBOUND:                -2.112
REMARK SMILES O=C([O-])CCCCCCCCCCCCCCC(=O)[O-]
REMARK SMILES IDX 10 1 9 2 8 3 7 4 6 5 5 6 4 7 2 8 1 9 3 10 11 11 12 12 13 13
REMARK SMILES IDX 14 14 15 15 16 16 17 17 18 18 19 19 20 20
REMARK H PARENT
REMARK Flexibility Score: inf
ROOT
ATOM      1  C   UNL     1      59.615  16.509  89.901  1.00  0.00     0.000 C 
ENDROOT
BRANCH   1   2
ATOM      2  C   UNL     1      59.387  17.393  91.145  1.00  0.00     0.000 C 
BRANCH   2   3
ATOM      3  C   UNL     1      60.701  17.879  91.774  1.00  0.00     0.000 C 
BRANCH   3   4
ATOM      4  C   UNL     1      61.145  16.948  92.909  1.00  0.00     0.000 C 
BRANCH   4   5
ATOM      5  C   UNL     1      59.944  16.490  93.746  1.00  0.00     0.000 C 
BRANCH   5   6
ATOM      6  C   UNL     1      59.790  14.965  93.698  1.00  0.00     0.006 C 
BRANCH   6   7
ATOM      7  C   UNL     1      58.317  14.564  93.584  1.00  0.00     0.053 C 
BRANCH   7   8
ATOM      8  C   UNL     1      58.191  13.098  93.314  1.00  0.00     0.041 C 
ATOM      9  O   UNL     1      58.971  12.535  92.502  1.00  0.00    -0.550 OA
ATOM     10  O   UNL     1      57.245  12.344  93.997  1.00  0.00    -0.550 OA
ENDBRANCH   7   8
ENDBRANCH   6   7
ENDBRANCH   5   6
ENDBRANCH   4   5
ENDBRANCH   3   4
ENDBRANCH   2   3
ENDBRANCH   1   2
BRANCH   1  11
ATOM     11  C   UNL     1      58.938  15.128  89.987  1.00  0.00     0.000 C 
BRANCH  11  12
ATOM     12  C   UNL     1      57.584  15.017  89.263  1.00  0.00     0.000 C 
BRANCH  12  13
ATOM     13  C   UNL     1      56.427  14.442  90.112  1.00  0.00     0.000 C 
BRANCH  13  14
ATOM     14  C   UNL     1      56.282  12.910  90.057  1.00  0.00     0.000 C 
BRANCH  14  15
ATOM     15  C   UNL     1      56.221  12.346  88.617  1.00  0.00     0.000 C 
BRANCH  15  16
ATOM     16  C   UNL     1      57.229  11.210  88.367  1.00  0.00     0.006 C 
BRANCH  16  17
ATOM     17  C   UNL     1      58.551  11.383  89.130  1.00  0.00     0.053 C 
BRANCH  17  18
ATOM     18  C   UNL     1      58.810  10.237  90.059  1.00  0.00     0.041 C 
ATOM     19  O   UNL     1      57.861   9.508  90.450  1.00  0.00    -0.550 OA
ATOM     20  O   UNL     1      60.107   9.958  90.473  1.00  0.00    -0.550 OA
ENDBRANCH  17  18
ENDBRANCH  16  17
ENDBRANCH  15  16
ENDBRANCH  14  15
ENDBRANCH  13  14
ENDBRANCH  12  13
ENDBRANCH  11  12
ENDBRANCH   1  11
TORSDOF 15
ENDMDL
MODEL 6
REMARK VINA RESULT:    -4.429      2.577      4.585
REMARK INTER + INTRA:         -10.424
REMARK INTER:                  -7.726
REMARK INTRA:                  -2.698
REMARK UNBOUND:                -2.112
REMARK SMILES O=C([O-])CCCCCCCCCCCCCCC(=O)[O-]
REMARK SMILES IDX 10 1 9 2 8 3 7 4 6 5 5 6 4 7 2 8 1 9 3 10 11 11 12 12 13 13
REMARK SMILES IDX 14 14 15 15 16 16 17 17 18 18 19 19 20 20
REMARK H PARENT
REMARK Flexibility Score: inf
ROOT
ATOM      1  C   UNL     1      55.959  14.920  92.448  1.00  0.00     0.000 C 
ENDROOT
BRANCH   1   2
ATOM      2  C   UNL     1      55.932  15.252  90.941  1.00  0.00     0.000 C 
BRANCH   2   3
ATOM      3  C   UNL     1      57.339  15.381  90.339  1.00  0.00     0.000 C 
BRANCH   3   4
ATOM      4  C   UNL     1      57.699  14.142  89.511  1.00  0.00     0.000 C 
BRANCH   4   5
ATOM      5  C   UNL     1      56.445  13.334  89.156  1.00  0.00     0.000 C 
BRANCH   5   6
ATOM      6  C   UNL     1      56.797  11.870  88.864  1.00  0.00     0.006 C 
BRANCH   6   7
ATOM      7  C   UNL     1      58.256  11.574  89.219  1.00  0.00     0.053 C 
BRANCH   7   8
ATOM      8  C   UNL     1      58.343  10.416  90.161  1.00  0.00     0.041 C 
ATOM      9  O   UNL     1      59.452  10.083  90.655  1.00  0.00    -0.550 OA
ATOM     10  O   UNL     1      57.192   9.733  90.532  1.00  0.00    -0.550 OA
ENDBRANCH   7   8
ENDBRANCH   6   7
ENDBRANCH   5   6
ENDBRANCH   4   5
ENDBRANCH   3   4
ENDBRANCH   2   3
ENDBRANCH   1   2
BRANCH   1  11
ATOM     11  C   UNL     1      55.545  13.473  92.773  1.00  0.00     0.000 C 
BRANCH  11  12
ATOM     12  C   UNL     1      56.702  12.459  92.836  1.00  0.00     0.000 C 
BRANCH  12  13
ATOM     13  C   UNL     1      57.959  12.939  93.595  1.00  0.00     0.000 C 
BRANCH  13  14
ATOM     14  C   UNL     1      59.214  13.122  92.721  1.00  0.00     0.000 C 
BRANCH  14  15
ATOM     15  C   UNL     1      59.809  14.549  92.784  1.00  0.00     0.000 C 
BRANCH  15  16
ATOM     16  C   UNL     1      59.309  15.362  93.992  1.00  0.00     0.006 C 
BRANCH  16  17
ATOM     17  C   UNL     1      60.407  15.671  95.021  1.00  0.00     0.053 C 
BRANCH  17  18
ATOM     18  C   UNL     1      60.876  14.434  95.721  1.00  0.00     0.041 C 
ATOM     19  O   UNL     1      60.103  13.809  96.495  1.00  0.00    -0.550 OA
ATOM     20  O   UNL     1      62.161  13.954  95.500  1.00  0.00    -0.550 OA
ENDBRANCH  17  18
ENDBRANCH  16  17
ENDBRANCH  15  16
ENDBRANCH  14  15
ENDBRANCH  13  14
ENDBRANCH  12  13
ENDBRANCH  11  12
ENDBRANCH   1  11
TORSDOF 15
ENDMDL
MODEL 7
REMARK VINA RESULT:    -4.427      2.164      3.484
REMARK INTER + INTRA:         -10.421
REMARK INTER:                  -8.615
REMARK INTRA:                  -1.806
REMARK UNBOUND:                -2.112
REMARK SMILES O=C([O-])CCCCCCCCCCCCCCC(=O)[O-]
REMARK SMILES IDX 10 1 9 2 8 3 7 4 6 5 5 6 4 7 2 8 1 9 3 10 11 11 12 12 13 13
REMARK SMILES IDX 14 14 15 15 16 16 17 17 18 18 19 19 20 20
REMARK H PARENT
REMARK Flexibility Score: inf
ROOT
ATOM      1  C   UNL     1      58.687  16.172  89.901  1.00  0.00     0.000 C 
ENDROOT
BRANCH   1   2
ATOM      2  C   UNL     1      57.798  14.994  89.449  1.00  0.00     0.000 C 
BRANCH   2   3
ATOM      3  C   UNL     1      56.835  14.525  90.550  1.00  0.00     0.000 C 
BRANCH   3   4
ATOM      4  C   UNL     1      56.517  13.032  90.404  1.00  0.00     0.000 C 
BRANCH   4   5
ATOM      5  C   UNL     1      56.478  12.620  88.927  1.00  0.00     0.000 C 
BRANCH   5   6
ATOM      6  C   UNL     1      57.288  11.339  88.691  1.00  0.00     0.006 C 
BRANCH   6   7
ATOM      7  C   UNL     1      58.680  11.446  89.317  1.00  0.00     0.053 C 
BRANCH   7   8
ATOM      8  C   UNL     1      58.998  10.213  90.102  1.00  0.00     0.041 C 
ATOM      9  O   UNL     1      58.124   9.321  90.261  1.00  0.00    -0.550 OA
ATOM     10  O   UNL     1      60.275  10.025  90.617  1.00  0.00    -0.550 OA
ENDBRANCH   7   8
ENDBRANCH   6   7
ENDBRANCH   5   6
ENDBRANCH   4   5
ENDBRANCH   3   4
ENDBRANCH   2   3
ENDBRANCH   1   2
BRANCH   1  11
ATOM     11  C   UNL     1      58.407  16.646  91.339  1.00  0.00     0.000 C 
BRANCH  11  12
ATOM     12  C   UNL     1      59.658  16.962  92.180  1.00  0.00     0.000 C 
BRANCH  12  13
ATOM     13  C   UNL     1      60.345  15.738  92.826  1.00  0.00     0.000 C 
BRANCH  13  14
ATOM     14  C   UNL     1      59.383  14.689  93.412  1.00  0.00     0.000 C 
BRANCH  14  15
ATOM     15  C   UNL     1      58.764  15.107  94.767  1.00  0.00     0.000 C 
BRANCH  15  16
ATOM     16  C   UNL     1      57.228  14.994  94.793  1.00  0.00     0.006 C 
BRANCH  16  17
ATOM     17  C   UNL     1      56.701  13.660  94.242  1.00  0.00     0.053 C 
BRANCH  17  18
ATOM     18  C   UNL     1      56.637  12.607  95.305  1.00  0.00     0.041 C 
ATOM     19  O   UNL     1      56.349  11.418  95.006  1.00  0.00    -0.550 OA
ATOM     20  O   UNL     1      56.919  12.934  96.626  1.00  0.00    -0.550 OA
ENDBRANCH  17  18
ENDBRANCH  16  17
ENDBRANCH  15  16
ENDBRANCH  14  15
ENDBRANCH  13  14
ENDBRANCH  12  13
ENDBRANCH  11  12
ENDBRANCH   1  11
TORSDOF 15
ENDMDL
MODEL 8
REMARK VINA RESULT:    -4.406      2.853      5.550
REMARK INTER + INTRA:         -10.382
REMARK INTER:                  -8.254
REMARK INTRA:                  -2.129
REMARK UNBOUND:                -2.112
REMARK SMILES O=C([O-])CCCCCCCCCCCCCCC(=O)[O-]
REMARK SMILES IDX 10 1 9 2 8 3 7 4 6 5 5 6 4 7 2 8 1 9 3 10 11 11 12 12 13 13
REMARK SMILES IDX 14 14 15 15 16 16 17 17 18 18 19 19 20 20
REMARK H PARENT
REMARK Flexibility Score: inf
ROOT
ATOM      1  C   UNL     1      56.534  11.288  92.189  1.00  0.00     0.000 C 
ENDROOT
BRANCH   1   2
ATOM      2  C   UNL     1      55.131  11.866  92.470  1.00  0.00     0.000 C 
BRANCH   2   3
ATOM      3  C   UNL     1      55.056  12.609  93.812  1.00  0.00     0.000 C 
BRANCH   3   4
ATOM      4  C   UNL     1      54.808  14.107  93.600  1.00  0.00     0.000 C 
BRANCH   4   5
ATOM      5  C   UNL     1      55.945  14.943  94.200  1.00  0.00     0.000 C 
BRANCH   5   6
ATOM      6  C   UNL     1      56.756  14.124  95.211  1.00  0.00     0.006 C 
BRANCH   6   7
ATOM      7  C   UNL     1      57.955  14.922  95.729  1.00  0.00     0.053 C 
BRANCH   7   8
ATOM      8  C   UNL     1      59.052  14.942  94.712  1.00  0.00     0.041 C 
ATOM      9  O   UNL     1      59.384  13.882  94.119  1.00  0.00    -0.550 OA
ATOM     10  O   UNL     1      59.674  16.140  94.382  1.00  0.00    -0.550 OA
ENDBRANCH   7   8
ENDBRANCH   6   7
ENDBRANCH   5   6
ENDBRANCH   4   5
ENDBRANCH   3   4
ENDBRANCH   2   3
ENDBRANCH   1   2
BRANCH   1  11
ATOM     11  C   UNL     1      56.561  10.243  91.059  1.00  0.00     0.000 C 
BRANCH  11  12
ATOM     12  C   UNL     1      57.875  10.177  90.258  1.00  0.00     0.000 C 
BRANCH  12  13
ATOM     13  C   UNL     1      58.045  11.270  89.179  1.00  0.00     0.000 C 
BRANCH  13  14
ATOM     14  C   UNL     1      56.729  11.869  88.651  1.00  0.00     0.000 C 
BRANCH  14  15
ATOM     15  C   UNL     1      56.506  13.341  89.074  1.00  0.00     0.000 C 
BRANCH  15  16
ATOM     16  C   UNL     1      57.790  14.031  89.571  1.00  0.00     0.006 C 
BRANCH  16  17
ATOM     17  C   UNL     1      57.691  14.547  91.014  1.00  0.00     0.053 C 
BRANCH  17  18
ATOM     18  C   UNL     1      58.225  15.940  91.144  1.00  0.00     0.041 C 
ATOM     19  O   UNL     1      59.419  16.195  90.833  1.00  0.00    -0.550 OA
ATOM     20  O   UNL     1      57.397  16.964  91.586  1.00  0.00    -0.550 OA
ENDBRANCH  17  18
ENDBRANCH  16  17
ENDBRANCH  15  16
ENDBRANCH  14  15
ENDBRANCH  13  14
ENDBRANCH  12  13
ENDBRANCH  11  12
ENDBRANCH   1  11
TORSDOF 15
ENDMDL
MODEL 9
REMARK VINA RESULT:    -4.352      3.670      5.999
REMARK INTER + INTRA:         -10.281
REMARK INTER:                  -8.046
REMARK INTRA:                  -2.235
REMARK UNBOUND:                -2.112
REMARK SMILES O=C([O-])CCCCCCCCCCCCCCC(=O)[O-]
REMARK SMILES IDX 10 1 9 2 8 3 7 4 6 5 5 6 4 7 2 8 1 9 3 10 11 11 12 12 13 13
REMARK SMILES IDX 14 14 15 15 16 16 17 17 18 18 19 19 20 20
REMARK H PARENT
REMARK Flexibility Score: inf
ROOT
ATOM      1  C   UNL     1      60.307  17.244  93.312  1.00  0.00     0.000 C 
ENDROOT
BRANCH   1   2
ATOM      2  C   UNL     1      60.928  15.833  93.235  1.00  0.00     0.000 C 
BRANCH   2   3
ATOM      3  C   UNL     1      59.881  14.718  93.375  1.00  0.00     0.000 C 
BRANCH   3   4
ATOM      4  C   UNL     1      58.589  15.252  94.002  1.00  0.00     0.000 C 
BRANCH   4   5
ATOM      5  C   UNL     1      57.994  14.238  94.987  1.00  0.00     0.000 C 
BRANCH   5   6
ATOM      6  C   UNL     1      58.909  14.050  96.203  1.00  0.00     0.006 C 
BRANCH   6   7
ATOM      7  C   UNL     1      59.068  15.360  96.979  1.00  0.00     0.053 C 
BRANCH   7   8
ATOM      8  C   UNL     1      60.498  15.799  96.979  1.00  0.00     0.041 C 
ATOM      9  O   UNL     1      60.786  17.019  97.098  1.00  0.00    -0.550 OA
ATOM     10  O   UNL     1      61.515  14.856  96.899  1.00  0.00    -0.550 OA
ENDBRANCH   7   8
ENDBRANCH   6   7
ENDBRANCH   5   6
ENDBRANCH   4   5
ENDBRANCH   3   4
ENDBRANCH   2   3
ENDBRANCH   1   2
BRANCH   1  11
ATOM     11  C   UNL     1      60.247  17.971  91.955  1.00  0.00     0.000 C 
BRANCH  11  12
ATOM     12  C   UNL     1      59.183  17.443  90.976  1.00  0.00     0.000 C 
BRANCH  12  13
ATOM     13  C   UNL     1      59.719  16.540  89.843  1.00  0.00     0.000 C 
BRANCH  13  14
ATOM     14  C   UNL     1      58.755  15.429  89.388  1.00  0.00     0.000 C 
BRANCH  14  15
ATOM     15  C   UNL     1      57.517  15.272  90.304  1.00  0.00     0.000 C 
BRANCH  15  16
ATOM     16  C   UNL     1      57.276  13.820  90.755  1.00  0.00     0.006 C 
BRANCH  16  17
ATOM     17  C   UNL     1      58.439  12.874  90.424  1.00  0.00     0.053 C 
BRANCH  17  18
ATOM     18  C   UNL     1      58.030  11.807  89.455  1.00  0.00     0.041 C 
ATOM     19  O   UNL     1      56.816  11.498  89.325  1.00  0.00    -0.550 OA
ATOM     20  O   UNL     1      58.988  11.172  88.676  1.00  0.00    -0.550 OA
ENDBRANCH  17  18
ENDBRANCH  16  17
ENDBRANCH  15  16
ENDBRANCH  14  15
ENDBRANCH  13  14
ENDBRANCH  12  13
ENDBRANCH  11  12
ENDBRANCH   1  11
TORSDOF 15
ENDMDL
