MODEL 1
REMARK VINA RESULT:    -6.365      0.000      0.000
REMARK INTER + INTRA:          -7.048
REMARK INTER:                  -6.923
REMARK INTRA:                  -0.125
REMARK UNBOUND:                -0.125
REMARK SMILES Cc1ccc(C(C)C)cc1O
REMARK SMILES IDX 1 1 2 2 10 3 9 4 5 5 4 6 3 7 11 8 6 10 7 11 8 12
REMARK H PARENT 11 9
REMARK Flexibility Score: inf
ROOT
ATOM      1  C   UNL     1     -13.639  -1.633 -10.718  1.00  0.00     0.048 C 
ATOM      2  C   UNL     1     -13.287  -0.250 -10.249  1.00  0.00    -0.009 A 
ATOM      3  C   UNL     1     -11.948   0.092  -9.990  1.00  0.00     0.118 A 
ATOM      4  C   UNL     1     -11.628   1.386  -9.552  1.00  0.00     0.050 A 
ATOM      5  C   UNL     1     -12.632   2.351  -9.367  1.00  0.00    -0.042 A 
ATOM      6  C   UNL     1     -13.969   1.999  -9.628  1.00  0.00     0.004 A 
ATOM      7  C   UNL     1     -14.292   0.712 -10.064  1.00  0.00     0.007 A 
ENDROOT
BRANCH   3   8
ATOM      8  O   UNL     1     -10.940  -0.854 -10.169  1.00  0.00    -0.508 OA
ATOM      9  H   UNL     1     -10.605  -1.427  -9.403  1.00  0.00     0.293 HD
ENDBRANCH   3   8
BRANCH   5  10
ATOM     10  C   UNL     1     -12.267   3.745  -8.893  1.00  0.00     0.013 C 
ATOM     11  C   UNL     1     -10.884   3.758  -8.228  1.00  0.00     0.012 C 
ATOM     12  C   UNL     1     -13.337   4.307  -7.950  1.00  0.00     0.012 C 
ENDBRANCH   5  10
TORSDOF 2
ENDMDL
MODEL 2
REMARK VINA RESULT:    -5.939      1.515      4.298
REMARK INTER + INTRA:          -6.585
REMARK INTER:                  -6.458
REMARK INTRA:                  -0.127
REMARK UNBOUND:                -0.125
REMARK SMILES Cc1ccc(C(C)C)cc1O
REMARK SMILES IDX 1 1 2 2 10 3 9 4 5 5 4 6 3 7 11 8 6 10 7 11 8 12
REMARK H PARENT 11 9
REMARK Flexibility Score: inf
ROOT
ATOM      1  C   UNL     1     -13.306   4.207  -8.252  1.00  0.00     0.048 C 
ATOM      2  C   UNL     1     -13.185   2.862  -8.911  1.00  0.00    -0.009 A 
ATOM      3  C   UNL     1     -11.935   2.226  -8.998  1.00  0.00     0.118 A 
ATOM      4  C   UNL     1     -11.830   0.970  -9.615  1.00  0.00     0.050 A 
ATOM      5  C   UNL     1     -12.963   0.336 -10.151  1.00  0.00    -0.042 A 
ATOM      6  C   UNL     1     -14.210   0.982 -10.060  1.00  0.00     0.004 A 
ATOM      7  C   UNL     1     -14.319   2.232  -9.446  1.00  0.00     0.007 A 
ENDROOT
BRANCH   3   8
ATOM      8  O   UNL     1     -10.800   2.841  -8.471  1.00  0.00    -0.508 OA
ATOM      9  H   UNL     1     -10.376   3.647  -8.916  1.00  0.00     0.293 HD
ENDBRANCH   3   8
BRANCH   5  10
ATOM     10  C   UNL     1     -12.831  -1.021 -10.815  1.00  0.00     0.013 C 
ATOM     11  C   UNL     1     -14.203  -1.681 -11.004  1.00  0.00     0.012 C 
ATOM     12  C   UNL     1     -11.885  -1.934 -10.024  1.00  0.00     0.012 C 
ENDBRANCH   5  10
TORSDOF 2
ENDMDL
MODEL 3
REMARK VINA RESULT:    -5.795      1.801      2.911
REMARK INTER + INTRA:          -6.428
REMARK INTER:                  -6.302
REMARK INTRA:                  -0.127
REMARK UNBOUND:                -0.125
REMARK SMILES Cc1ccc(C(C)C)cc1O
REMARK SMILES IDX 1 1 2 2 10 3 9 4 5 5 4 6 3 7 11 8 6 10 7 11 8 12
REMARK H PARENT 11 9
REMARK Flexibility Score: inf
ROOT
ATOM      1  C   UNL     1     -10.566  -3.289  -9.962  1.00  0.00     0.048 C 
ATOM      2  C   UNL     1     -11.300  -1.979  -9.941  1.00  0.00    -0.009 A 
ATOM      3  C   UNL     1     -12.663  -1.924 -10.281  1.00  0.00     0.118 A 
ATOM      4  C   UNL     1     -13.341  -0.696 -10.259  1.00  0.00     0.050 A 
ATOM      5  C   UNL     1     -12.673   0.487  -9.899  1.00  0.00    -0.042 A 
ATOM      6  C   UNL     1     -11.310   0.422  -9.562  1.00  0.00     0.004 A 
ATOM      7  C   UNL     1     -10.630  -0.798  -9.583  1.00  0.00     0.007 A 
ENDROOT
BRANCH   3   8
ATOM      8  O   UNL     1     -13.340  -3.089 -10.639  1.00  0.00    -0.508 OA
ATOM      9  H   UNL     1     -12.873  -3.848 -11.122  1.00  0.00     0.293 HD
ENDBRANCH   3   8
BRANCH   5  10
ATOM     10  C   UNL     1     -13.423   1.806  -9.881  1.00  0.00     0.013 C 
ATOM     11  C   UNL     1     -12.540   2.936  -9.338  1.00  0.00     0.012 C 
ATOM     12  C   UNL     1     -14.725   1.691  -9.079  1.00  0.00     0.012 C 
ENDBRANCH   5  10
TORSDOF 2
ENDMDL
MODEL 4
REMARK VINA RESULT:    -5.718      1.810      4.868
REMARK INTER + INTRA:          -6.344
REMARK INTER:                  -6.220
REMARK INTRA:                  -0.125
REMARK UNBOUND:                -0.125
REMARK SMILES Cc1ccc(C(C)C)cc1O
REMARK SMILES IDX 1 1 2 2 10 3 9 4 5 5 4 6 3 7 11 8 6 10 7 11 8 12
REMARK H PARENT 11 9
REMARK Flexibility Score: inf
ROOT
ATOM      1  C   UNL     1     -12.473   3.500  -8.993  1.00  0.00     0.048 C 
ATOM      2  C   UNL     1     -12.669   2.069  -9.405  1.00  0.00    -0.009 A 
ATOM      3  C   UNL     1     -13.965   1.558  -9.596  1.00  0.00     0.118 A 
ATOM      4  C   UNL     1     -14.140   0.220  -9.981  1.00  0.00     0.050 A 
ATOM      5  C   UNL     1     -13.031  -0.621 -10.179  1.00  0.00    -0.042 A 
ATOM      6  C   UNL     1     -11.740  -0.100  -9.985  1.00  0.00     0.004 A 
ATOM      7  C   UNL     1     -11.561   1.231  -9.601  1.00  0.00     0.007 A 
ENDROOT
BRANCH   3   8
ATOM      8  O   UNL     1     -15.075   2.380  -9.403  1.00  0.00    -0.508 OA
ATOM      9  H   UNL     1     -15.985   1.999  -9.172  1.00  0.00     0.293 HD
ENDBRANCH   3   8
BRANCH   5  10
ATOM     10  C   UNL     1     -13.240  -2.065 -10.595  1.00  0.00     0.013 C 
ATOM     11  C   UNL     1     -14.660  -2.537 -10.260  1.00  0.00     0.012 C 
ATOM     12  C   UNL     1     -12.190  -2.982  -9.957  1.00  0.00     0.012 C 
ENDBRANCH   5  10
TORSDOF 2
ENDMDL
MODEL 5
REMARK VINA RESULT:    -5.457      2.299      4.814
REMARK INTER + INTRA:          -6.060
REMARK INTER:                  -5.939
REMARK INTRA:                  -0.120
REMARK UNBOUND:                -0.125
REMARK SMILES Cc1ccc(C(C)C)cc1O
REMARK SMILES IDX 1 1 2 2 10 3 9 4 5 5 4 6 3 7 11 8 6 10 7 11 8 12
REMARK H PARENT 11 9
REMARK Flexibility Score: inf
ROOT
ATOM      1  C   UNL     1     -14.154   1.505 -10.002  1.00  0.00     0.048 C 
ATOM      2  C   UNL     1     -13.281   0.282  -9.991  1.00  0.00    -0.009 A 
ATOM      3  C   UNL     1     -11.926   0.382  -9.633  1.00  0.00     0.118 A 
ATOM      4  C   UNL     1     -11.118  -0.765  -9.625  1.00  0.00     0.050 A 
ATOM      5  C   UNL     1     -11.647  -2.019  -9.972  1.00  0.00    -0.042 A 
ATOM      6  C   UNL     1     -13.005  -2.108 -10.330  1.00  0.00     0.004 A 
ATOM      7  C   UNL     1     -13.813  -0.969 -10.340  1.00  0.00     0.007 A 
ENDROOT
BRANCH   3   8
ATOM      8  O   UNL     1     -11.385   1.619  -9.285  1.00  0.00    -0.508 OA
ATOM      9  H   UNL     1     -11.840   2.230  -8.616  1.00  0.00     0.293 HD
ENDBRANCH   3   8
BRANCH   5  10
ATOM     10  C   UNL     1     -10.758  -3.249  -9.958  1.00  0.00     0.013 C 
ATOM     11  C   UNL     1     -11.405  -4.389  -9.161  1.00  0.00     0.012 C 
ATOM     12  C   UNL     1      -9.364  -2.917  -9.413  1.00  0.00     0.012 C 
ENDBRANCH   5  10
TORSDOF 2
ENDMDL
MODEL 6
REMARK VINA RESULT:    -5.376      4.604      6.972
REMARK INTER + INTRA:          -5.972
REMARK INTER:                  -5.868
REMARK INTRA:                  -0.104
REMARK UNBOUND:                -0.125
REMARK SMILES Cc1ccc(C(C)C)cc1O
REMARK SMILES IDX 1 1 2 2 10 3 9 4 5 5 4 6 3 7 11 8 6 10 7 11 8 12
REMARK H PARENT 11 9
REMARK Flexibility Score: inf
ROOT
ATOM      1  C   UNL     1     -10.645  -0.609  -9.857  1.00  0.00     0.048 C 
ATOM      2  C   UNL     1     -10.559  -1.946  -9.178  1.00  0.00    -0.009 A 
ATOM      3  C   UNL     1     -11.325  -3.028  -9.644  1.00  0.00     0.118 A 
ATOM      4  C   UNL     1     -11.239  -4.274  -9.004  1.00  0.00     0.050 A 
ATOM      5  C   UNL     1     -10.392  -4.456  -7.898  1.00  0.00    -0.042 A 
ATOM      6  C   UNL     1      -9.630  -3.368  -7.439  1.00  0.00     0.004 A 
ATOM      7  C   UNL     1      -9.712  -2.126  -8.072  1.00  0.00     0.007 A 
ENDROOT
BRANCH   3   8
ATOM      8  O   UNL     1     -12.170  -2.864 -10.741  1.00  0.00    -0.508 OA
ATOM      9  H   UNL     1     -12.369  -3.626 -11.378  1.00  0.00     0.293 HD
ENDBRANCH   3   8
BRANCH   5  10
ATOM     10  C   UNL     1     -10.312  -5.811  -7.219  1.00  0.00     0.013 C 
ATOM     11  C   UNL     1     -10.445  -6.949  -8.239  1.00  0.00     0.012 C 
ATOM     12  C   UNL     1     -11.365  -5.938  -6.112  1.00  0.00     0.012 C 
ENDBRANCH   5  10
TORSDOF 2
ENDMDL
MODEL 7
REMARK VINA RESULT:    -5.336      3.283      4.796
REMARK INTER + INTRA:          -5.929
REMARK INTER:                  -5.802
REMARK INTRA:                  -0.127
REMARK UNBOUND:                -0.125
REMARK SMILES Cc1ccc(C(C)C)cc1O
REMARK SMILES IDX 1 1 2 2 10 3 9 4 5 5 4 6 3 7 11 8 6 10 7 11 8 12
REMARK H PARENT 11 9
REMARK Flexibility Score: inf
ROOT
ATOM      1  C   UNL     1      -9.769  -5.363  -8.049  1.00  0.00     0.048 C 
ATOM      2  C   UNL     1     -10.359  -4.138  -8.686  1.00  0.00    -0.009 A 
ATOM      3  C   UNL     1      -9.644  -2.927  -8.690  1.00  0.00     0.118 A 
ATOM      4  C   UNL     1     -10.202  -1.787  -9.288  1.00  0.00     0.050 A 
ATOM      5  C   UNL     1     -11.473  -1.838  -9.886  1.00  0.00    -0.042 A 
ATOM      6  C   UNL     1     -12.180  -3.054  -9.876  1.00  0.00     0.004 A 
ATOM      7  C   UNL     1     -11.628  -4.191  -9.282  1.00  0.00     0.007 A 
ENDROOT
BRANCH   3   8
ATOM      8  O   UNL     1      -8.382  -2.860  -8.101  1.00  0.00    -0.508 OA
ATOM      9  H   UNL     1      -8.266  -2.823  -7.095  1.00  0.00     0.293 HD
ENDBRANCH   3   8
BRANCH   5  10
ATOM     10  C   UNL     1     -12.060  -0.595 -10.527  1.00  0.00     0.013 C 
ATOM     11  C   UNL     1     -11.799   0.647  -9.666  1.00  0.00     0.012 C 
ATOM     12  C   UNL     1     -13.558  -0.769 -10.803  1.00  0.00     0.012 C 
ENDBRANCH   5  10
TORSDOF 2
ENDMDL
MODEL 8
REMARK VINA RESULT:    -5.292      2.662      4.458
REMARK INTER + INTRA:          -5.880
REMARK INTER:                  -5.756
REMARK INTRA:                  -0.124
REMARK UNBOUND:                -0.125
REMARK SMILES Cc1ccc(C(C)C)cc1O
REMARK SMILES IDX 1 1 2 2 10 3 9 4 5 5 4 6 3 7 11 8 6 10 7 11 8 12
REMARK H PARENT 11 9
REMARK Flexibility Score: inf
ROOT
ATOM      1  C   UNL     1      -8.994  -3.209  -9.052  1.00  0.00     0.048 C 
ATOM      2  C   UNL     1     -10.247  -2.502  -9.483  1.00  0.00    -0.009 A 
ATOM      3  C   UNL     1     -11.408  -3.235  -9.781  1.00  0.00     0.118 A 
ATOM      4  C   UNL     1     -12.575  -2.568 -10.183  1.00  0.00     0.050 A 
ATOM      5  C   UNL     1     -12.598  -1.167 -10.294  1.00  0.00    -0.042 A 
ATOM      6  C   UNL     1     -11.431  -0.442  -9.995  1.00  0.00     0.004 A 
ATOM      7  C   UNL     1     -10.268  -1.102  -9.594  1.00  0.00     0.007 A 
ENDROOT
BRANCH   3   8
ATOM      8  O   UNL     1     -11.401  -4.626  -9.675  1.00  0.00    -0.508 OA
ATOM      9  H   UNL     1     -11.362  -5.222 -10.494  1.00  0.00     0.293 HD
ENDBRANCH   3   8
BRANCH   5  10
ATOM     10  C   UNL     1     -13.869  -0.462 -10.731  1.00  0.00     0.013 C 
ATOM     11  C   UNL     1     -14.102   0.814  -9.912  1.00  0.00     0.012 C 
ATOM     12  C   UNL     1     -15.079  -1.400 -10.645  1.00  0.00     0.012 C 
ENDBRANCH   5  10
TORSDOF 2
ENDMDL
MODEL 9
REMARK VINA RESULT:    -5.270     14.735     16.728
REMARK INTER + INTRA:          -5.856
REMARK INTER:                  -5.755
REMARK INTRA:                  -0.101
REMARK UNBOUND:                -0.125
REMARK SMILES Cc1ccc(C(C)C)cc1O
REMARK SMILES IDX 1 1 2 2 10 3 9 4 5 5 4 6 3 7 11 8 6 10 7 11 8 12
REMARK H PARENT 11 9
REMARK Flexibility Score: inf
ROOT
ATOM      1  C   UNL     1     -10.392   5.298   8.856  1.00  0.00     0.048 C 
ATOM      2  C   UNL     1     -11.240   5.673   7.674  1.00  0.00    -0.009 A 
ATOM      3  C   UNL     1     -12.153   4.749   7.135  1.00  0.00     0.118 A 
ATOM      4  C   UNL     1     -12.942   5.107   6.032  1.00  0.00     0.050 A 
ATOM      5  C   UNL     1     -12.832   6.383   5.454  1.00  0.00    -0.042 A 
ATOM      6  C   UNL     1     -11.915   7.300   6.000  1.00  0.00     0.004 A 
ATOM      7  C   UNL     1     -11.128   6.948   7.098  1.00  0.00     0.007 A 
ENDROOT
BRANCH   3   8
ATOM      8  O   UNL     1     -12.275   3.479   7.698  1.00  0.00    -0.508 OA
ATOM      9  H   UNL     1     -13.085   3.215   8.247  1.00  0.00     0.293 HD
ENDBRANCH   3   8
BRANCH   5  10
ATOM     10  C   UNL     1     -13.693   6.752   4.260  1.00  0.00     0.013 C 
ATOM     11  C   UNL     1     -15.125   7.090   4.696  1.00  0.00     0.012 C 
ATOM     12  C   UNL     1     -13.686   5.638   3.207  1.00  0.00     0.012 C 
ENDBRANCH   5  10
TORSDOF 2
ENDMDL
