MODEL 1
REMARK VINA RESULT:    38.741      0.000      0.000
REMARK INTER + INTRA:          45.348
REMARK INTER:                  45.536
REMARK INTRA:                  -0.188
REMARK UNBOUND:                -0.188
REMARK SMILES C=C(C)[C@@H]1CC[C@]2(CO)CC[C@@]3(C)[C@H](CC[C@@H]4[C@]5(C)CC[C@@H](O)C(C)(C)[C@H]5CC[C@@]43C)[C@@H]12
REMARK SMILES IDX 4 1 5 2 6 3 7 4 32 5 14 6 15 7 16 8 17 9 18 10 20 11 21 12
REMARK SMILES IDX 22 13 24 14 27 15 28 16 29 17 30 18 12 19 11 20 10 21 13 22
REMARK SMILES IDX 31 23 25 24 26 25 19 26 2 27 3 28 1 29 8 30 9 31 23 33
REMARK H PARENT 9 32 23 34
REMARK Flexibility Score: inf
ROOT
ATOM      1  C   UNL     1       6.968 -32.454  15.884  1.00  0.00     0.018 C 
ATOM      2  C   UNL     1       6.202 -33.761  16.259  1.00  0.00     0.009 C 
ATOM      3  C   UNL     1       7.203 -34.937  16.072  1.00  0.00     0.010 C 
ATOM      4  C   UNL     1       8.264 -34.360  15.096  1.00  0.00    -0.003 C 
ATOM      5  C   UNL     1       8.400 -32.950  15.736  1.00  0.00     0.008 C 
ATOM      6  C   UNL     1       9.605 -31.983  15.352  1.00  0.00    -0.000 C 
ATOM      7  C   UNL     1      10.516 -31.844  16.590  1.00  0.00     0.005 C 
ATOM      8  C   UNL     1      11.723 -30.972  16.371  1.00  0.00     0.005 C 
ATOM      9  C   UNL     1      12.682 -31.552  15.296  1.00  0.00     0.002 C 
ATOM     10  C   UNL     1      14.057 -30.713  15.212  1.00  0.00    -0.026 C 
ATOM     11  C   UNL     1      14.661 -30.448  16.639  1.00  0.00     0.010 C 
ATOM     12  C   UNL     1      15.888 -29.520  16.646  1.00  0.00     0.033 C 
ATOM     13  C   UNL     1      15.555 -28.161  16.003  1.00  0.00     0.120 C 
ATOM     14  C   UNL     1      14.985 -28.282  14.550  1.00  0.00    -0.006 C 
ATOM     15  C   UNL     1      13.771 -29.309  14.559  1.00  0.00     0.003 C 
ATOM     16  C   UNL     1      13.034 -29.445  13.211  1.00  0.00     0.005 C 
ATOM     17  C   UNL     1      11.739 -30.276  13.305  1.00  0.00     0.008 C 
ATOM     18  C   UNL     1      11.885 -31.716  13.919  1.00  0.00    -0.024 C 
ATOM     19  C   UNL     1      10.438 -32.481  14.124  1.00  0.00    -0.024 C 
ATOM     20  C   UNL     1      10.676 -34.064  14.284  1.00  0.00     0.008 C 
ATOM     21  C   UNL     1       9.678 -34.940  15.124  1.00  0.00     0.010 C 
ATOM     22  C   UNL     1       9.535 -32.167  12.875  1.00  0.00     0.012 C 
ATOM     23  C   UNL     1      12.695 -32.562  12.875  1.00  0.00     0.012 C 
ATOM     24  C   UNL     1      16.107 -28.654  13.543  1.00  0.00     0.014 C 
ATOM     25  C   UNL     1      14.469 -26.873  14.145  1.00  0.00     0.014 C 
ATOM     26  C   UNL     1      15.116 -31.560  14.429  1.00  0.00     0.012 C 
ENDROOT
BRANCH   1  27
ATOM     27  C   UNL     1       6.812 -31.327  16.901  1.00  0.00    -0.077 C 
ATOM     28  C   UNL     1       7.714 -31.279  18.107  1.00  0.00     0.039 C 
ATOM     29  C   UNL     1       5.875 -30.372  16.764  1.00  0.00     0.008 C 
ENDBRANCH   1  27
BRANCH   4  30
ATOM     30  C   UNL     1       7.667 -34.554  13.649  1.00  0.00     0.163 C 
BRANCH  30  31
ATOM     31  O   UNL     1       7.465 -35.915  13.364  1.00  0.00    -0.396 OA
ATOM     32  H   UNL     1       6.624 -35.974  12.838  1.00  0.00     0.210 HD
ENDBRANCH  30  31
ENDBRANCH   4  30
BRANCH  13  33
ATOM     33  O   UNL     1      16.664 -27.294  16.067  1.00  0.00    -0.393 OA
ATOM     34  H   UNL     1      16.520 -26.660  16.818  1.00  0.00     0.210 HD
ENDBRANCH  13  33
TORSDOF 4
ENDMDL
