MODEL 1
REMARK VINA RESULT:    -2.949      0.000      0.000
REMARK INTER + INTRA:          -8.357
REMARK INTER:                  -5.534
REMARK INTRA:                  -2.822
REMARK UNBOUND:                -2.822
REMARK SMILES O=C([O-])CCCCCCCCCCCCCCC(=O)[O-]
REMARK SMILES IDX 10 1 9 2 8 3 7 4 6 5 5 6 4 7 2 8 1 9 3 10 11 11 12 12 13 13
REMARK SMILES IDX 14 14 15 15 16 16 17 17 18 18 19 19 20 20
REMARK H PARENT
REMARK Flexibility Score: inf
ROOT
ATOM      1  C   UNL     1       3.839 108.941 178.862  1.00  0.00     0.000 C 
ENDROOT
BRANCH   1   2
ATOM      2  C   UNL     1       4.963 108.103 178.216  1.00  0.00     0.000 C 
BRANCH   2   3
ATOM      3  C   UNL     1       5.662 107.140 179.195  1.00  0.00     0.000 C 
BRANCH   3   4
ATOM      4  C   UNL     1       5.616 107.565 180.674  1.00  0.00     0.000 C 
BRANCH   4   5
ATOM      5  C   UNL     1       4.872 106.594 181.609  1.00  0.00     0.000 C 
BRANCH   5   6
ATOM      6  C   UNL     1       3.860 107.302 182.525  1.00  0.00     0.006 C 
BRANCH   6   7
ATOM      7  C   UNL     1       4.073 108.821 182.558  1.00  0.00     0.053 C 
BRANCH   7   8
ATOM      8  C   UNL     1       2.811 109.554 182.901  1.00  0.00     0.041 C 
ATOM      9  O   UNL     1       2.851 110.771 183.218  1.00  0.00    -0.550 OA
ATOM     10  O   UNL     1       1.595 108.883 182.898  1.00  0.00    -0.550 OA
ENDBRANCH   7   8
ENDBRANCH   6   7
ENDBRANCH   5   6
ENDBRANCH   4   5
ENDBRANCH   3   4
ENDBRANCH   2   3
ENDBRANCH   1   2
BRANCH   1  11
ATOM     11  C   UNL     1       2.439 108.460 178.452  1.00  0.00     0.000 C 
BRANCH  11  12
ATOM     12  C   UNL     1       1.773 107.674 179.588  1.00  0.00     0.000 C 
BRANCH  12  13
ATOM     13  C   UNL     1       1.347 106.279 179.116  1.00  0.00     0.000 C 
BRANCH  13  14
ATOM     14  C   UNL     1       2.286 105.199 179.669  1.00  0.00     0.000 C 
BRANCH  14  15
ATOM     15  C   UNL     1       3.171 104.619 178.558  1.00  0.00     0.000 C 
BRANCH  15  16
ATOM     16  C   UNL     1       2.547 104.751 177.157  1.00  0.00     0.006 C 
BRANCH  16  17
ATOM     17  C   UNL     1       3.495 105.352 176.104  1.00  0.00     0.053 C 
BRANCH  17  18
ATOM     18  C   UNL     1       4.741 104.540 175.921  1.00  0.00     0.041 C 
ATOM     19  O   UNL     1       4.674 103.374 175.448  1.00  0.00    -0.550 OA
ATOM     20  O   UNL     1       5.981 105.080 176.238  1.00  0.00    -0.550 OA
ENDBRANCH  17  18
ENDBRANCH  16  17
ENDBRANCH  15  16
ENDBRANCH  14  15
ENDBRANCH  13  14
ENDBRANCH  12  13
ENDBRANCH  11  12
ENDBRANCH   1  11
TORSDOF 15
ENDMDL
MODEL 2
REMARK VINA RESULT:    -2.900      2.030      7.868
REMARK INTER + INTRA:          -8.265
REMARK INTER:                  -6.791
REMARK INTRA:                  -1.474
REMARK UNBOUND:                -2.822
REMARK SMILES O=C([O-])CCCCCCCCCCCCCCC(=O)[O-]
REMARK SMILES IDX 10 1 9 2 8 3 7 4 6 5 5 6 4 7 2 8 1 9 3 10 11 11 12 12 13 13
REMARK SMILES IDX 14 14 15 15 16 16 17 17 18 18 19 19 20 20
REMARK H PARENT
REMARK Flexibility Score: inf
ROOT
ATOM      1  C   UNL     1       2.985 105.396 177.332  1.00  0.00     0.000 C 
ENDROOT
BRANCH   1   2
ATOM      2  C   UNL     1       3.777 104.709 176.198  1.00  0.00     0.000 C 
BRANCH   2   3
ATOM      3  C   UNL     1       5.288 105.008 176.226  1.00  0.00     0.000 C 
BRANCH   3   4
ATOM      4  C   UNL     1       6.148 103.960 176.956  1.00  0.00     0.000 C 
BRANCH   4   5
ATOM      5  C   UNL     1       5.559 102.537 176.983  1.00  0.00     0.000 C 
BRANCH   5   6
ATOM      6  C   UNL     1       6.197 101.605 175.940  1.00  0.00     0.006 C 
BRANCH   6   7
ATOM      7  C   UNL     1       5.252 101.316 174.767  1.00  0.00     0.053 C 
BRANCH   7   8
ATOM      8  C   UNL     1       5.453 102.280 173.637  1.00  0.00     0.041 C 
ATOM      9  O   UNL     1       4.524 102.498 172.817  1.00  0.00    -0.550 OA
ATOM     10  O   UNL     1       6.677 102.914 173.476  1.00  0.00    -0.550 OA
ENDBRANCH   7   8
ENDBRANCH   6   7
ENDBRANCH   5   6
ENDBRANCH   4   5
ENDBRANCH   3   4
ENDBRANCH   2   3
ENDBRANCH   1   2
BRANCH   1  11
ATOM     11  C   UNL     1       2.771 104.474 178.541  1.00  0.00     0.000 C 
BRANCH  11  12
ATOM     12  C   UNL     1       3.094 105.202 179.852  1.00  0.00     0.000 C 
BRANCH  12  13
ATOM     13  C   UNL     1       4.488 105.837 179.799  1.00  0.00     0.000 C 
BRANCH  13  14
ATOM     14  C   UNL     1       4.948 106.273 181.196  1.00  0.00     0.000 C 
BRANCH  14  15
ATOM     15  C   UNL     1       3.758 106.732 182.049  1.00  0.00     0.000 C 
BRANCH  15  16
ATOM     16  C   UNL     1       4.051 108.011 182.856  1.00  0.00     0.006 C 
BRANCH  16  17
ATOM     17  C   UNL     1       2.869 108.993 182.922  1.00  0.00     0.053 C 
BRANCH  17  18
ATOM     18  C   UNL     1       3.298 110.421 182.775  1.00  0.00     0.041 C 
ATOM     19  O   UNL     1       3.994 110.775 181.786  1.00  0.00    -0.550 OA
ATOM     20  O   UNL     1       2.903 111.371 183.709  1.00  0.00    -0.550 OA
ENDBRANCH  17  18
ENDBRANCH  16  17
ENDBRANCH  15  16
ENDBRANCH  14  15
ENDBRANCH  13  14
ENDBRANCH  12  13
ENDBRANCH  11  12
ENDBRANCH   1  11
TORSDOF 15
ENDMDL
MODEL 3
REMARK VINA RESULT:    -2.873      3.607      6.175
REMARK INTER + INTRA:          -8.215
REMARK INTER:                  -6.391
REMARK INTRA:                  -1.823
REMARK UNBOUND:                -2.822
REMARK SMILES O=C([O-])CCCCCCCCCCCCCCC(=O)[O-]
REMARK SMILES IDX 10 1 9 2 8 3 7 4 6 5 5 6 4 7 2 8 1 9 3 10 11 11 12 12 13 13
REMARK SMILES IDX 14 14 15 15 16 16 17 17 18 18 19 19 20 20
REMARK H PARENT
REMARK Flexibility Score: inf
ROOT
ATOM      1  C   UNL     1       6.514 110.532 184.154  1.00  0.00     0.000 C 
ENDROOT
BRANCH   1   2
ATOM      2  C   UNL     1       5.962 110.769 182.732  1.00  0.00     0.000 C 
BRANCH   2   3
ATOM      3  C   UNL     1       4.950 111.927 182.643  1.00  0.00     0.000 C 
BRANCH   3   4
ATOM      4  C   UNL     1       3.745 111.816 183.595  1.00  0.00     0.000 C 
BRANCH   4   5
ATOM      5  C   UNL     1       3.740 112.824 184.760  1.00  0.00     0.000 C 
BRANCH   5   6
ATOM      6  C   UNL     1       2.929 114.093 184.450  1.00  0.00     0.006 C 
BRANCH   6   7
ATOM      7  C   UNL     1       3.823 115.256 184.002  1.00  0.00     0.053 C 
BRANCH   7   8
ATOM      8  C   UNL     1       3.607 115.602 182.560  1.00  0.00     0.041 C 
ATOM      9  O   UNL     1       2.553 116.188 182.199  1.00  0.00    -0.550 OA
ATOM     10  O   UNL     1       4.559 115.250 181.611  1.00  0.00    -0.550 OA
ENDBRANCH   7   8
ENDBRANCH   6   7
ENDBRANCH   5   6
ENDBRANCH   4   5
ENDBRANCH   3   4
ENDBRANCH   2   3
ENDBRANCH   1   2
BRANCH   1  11
ATOM     11  C   UNL     1       6.717 109.042 184.465  1.00  0.00     0.000 C 
BRANCH  11  12
ATOM     12  C   UNL     1       6.666 108.201 183.184  1.00  0.00     0.000 C 
BRANCH  12  13
ATOM     13  C   UNL     1       5.734 106.996 183.353  1.00  0.00     0.000 C 
BRANCH  13  14
ATOM     14  C   UNL     1       4.470 107.152 182.499  1.00  0.00     0.000 C 
BRANCH  14  15
ATOM     15  C   UNL     1       3.476 108.118 183.158  1.00  0.00     0.000 C 
BRANCH  15  16
ATOM     16  C   UNL     1       2.448 108.697 182.167  1.00  0.00     0.006 C 
BRANCH  16  17
ATOM     17  C   UNL     1       2.900 108.645 180.697  1.00  0.00     0.053 C 
BRANCH  17  18
ATOM     18  C   UNL     1       1.986 107.820 179.843  1.00  0.00     0.041 C 
ATOM     19  O   UNL     1       2.438 106.838 179.196  1.00  0.00    -0.550 OA
ATOM     20  O   UNL     1       0.628 108.110 179.787  1.00  0.00    -0.550 OA
ENDBRANCH  17  18
ENDBRANCH  16  17
ENDBRANCH  15  16
ENDBRANCH  14  15
ENDBRANCH  13  14
ENDBRANCH  12  13
ENDBRANCH  11  12
ENDBRANCH   1  11
TORSDOF 15
ENDMDL
MODEL 4
REMARK VINA RESULT:    -2.848      3.261      6.237
REMARK INTER + INTRA:          -8.169
REMARK INTER:                  -6.154
REMARK INTRA:                  -2.015
REMARK UNBOUND:                -2.822
REMARK SMILES O=C([O-])CCCCCCCCCCCCCCC(=O)[O-]
REMARK SMILES IDX 10 1 9 2 8 3 7 4 6 5 5 6 4 7 2 8 1 9 3 10 11 11 12 12 13 13
REMARK SMILES IDX 14 14 15 15 16 16 17 17 18 18 19 19 20 20
REMARK H PARENT
REMARK Flexibility Score: inf
ROOT
ATOM      1  C   UNL     1       2.267 105.772 179.599  1.00  0.00     0.000 C 
ENDROOT
BRANCH   1   2
ATOM      2  C   UNL     1       3.486 105.159 178.876  1.00  0.00     0.000 C 
BRANCH   2   3
ATOM      3  C   UNL     1       4.756 106.028 178.954  1.00  0.00     0.000 C 
BRANCH   3   4
ATOM      4  C   UNL     1       5.600 105.839 180.228  1.00  0.00     0.000 C 
BRANCH   4   5
ATOM      5  C   UNL     1       5.665 107.068 181.154  1.00  0.00     0.000 C 
BRANCH   5   6
ATOM      6  C   UNL     1       4.999 106.826 182.518  1.00  0.00     0.006 C 
BRANCH   6   7
ATOM      7  C   UNL     1       5.809 107.427 183.673  1.00  0.00     0.053 C 
BRANCH   7   8
ATOM      8  C   UNL     1       7.228 106.946 183.670  1.00  0.00     0.041 C 
ATOM      9  O   UNL     1       8.174 107.762 183.514  1.00  0.00    -0.550 OA
ATOM     10  O   UNL     1       7.503 105.592 183.810  1.00  0.00    -0.550 OA
ENDBRANCH   7   8
ENDBRANCH   6   7
ENDBRANCH   5   6
ENDBRANCH   4   5
ENDBRANCH   3   4
ENDBRANCH   2   3
ENDBRANCH   1   2
BRANCH   1  11
ATOM     11  C   UNL     1       1.678 106.973 178.843  1.00  0.00     0.000 C 
BRANCH  11  12
ATOM     12  C   UNL     1       1.188 108.049 179.818  1.00  0.00     0.000 C 
BRANCH  12  13
ATOM     13  C   UNL     1       2.293 108.442 180.806  1.00  0.00     0.000 C 
BRANCH  13  14
ATOM     14  C   UNL     1       1.778 108.411 182.250  1.00  0.00     0.000 C 
BRANCH  14  15
ATOM     15  C   UNL     1       2.381 109.557 183.074  1.00  0.00     0.000 C 
BRANCH  15  16
ATOM     16  C   UNL     1       3.532 110.280 182.352  1.00  0.00     0.006 C 
BRANCH  16  17
ATOM     17  C   UNL     1       4.473 111.052 183.292  1.00  0.00     0.053 C 
BRANCH  17  18
ATOM     18  C   UNL     1       3.962 112.422 183.621  1.00  0.00     0.041 C 
ATOM     19  O   UNL     1       3.094 112.576 184.521  1.00  0.00    -0.550 OA
ATOM     20  O   UNL     1       4.466 113.535 182.958  1.00  0.00    -0.550 OA
ENDBRANCH  17  18
ENDBRANCH  16  17
ENDBRANCH  15  16
ENDBRANCH  14  15
ENDBRANCH  13  14
ENDBRANCH  12  13
ENDBRANCH  11  12
ENDBRANCH   1  11
TORSDOF 15
ENDMDL
MODEL 5
REMARK VINA RESULT:    -2.835      2.646      7.735
REMARK INTER + INTRA:          -8.144
REMARK INTER:                  -6.049
REMARK INTRA:                  -2.095
REMARK UNBOUND:                -2.822
REMARK SMILES O=C([O-])CCCCCCCCCCCCCCC(=O)[O-]
REMARK SMILES IDX 10 1 9 2 8 3 7 4 6 5 5 6 4 7 2 8 1 9 3 10 11 11 12 12 13 13
REMARK SMILES IDX 14 14 15 15 16 16 17 17 18 18 19 19 20 20
REMARK H PARENT
REMARK Flexibility Score: inf
ROOT
ATOM      1  C   UNL     1       5.167 105.323 176.211  1.00  0.00     0.000 C 
ENDROOT
BRANCH   1   2
ATOM      2  C   UNL     1       5.990 104.342 177.073  1.00  0.00     0.000 C 
BRANCH   2   3
ATOM      3  C   UNL     1       5.363 102.940 177.191  1.00  0.00     0.000 C 
BRANCH   3   4
ATOM      4  C   UNL     1       6.137 101.815 176.479  1.00  0.00     0.000 C 
BRANCH   4   5
ATOM      5  C   UNL     1       5.519 101.337 175.152  1.00  0.00     0.000 C 
BRANCH   5   6
ATOM      6  C   UNL     1       5.974 102.173 173.944  1.00  0.00     0.006 C 
BRANCH   6   7
ATOM      7  C   UNL     1       4.791 102.650 173.092  1.00  0.00     0.053 C 
BRANCH   7   8
ATOM      8  C   UNL     1       5.223 103.057 171.716  1.00  0.00     0.041 C 
ATOM      9  O   UNL     1       6.443 103.222 171.457  1.00  0.00    -0.550 OA
ATOM     10  O   UNL     1       4.273 103.282 170.729  1.00  0.00    -0.550 OA
ENDBRANCH   7   8
ENDBRANCH   6   7
ENDBRANCH   5   6
ENDBRANCH   4   5
ENDBRANCH   3   4
ENDBRANCH   2   3
ENDBRANCH   1   2
BRANCH   1  11
ATOM     11  C   UNL     1       3.747 104.808 175.930  1.00  0.00     0.000 C 
BRANCH  11  12
ATOM     12  C   UNL     1       2.741 105.965 175.895  1.00  0.00     0.000 C 
BRANCH  12  13
ATOM     13  C   UNL     1       1.562 105.696 176.838  1.00  0.00     0.000 C 
BRANCH  13  14
ATOM     14  C   UNL     1       1.928 104.646 177.893  1.00  0.00     0.000 C 
BRANCH  14  15
ATOM     15  C   UNL     1       2.121 105.293 179.271  1.00  0.00     0.000 C 
BRANCH  15  16
ATOM     16  C   UNL     1       3.593 105.321 179.725  1.00  0.00     0.006 C 
BRANCH  16  17
ATOM     17  C   UNL     1       4.164 106.738 179.907  1.00  0.00     0.053 C 
BRANCH  17  18
ATOM     18  C   UNL     1       3.699 107.387 181.176  1.00  0.00     0.041 C 
ATOM     19  O   UNL     1       3.716 106.746 182.259  1.00  0.00    -0.550 OA
ATOM     20  O   UNL     1       3.278 108.712 181.170  1.00  0.00    -0.550 OA
ENDBRANCH  17  18
ENDBRANCH  16  17
ENDBRANCH  15  16
ENDBRANCH  14  15
ENDBRANCH  13  14
ENDBRANCH  12  13
ENDBRANCH  11  12
ENDBRANCH   1  11
TORSDOF 15
ENDMDL
MODEL 6
REMARK VINA RESULT:    -2.833      1.074      6.846
REMARK INTER + INTRA:          -8.139
REMARK INTER:                  -6.130
REMARK INTRA:                  -2.009
REMARK UNBOUND:                -2.822
REMARK SMILES O=C([O-])CCCCCCCCCCCCCCC(=O)[O-]
REMARK SMILES IDX 10 1 9 2 8 3 7 4 6 5 5 6 4 7 2 8 1 9 3 10 11 11 12 12 13 13
REMARK SMILES IDX 14 14 15 15 16 16 17 17 18 18 19 19 20 20
REMARK H PARENT
REMARK Flexibility Score: inf
ROOT
ATOM      1  C   UNL     1       1.124 108.232 179.044  1.00  0.00     0.000 C 
ENDROOT
BRANCH   1   2
ATOM      2  C   UNL     1       0.320 106.949 178.741  1.00  0.00     0.000 C 
BRANCH   2   3
ATOM      3  C   UNL     1       0.565 106.380 177.331  1.00  0.00     0.000 C 
BRANCH   3   4
ATOM      4  C   UNL     1       1.277 105.015 177.292  1.00  0.00     0.000 C 
BRANCH   4   5
ATOM      5  C   UNL     1       2.178 104.715 178.504  1.00  0.00     0.000 C 
BRANCH   5   6
ATOM      6  C   UNL     1       3.584 104.239 178.101  1.00  0.00     0.006 C 
BRANCH   6   7
ATOM      7  C   UNL     1       4.186 105.095 176.980  1.00  0.00     0.053 C 
BRANCH   7   8
ATOM      8  C   UNL     1       5.191 104.331 176.173  1.00  0.00     0.041 C 
ATOM      9  O   UNL     1       6.422 104.537 176.333  1.00  0.00    -0.550 OA
ATOM     10  O   UNL     1       4.764 103.412 175.223  1.00  0.00    -0.550 OA
ENDBRANCH   7   8
ENDBRANCH   6   7
ENDBRANCH   5   6
ENDBRANCH   4   5
ENDBRANCH   3   4
ENDBRANCH   2   3
ENDBRANCH   1   2
BRANCH   1  11
ATOM     11  C   UNL     1       2.238 107.997 180.074  1.00  0.00     0.000 C 
BRANCH  11  12
ATOM     12  C   UNL     1       3.619 108.031 179.409  1.00  0.00     0.000 C 
BRANCH  12  13
ATOM     13  C   UNL     1       4.593 107.078 180.112  1.00  0.00     0.000 C 
BRANCH  13  14
ATOM     14  C   UNL     1       4.063 106.669 181.492  1.00  0.00     0.000 C 
BRANCH  14  15
ATOM     15  C   UNL     1       5.086 106.987 182.591  1.00  0.00     0.000 C 
BRANCH  15  16
ATOM     16  C   UNL     1       4.659 108.158 183.494  1.00  0.00     0.006 C 
BRANCH  16  17
ATOM     17  C   UNL     1       4.504 109.496 182.750  1.00  0.00     0.053 C 
BRANCH  17  18
ATOM     18  C   UNL     1       3.226 110.201 183.093  1.00  0.00     0.041 C 
ATOM     19  O   UNL     1       3.221 111.445 183.288  1.00  0.00    -0.550 OA
ATOM     20  O   UNL     1       2.033 109.492 183.164  1.00  0.00    -0.550 OA
ENDBRANCH  17  18
ENDBRANCH  16  17
ENDBRANCH  15  16
ENDBRANCH  14  15
ENDBRANCH  13  14
ENDBRANCH  12  13
ENDBRANCH  11  12
ENDBRANCH   1  11
TORSDOF 15
ENDMDL
MODEL 7
REMARK VINA RESULT:    -2.829      1.569      7.176
REMARK INTER + INTRA:          -8.133
REMARK INTER:                  -5.997
REMARK INTRA:                  -2.136
REMARK UNBOUND:                -2.822
REMARK SMILES O=C([O-])CCCCCCCCCCCCCCC(=O)[O-]
REMARK SMILES IDX 10 1 9 2 8 3 7 4 6 5 5 6 4 7 2 8 1 9 3 10 11 11 12 12 13 13
REMARK SMILES IDX 14 14 15 15 16 16 17 17 18 18 19 19 20 20
REMARK H PARENT
REMARK Flexibility Score: inf
ROOT
ATOM      1  C   UNL     1       4.484 107.001 179.863  1.00  0.00     0.000 C 
ENDROOT
BRANCH   1   2
ATOM      2  C   UNL     1       3.891 105.828 180.674  1.00  0.00     0.000 C 
BRANCH   2   3
ATOM      3  C   UNL     1       2.650 105.188 180.023  1.00  0.00     0.000 C 
BRANCH   3   4
ATOM      4  C   UNL     1       2.308 105.709 178.615  1.00  0.00     0.000 C 
BRANCH   4   5
ATOM      5  C   UNL     1       2.439 104.671 177.486  1.00  0.00     0.000 C 
BRANCH   5   6
ATOM      6  C   UNL     1       3.775 104.771 176.732  1.00  0.00     0.006 C 
BRANCH   6   7
ATOM      7  C   UNL     1       4.884 103.954 177.407  1.00  0.00     0.053 C 
BRANCH   7   8
ATOM      8  C   UNL     1       5.389 102.859 176.517  1.00  0.00     0.041 C 
ATOM      9  O   UNL     1       5.081 102.839 175.297  1.00  0.00    -0.550 OA
ATOM     10  O   UNL     1       6.177 101.844 177.044  1.00  0.00    -0.550 OA
ENDBRANCH   7   8
ENDBRANCH   6   7
ENDBRANCH   5   6
ENDBRANCH   4   5
ENDBRANCH   3   4
ENDBRANCH   2   3
ENDBRANCH   1   2
BRANCH   1  11
ATOM     11  C   UNL     1       6.013 106.921 179.748  1.00  0.00     0.000 C 
BRANCH  11  12
ATOM     12  C   UNL     1       6.563 105.728 180.539  1.00  0.00     0.000 C 
BRANCH  12  13
ATOM     13  C   UNL     1       7.521 106.193 181.642  1.00  0.00     0.000 C 
BRANCH  13  14
ATOM     14  C   UNL     1       6.822 106.215 183.006  1.00  0.00     0.000 C 
BRANCH  14  15
ATOM     15  C   UNL     1       6.504 107.654 183.438  1.00  0.00     0.000 C 
BRANCH  15  16
ATOM     16  C   UNL     1       4.993 107.940 183.520  1.00  0.00     0.006 C 
BRANCH  16  17
ATOM     17  C   UNL     1       4.580 109.298 182.926  1.00  0.00     0.053 C 
BRANCH  17  18
ATOM     18  C   UNL     1       3.093 109.471 182.865  1.00  0.00     0.041 C 
ATOM     19  O   UNL     1       2.367 108.554 182.399  1.00  0.00    -0.550 OA
ATOM     20  O   UNL     1       2.503 110.631 183.354  1.00  0.00    -0.550 OA
ENDBRANCH  17  18
ENDBRANCH  16  17
ENDBRANCH  15  16
ENDBRANCH  14  15
ENDBRANCH  13  14
ENDBRANCH  12  13
ENDBRANCH  11  12
ENDBRANCH   1  11
TORSDOF 15
ENDMDL
MODEL 8
REMARK VINA RESULT:    -2.822      4.108      6.913
REMARK INTER + INTRA:          -8.119
REMARK INTER:                  -6.182
REMARK INTRA:                  -1.937
REMARK UNBOUND:                -2.822
REMARK SMILES O=C([O-])CCCCCCCCCCCCCCC(=O)[O-]
REMARK SMILES IDX 10 1 9 2 8 3 7 4 6 5 5 6 4 7 2 8 1 9 3 10 11 11 12 12 13 13
REMARK SMILES IDX 14 14 15 15 16 16 17 17 18 18 19 19 20 20
REMARK H PARENT
REMARK Flexibility Score: inf
ROOT
ATOM      1  C   UNL     1       4.476 111.630 182.427  1.00  0.00     0.000 C 
ENDROOT
BRANCH   1   2
ATOM      2  C   UNL     1       3.465 111.238 183.526  1.00  0.00     0.000 C 
BRANCH   2   3
ATOM      3  C   UNL     1       2.976 112.428 184.373  1.00  0.00     0.000 C 
BRANCH   3   4
ATOM      4  C   UNL     1       4.078 113.400 184.834  1.00  0.00     0.000 C 
BRANCH   4   5
ATOM      5  C   UNL     1       3.900 114.856 184.366  1.00  0.00     0.000 C 
BRANCH   5   6
ATOM      6  C   UNL     1       4.817 115.222 183.186  1.00  0.00     0.006 C 
BRANCH   6   7
ATOM      7  C   UNL     1       4.029 115.457 181.892  1.00  0.00     0.053 C 
BRANCH   7   8
ATOM      8  C   UNL     1       3.105 116.632 182.007  1.00  0.00     0.041 C 
ATOM      9  O   UNL     1       1.895 116.522 181.677  1.00  0.00    -0.550 OA
ATOM     10  O   UNL     1       3.589 117.855 182.451  1.00  0.00    -0.550 OA
ENDBRANCH   7   8
ENDBRANCH   6   7
ENDBRANCH   5   6
ENDBRANCH   4   5
ENDBRANCH   3   4
ENDBRANCH   2   3
ENDBRANCH   1   2
BRANCH   1  11
ATOM     11  C   UNL     1       5.796 110.853 182.538  1.00  0.00     0.000 C 
BRANCH  11  12
ATOM     12  C   UNL     1       6.032 110.373 183.976  1.00  0.00     0.000 C 
BRANCH  12  13
ATOM     13  C   UNL     1       6.561 108.934 183.996  1.00  0.00     0.000 C 
BRANCH  13  14
ATOM     14  C   UNL     1       5.409 107.923 183.932  1.00  0.00     0.000 C 
BRANCH  14  15
ATOM     15  C   UNL     1       5.565 106.986 182.726  1.00  0.00     0.000 C 
BRANCH  15  16
ATOM     16  C   UNL     1       4.236 106.712 181.998  1.00  0.00     0.006 C 
BRANCH  16  17
ATOM     17  C   UNL     1       3.179 107.813 182.192  1.00  0.00     0.053 C 
BRANCH  17  18
ATOM     18  C   UNL     1       2.730 108.415 180.895  1.00  0.00     0.041 C 
ATOM     19  O   UNL     1       3.535 109.084 180.194  1.00  0.00    -0.550 OA
ATOM     20  O   UNL     1       1.433 108.211 180.440  1.00  0.00    -0.550 OA
ENDBRANCH  17  18
ENDBRANCH  16  17
ENDBRANCH  15  16
ENDBRANCH  14  15
ENDBRANCH  13  14
ENDBRANCH  12  13
ENDBRANCH  11  12
ENDBRANCH   1  11
TORSDOF 15
ENDMDL
MODEL 9
REMARK VINA RESULT:    -2.809      2.082      6.383
REMARK INTER + INTRA:          -8.095
REMARK INTER:                  -5.862
REMARK INTRA:                  -2.233
REMARK UNBOUND:                -2.822
REMARK SMILES O=C([O-])CCCCCCCCCCCCCCC(=O)[O-]
REMARK SMILES IDX 10 1 9 2 8 3 7 4 6 5 5 6 4 7 2 8 1 9 3 10 11 11 12 12 13 13
REMARK SMILES IDX 14 14 15 15 16 16 17 17 18 18 19 19 20 20
REMARK H PARENT
REMARK Flexibility Score: inf
ROOT
ATOM      1  C   UNL     1       5.440 107.561 179.599  1.00  0.00     0.000 C 
ENDROOT
BRANCH   1   2
ATOM      2  C   UNL     1       3.979 107.293 180.022  1.00  0.00     0.000 C 
BRANCH   2   3
ATOM      3  C   UNL     1       3.757 105.899 180.638  1.00  0.00     0.000 C 
BRANCH   3   4
ATOM      4  C   UNL     1       2.715 105.024 179.916  1.00  0.00     0.000 C 
BRANCH   4   5
ATOM      5  C   UNL     1       3.098 104.601 178.485  1.00  0.00     0.000 C 
BRANCH   5   6
ATOM      6  C   UNL     1       2.002 104.918 177.454  1.00  0.00     0.006 C 
BRANCH   6   7
ATOM      7  C   UNL     1       1.064 106.035 177.929  1.00  0.00     0.053 C 
BRANCH   7   8
ATOM      8  C   UNL     1       1.425 107.359 177.328  1.00  0.00     0.041 C 
ATOM      9  O   UNL     1       2.296 107.429 176.423  1.00  0.00    -0.550 OA
ATOM     10  O   UNL     1       0.817 108.520 177.789  1.00  0.00    -0.550 OA
ENDBRANCH   7   8
ENDBRANCH   6   7
ENDBRANCH   5   6
ENDBRANCH   4   5
ENDBRANCH   3   4
ENDBRANCH   2   3
ENDBRANCH   1   2
BRANCH   1  11
ATOM     11  C   UNL     1       6.380 106.404 179.969  1.00  0.00     0.000 C 
BRANCH  11  12
ATOM     12  C   UNL     1       7.415 106.848 181.010  1.00  0.00     0.000 C 
BRANCH  12  13
ATOM     13  C   UNL     1       7.453 105.879 182.197  1.00  0.00     0.000 C 
BRANCH  13  14
ATOM     14  C   UNL     1       6.418 106.269 183.260  1.00  0.00     0.000 C 
BRANCH  14  15
ATOM     15  C   UNL     1       6.313 107.795 183.391  1.00  0.00     0.000 C 
BRANCH  15  16
ATOM     16  C   UNL     1       4.869 108.285 183.605  1.00  0.00     0.006 C 
BRANCH  16  17
ATOM     17  C   UNL     1       4.508 109.542 182.795  1.00  0.00     0.053 C 
BRANCH  17  18
ATOM     18  C   UNL     1       3.058 109.903 182.907  1.00  0.00     0.041 C 
ATOM     19  O   UNL     1       2.175 109.133 182.447  1.00  0.00    -0.550 OA
ATOM     20  O   UNL     1       2.677 111.075 183.551  1.00  0.00    -0.550 OA
ENDBRANCH  17  18
ENDBRANCH  16  17
ENDBRANCH  15  16
ENDBRANCH  14  15
ENDBRANCH  13  14
ENDBRANCH  12  13
ENDBRANCH  11  12
ENDBRANCH   1  11
TORSDOF 15
ENDMDL
