MODEL 1
REMARK VINA RESULT:    -2.725      0.000      0.000
REMARK INTER + INTRA:          -7.558
REMARK INTER:                  -5.274
REMARK INTRA:                  -2.284
REMARK UNBOUND:                -2.284
REMARK SMILES CCCCCCCCCCCCCCCCCC(=O)[O-]
REMARK SMILES IDX 10 1 11 2 12 3 13 4 14 5 15 6 16 7 17 8 18 9 19 10 20 11
REMARK SMILES IDX 9 12 8 13 7 14 6 15 5 16 4 17 3 18 2 19 1 20
REMARK H PARENT
REMARK Flexibility Score: inf
ROOT
ATOM      1  C   UNL     1     -20.083  16.110 -21.722  1.00  0.00     0.000 C 
ENDROOT
BRANCH   1   2
ATOM      2  C   UNL     1     -18.753  15.644 -21.103  1.00  0.00     0.000 C 
BRANCH   2   3
ATOM      3  C   UNL     1     -18.517  14.132 -21.262  1.00  0.00     0.000 C 
BRANCH   3   4
ATOM      4  C   UNL     1     -18.027  13.474 -19.963  1.00  0.00     0.000 C 
BRANCH   4   5
ATOM      5  C   UNL     1     -18.428  14.268 -18.706  1.00  0.00     0.000 C 
BRANCH   5   6
ATOM      6  C   UNL     1     -19.404  13.496 -17.799  1.00  0.00     0.000 C 
BRANCH   6   7
ATOM      7  C   UNL     1     -20.847  13.408 -18.327  1.00  0.00     0.006 C 
BRANCH   7   8
ATOM      8  C   UNL     1     -21.859  14.127 -17.425  1.00  0.00     0.053 C 
BRANCH   8   9
ATOM      9  C   UNL     1     -22.716  13.132 -16.707  1.00  0.00     0.041 C 
ATOM     10  O   UNL     1     -23.963  13.293 -16.653  1.00  0.00    -0.550 OA
ATOM     11  O   UNL     1     -22.141  12.004 -16.136  1.00  0.00    -0.550 OA
ENDBRANCH   8   9
ENDBRANCH   7   8
ENDBRANCH   6   7
ENDBRANCH   5   6
ENDBRANCH   4   5
ENDBRANCH   3   4
ENDBRANCH   2   3
ENDBRANCH   1   2
BRANCH   1  12
ATOM     12  C   UNL     1     -21.253  15.114 -21.583  1.00  0.00     0.000 C 
BRANCH  12  13
ATOM     13  C   UNL     1     -21.974  14.762 -22.899  1.00  0.00    -0.000 C 
BRANCH  13  14
ATOM     14  C   UNL     1     -21.819  13.300 -23.353  1.00  0.00    -0.000 C 
BRANCH  14  15
ATOM     15  C   UNL     1     -21.095  13.168 -24.701  1.00  0.00    -0.000 C 
BRANCH  15  16
ATOM     16  C   UNL     1     -19.596  12.914 -24.496  1.00  0.00    -0.000 C 
BRANCH  16  17
ATOM     17  C   UNL     1     -18.762  14.096 -25.004  1.00  0.00    -0.000 C 
BRANCH  17  18
ATOM     18  C   UNL     1     -17.260  13.798 -24.890  1.00  0.00    -0.000 C 
BRANCH  18  19
ATOM     19  C   UNL     1     -16.395  15.058 -25.046  1.00  0.00    -0.003 C 
ATOM     20  C   UNL     1     -16.859  16.208 -24.153  1.00  0.00     0.004 C 
ENDBRANCH  18  19
ENDBRANCH  17  18
ENDBRANCH  16  17
ENDBRANCH  15  16
ENDBRANCH  14  15
ENDBRANCH  13  14
ENDBRANCH  12  13
ENDBRANCH   1  12
TORSDOF 16
ENDMDL
MODEL 2
REMARK VINA RESULT:    -2.675      3.375      8.037
REMARK INTER + INTRA:          -7.460
REMARK INTER:                  -5.658
REMARK INTRA:                  -1.803
REMARK UNBOUND:                -2.284
REMARK SMILES CCCCCCCCCCCCCCCCCC(=O)[O-]
REMARK SMILES IDX 10 1 11 2 12 3 13 4 14 5 15 6 16 7 17 8 18 9 19 10 20 11
REMARK SMILES IDX 9 12 8 13 7 14 6 15 5 16 4 17 3 18 2 19 1 20
REMARK H PARENT
REMARK Flexibility Score: inf
ROOT
ATOM      1  C   UNL     1     -20.611  14.642 -19.807  1.00  0.00     0.000 C 
ENDROOT
BRANCH   1   2
ATOM      2  C   UNL     1     -20.990  14.159 -21.219  1.00  0.00     0.000 C 
BRANCH   2   3
ATOM      3  C   UNL     1     -21.750  15.223 -22.030  1.00  0.00     0.000 C 
BRANCH   3   4
ATOM      4  C   UNL     1     -22.142  14.726 -23.430  1.00  0.00     0.000 C 
BRANCH   4   5
ATOM      5  C   UNL     1     -21.941  13.209 -23.600  1.00  0.00     0.000 C 
BRANCH   5   6
ATOM      6  C   UNL     1     -21.157  12.849 -24.876  1.00  0.00     0.000 C 
BRANCH   6   7
ATOM      7  C   UNL     1     -19.857  13.648 -25.083  1.00  0.00     0.006 C 
BRANCH   7   8
ATOM      8  C   UNL     1     -18.744  13.243 -24.109  1.00  0.00     0.053 C 
BRANCH   8   9
ATOM      9  C   UNL     1     -17.886  14.423 -23.777  1.00  0.00     0.041 C 
ATOM     10  O   UNL     1     -18.387  15.430 -23.210  1.00  0.00    -0.550 OA
ATOM     11  O   UNL     1     -16.525  14.392 -24.051  1.00  0.00    -0.550 OA
ENDBRANCH   8   9
ENDBRANCH   7   8
ENDBRANCH   6   7
ENDBRANCH   5   6
ENDBRANCH   4   5
ENDBRANCH   3   4
ENDBRANCH   2   3
ENDBRANCH   1   2
BRANCH   1  12
ATOM     12  C   UNL     1     -21.246  13.842 -18.651  1.00  0.00     0.000 C 
BRANCH  12  13
ATOM     13  C   UNL     1     -20.246  13.201 -17.669  1.00  0.00    -0.000 C 
BRANCH  13  14
ATOM     14  C   UNL     1     -20.592  11.767 -17.232  1.00  0.00    -0.000 C 
BRANCH  14  15
ATOM     15  C   UNL     1     -19.883  11.350 -15.936  1.00  0.00    -0.000 C 
BRANCH  15  16
ATOM     16  C   UNL     1     -20.339  12.218 -14.756  1.00  0.00    -0.000 C 
BRANCH  16  17
ATOM     17  C   UNL     1     -21.848  12.081 -14.523  1.00  0.00    -0.000 C 
BRANCH  17  18
ATOM     18  C   UNL     1     -22.466  13.428 -14.120  1.00  0.00    -0.000 C 
BRANCH  18  19
ATOM     19  C   UNL     1     -23.036  14.199 -15.322  1.00  0.00    -0.003 C 
ATOM     20  C   UNL     1     -23.939  13.336 -16.202  1.00  0.00     0.004 C 
ENDBRANCH  18  19
ENDBRANCH  17  18
ENDBRANCH  16  17
ENDBRANCH  15  16
ENDBRANCH  14  15
ENDBRANCH  13  14
ENDBRANCH  12  13
ENDBRANCH   1  12
TORSDOF 16
ENDMDL
MODEL 3
REMARK VINA RESULT:    -2.651     14.094     16.248
REMARK INTER + INTRA:          -7.414
REMARK INTER:                  -5.008
REMARK INTRA:                  -2.406
REMARK UNBOUND:                -2.284
REMARK SMILES CCCCCCCCCCCCCCCCCC(=O)[O-]
REMARK SMILES IDX 10 1 11 2 12 3 13 4 14 5 15 6 16 7 17 8 18 9 19 10 20 11
REMARK SMILES IDX 9 12 8 13 7 14 6 15 5 16 4 17 3 18 2 19 1 20
REMARK H PARENT
REMARK Flexibility Score: inf
ROOT
ATOM      1  C   UNL     1     -23.724  29.636 -21.872  1.00  0.00     0.000 C 
ENDROOT
BRANCH   1   2
ATOM      2  C   UNL     1     -22.976  28.303 -21.692  1.00  0.00     0.000 C 
BRANCH   2   3
ATOM      3  C   UNL     1     -21.534  28.490 -21.189  1.00  0.00     0.000 C 
BRANCH   3   4
ATOM      4  C   UNL     1     -20.786  27.157 -21.036  1.00  0.00     0.000 C 
BRANCH   4   5
ATOM      5  C   UNL     1     -19.276  27.288 -21.309  1.00  0.00     0.000 C 
BRANCH   5   6
ATOM      6  C   UNL     1     -18.453  27.487 -20.023  1.00  0.00     0.000 C 
BRANCH   6   7
ATOM      7  C   UNL     1     -17.667  28.809 -19.957  1.00  0.00     0.006 C 
BRANCH   7   8
ATOM      8  C   UNL     1     -18.044  29.787 -21.078  1.00  0.00     0.053 C 
BRANCH   8   9
ATOM      9  C   UNL     1     -16.875  30.018 -21.982  1.00  0.00     0.041 C 
ATOM     10  O   UNL     1     -15.811  30.515 -21.527  1.00  0.00    -0.550 OA
ATOM     11  O   UNL     1     -16.944  29.643 -23.318  1.00  0.00    -0.550 OA
ENDBRANCH   8   9
ENDBRANCH   7   8
ENDBRANCH   6   7
ENDBRANCH   5   6
ENDBRANCH   4   5
ENDBRANCH   3   4
ENDBRANCH   2   3
ENDBRANCH   1   2
BRANCH   1  12
ATOM     12  C   UNL     1     -24.997  29.791 -21.014  1.00  0.00     0.000 C 
BRANCH  12  13
ATOM     13  C   UNL     1     -24.935  29.132 -19.622  1.00  0.00    -0.000 C 
BRANCH  13  14
ATOM     14  C   UNL     1     -24.370  30.027 -18.505  1.00  0.00    -0.000 C 
BRANCH  14  15
ATOM     15  C   UNL     1     -23.712  29.224 -17.373  1.00  0.00    -0.000 C 
BRANCH  15  16
ATOM     16  C   UNL     1     -23.101  27.922 -17.907  1.00  0.00    -0.000 C 
BRANCH  16  17
ATOM     17  C   UNL     1     -21.636  27.784 -17.476  1.00  0.00    -0.000 C 
BRANCH  17  18
ATOM     18  C   UNL     1     -20.869  29.094 -17.710  1.00  0.00    -0.000 C 
BRANCH  18  19
ATOM     19  C   UNL     1     -20.179  29.610 -16.436  1.00  0.00    -0.003 C 
ATOM     20  C   UNL     1     -18.761  30.114 -16.695  1.00  0.00     0.004 C 
ENDBRANCH  18  19
ENDBRANCH  17  18
ENDBRANCH  16  17
ENDBRANCH  15  16
ENDBRANCH  14  15
ENDBRANCH  13  14
ENDBRANCH  12  13
ENDBRANCH   1  12
TORSDOF 16
ENDMDL
MODEL 4
REMARK VINA RESULT:    -2.641     13.892     15.800
REMARK INTER + INTRA:          -7.394
REMARK INTER:                  -5.111
REMARK INTRA:                  -2.283
REMARK UNBOUND:                -2.284
REMARK SMILES CCCCCCCCCCCCCCCCCC(=O)[O-]
REMARK SMILES IDX 10 1 11 2 12 3 13 4 14 5 15 6 16 7 17 8 18 9 19 10 20 11
REMARK SMILES IDX 9 12 8 13 7 14 6 15 5 16 4 17 3 18 2 19 1 20
REMARK H PARENT
REMARK Flexibility Score: inf
ROOT
ATOM      1  C   UNL     1     -23.267  29.446 -17.581  1.00  0.00     0.000 C 
ENDROOT
BRANCH   1   2
ATOM      2  C   UNL     1     -23.037  27.927 -17.669  1.00  0.00     0.000 C 
BRANCH   2   3
ATOM      3  C   UNL     1     -21.554  27.556 -17.850  1.00  0.00     0.000 C 
BRANCH   3   4
ATOM      4  C   UNL     1     -20.639  28.790 -17.877  1.00  0.00     0.000 C 
BRANCH   4   5
ATOM      5  C   UNL     1     -19.227  28.470 -18.401  1.00  0.00     0.000 C 
BRANCH   5   6
ATOM      6  C   UNL     1     -18.487  29.716 -18.922  1.00  0.00     0.000 C 
BRANCH   6   7
ATOM      7  C   UNL     1     -18.103  29.665 -20.412  1.00  0.00     0.006 C 
BRANCH   7   8
ATOM      8  C   UNL     1     -17.111  30.765 -20.812  1.00  0.00     0.053 C 
BRANCH   8   9
ATOM      9  C   UNL     1     -16.427  30.409 -22.094  1.00  0.00     0.041 C 
ATOM     10  O   UNL     1     -17.028  29.723 -22.963  1.00  0.00    -0.550 OA
ATOM     11  O   UNL     1     -15.143  30.874 -22.349  1.00  0.00    -0.550 OA
ENDBRANCH   8   9
ENDBRANCH   7   8
ENDBRANCH   6   7
ENDBRANCH   5   6
ENDBRANCH   4   5
ENDBRANCH   3   4
ENDBRANCH   2   3
ENDBRANCH   1   2
BRANCH   1  12
ATOM     12  C   UNL     1     -24.490  29.969 -18.362  1.00  0.00     0.000 C 
BRANCH  12  13
ATOM     13  C   UNL     1     -24.855  29.165 -19.625  1.00  0.00    -0.000 C 
BRANCH  13  14
ATOM     14  C   UNL     1     -24.622  29.903 -20.955  1.00  0.00    -0.000 C 
BRANCH  14  15
ATOM     15  C   UNL     1     -23.259  29.581 -21.585  1.00  0.00    -0.000 C 
BRANCH  15  16
ATOM     16  C   UNL     1     -22.917  28.094 -21.423  1.00  0.00    -0.000 C 
BRANCH  16  17
ATOM     17  C   UNL     1     -21.400  27.880 -21.379  1.00  0.00    -0.000 C 
BRANCH  17  18
ATOM     18  C   UNL     1     -21.021  26.513 -21.968  1.00  0.00    -0.000 C 
BRANCH  18  19
ATOM     19  C   UNL     1     -19.650  26.019 -21.478  1.00  0.00    -0.003 C 
ATOM     20  C   UNL     1     -19.727  25.300 -20.132  1.00  0.00     0.004 C 
ENDBRANCH  18  19
ENDBRANCH  17  18
ENDBRANCH  16  17
ENDBRANCH  15  16
ENDBRANCH  14  15
ENDBRANCH  13  14
ENDBRANCH  12  13
ENDBRANCH   1  12
TORSDOF 16
ENDMDL
MODEL 5
REMARK VINA RESULT:    -2.615      1.452      3.960
REMARK INTER + INTRA:          -7.345
REMARK INTER:                  -4.853
REMARK INTRA:                  -2.492
REMARK UNBOUND:                -2.284
REMARK SMILES CCCCCCCCCCCCCCCCCC(=O)[O-]
REMARK SMILES IDX 10 1 11 2 12 3 13 4 14 5 15 6 16 7 17 8 18 9 19 10 20 11
REMARK SMILES IDX 9 12 8 13 7 14 6 15 5 16 4 17 3 18 2 19 1 20
REMARK H PARENT
REMARK Flexibility Score: inf
ROOT
ATOM      1  C   UNL     1     -18.351  13.916 -25.112  1.00  0.00     0.000 C 
ENDROOT
BRANCH   1   2
ATOM      2  C   UNL     1     -17.878  12.766 -24.205  1.00  0.00     0.000 C 
BRANCH   2   3
ATOM      3  C   UNL     1     -16.999  13.249 -23.038  1.00  0.00     0.000 C 
BRANCH   3   4
ATOM      4  C   UNL     1     -17.824  13.840 -21.885  1.00  0.00     0.000 C 
BRANCH   4   5
ATOM      5  C   UNL     1     -16.945  14.409 -20.757  1.00  0.00     0.000 C 
BRANCH   5   6
ATOM      6  C   UNL     1     -17.728  14.645 -19.452  1.00  0.00     0.000 C 
BRANCH   6   7
ATOM      7  C   UNL     1     -18.784  13.573 -19.128  1.00  0.00     0.006 C 
BRANCH   7   8
ATOM      8  C   UNL     1     -19.723  13.984 -17.985  1.00  0.00     0.053 C 
BRANCH   8   9
ATOM      9  C   UNL     1     -20.771  12.938 -17.771  1.00  0.00     0.041 C 
ATOM     10  O   UNL     1     -21.991  13.236 -17.871  1.00  0.00    -0.550 OA
ATOM     11  O   UNL     1     -20.401  11.626 -17.507  1.00  0.00    -0.550 OA
ENDBRANCH   8   9
ENDBRANCH   7   8
ENDBRANCH   6   7
ENDBRANCH   5   6
ENDBRANCH   4   5
ENDBRANCH   3   4
ENDBRANCH   2   3
ENDBRANCH   1   2
BRANCH   1  12
ATOM     12  C   UNL     1     -19.864  14.213 -25.055  1.00  0.00     0.000 C 
BRANCH  12  13
ATOM     13  C   UNL     1     -20.765  12.987 -24.808  1.00  0.00    -0.000 C 
BRANCH  13  14
ATOM     14  C   UNL     1     -21.727  13.119 -23.613  1.00  0.00    -0.000 C 
BRANCH  14  15
ATOM     15  C   UNL     1     -21.920  14.574 -23.161  1.00  0.00    -0.000 C 
BRANCH  15  16
ATOM     16  C   UNL     1     -21.375  14.785 -21.743  1.00  0.00    -0.000 C 
BRANCH  16  17
ATOM     17  C   UNL     1     -20.491  16.036 -21.672  1.00  0.00    -0.000 C 
BRANCH  17  18
ATOM     18  C   UNL     1     -20.675  16.763 -20.332  1.00  0.00    -0.000 C 
BRANCH  18  19
ATOM     19  C   UNL     1     -21.973  16.359 -19.615  1.00  0.00    -0.003 C 
ATOM     20  C   UNL     1     -22.143  17.055 -18.265  1.00  0.00     0.004 C 
ENDBRANCH  18  19
ENDBRANCH  17  18
ENDBRANCH  16  17
ENDBRANCH  15  16
ENDBRANCH  14  15
ENDBRANCH  13  14
ENDBRANCH  12  13
ENDBRANCH   1  12
TORSDOF 16
ENDMDL
MODEL 6
REMARK VINA RESULT:    -2.566     13.543     15.478
REMARK INTER + INTRA:          -7.251
REMARK INTER:                  -5.454
REMARK INTRA:                  -1.796
REMARK UNBOUND:                -2.284
REMARK SMILES CCCCCCCCCCCCCCCCCC(=O)[O-]
REMARK SMILES IDX 10 1 11 2 12 3 13 4 14 5 15 6 16 7 17 8 18 9 19 10 20 11
REMARK SMILES IDX 9 12 8 13 7 14 6 15 5 16 4 17 3 18 2 19 1 20
REMARK H PARENT
REMARK Flexibility Score: inf
ROOT
ATOM      1  C   UNL     1     -18.938  27.932 -20.955  1.00  0.00     0.000 C 
ENDROOT
BRANCH   1   2
ATOM      2  C   UNL     1     -20.411  27.498 -20.850  1.00  0.00     0.000 C 
BRANCH   2   3
ATOM      3  C   UNL     1     -21.393  28.671 -21.016  1.00  0.00     0.000 C 
BRANCH   3   4
ATOM      4  C   UNL     1     -22.732  28.234 -21.632  1.00  0.00     0.000 C 
BRANCH   4   5
ATOM      5  C   UNL     1     -23.714  29.407 -21.810  1.00  0.00     0.000 C 
BRANCH   5   6
ATOM      6  C   UNL     1     -25.086  29.139 -21.165  1.00  0.00     0.000 C 
BRANCH   6   7
ATOM      7  C   UNL     1     -25.045  28.844 -19.655  1.00  0.00     0.006 C 
BRANCH   7   8
ATOM      8  C   UNL     1     -24.440  29.992 -18.837  1.00  0.00     0.053 C 
BRANCH   8   9
ATOM      9  C   UNL     1     -23.676  29.455 -17.669  1.00  0.00     0.041 C 
ATOM     10  O   UNL     1     -22.455  29.168 -17.789  1.00  0.00    -0.550 OA
ATOM     11  O   UNL     1     -24.298  29.314 -16.435  1.00  0.00    -0.550 OA
ENDBRANCH   8   9
ENDBRANCH   7   8
ENDBRANCH   6   7
ENDBRANCH   5   6
ENDBRANCH   4   5
ENDBRANCH   3   4
ENDBRANCH   2   3
ENDBRANCH   1   2
BRANCH   1  12
ATOM     12  C   UNL     1     -18.715  29.361 -21.491  1.00  0.00     0.000 C 
BRANCH  12  13
ATOM     13  C   UNL     1     -17.653  30.186 -20.738  1.00  0.00    -0.000 C 
BRANCH  13  14
ATOM     14  C   UNL     1     -16.194  29.828 -21.073  1.00  0.00    -0.000 C 
BRANCH  14  15
ATOM     15  C   UNL     1     -15.566  30.784 -22.097  1.00  0.00    -0.000 C 
BRANCH  15  16
ATOM     16  C   UNL     1     -15.051  30.016 -23.322  1.00  0.00    -0.000 C 
BRANCH  16  17
ATOM     17  C   UNL     1     -16.214  29.461 -24.153  1.00  0.00    -0.000 C 
BRANCH  17  18
ATOM     18  C   UNL     1     -15.926  28.022 -24.607  1.00  0.00    -0.000 C 
BRANCH  18  19
ATOM     19  C   UNL     1     -16.674  26.977 -23.764  1.00  0.00    -0.003 C 
ATOM     20  C   UNL     1     -15.839  26.450 -22.598  1.00  0.00     0.004 C 
ENDBRANCH  18  19
ENDBRANCH  17  18
ENDBRANCH  16  17
ENDBRANCH  15  16
ENDBRANCH  14  15
ENDBRANCH  13  14
ENDBRANCH  12  13
ENDBRANCH   1  12
TORSDOF 16
ENDMDL
MODEL 7
REMARK VINA RESULT:    -2.556     13.285     15.499
REMARK INTER + INTRA:          -7.230
REMARK INTER:                  -4.505
REMARK INTRA:                  -2.725
REMARK UNBOUND:                -2.284
REMARK SMILES CCCCCCCCCCCCCCCCCC(=O)[O-]
REMARK SMILES IDX 10 1 11 2 12 3 13 4 14 5 15 6 16 7 17 8 18 9 19 10 20 11
REMARK SMILES IDX 9 12 8 13 7 14 6 15 5 16 4 17 3 18 2 19 1 20
REMARK H PARENT
REMARK Flexibility Score: inf
ROOT
ATOM      1  C   UNL     1     -21.487  28.616 -21.018  1.00  0.00     0.000 C 
ENDROOT
BRANCH   1   2
ATOM      2  C   UNL     1     -21.364  28.196 -19.543  1.00  0.00     0.000 C 
BRANCH   2   3
ATOM      3  C   UNL     1     -21.984  26.816 -19.260  1.00  0.00     0.000 C 
BRANCH   3   4
ATOM      4  C   UNL     1     -20.939  25.779 -18.823  1.00  0.00     0.000 C 
BRANCH   4   5
ATOM      5  C   UNL     1     -20.056  25.297 -19.989  1.00  0.00     0.000 C 
BRANCH   5   6
ATOM      6  C   UNL     1     -18.589  25.745 -19.853  1.00  0.00     0.000 C 
BRANCH   6   7
ATOM      7  C   UNL     1     -18.151  26.837 -20.846  1.00  0.00     0.006 C 
BRANCH   7   8
ATOM      8  C   UNL     1     -17.285  27.924 -20.195  1.00  0.00     0.053 C 
BRANCH   8   9
ATOM      9  C   UNL     1     -17.870  29.277 -20.449  1.00  0.00     0.041 C 
ATOM     10  O   UNL     1     -18.145  29.638 -21.623  1.00  0.00    -0.550 OA
ATOM     11  O   UNL     1     -18.155  30.122 -19.384  1.00  0.00    -0.550 OA
ENDBRANCH   8   9
ENDBRANCH   7   8
ENDBRANCH   6   7
ENDBRANCH   5   6
ENDBRANCH   4   5
ENDBRANCH   3   4
ENDBRANCH   2   3
ENDBRANCH   1   2
BRANCH   1  12
ATOM     12  C   UNL     1     -22.433  27.744 -21.870  1.00  0.00     0.000 C 
BRANCH  12  13
ATOM     13  C   UNL     1     -23.678  28.468 -22.418  1.00  0.00    -0.000 C 
BRANCH  13  14
ATOM     14  C   UNL     1     -24.116  29.705 -21.613  1.00  0.00    -0.000 C 
BRANCH  14  15
ATOM     15  C   UNL     1     -25.015  29.351 -20.419  1.00  0.00    -0.000 C 
BRANCH  15  16
ATOM     16  C   UNL     1     -24.521  30.035 -19.138  1.00  0.00    -0.000 C 
BRANCH  16  17
ATOM     17  C   UNL     1     -24.644  29.098 -17.931  1.00  0.00    -0.000 C 
BRANCH  17  18
ATOM     18  C   UNL     1     -23.662  29.501 -16.821  1.00  0.00    -0.000 C 
BRANCH  18  19
ATOM     19  C   UNL     1     -23.119  28.291 -16.045  1.00  0.00    -0.003 C 
ATOM     20  C   UNL     1     -24.035  27.071 -16.136  1.00  0.00     0.004 C 
ENDBRANCH  18  19
ENDBRANCH  17  18
ENDBRANCH  16  17
ENDBRANCH  15  16
ENDBRANCH  14  15
ENDBRANCH  13  14
ENDBRANCH  12  13
ENDBRANCH   1  12
TORSDOF 16
ENDMDL
MODEL 8
REMARK VINA RESULT:    -2.529     14.212     15.836
REMARK INTER + INTRA:          -7.178
REMARK INTER:                  -5.171
REMARK INTRA:                  -2.007
REMARK UNBOUND:                -2.284
REMARK SMILES CCCCCCCCCCCCCCCCCC(=O)[O-]
REMARK SMILES IDX 10 1 11 2 12 3 13 4 14 5 15 6 16 7 17 8 18 9 19 10 20 11
REMARK SMILES IDX 9 12 8 13 7 14 6 15 5 16 4 17 3 18 2 19 1 20
REMARK H PARENT
REMARK Flexibility Score: inf
ROOT
ATOM      1  C   UNL     1     -22.088  27.615 -21.760  1.00  0.00     0.000 C 
ENDROOT
BRANCH   1   2
ATOM      2  C   UNL     1     -23.475  28.120 -22.195  1.00  0.00     0.000 C 
BRANCH   2   3
ATOM      3  C   UNL     1     -23.696  29.609 -21.874  1.00  0.00     0.000 C 
BRANCH   3   4
ATOM      4  C   UNL     1     -25.013  29.859 -21.122  1.00  0.00     0.000 C 
BRANCH   4   5
ATOM      5  C   UNL     1     -25.032  29.211 -19.726  1.00  0.00     0.000 C 
BRANCH   5   6
ATOM      6  C   UNL     1     -24.328  30.070 -18.659  1.00  0.00     0.000 C 
BRANCH   6   7
ATOM      7  C   UNL     1     -24.675  29.707 -17.204  1.00  0.00     0.006 C 
BRANCH   7   8
ATOM      8  C   UNL     1     -23.741  30.370 -16.183  1.00  0.00     0.053 C 
BRANCH   8   9
ATOM      9  C   UNL     1     -23.448  29.430 -15.056  1.00  0.00     0.041 C 
ATOM     10  O   UNL     1     -22.652  28.469 -15.225  1.00  0.00    -0.550 OA
ATOM     11  O   UNL     1     -24.017  29.643 -13.807  1.00  0.00    -0.550 OA
ENDBRANCH   8   9
ENDBRANCH   7   8
ENDBRANCH   6   7
ENDBRANCH   5   6
ENDBRANCH   4   5
ENDBRANCH   3   4
ENDBRANCH   2   3
ENDBRANCH   1   2
BRANCH   1  12
ATOM     12  C   UNL     1     -21.382  28.479 -20.695  1.00  0.00     0.000 C 
BRANCH  12  13
ATOM     13  C   UNL     1     -21.569  28.008 -19.239  1.00  0.00    -0.000 C 
BRANCH  13  14
ATOM     14  C   UNL     1     -20.801  28.829 -18.187  1.00  0.00    -0.000 C 
BRANCH  14  15
ATOM     15  C   UNL     1     -19.278  28.668 -18.303  1.00  0.00    -0.000 C 
BRANCH  15  16
ATOM     16  C   UNL     1     -18.592  30.030 -18.468  1.00  0.00    -0.000 C 
BRANCH  16  17
ATOM     17  C   UNL     1     -17.377  29.927 -19.397  1.00  0.00    -0.000 C 
BRANCH  17  18
ATOM     18  C   UNL     1     -17.467  28.676 -20.282  1.00  0.00    -0.000 C 
BRANCH  18  19
ATOM     19  C   UNL     1     -17.871  29.003 -21.728  1.00  0.00    -0.003 C 
ATOM     20  C   UNL     1     -16.798  29.793 -22.476  1.00  0.00     0.004 C 
ENDBRANCH  18  19
ENDBRANCH  17  18
ENDBRANCH  16  17
ENDBRANCH  15  16
ENDBRANCH  14  15
ENDBRANCH  13  14
ENDBRANCH  12  13
ENDBRANCH   1  12
TORSDOF 16
ENDMDL
MODEL 9
REMARK VINA RESULT:    -2.516      1.525      3.732
REMARK INTER + INTRA:          -7.152
REMARK INTER:                  -5.311
REMARK INTRA:                  -1.841
REMARK UNBOUND:                -2.284
REMARK SMILES CCCCCCCCCCCCCCCCCC(=O)[O-]
REMARK SMILES IDX 10 1 11 2 12 3 13 4 14 5 15 6 16 7 17 8 18 9 19 10 20 11
REMARK SMILES IDX 9 12 8 13 7 14 6 15 5 16 4 17 3 18 2 19 1 20
REMARK H PARENT
REMARK Flexibility Score: inf
ROOT
ATOM      1  C   UNL     1     -18.204  14.256 -18.389  1.00  0.00     0.000 C 
ENDROOT
BRANCH   1   2
ATOM      2  C   UNL     1     -19.240  13.778 -17.356  1.00  0.00     0.000 C 
BRANCH   2   3
ATOM      3  C   UNL     1     -20.157  12.668 -17.899  1.00  0.00     0.000 C 
BRANCH   3   4
ATOM      4  C   UNL     1     -20.459  11.589 -16.847  1.00  0.00     0.000 C 
BRANCH   4   5
ATOM      5  C   UNL     1     -20.863  12.183 -15.486  1.00  0.00     0.000 C 
BRANCH   5   6
ATOM      6  C   UNL     1     -22.364  12.022 -15.185  1.00  0.00     0.000 C 
BRANCH   6   7
ATOM      7  C   UNL     1     -23.090  13.323 -14.797  1.00  0.00     0.006 C 
BRANCH   7   8
ATOM      8  C   UNL     1     -24.203  13.704 -15.782  1.00  0.00     0.053 C 
BRANCH   8   9
ATOM      9  C   UNL     1     -23.848  14.962 -16.508  1.00  0.00     0.041 C 
ATOM     10  O   UNL     1     -24.624  15.953 -16.474  1.00  0.00    -0.550 OA
ATOM     11  O   UNL     1     -22.639  15.057 -17.185  1.00  0.00    -0.550 OA
ENDBRANCH   8   9
ENDBRANCH   7   8
ENDBRANCH   6   7
ENDBRANCH   5   6
ENDBRANCH   4   5
ENDBRANCH   3   4
ENDBRANCH   2   3
ENDBRANCH   1   2
BRANCH   1  12
ATOM     12  C   UNL     1     -18.044  13.345 -19.624  1.00  0.00     0.000 C 
BRANCH  12  13
ATOM     13  C   UNL     1     -18.448  13.984 -20.967  1.00  0.00    -0.000 C 
BRANCH  13  14
ATOM     14  C   UNL     1     -19.637  14.960 -20.891  1.00  0.00    -0.000 C 
BRANCH  14  15
ATOM     15  C   UNL     1     -20.991  14.267 -21.105  1.00  0.00    -0.000 C 
BRANCH  15  16
ATOM     16  C   UNL     1     -21.537  14.552 -22.509  1.00  0.00    -0.000 C 
BRANCH  16  17
ATOM     17  C   UNL     1     -21.749  13.251 -23.292  1.00  0.00    -0.000 C 
BRANCH  17  18
ATOM     18  C   UNL     1     -20.954  13.265 -24.606  1.00  0.00    -0.000 C 
BRANCH  18  19
ATOM     19  C   UNL     1     -19.451  13.024 -24.390  1.00  0.00    -0.003 C 
ATOM     20  C   UNL     1     -18.592  14.203 -24.846  1.00  0.00     0.004 C 
ENDBRANCH  18  19
ENDBRANCH  17  18
ENDBRANCH  16  17
ENDBRANCH  15  16
ENDBRANCH  14  15
ENDBRANCH  13  14
ENDBRANCH  12  13
ENDBRANCH   1  12
TORSDOF 16
ENDMDL
