MODEL 1
REMARK VINA RESULT:    -6.485      0.000      0.000
REMARK INTER + INTRA:         -12.140
REMARK INTER:                 -10.655
REMARK INTRA:                  -1.485
REMARK UNBOUND:                -1.485
REMARK SMILES COc1ccc([C@@H]2CC(=O)c3c(O)cc(O[C@H]4O[C@@H](CO[C@@H]5O[C@@H](C)[C@@H](O)[C@@H](O)[C@@H]5O)[C@H](O)[C@@H](O)[C@@H]4O)cc3O2)cc1O
REMARK SMILES IDX 19 1 32 2 34 3 36 4 17 5 18 6 20 7 21 8 22 9 25 10 24 11
REMARK SMILES IDX 26 12 23 13 28 14 30 15 27 16 29 18 31 20 33 22 35 24 16 26
REMARK SMILES IDX 15 27 14 28 38 29 12 30 39 31 11 32 40 33 9 34 7 35 10 36
REMARK SMILES IDX 8 37 13 38 6 40 41 41 5 42 42 43 4 44 3 45 43 46 2 48 1 49
REMARK SMILES IDX 37 50
REMARK H PARENT 27 17 29 19 31 21 33 23 35 25 13 39 43 47 37 51
REMARK Flexibility Score: inf
ROOT
ATOM      1  C   UNL     1       4.373  -7.700  -7.845  1.00  0.00     0.180 C 
ATOM      2  C   UNL     1       2.903  -7.568  -7.368  1.00  0.00     0.177 C 
ATOM      3  C   UNL     1       1.908  -7.555  -8.545  1.00  0.00     0.180 C 
ATOM      4  C   UNL     1       2.219  -8.689  -9.532  1.00  0.00     0.214 C 
ATOM      5  C   UNL     1       3.708  -8.702  -9.911  1.00  0.00     0.339 C 
ATOM      6  O   UNL     1       4.568  -8.755  -8.779  1.00  0.00    -0.332 OA
ENDROOT
BRANCH   1   7
ATOM      7  C   UNL     1       4.997  -6.365  -8.305  1.00  0.00     0.198 C 
BRANCH   7   8
ATOM      8  O   UNL     1       6.350  -6.317  -7.888  1.00  0.00    -0.347 OA
BRANCH   8   9
ATOM      9  C   UNL     1       7.218  -6.989  -8.795  1.00  0.00     0.281 C 
ATOM     10  C   UNL     1       8.264  -9.795  -6.629  1.00  0.00     0.041 C 
ATOM     11  C   UNL     1       8.103  -8.338  -7.075  1.00  0.00     0.150 C 
ATOM     12  C   UNL     1       9.477  -7.616  -7.098  1.00  0.00     0.174 C 
ATOM     13  O   UNL     1       7.478  -8.314  -8.348  1.00  0.00    -0.344 OA
ATOM     14  C   UNL     1       9.313  -6.181  -7.638  1.00  0.00     0.179 C 
ATOM     15  C   UNL     1       8.533  -6.195  -8.960  1.00  0.00     0.202 C 
BRANCH  12  16
ATOM     16  O   UNL     1      10.444  -8.326  -7.837  1.00  0.00    -0.388 OA
ATOM     17  H   UNL     1      10.037  -8.595  -8.699  1.00  0.00     0.211 HD
ENDBRANCH  12  16
BRANCH  14  18
ATOM     18  O   UNL     1      10.568  -5.577  -7.834  1.00  0.00    -0.387 OA
ATOM     19  H   UNL     1      11.157  -6.266  -8.240  1.00  0.00     0.211 HD
ENDBRANCH  14  18
BRANCH  15  20
ATOM     20  O   UNL     1       8.257  -4.877  -9.347  1.00  0.00    -0.385 OA
ATOM     21  H   UNL     1       9.121  -4.471  -9.617  1.00  0.00     0.211 HD
ENDBRANCH  15  20
ENDBRANCH   8   9
ENDBRANCH   7   8
ENDBRANCH   1   7
BRANCH   2  22
ATOM     22  O   UNL     1       2.612  -8.647  -6.515  1.00  0.00    -0.387 OA
ATOM     23  H   UNL     1       1.798  -8.401  -6.004  1.00  0.00     0.211 HD
ENDBRANCH   2  22
BRANCH   3  24
ATOM     24  O   UNL     1       1.941  -6.323  -9.214  1.00  0.00    -0.387 OA
ATOM     25  H   UNL     1       2.230  -6.508 -10.147  1.00  0.00     0.211 HD
ENDBRANCH   3  24
BRANCH   5  26
ATOM     26  O   UNL     1       4.029  -7.605 -10.768  1.00  0.00    -0.462 OA
BRANCH  26  27
ATOM     27  C   UNL     1       4.453  -7.729 -12.100  1.00  0.00     0.130 A 
ATOM     28  C   UNL     1       3.611  -7.449 -13.190  1.00  0.00     0.093 A 
ATOM     29  C   UNL     1       5.761  -8.153 -12.344  1.00  0.00     0.094 A 
ATOM     30  C   UNL     1       4.081  -7.534 -14.507  1.00  0.00     0.133 A 
ATOM     31  C   UNL     1       6.248  -8.243 -13.650  1.00  0.00     0.138 A 
ATOM     32  C   UNL     1       5.440  -7.871 -14.747  1.00  0.00     0.102 A 
ATOM     33  O   UNL     1       7.556  -8.697 -13.859  1.00  0.00    -0.484 OA
ATOM     34  C   UNL     1       6.108  -7.768 -16.077  1.00  0.00     0.174 C 
ATOM     35  C   UNL     1       7.996  -9.123 -15.148  1.00  0.00     0.211 C 
ATOM     36  O   UNL     1       5.526  -7.253 -17.068  1.00  0.00    -0.294 OA
ATOM     37  C   UNL     1       7.566  -8.107 -16.215  1.00  0.00     0.131 C 
BRANCH  30  38
ATOM     38  O   UNL     1       3.158  -7.294 -15.526  1.00  0.00    -0.507 OA
ATOM     39  H   UNL     1       2.153  -7.317 -15.405  1.00  0.00     0.293 HD
ENDBRANCH  30  38
BRANCH  35  40
ATOM     40  C   UNL     1       9.495  -9.299 -15.158  1.00  0.00    -0.003 A 
ATOM     41  C   UNL     1      10.338  -8.177 -15.115  1.00  0.00     0.057 A 
ATOM     42  C   UNL     1      10.062 -10.582 -15.136  1.00  0.00     0.011 A 
ATOM     43  C   UNL     1      11.729  -8.330 -15.082  1.00  0.00     0.158 A 
ATOM     44  C   UNL     1      11.451 -10.741 -15.096  1.00  0.00     0.051 A 
ATOM     45  C   UNL     1      12.297  -9.617 -15.075  1.00  0.00     0.160 A 
BRANCH  43  46
ATOM     46  O   UNL     1      12.529  -7.189 -15.056  1.00  0.00    -0.504 OA
ATOM     47  H   UNL     1      12.133  -6.260 -14.982  1.00  0.00     0.293 HD
ENDBRANCH  43  46
BRANCH  45  48
ATOM     48  O   UNL     1      13.695  -9.739 -15.046  1.00  0.00    -0.493 OA
ATOM     49  C   UNL     1      14.515  -9.948 -16.192  1.00  0.00     0.278 C 
ENDBRANCH  45  48
ENDBRANCH  35  40
ENDBRANCH  26  27
ENDBRANCH   5  26
BRANCH   4  50
ATOM     50  O   UNL     1       1.879  -9.931  -8.971  1.00  0.00    -0.384 OA
ATOM     51  H   UNL     1       1.006 -10.195  -9.366  1.00  0.00     0.211 HD
ENDBRANCH   4  50
TORSDOF 15
ENDMDL
MODEL 2
REMARK VINA RESULT:    -6.305      3.609      5.929
REMARK INTER + INTRA:         -11.844
REMARK INTER:                 -10.933
REMARK INTRA:                  -0.911
REMARK UNBOUND:                -1.485
REMARK SMILES COc1ccc([C@@H]2CC(=O)c3c(O)cc(O[C@H]4O[C@@H](CO[C@@H]5O[C@@H](C)[C@@H](O)[C@@H](O)[C@@H]5O)[C@H](O)[C@@H](O)[C@@H]4O)cc3O2)cc1O
REMARK SMILES IDX 19 1 32 2 34 3 36 4 17 5 18 6 20 7 21 8 22 9 25 10 24 11
REMARK SMILES IDX 26 12 23 13 28 14 30 15 27 16 29 18 31 20 33 22 35 24 16 26
REMARK SMILES IDX 15 27 14 28 38 29 12 30 39 31 11 32 40 33 9 34 7 35 10 36
REMARK SMILES IDX 8 37 13 38 6 40 41 41 5 42 42 43 4 44 3 45 43 46 2 48 1 49
REMARK SMILES IDX 37 50
REMARK H PARENT 27 17 29 19 31 21 33 23 35 25 13 39 43 47 37 51
REMARK Flexibility Score: inf
ROOT
ATOM      1  C   UNL     1       7.514  -9.927 -11.285  1.00  0.00     0.180 C 
ATOM      2  C   UNL     1       7.565 -11.318 -11.969  1.00  0.00     0.177 C 
ATOM      3  C   UNL     1       7.092 -11.263 -13.435  1.00  0.00     0.180 C 
ATOM      4  C   UNL     1       7.759 -10.098 -14.178  1.00  0.00     0.214 C 
ATOM      5  C   UNL     1       7.636  -8.789 -13.383  1.00  0.00     0.339 C 
ATOM      6  O   UNL     1       8.128  -8.899 -12.053  1.00  0.00    -0.332 OA
ENDROOT
BRANCH   1   7
ATOM      7  C   UNL     1       6.110  -9.539 -10.774  1.00  0.00     0.198 C 
BRANCH   7   8
ATOM      8  O   UNL     1       5.952 -10.009  -9.447  1.00  0.00    -0.347 OA
BRANCH   8   9
ATOM      9  C   UNL     1       5.934  -8.948  -8.498  1.00  0.00     0.281 C 
ATOM     10  C   UNL     1       9.575  -8.407  -8.163  1.00  0.00     0.041 C 
ATOM     11  C   UNL     1       8.247  -9.168  -8.090  1.00  0.00     0.150 C 
ATOM     12  C   UNL     1       8.028  -9.755  -6.670  1.00  0.00     0.174 C 
ATOM     13  O   UNL     1       7.195  -8.291  -8.461  1.00  0.00    -0.344 OA
ATOM     14  C   UNL     1       6.647 -10.435  -6.584  1.00  0.00     0.179 C 
ATOM     15  C   UNL     1       5.554  -9.489  -7.102  1.00  0.00     0.202 C 
BRANCH  12  16
ATOM     16  O   UNL     1       8.176  -8.784  -5.659  1.00  0.00    -0.388 OA
ATOM     17  H   UNL     1       7.738  -7.951  -5.965  1.00  0.00     0.211 HD
ENDBRANCH  12  16
BRANCH  14  18
ATOM     18  O   UNL     1       6.360 -10.812  -5.260  1.00  0.00    -0.387 OA
ATOM     19  H   UNL     1       5.370 -10.822  -5.174  1.00  0.00     0.211 HD
ENDBRANCH  14  18
BRANCH  15  20
ATOM     20  O   UNL     1       4.338 -10.182  -7.166  1.00  0.00    -0.385 OA
ATOM     21  H   UNL     1       4.315 -10.794  -6.385  1.00  0.00     0.211 HD
ENDBRANCH  15  20
ENDBRANCH   8   9
ENDBRANCH   7   8
ENDBRANCH   1   7
BRANCH   2  22
ATOM     22  O   UNL     1       8.887 -11.793 -11.917  1.00  0.00    -0.387 OA
ATOM     23  H   UNL     1       8.849 -12.774 -12.065  1.00  0.00     0.211 HD
ENDBRANCH   2  22
BRANCH   3  24
ATOM     24  O   UNL     1       5.697 -11.132 -13.506  1.00  0.00    -0.387 OA
ATOM     25  H   UNL     1       5.433 -10.478 -12.806  1.00  0.00     0.211 HD
ENDBRANCH   3  24
BRANCH   5  26
ATOM     26  O   UNL     1       6.297  -8.295 -13.411  1.00  0.00    -0.462 OA
BRANCH  26  27
ATOM     27  C   UNL     1       5.612  -7.905 -14.573  1.00  0.00     0.130 A 
ATOM     28  C   UNL     1       4.218  -7.727 -14.605  1.00  0.00     0.093 A 
ATOM     29  C   UNL     1       6.350  -7.696 -15.740  1.00  0.00     0.094 A 
ATOM     30  C   UNL     1       3.572  -7.290 -15.768  1.00  0.00     0.133 A 
ATOM     31  C   UNL     1       5.724  -7.259 -16.909  1.00  0.00     0.138 A 
ATOM     32  C   UNL     1       4.340  -6.983 -16.925  1.00  0.00     0.102 A 
ATOM     33  O   UNL     1       6.491  -7.083 -18.067  1.00  0.00    -0.484 OA
ATOM     34  C   UNL     1       3.798  -6.297 -18.134  1.00  0.00     0.174 C 
ATOM     35  C   UNL     1       5.880  -6.965 -19.352  1.00  0.00     0.211 C 
ATOM     36  O   UNL     1       2.628  -5.831 -18.158  1.00  0.00    -0.294 OA
ATOM     37  C   UNL     1       4.706  -5.977 -19.288  1.00  0.00     0.131 C 
BRANCH  30  38
ATOM     38  O   UNL     1       2.181  -7.197 -15.724  1.00  0.00    -0.507 OA
ATOM     39  H   UNL     1       1.611  -6.781 -16.451  1.00  0.00     0.293 HD
ENDBRANCH  30  38
BRANCH  35  40
ATOM     40  C   UNL     1       6.894  -6.517 -20.375  1.00  0.00    -0.003 A 
ATOM     41  C   UNL     1       6.742  -6.877 -21.724  1.00  0.00     0.057 A 
ATOM     42  C   UNL     1       7.957  -5.679 -20.006  1.00  0.00     0.011 A 
ATOM     43  C   UNL     1       7.654  -6.433 -22.688  1.00  0.00     0.158 A 
ATOM     44  C   UNL     1       8.867  -5.227 -20.967  1.00  0.00     0.051 A 
ATOM     45  C   UNL     1       8.729  -5.604 -22.315  1.00  0.00     0.160 A 
BRANCH  43  46
ATOM     46  O   UNL     1       7.475  -6.827 -24.013  1.00  0.00    -0.504 OA
ATOM     47  H   UNL     1       6.810  -6.367 -24.622  1.00  0.00     0.293 HD
ENDBRANCH  43  46
BRANCH  45  48
ATOM     48  O   UNL     1       9.630  -5.179 -23.303  1.00  0.00    -0.493 OA
ATOM     49  C   UNL     1      10.919  -5.743 -23.522  1.00  0.00     0.278 C 
ENDBRANCH  45  48
ENDBRANCH  35  40
ENDBRANCH  26  27
ENDBRANCH   5  26
BRANCH   4  50
ATOM     50  O   UNL     1       9.119 -10.374 -14.397  1.00  0.00    -0.384 OA
ATOM     51  H   UNL     1       9.298 -10.192 -15.358  1.00  0.00     0.211 HD
ENDBRANCH   4  50
TORSDOF 15
ENDMDL
MODEL 3
REMARK VINA RESULT:    -6.041      1.262      2.121
REMARK INTER + INTRA:         -11.411
REMARK INTER:                  -9.935
REMARK INTRA:                  -1.476
REMARK UNBOUND:                -1.485
REMARK SMILES COc1ccc([C@@H]2CC(=O)c3c(O)cc(O[C@H]4O[C@@H](CO[C@@H]5O[C@@H](C)[C@@H](O)[C@@H](O)[C@@H]5O)[C@H](O)[C@@H](O)[C@@H]4O)cc3O2)cc1O
REMARK SMILES IDX 19 1 32 2 34 3 36 4 17 5 18 6 20 7 21 8 22 9 25 10 24 11
REMARK SMILES IDX 26 12 23 13 28 14 30 15 27 16 29 18 31 20 33 22 35 24 16 26
REMARK SMILES IDX 15 27 14 28 38 29 12 30 39 31 11 32 40 33 9 34 7 35 10 36
REMARK SMILES IDX 8 37 13 38 6 40 41 41 5 42 42 43 4 44 3 45 43 46 2 48 1 49
REMARK SMILES IDX 37 50
REMARK H PARENT 27 17 29 19 31 21 33 23 35 25 13 39 43 47 37 51
REMARK Flexibility Score: inf
ROOT
ATOM      1  C   UNL     1       3.572  -7.062  -7.876  1.00  0.00     0.180 C 
ATOM      2  C   UNL     1       3.799  -5.527  -7.844  1.00  0.00     0.177 C 
ATOM      3  C   UNL     1       4.162  -4.964  -9.231  1.00  0.00     0.180 C 
ATOM      4  C   UNL     1       3.204  -5.502 -10.304  1.00  0.00     0.214 C 
ATOM      5  C   UNL     1       3.072  -7.030 -10.213  1.00  0.00     0.339 C 
ATOM      6  O   UNL     1       2.696  -7.478  -8.917  1.00  0.00    -0.332 OA
ENDROOT
BRANCH   1   7
ATOM      7  C   UNL     1       4.877  -7.883  -7.823  1.00  0.00     0.198 C 
BRANCH   7   8
ATOM      8  O   UNL     1       5.959  -7.018  -7.525  1.00  0.00    -0.347 OA
BRANCH   8   9
ATOM      9  C   UNL     1       7.168  -7.731  -7.282  1.00  0.00     0.281 C 
ATOM     10  C   UNL     1       9.380  -4.876  -6.498  1.00  0.00     0.041 C 
ATOM     11  C   UNL     1       8.443  -5.748  -7.341  1.00  0.00     0.150 C 
ATOM     12  C   UNL     1       9.104  -6.112  -8.697  1.00  0.00     0.174 C 
ATOM     13  O   UNL     1       8.104  -6.908  -6.597  1.00  0.00    -0.344 OA
ATOM     14  C   UNL     1       8.192  -7.066  -9.493  1.00  0.00     0.179 C 
ATOM     15  C   UNL     1       7.758  -8.246  -8.613  1.00  0.00     0.202 C 
BRANCH  12  16
ATOM     16  O   UNL     1      10.392  -6.663  -8.536  1.00  0.00    -0.388 OA
ATOM     17  H   UNL     1      10.944  -6.388  -9.311  1.00  0.00     0.211 HD
ENDBRANCH  12  16
BRANCH  14  18
ATOM     18  O   UNL     1       8.852  -7.546 -10.639  1.00  0.00    -0.387 OA
ATOM     19  H   UNL     1       9.277  -8.407 -10.384  1.00  0.00     0.211 HD
ENDBRANCH  14  18
BRANCH  15  20
ATOM     20  O   UNL     1       6.805  -9.010  -9.302  1.00  0.00    -0.385 OA
ATOM     21  H   UNL     1       5.915  -8.656  -9.044  1.00  0.00     0.211 HD
ENDBRANCH  15  20
ENDBRANCH   8   9
ENDBRANCH   7   8
ENDBRANCH   1   7
BRANCH   2  22
ATOM     22  O   UNL     1       2.625  -4.912  -7.376  1.00  0.00    -0.387 OA
ATOM     23  H   UNL     1       2.806  -4.610  -6.448  1.00  0.00     0.211 HD
ENDBRANCH   2  22
BRANCH   3  24
ATOM     24  O   UNL     1       5.484  -5.286  -9.573  1.00  0.00    -0.387 OA
ATOM     25  H   UNL     1       6.010  -5.274  -8.730  1.00  0.00     0.211 HD
ENDBRANCH   3  24
BRANCH   5  26
ATOM     26  O   UNL     1       4.260  -7.677 -10.672  1.00  0.00    -0.462 OA
BRANCH  26  27
ATOM     27  C   UNL     1       4.630  -7.806 -12.020  1.00  0.00     0.130 A 
ATOM     28  C   UNL     1       3.725  -7.600 -13.075  1.00  0.00     0.093 A 
ATOM     29  C   UNL     1       5.948  -8.161 -12.315  1.00  0.00     0.094 A 
ATOM     30  C   UNL     1       4.140  -7.688 -14.410  1.00  0.00     0.133 A 
ATOM     31  C   UNL     1       6.381  -8.253 -13.639  1.00  0.00     0.138 A 
ATOM     32  C   UNL     1       5.505  -7.953 -14.705  1.00  0.00     0.102 A 
ATOM     33  O   UNL     1       7.702  -8.636 -13.899  1.00  0.00    -0.484 OA
ATOM     34  C   UNL     1       6.106  -7.843 -16.066  1.00  0.00     0.174 C 
ATOM     35  C   UNL     1       8.109  -9.066 -15.198  1.00  0.00     0.211 C 
ATOM     36  O   UNL     1       5.451  -7.384 -17.040  1.00  0.00    -0.294 OA
ATOM     37  C   UNL     1       7.573  -8.101 -16.265  1.00  0.00     0.131 C 
BRANCH  30  38
ATOM     38  O   UNL     1       3.161  -7.525 -15.390  1.00  0.00    -0.507 OA
ATOM     39  H   UNL     1       2.825  -6.627 -15.720  1.00  0.00     0.293 HD
ENDBRANCH  30  38
BRANCH  35  40
ATOM     40  C   UNL     1       9.613  -9.157 -15.272  1.00  0.00    -0.003 A 
ATOM     41  C   UNL     1      10.392  -7.988 -15.267  1.00  0.00     0.057 A 
ATOM     42  C   UNL     1      10.253 -10.405 -15.274  1.00  0.00     0.011 A 
ATOM     43  C   UNL     1      11.789  -8.062 -15.295  1.00  0.00     0.158 A 
ATOM     44  C   UNL     1      11.649 -10.484 -15.294  1.00  0.00     0.051 A 
ATOM     45  C   UNL     1      12.430  -9.315 -15.311  1.00  0.00     0.160 A 
BRANCH  43  46
ATOM     46  O   UNL     1      12.524  -6.877 -15.305  1.00  0.00    -0.504 OA
ATOM     47  H   UNL     1      13.465  -6.829 -14.935  1.00  0.00     0.293 HD
ENDBRANCH  43  46
BRANCH  45  48
ATOM     48  O   UNL     1      13.832  -9.357 -15.343  1.00  0.00    -0.493 OA
ATOM     49  C   UNL     1      14.621 -10.451 -14.886  1.00  0.00     0.278 C 
ENDBRANCH  45  48
ENDBRANCH  35  40
ENDBRANCH  26  27
ENDBRANCH   5  26
BRANCH   4  50
ATOM     50  O   UNL     1       1.933  -4.923 -10.157  1.00  0.00    -0.384 OA
ATOM     51  H   UNL     1       1.604  -5.178  -9.255  1.00  0.00     0.211 HD
ENDBRANCH   4  50
TORSDOF 15
ENDMDL
MODEL 4
REMARK VINA RESULT:    -6.039      4.695      9.547
REMARK INTER + INTRA:         -11.407
REMARK INTER:                  -9.960
REMARK INTRA:                  -1.447
REMARK UNBOUND:                -1.485
REMARK SMILES COc1ccc([C@@H]2CC(=O)c3c(O)cc(O[C@H]4O[C@@H](CO[C@@H]5O[C@@H](C)[C@@H](O)[C@@H](O)[C@@H]5O)[C@H](O)[C@@H](O)[C@@H]4O)cc3O2)cc1O
REMARK SMILES IDX 19 1 32 2 34 3 36 4 17 5 18 6 20 7 21 8 22 9 25 10 24 11
REMARK SMILES IDX 26 12 23 13 28 14 30 15 27 16 29 18 31 20 33 22 35 24 16 26
REMARK SMILES IDX 15 27 14 28 38 29 12 30 39 31 11 32 40 33 9 34 7 35 10 36
REMARK SMILES IDX 8 37 13 38 6 40 41 41 5 42 42 43 4 44 3 45 43 46 2 48 1 49
REMARK SMILES IDX 37 50
REMARK H PARENT 27 17 29 19 31 21 33 23 35 25 13 39 43 47 37 51
REMARK Flexibility Score: inf
ROOT
ATOM      1  C   UNL     1       7.267  -7.253 -10.684  1.00  0.00     0.180 C 
ATOM      2  C   UNL     1       6.150  -6.260 -11.099  1.00  0.00     0.177 C 
ATOM      3  C   UNL     1       4.845  -6.493 -10.313  1.00  0.00     0.180 C 
ATOM      4  C   UNL     1       5.131  -6.629  -8.811  1.00  0.00     0.214 C 
ATOM      5  C   UNL     1       6.260  -7.638  -8.551  1.00  0.00     0.339 C 
ATOM      6  O   UNL     1       7.448  -7.341  -9.276  1.00  0.00    -0.332 OA
ENDROOT
BRANCH   1   7
ATOM      7  C   UNL     1       7.153  -8.634 -11.364  1.00  0.00     0.198 C 
BRANCH   7   8
ATOM      8  O   UNL     1       6.382  -8.508 -12.546  1.00  0.00    -0.347 OA
BRANCH   8   9
ATOM      9  C   UNL     1       7.076  -8.985 -13.695  1.00  0.00     0.281 C 
ATOM     10  C   UNL     1       5.848  -6.534 -16.174  1.00  0.00     0.041 C 
ATOM     11  C   UNL     1       5.763  -7.658 -15.137  1.00  0.00     0.150 C 
ATOM     12  C   UNL     1       5.008  -8.885 -15.717  1.00  0.00     0.174 C 
ATOM     13  O   UNL     1       7.075  -8.001 -14.722  1.00  0.00    -0.344 OA
ATOM     14  C   UNL     1       5.012 -10.041 -14.698  1.00  0.00     0.179 C 
ATOM     15  C   UNL     1       6.438 -10.301 -14.192  1.00  0.00     0.202 C 
BRANCH  12  16
ATOM     16  O   UNL     1       5.535  -9.302 -16.956  1.00  0.00    -0.388 OA
ATOM     17  H   UNL     1       4.800  -9.703 -17.485  1.00  0.00     0.211 HD
ENDBRANCH  12  16
BRANCH  14  18
ATOM     18  O   UNL     1       4.493 -11.215 -15.275  1.00  0.00    -0.387 OA
ATOM     19  H   UNL     1       4.115 -11.755 -14.532  1.00  0.00     0.211 HD
ENDBRANCH  14  18
BRANCH  15  20
ATOM     20  O   UNL     1       6.395 -11.241 -13.154  1.00  0.00    -0.385 OA
ATOM     21  H   UNL     1       6.984 -11.992 -13.423  1.00  0.00     0.211 HD
ENDBRANCH  15  20
ENDBRANCH   8   9
ENDBRANCH   7   8
ENDBRANCH   1   7
BRANCH   2  22
ATOM     22  O   UNL     1       6.610  -4.951 -10.874  1.00  0.00    -0.387 OA
ATOM     23  H   UNL     1       7.579  -5.016 -10.669  1.00  0.00     0.211 HD
ENDBRANCH   2  22
BRANCH   3  24
ATOM     24  O   UNL     1       4.181  -7.639 -10.774  1.00  0.00    -0.387 OA
ATOM     25  H   UNL     1       4.124  -7.562 -11.763  1.00  0.00     0.211 HD
ENDBRANCH   3  24
BRANCH   5  26
ATOM     26  O   UNL     1       5.819  -8.975  -8.787  1.00  0.00    -0.462 OA
BRANCH  26  27
ATOM     27  C   UNL     1       5.156  -9.777  -7.843  1.00  0.00     0.130 A 
ATOM     28  C   UNL     1       4.043  -9.323  -7.116  1.00  0.00     0.093 A 
ATOM     29  C   UNL     1       5.632 -11.070  -7.619  1.00  0.00     0.094 A 
ATOM     30  C   UNL     1       3.374 -10.165  -6.218  1.00  0.00     0.133 A 
ATOM     31  C   UNL     1       4.979 -11.925  -6.729  1.00  0.00     0.138 A 
ATOM     32  C   UNL     1       3.803 -11.512  -6.067  1.00  0.00     0.102 A 
ATOM     33  O   UNL     1       5.498 -13.206  -6.510  1.00  0.00    -0.484 OA
ATOM     34  C   UNL     1       3.039 -12.557  -5.325  1.00  0.00     0.174 C 
ATOM     35  C   UNL     1       5.088 -13.993  -5.392  1.00  0.00     0.211 C 
ATOM     36  O   UNL     1       1.883 -12.334  -4.876  1.00  0.00    -0.294 OA
ATOM     37  C   UNL     1       3.558 -13.966  -5.262  1.00  0.00     0.131 C 
BRANCH  30  38
ATOM     38  O   UNL     1       2.315  -9.611  -5.498  1.00  0.00    -0.507 OA
ATOM     39  H   UNL     1       2.355  -8.723  -5.013  1.00  0.00     0.293 HD
ENDBRANCH  30  38
BRANCH  35  40
ATOM     40  C   UNL     1       5.582 -15.411  -5.539  1.00  0.00    -0.003 A 
ATOM     41  C   UNL     1       4.712 -16.489  -5.310  1.00  0.00     0.057 A 
ATOM     42  C   UNL     1       6.891 -15.668  -5.976  1.00  0.00     0.011 A 
ATOM     43  C   UNL     1       5.150 -17.807  -5.483  1.00  0.00     0.158 A 
ATOM     44  C   UNL     1       7.330 -16.983  -6.157  1.00  0.00     0.051 A 
ATOM     45  C   UNL     1       6.467 -18.065  -5.907  1.00  0.00     0.160 A 
BRANCH  43  46
ATOM     46  O   UNL     1       4.259 -18.849  -5.229  1.00  0.00    -0.504 OA
ATOM     47  H   UNL     1       3.878 -19.420  -5.973  1.00  0.00     0.293 HD
ENDBRANCH  43  46
BRANCH  45  48
ATOM     48  O   UNL     1       6.877 -19.397  -6.068  1.00  0.00    -0.493 OA
ATOM     49  C   UNL     1       6.852 -20.110  -7.300  1.00  0.00     0.278 C 
ENDBRANCH  45  48
ENDBRANCH  35  40
ENDBRANCH  26  27
ENDBRANCH   5  26
BRANCH   4  50
ATOM     50  O   UNL     1       5.495  -5.385  -8.269  1.00  0.00    -0.384 OA
ATOM     51  H   UNL     1       4.660  -4.852  -8.190  1.00  0.00     0.211 HD
ENDBRANCH   4  50
TORSDOF 15
ENDMDL
MODEL 5
REMARK VINA RESULT:    -5.914      3.828      5.771
REMARK INTER + INTRA:         -11.202
REMARK INTER:                  -9.992
REMARK INTRA:                  -1.210
REMARK UNBOUND:                -1.485
REMARK SMILES COc1ccc([C@@H]2CC(=O)c3c(O)cc(O[C@H]4O[C@@H](CO[C@@H]5O[C@@H](C)[C@@H](O)[C@@H](O)[C@@H]5O)[C@H](O)[C@@H](O)[C@@H]4O)cc3O2)cc1O
REMARK SMILES IDX 19 1 32 2 34 3 36 4 17 5 18 6 20 7 21 8 22 9 25 10 24 11
REMARK SMILES IDX 26 12 23 13 28 14 30 15 27 16 29 18 31 20 33 22 35 24 16 26
REMARK SMILES IDX 15 27 14 28 38 29 12 30 39 31 11 32 40 33 9 34 7 35 10 36
REMARK SMILES IDX 8 37 13 38 6 40 41 41 5 42 42 43 4 44 3 45 43 46 2 48 1 49
REMARK SMILES IDX 37 50
REMARK H PARENT 27 17 29 19 31 21 33 23 35 25 13 39 43 47 37 51
REMARK Flexibility Score: inf
ROOT
ATOM      1  C   UNL     1       7.437  -9.709 -11.689  1.00  0.00     0.180 C 
ATOM      2  C   UNL     1       7.444 -11.153 -12.256  1.00  0.00     0.177 C 
ATOM      3  C   UNL     1       7.018 -11.199 -13.736  1.00  0.00     0.180 C 
ATOM      4  C   UNL     1       7.760 -10.130 -14.549  1.00  0.00     0.214 C 
ATOM      5  C   UNL     1       7.674  -8.756 -13.868  1.00  0.00     0.339 C 
ATOM      6  O   UNL     1       8.121  -8.777 -12.517  1.00  0.00    -0.332 OA
ENDROOT
BRANCH   1   7
ATOM      7  C   UNL     1       6.038  -9.220 -11.259  1.00  0.00     0.198 C 
BRANCH   7   8
ATOM      8  O   UNL     1       6.018  -9.049  -9.853  1.00  0.00    -0.347 OA
BRANCH   8   9
ATOM      9  C   UNL     1       7.190  -9.566  -9.230  1.00  0.00     0.281 C 
ATOM     10  C   UNL     1       5.595 -11.745  -6.707  1.00  0.00     0.041 C 
ATOM     11  C   UNL     1       5.944 -10.439  -7.428  1.00  0.00     0.150 C 
ATOM     12  C   UNL     1       6.496  -9.389  -6.425  1.00  0.00     0.174 C 
ATOM     13  O   UNL     1       6.878 -10.719  -8.458  1.00  0.00    -0.344 OA
ATOM     14  C   UNL     1       6.931  -8.116  -7.177  1.00  0.00     0.179 C 
ATOM     15  C   UNL     1       7.849  -8.478  -8.352  1.00  0.00     0.202 C 
BRANCH  12  16
ATOM     16  O   UNL     1       7.551  -9.898  -5.642  1.00  0.00    -0.388 OA
ATOM     17  H   UNL     1       7.432  -9.574  -4.714  1.00  0.00     0.211 HD
ENDBRANCH  12  16
BRANCH  14  18
ATOM     18  O   UNL     1       7.596  -7.230  -6.311  1.00  0.00    -0.387 OA
ATOM     19  H   UNL     1       8.337  -6.823  -6.833  1.00  0.00     0.211 HD
ENDBRANCH  14  18
BRANCH  15  20
ATOM     20  O   UNL     1       8.099  -7.328  -9.114  1.00  0.00    -0.385 OA
ATOM     21  H   UNL     1       8.559  -7.627  -9.941  1.00  0.00     0.211 HD
ENDBRANCH  15  20
ENDBRANCH   8   9
ENDBRANCH   7   8
ENDBRANCH   1   7
BRANCH   2  22
ATOM     22  O   UNL     1       8.742 -11.679 -12.121  1.00  0.00    -0.387 OA
ATOM     23  H   UNL     1       9.368 -10.909 -12.126  1.00  0.00     0.211 HD
ENDBRANCH   2  22
BRANCH   3  24
ATOM     24  O   UNL     1       5.633 -11.014 -13.863  1.00  0.00    -0.387 OA
ATOM     25  H   UNL     1       5.370 -10.331 -13.192  1.00  0.00     0.211 HD
ENDBRANCH   3  24
BRANCH   5  26
ATOM     26  O   UNL     1       6.360  -8.208 -13.981  1.00  0.00    -0.462 OA
BRANCH  26  27
ATOM     27  C   UNL     1       5.776  -7.770 -15.180  1.00  0.00     0.130 A 
ATOM     28  C   UNL     1       4.401  -7.506 -15.299  1.00  0.00     0.093 A 
ATOM     29  C   UNL     1       6.599  -7.599 -16.295  1.00  0.00     0.094 A 
ATOM     30  C   UNL     1       3.859  -7.023 -16.496  1.00  0.00     0.133 A 
ATOM     31  C   UNL     1       6.077  -7.116 -17.497  1.00  0.00     0.138 A 
ATOM     32  C   UNL     1       4.716  -6.757 -17.598  1.00  0.00     0.102 A 
ATOM     33  O   UNL     1       6.926  -6.981 -18.602  1.00  0.00    -0.484 OA
ATOM     34  C   UNL     1       4.296  -6.030 -18.832  1.00  0.00     0.174 C 
ATOM     35  C   UNL     1       6.407  -6.817 -19.922  1.00  0.00     0.211 C 
ATOM     36  O   UNL     1       3.160  -5.494 -18.926  1.00  0.00    -0.294 OA
ATOM     37  C   UNL     1       5.294  -5.760 -19.923  1.00  0.00     0.131 C 
BRANCH  30  38
ATOM     38  O   UNL     1       2.476  -6.844 -16.539  1.00  0.00    -0.507 OA
ATOM     39  H   UNL     1       2.015  -6.026 -16.919  1.00  0.00     0.293 HD
ENDBRANCH  30  38
BRANCH  35  40
ATOM     40  C   UNL     1       7.511  -6.426 -20.874  1.00  0.00    -0.003 A 
ATOM     41  C   UNL     1       8.681  -5.821 -20.388  1.00  0.00     0.057 A 
ATOM     42  C   UNL     1       7.412  -6.727 -22.241  1.00  0.00     0.011 A 
ATOM     43  C   UNL     1       9.727  -5.492 -21.258  1.00  0.00     0.158 A 
ATOM     44  C   UNL     1       8.458  -6.407 -23.112  1.00  0.00     0.051 A 
ATOM     45  C   UNL     1       9.622  -5.781 -22.631  1.00  0.00     0.160 A 
BRANCH  43  46
ATOM     46  O   UNL     1      10.864  -4.877 -20.736  1.00  0.00    -0.504 OA
ATOM     47  H   UNL     1      11.129  -3.934 -20.994  1.00  0.00     0.293 HD
ENDBRANCH  43  46
BRANCH  45  48
ATOM     48  O   UNL     1      10.685  -5.435 -23.479  1.00  0.00    -0.493 OA
ATOM     49  C   UNL     1      10.536  -4.875 -24.780  1.00  0.00     0.278 C 
ENDBRANCH  45  48
ENDBRANCH  35  40
ENDBRANCH  26  27
ENDBRANCH   5  26
BRANCH   4  50
ATOM     50  O   UNL     1       9.111 -10.482 -14.699  1.00  0.00    -0.384 OA
ATOM     51  H   UNL     1       9.476  -9.917 -15.431  1.00  0.00     0.211 HD
ENDBRANCH   4  50
TORSDOF 15
ENDMDL
MODEL 6
REMARK VINA RESULT:    -5.787      2.982      8.184
REMARK INTER + INTRA:         -10.994
REMARK INTER:                  -9.062
REMARK INTRA:                  -1.932
REMARK UNBOUND:                -1.485
REMARK SMILES COc1ccc([C@@H]2CC(=O)c3c(O)cc(O[C@H]4O[C@@H](CO[C@@H]5O[C@@H](C)[C@@H](O)[C@@H](O)[C@@H]5O)[C@H](O)[C@@H](O)[C@@H]4O)cc3O2)cc1O
REMARK SMILES IDX 19 1 32 2 34 3 36 4 17 5 18 6 20 7 21 8 22 9 25 10 24 11
REMARK SMILES IDX 26 12 23 13 28 14 30 15 27 16 29 18 31 20 33 22 35 24 16 26
REMARK SMILES IDX 15 27 14 28 38 29 12 30 39 31 11 32 40 33 9 34 7 35 10 36
REMARK SMILES IDX 8 37 13 38 6 40 41 41 5 42 42 43 4 44 3 45 43 46 2 48 1 49
REMARK SMILES IDX 37 50
REMARK H PARENT 27 17 29 19 31 21 33 23 35 25 13 39 43 47 37 51
REMARK Flexibility Score: inf
ROOT
ATOM      1  C   UNL     1       4.357  -7.666 -13.302  1.00  0.00     0.180 C 
ATOM      2  C   UNL     1       4.334  -7.384 -14.827  1.00  0.00     0.177 C 
ATOM      3  C   UNL     1       5.696  -7.664 -15.491  1.00  0.00     0.180 C 
ATOM      4  C   UNL     1       6.249  -9.024 -15.043  1.00  0.00     0.214 C 
ATOM      5  C   UNL     1       6.206  -9.166 -13.514  1.00  0.00     0.339 C 
ATOM      6  O   UNL     1       4.911  -8.934 -12.972  1.00  0.00    -0.332 OA
ENDROOT
BRANCH   1   7
ATOM      7  C   UNL     1       4.954  -6.513 -12.468  1.00  0.00     0.198 C 
BRANCH   7   8
ATOM      8  O   UNL     1       4.184  -6.342 -11.291  1.00  0.00    -0.347 OA
BRANCH   8   9
ATOM      9  C   UNL     1       4.758  -7.007 -10.170  1.00  0.00     0.281 C 
ATOM     10  C   UNL     1       1.932  -9.226  -9.302  1.00  0.00     0.041 C 
ATOM     11  C   UNL     1       2.671  -7.904  -9.533  1.00  0.00     0.150 C 
ATOM     12  C   UNL     1       2.562  -6.988  -8.284  1.00  0.00     0.174 C 
ATOM     13  O   UNL     1       4.023  -8.185  -9.859  1.00  0.00    -0.344 OA
ATOM     14  C   UNL     1       3.388  -5.704  -8.495  1.00  0.00     0.179 C 
ATOM     15  C   UNL     1       4.810  -6.054  -8.956  1.00  0.00     0.202 C 
BRANCH  12  16
ATOM     16  O   UNL     1       2.948  -7.648  -7.100  1.00  0.00    -0.388 OA
ATOM     17  H   UNL     1       3.487  -8.440  -7.349  1.00  0.00     0.211 HD
ENDBRANCH  12  16
BRANCH  14  18
ATOM     18  O   UNL     1       3.447  -4.950  -7.309  1.00  0.00    -0.387 OA
ATOM     19  H   UNL     1       2.517  -4.667  -7.103  1.00  0.00     0.211 HD
ENDBRANCH  14  18
BRANCH  15  20
ATOM     20  O   UNL     1       5.488  -4.875  -9.295  1.00  0.00    -0.385 OA
ATOM     21  H   UNL     1       5.219  -4.646 -10.222  1.00  0.00     0.211 HD
ENDBRANCH  15  20
ENDBRANCH   8   9
ENDBRANCH   7   8
ENDBRANCH   1   7
BRANCH   2  22
ATOM     22  O   UNL     1       3.346  -8.193 -15.415  1.00  0.00    -0.387 OA
ATOM     23  H   UNL     1       2.701  -7.584 -15.861  1.00  0.00     0.211 HD
ENDBRANCH   2  22
BRANCH   3  24
ATOM     24  O   UNL     1       6.620  -6.654 -15.184  1.00  0.00    -0.387 OA
ATOM     25  H   UNL     1       7.370  -6.744 -15.828  1.00  0.00     0.211 HD
ENDBRANCH   3  24
BRANCH   5  26
ATOM     26  O   UNL     1       7.193  -8.341 -12.894  1.00  0.00    -0.462 OA
BRANCH  26  27
ATOM     27  C   UNL     1       7.554  -8.407 -11.539  1.00  0.00     0.130 A 
ATOM     28  C   UNL     1       8.423  -7.477 -10.942  1.00  0.00     0.093 A 
ATOM     29  C   UNL     1       7.031  -9.443 -10.763  1.00  0.00     0.094 A 
ATOM     30  C   UNL     1       8.722  -7.543  -9.576  1.00  0.00     0.133 A 
ATOM     31  C   UNL     1       7.317  -9.524  -9.398  1.00  0.00     0.138 A 
ATOM     32  C   UNL     1       8.110  -8.540  -8.769  1.00  0.00     0.102 A 
ATOM     33  O   UNL     1       6.796 -10.591  -8.656  1.00  0.00    -0.484 OA
ATOM     34  C   UNL     1       8.169  -8.567  -7.278  1.00  0.00     0.174 C 
ATOM     35  C   UNL     1       7.308 -10.916  -7.363  1.00  0.00     0.211 C 
ATOM     36  O   UNL     1       8.678  -7.620  -6.622  1.00  0.00    -0.294 OA
ATOM     37  C   UNL     1       7.447  -9.643  -6.516  1.00  0.00     0.131 C 
BRANCH  30  38
ATOM     38  O   UNL     1       9.638  -6.613  -9.083  1.00  0.00    -0.507 OA
ATOM     39  H   UNL     1       9.390  -5.699  -8.724  1.00  0.00     0.293 HD
ENDBRANCH  30  38
BRANCH  35  40
ATOM     40  C   UNL     1       6.406 -11.913  -6.678  1.00  0.00    -0.003 A 
ATOM     41  C   UNL     1       5.054 -12.011  -7.046  1.00  0.00     0.057 A 
ATOM     42  C   UNL     1       6.922 -12.799  -5.720  1.00  0.00     0.011 A 
ATOM     43  C   UNL     1       4.220 -12.960  -6.445  1.00  0.00     0.158 A 
ATOM     44  C   UNL     1       6.093 -13.754  -5.123  1.00  0.00     0.051 A 
ATOM     45  C   UNL     1       4.734 -13.840  -5.474  1.00  0.00     0.160 A 
BRANCH  43  46
ATOM     46  O   UNL     1       2.880 -13.013  -6.828  1.00  0.00    -0.504 OA
ATOM     47  H   UNL     1       2.153 -12.552  -6.294  1.00  0.00     0.293 HD
ENDBRANCH  43  46
BRANCH  45  48
ATOM     48  O   UNL     1       3.871 -14.778  -4.887  1.00  0.00    -0.493 OA
ATOM     49  C   UNL     1       3.709 -16.120  -5.332  1.00  0.00     0.278 C 
ENDBRANCH  45  48
ENDBRANCH  35  40
ENDBRANCH  26  27
ENDBRANCH   5  26
BRANCH   4  50
ATOM     50  O   UNL     1       5.506 -10.067 -15.621  1.00  0.00    -0.384 OA
ATOM     51  H   UNL     1       5.025  -9.679 -16.400  1.00  0.00     0.211 HD
ENDBRANCH   4  50
TORSDOF 15
ENDMDL
MODEL 7
REMARK VINA RESULT:    -5.757      3.854      5.724
REMARK INTER + INTRA:         -10.944
REMARK INTER:                  -9.544
REMARK INTRA:                  -1.400
REMARK UNBOUND:                -1.485
REMARK SMILES COc1ccc([C@@H]2CC(=O)c3c(O)cc(O[C@H]4O[C@@H](CO[C@@H]5O[C@@H](C)[C@@H](O)[C@@H](O)[C@@H]5O)[C@H](O)[C@@H](O)[C@@H]4O)cc3O2)cc1O
REMARK SMILES IDX 19 1 32 2 34 3 36 4 17 5 18 6 20 7 21 8 22 9 25 10 24 11
REMARK SMILES IDX 26 12 23 13 28 14 30 15 27 16 29 18 31 20 33 22 35 24 16 26
REMARK SMILES IDX 15 27 14 28 38 29 12 30 39 31 11 32 40 33 9 34 7 35 10 36
REMARK SMILES IDX 8 37 13 38 6 40 41 41 5 42 42 43 4 44 3 45 43 46 2 48 1 49
REMARK SMILES IDX 37 50
REMARK H PARENT 27 17 29 19 31 21 33 23 35 25 13 39 43 47 37 51
REMARK Flexibility Score: inf
ROOT
ATOM      1  C   UNL     1       7.241  -9.366 -11.790  1.00  0.00     0.180 C 
ATOM      2  C   UNL     1       7.035 -10.844 -12.212  1.00  0.00     0.177 C 
ATOM      3  C   UNL     1       6.652 -10.977 -13.699  1.00  0.00     0.180 C 
ATOM      4  C   UNL     1       7.581 -10.126 -14.577  1.00  0.00     0.214 C 
ATOM      5  C   UNL     1       7.694  -8.692 -14.038  1.00  0.00     0.339 C 
ATOM      6  O   UNL     1       8.090  -8.642 -12.672  1.00  0.00    -0.332 OA
ENDROOT
BRANCH   1   7
ATOM      7  C   UNL     1       5.925  -8.622 -11.476  1.00  0.00     0.198 C 
BRANCH   7   8
ATOM      8  O   UNL     1       6.037  -7.993 -10.212  1.00  0.00    -0.347 OA
BRANCH   8   9
ATOM      9  C   UNL     1       6.366  -6.612 -10.325  1.00  0.00     0.281 C 
ATOM     10  C   UNL     1       9.970  -6.805  -9.528  1.00  0.00     0.041 C 
ATOM     11  C   UNL     1       8.462  -6.944  -9.295  1.00  0.00     0.150 C 
ATOM     12  C   UNL     1       8.037  -6.209  -7.996  1.00  0.00     0.174 C 
ATOM     13  O   UNL     1       7.774  -6.441 -10.430  1.00  0.00    -0.344 OA
ATOM     14  C   UNL     1       6.506  -6.277  -7.825  1.00  0.00     0.179 C 
ATOM     15  C   UNL     1       5.805  -5.831  -9.115  1.00  0.00     0.202 C 
BRANCH  12  16
ATOM     16  O   UNL     1       8.489  -4.875  -7.961  1.00  0.00    -0.388 OA
ATOM     17  H   UNL     1       8.348  -4.477  -8.857  1.00  0.00     0.211 HD
ENDBRANCH  12  16
BRANCH  14  18
ATOM     18  O   UNL     1       6.088  -5.466  -6.754  1.00  0.00    -0.387 OA
ATOM     19  H   UNL     1       5.839  -4.586  -7.142  1.00  0.00     0.211 HD
ENDBRANCH  14  18
BRANCH  15  20
ATOM     20  O   UNL     1       4.427  -6.053  -8.993  1.00  0.00    -0.385 OA
ATOM     21  H   UNL     1       3.998  -5.161  -8.928  1.00  0.00     0.211 HD
ENDBRANCH  15  20
ENDBRANCH   8   9
ENDBRANCH   7   8
ENDBRANCH   1   7
BRANCH   2  22
ATOM     22  O   UNL     1       8.227 -11.548 -11.966  1.00  0.00    -0.387 OA
ATOM     23  H   UNL     1       8.078 -12.483 -12.266  1.00  0.00     0.211 HD
ENDBRANCH   2  22
BRANCH   3  24
ATOM     24  O   UNL     1       5.320 -10.593 -13.909  1.00  0.00    -0.387 OA
ATOM     25  H   UNL     1       4.822 -10.812 -13.078  1.00  0.00     0.211 HD
ENDBRANCH   3  24
BRANCH   5  26
ATOM     26  O   UNL     1       6.488  -7.961 -14.266  1.00  0.00    -0.462 OA
BRANCH  26  27
ATOM     27  C   UNL     1       6.021  -7.563 -15.528  1.00  0.00     0.130 A 
ATOM     28  C   UNL     1       4.660  -7.328 -15.790  1.00  0.00     0.093 A 
ATOM     29  C   UNL     1       6.948  -7.404 -16.560  1.00  0.00     0.094 A 
ATOM     30  C   UNL     1       4.233  -6.883 -17.047  1.00  0.00     0.133 A 
ATOM     31  C   UNL     1       6.542  -6.961 -17.820  1.00  0.00     0.138 A 
ATOM     32  C   UNL     1       5.192  -6.628 -18.065  1.00  0.00     0.102 A 
ATOM     33  O   UNL     1       7.494  -6.836 -18.838  1.00  0.00    -0.484 OA
ATOM     34  C   UNL     1       4.886  -5.940 -19.353  1.00  0.00     0.174 C 
ATOM     35  C   UNL     1       7.107  -6.714 -20.206  1.00  0.00     0.211 C 
ATOM     36  O   UNL     1       3.757  -5.426 -19.574  1.00  0.00    -0.294 OA
ATOM     37  C   UNL     1       5.983  -5.678 -20.346  1.00  0.00     0.131 C 
BRANCH  30  38
ATOM     38  O   UNL     1       2.858  -6.731 -17.232  1.00  0.00    -0.507 OA
ATOM     39  H   UNL     1       2.355  -7.033 -18.058  1.00  0.00     0.293 HD
ENDBRANCH  30  38
BRANCH  35  40
ATOM     40  C   UNL     1       8.294  -6.327 -21.054  1.00  0.00    -0.003 A 
ATOM     41  C   UNL     1       9.436  -5.769 -20.457  1.00  0.00     0.057 A 
ATOM     42  C   UNL     1       8.299  -6.583 -22.433  1.00  0.00     0.011 A 
ATOM     43  C   UNL     1      10.558  -5.444 -21.228  1.00  0.00     0.158 A 
ATOM     44  C   UNL     1       9.420  -6.267 -23.207  1.00  0.00     0.051 A 
ATOM     45  C   UNL     1      10.557  -5.689 -22.614  1.00  0.00     0.160 A 
BRANCH  43  46
ATOM     46  O   UNL     1      11.664  -4.878 -20.598  1.00  0.00    -0.504 OA
ATOM     47  H   UNL     1      12.241  -4.181 -21.054  1.00  0.00     0.293 HD
ENDBRANCH  43  46
BRANCH  45  48
ATOM     48  O   UNL     1      11.694  -5.348 -23.362  1.00  0.00    -0.493 OA
ATOM     49  C   UNL     1      11.732  -5.252 -24.783  1.00  0.00     0.278 C 
ENDBRANCH  45  48
ENDBRANCH  35  40
ENDBRANCH  26  27
ENDBRANCH   5  26
BRANCH   4  50
ATOM     50  O   UNL     1       8.863 -10.698 -14.628  1.00  0.00    -0.384 OA
ATOM     51  H   UNL     1       9.436 -10.073 -15.146  1.00  0.00     0.211 HD
ENDBRANCH   4  50
TORSDOF 15
ENDMDL
MODEL 8
REMARK VINA RESULT:    -5.733      3.059      9.366
REMARK INTER + INTRA:         -10.905
REMARK INTER:                  -9.345
REMARK INTRA:                  -1.561
REMARK UNBOUND:                -1.485
REMARK SMILES COc1ccc([C@@H]2CC(=O)c3c(O)cc(O[C@H]4O[C@@H](CO[C@@H]5O[C@@H](C)[C@@H](O)[C@@H](O)[C@@H]5O)[C@H](O)[C@@H](O)[C@@H]4O)cc3O2)cc1O
REMARK SMILES IDX 19 1 32 2 34 3 36 4 17 5 18 6 20 7 21 8 22 9 25 10 24 11
REMARK SMILES IDX 26 12 23 13 28 14 30 15 27 16 29 18 31 20 33 22 35 24 16 26
REMARK SMILES IDX 15 27 14 28 38 29 12 30 39 31 11 32 40 33 9 34 7 35 10 36
REMARK SMILES IDX 8 37 13 38 6 40 41 41 5 42 42 43 4 44 3 45 43 46 2 48 1 49
REMARK SMILES IDX 37 50
REMARK H PARENT 27 17 29 19 31 21 33 23 35 25 13 39 43 47 37 51
REMARK Flexibility Score: inf
ROOT
ATOM      1  C   UNL     1       7.674  -8.948 -15.380  1.00  0.00     0.180 C 
ATOM      2  C   UNL     1       6.496  -9.944 -15.549  1.00  0.00     0.177 C 
ATOM      3  C   UNL     1       5.873 -10.342 -14.197  1.00  0.00     0.180 C 
ATOM      4  C   UNL     1       5.615  -9.101 -13.331  1.00  0.00     0.214 C 
ATOM      5  C   UNL     1       6.861  -8.206 -13.258  1.00  0.00     0.339 C 
ATOM      6  O   UNL     1       7.360  -7.843 -14.540  1.00  0.00    -0.332 OA
ENDROOT
BRANCH   1   7
ATOM      7  C   UNL     1       9.010  -9.625 -15.009  1.00  0.00     0.198 C 
BRANCH   7   8
ATOM      8  O   UNL     1      10.060  -9.012 -15.736  1.00  0.00    -0.347 OA
BRANCH   8   9
ATOM      9  C   UNL     1      10.980  -8.336 -14.885  1.00  0.00     0.281 C 
ATOM     10  C   UNL     1      11.181  -5.115 -16.686  1.00  0.00     0.041 C 
ATOM     11  C   UNL     1      11.318  -6.626 -16.474  1.00  0.00     0.150 C 
ATOM     12  C   UNL     1      12.759  -7.098 -16.803  1.00  0.00     0.174 C 
ATOM     13  O   UNL     1      10.959  -6.936 -15.137  1.00  0.00    -0.344 OA
ATOM     14  C   UNL     1      12.909  -8.602 -16.495  1.00  0.00     0.179 C 
ATOM     15  C   UNL     1      12.402  -8.908 -15.079  1.00  0.00     0.202 C 
BRANCH  12  16
ATOM     16  O   UNL     1      13.739  -6.345 -16.125  1.00  0.00    -0.388 OA
ATOM     17  H   UNL     1      13.663  -5.403 -16.420  1.00  0.00     0.211 HD
ENDBRANCH  12  16
BRANCH  14  18
ATOM     18  O   UNL     1      14.251  -9.004 -16.616  1.00  0.00    -0.387 OA
ATOM     19  H   UNL     1      14.698  -8.769 -15.761  1.00  0.00     0.211 HD
ENDBRANCH  14  18
BRANCH  15  20
ATOM     20  O   UNL     1      12.397 -10.296 -14.881  1.00  0.00    -0.385 OA
ATOM     21  H   UNL     1      13.185 -10.508 -14.318  1.00  0.00     0.211 HD
ENDBRANCH  15  20
ENDBRANCH   8   9
ENDBRANCH   7   8
ENDBRANCH   1   7
BRANCH   2  22
ATOM     22  O   UNL     1       5.519  -9.345 -16.363  1.00  0.00    -0.387 OA
ATOM     23  H   UNL     1       5.908  -9.266 -17.273  1.00  0.00     0.211 HD
ENDBRANCH   2  22
BRANCH   3  24
ATOM     24  O   UNL     1       6.704 -11.236 -13.507  1.00  0.00    -0.387 OA
ATOM     25  H   UNL     1       6.487 -11.144 -12.541  1.00  0.00     0.211 HD
ENDBRANCH   3  24
BRANCH   5  26
ATOM     26  O   UNL     1       7.874  -8.802 -12.446  1.00  0.00    -0.462 OA
BRANCH  26  27
ATOM     27  C   UNL     1       7.914  -8.741 -11.044  1.00  0.00     0.130 A 
ATOM     28  C   UNL     1       8.447  -7.640 -10.351  1.00  0.00     0.093 A 
ATOM     29  C   UNL     1       7.409  -9.821 -10.318  1.00  0.00     0.094 A 
ATOM     30  C   UNL     1       8.426  -7.589  -8.952  1.00  0.00     0.133 A 
ATOM     31  C   UNL     1       7.379  -9.788  -8.922  1.00  0.00     0.138 A 
ATOM     32  C   UNL     1       7.822  -8.647  -8.219  1.00  0.00     0.102 A 
ATOM     33  O   UNL     1       6.889 -10.899  -8.226  1.00  0.00    -0.484 OA
ATOM     34  C   UNL     1       7.535  -8.598  -6.756  1.00  0.00     0.174 C 
ATOM     35  C   UNL     1       7.133 -11.067  -6.829  1.00  0.00     0.211 C 
ATOM     36  O   UNL     1       7.708  -7.545  -6.086  1.00  0.00    -0.294 OA
ATOM     37  C   UNL     1       6.851  -9.755  -6.084  1.00  0.00     0.131 C 
BRANCH  30  38
ATOM     38  O   UNL     1       9.029  -6.485  -8.349  1.00  0.00    -0.507 OA
ATOM     39  H   UNL     1       8.541  -5.812  -7.769  1.00  0.00     0.293 HD
ENDBRANCH  30  38
BRANCH  35  40
ATOM     40  C   UNL     1       6.280 -12.184  -6.278  1.00  0.00    -0.003 A 
ATOM     41  C   UNL     1       4.882 -12.127  -6.395  1.00  0.00     0.057 A 
ATOM     42  C   UNL     1       6.875 -13.320  -5.710  1.00  0.00     0.011 A 
ATOM     43  C   UNL     1       4.085 -13.176  -5.924  1.00  0.00     0.158 A 
ATOM     44  C   UNL     1       6.083 -14.374  -5.245  1.00  0.00     0.051 A 
ATOM     45  C   UNL     1       4.681 -14.310  -5.342  1.00  0.00     0.160 A 
BRANCH  43  46
ATOM     46  O   UNL     1       2.700 -13.073  -6.046  1.00  0.00    -0.504 OA
ATOM     47  H   UNL     1       2.237 -12.177  -6.138  1.00  0.00     0.293 HD
ENDBRANCH  43  46
BRANCH  45  48
ATOM     48  O   UNL     1       3.855 -15.344  -4.875  1.00  0.00    -0.493 OA
ATOM     49  C   UNL     1       3.790 -16.649  -5.442  1.00  0.00     0.278 C 
ENDBRANCH  45  48
ENDBRANCH  35  40
ENDBRANCH  26  27
ENDBRANCH   5  26
BRANCH   4  50
ATOM     50  O   UNL     1       4.546  -8.355 -13.855  1.00  0.00    -0.384 OA
ATOM     51  H   UNL     1       3.747  -8.946 -13.838  1.00  0.00     0.211 HD
ENDBRANCH   4  50
TORSDOF 15
ENDMDL
MODEL 9
REMARK VINA RESULT:    -4.131      4.462      9.037
REMARK INTER + INTRA:          -8.272
REMARK INTER:                  -6.227
REMARK INTRA:                  -2.045
REMARK UNBOUND:                -1.485
REMARK SMILES COc1ccc([C@@H]2CC(=O)c3c(O)cc(O[C@H]4O[C@@H](CO[C@@H]5O[C@@H](C)[C@@H](O)[C@@H](O)[C@@H]5O)[C@H](O)[C@@H](O)[C@@H]4O)cc3O2)cc1O
REMARK SMILES IDX 19 1 32 2 34 3 36 4 17 5 18 6 20 7 21 8 22 9 25 10 24 11
REMARK SMILES IDX 26 12 23 13 28 14 30 15 27 16 29 18 31 20 33 22 35 24 16 26
REMARK SMILES IDX 15 27 14 28 38 29 12 30 39 31 11 32 40 33 9 34 7 35 10 36
REMARK SMILES IDX 8 37 13 38 6 40 41 41 5 42 42 43 4 44 3 45 43 46 2 48 1 49
REMARK SMILES IDX 37 50
REMARK H PARENT 27 17 29 19 31 21 33 23 35 25 13 39 43 47 37 51
REMARK Flexibility Score: inf
ROOT
ATOM      1  C   UNL     1       8.533  -6.643  -9.691  1.00  0.00     0.180 C 
ATOM      2  C   UNL     1       8.860  -5.572  -8.618  1.00  0.00     0.177 C 
ATOM      3  C   UNL     1       8.182  -5.876  -7.268  1.00  0.00     0.180 C 
ATOM      4  C   UNL     1       8.393  -7.343  -6.872  1.00  0.00     0.214 C 
ATOM      5  C   UNL     1       8.037  -8.288  -8.029  1.00  0.00     0.339 C 
ATOM      6  O   UNL     1       8.728  -7.976  -9.233  1.00  0.00    -0.332 OA
ENDROOT
BRANCH   1   7
ATOM      7  C   UNL     1       7.167  -6.436 -10.377  1.00  0.00     0.198 C 
BRANCH   7   8
ATOM      8  O   UNL     1       7.150  -7.145 -11.604  1.00  0.00    -0.347 OA
BRANCH   8   9
ATOM      9  C   UNL     1       5.994  -7.967 -11.735  1.00  0.00     0.281 C 
ATOM     10  C   UNL     1       7.526 -11.248 -10.995  1.00  0.00     0.041 C 
ATOM     11  C   UNL     1       7.295  -9.934 -11.748  1.00  0.00     0.150 C 
ATOM     12  C   UNL     1       7.028 -10.203 -13.254  1.00  0.00     0.174 C 
ATOM     13  O   UNL     1       6.216  -9.240 -11.142  1.00  0.00    -0.344 OA
ATOM     14  C   UNL     1       6.705  -8.882 -13.980  1.00  0.00     0.179 C 
ATOM     15  C   UNL     1       5.612  -8.113 -13.225  1.00  0.00     0.202 C 
BRANCH  12  16
ATOM     16  O   UNL     1       6.007 -11.153 -13.456  1.00  0.00    -0.388 OA
ATOM     17  H   UNL     1       6.385 -12.053 -13.291  1.00  0.00     0.211 HD
ENDBRANCH  12  16
BRANCH  14  18
ATOM     18  O   UNL     1       6.286  -9.129 -15.299  1.00  0.00    -0.387 OA
ATOM     19  H   UNL     1       5.376  -8.741 -15.388  1.00  0.00     0.211 HD
ENDBRANCH  14  18
BRANCH  15  20
ATOM     20  O   UNL     1       5.451  -6.849 -13.809  1.00  0.00    -0.385 OA
ATOM     21  H   UNL     1       6.241  -6.309 -13.547  1.00  0.00     0.211 HD
ENDBRANCH  15  20
ENDBRANCH   8   9
ENDBRANCH   7   8
ENDBRANCH   1   7
BRANCH   2  22
ATOM     22  O   UNL     1      10.255  -5.523  -8.446  1.00  0.00    -0.387 OA
ATOM     23  H   UNL     1      10.574  -6.462  -8.404  1.00  0.00     0.211 HD
ENDBRANCH   2  22
BRANCH   3  24
ATOM     24  O   UNL     1       6.809  -5.593  -7.323  1.00  0.00    -0.387 OA
ATOM     25  H   UNL     1       6.333  -6.425  -7.060  1.00  0.00     0.211 HD
ENDBRANCH   3  24
BRANCH   5  26
ATOM     26  O   UNL     1       6.624  -8.343  -8.231  1.00  0.00    -0.462 OA
BRANCH  26  27
ATOM     27  C   UNL     1       5.755  -9.223  -7.566  1.00  0.00     0.130 A 
ATOM     28  C   UNL     1       4.479  -8.833  -7.122  1.00  0.00     0.093 A 
ATOM     29  C   UNL     1       6.184 -10.531  -7.336  1.00  0.00     0.094 A 
ATOM     30  C   UNL     1       3.618  -9.750  -6.507  1.00  0.00     0.133 A 
ATOM     31  C   UNL     1       5.339 -11.460  -6.725  1.00  0.00     0.138 A 
ATOM     32  C   UNL     1       4.021 -11.105  -6.363  1.00  0.00     0.102 A 
ATOM     33  O   UNL     1       5.811 -12.756  -6.486  1.00  0.00    -0.484 OA
ATOM     34  C   UNL     1       3.113 -12.211  -5.940  1.00  0.00     0.174 C 
ATOM     35  C   UNL     1       5.139 -13.638  -5.587  1.00  0.00     0.211 C 
ATOM     36  O   UNL     1       1.875 -12.027  -5.794  1.00  0.00    -0.294 OA
ATOM     37  C   UNL     1       3.628 -13.621  -5.863  1.00  0.00     0.131 C 
BRANCH  30  38
ATOM     38  O   UNL     1       2.395  -9.260  -6.047  1.00  0.00    -0.507 OA
ATOM     39  H   UNL     1       1.824  -8.587  -6.544  1.00  0.00     0.293 HD
ENDBRANCH  30  38
BRANCH  35  40
ATOM     40  C   UNL     1       5.686 -15.038  -5.718  1.00  0.00    -0.003 A 
ATOM     41  C   UNL     1       4.867 -16.145  -5.440  1.00  0.00     0.057 A 
ATOM     42  C   UNL     1       6.990 -15.252  -6.188  1.00  0.00     0.011 A 
ATOM     43  C   UNL     1       5.352 -17.448  -5.597  1.00  0.00     0.158 A 
ATOM     44  C   UNL     1       7.476 -16.552  -6.355  1.00  0.00     0.051 A 
ATOM     45  C   UNL     1       6.665 -17.662  -6.055  1.00  0.00     0.160 A 
BRANCH  43  46
ATOM     46  O   UNL     1       4.512 -18.517  -5.294  1.00  0.00    -0.504 OA
ATOM     47  H   UNL     1       4.794 -19.257  -4.663  1.00  0.00     0.293 HD
ENDBRANCH  43  46
BRANCH  45  48
ATOM     48  O   UNL     1       7.125 -18.980  -6.200  1.00  0.00    -0.493 OA
ATOM     49  C   UNL     1       6.805 -19.835  -7.293  1.00  0.00     0.278 C 
ENDBRANCH  45  48
ENDBRANCH  35  40
ENDBRANCH  26  27
ENDBRANCH   5  26
BRANCH   4  50
ATOM     50  O   UNL     1       9.730  -7.560  -6.499  1.00  0.00    -0.384 OA
ATOM     51  H   UNL     1      10.254  -6.790  -6.848  1.00  0.00     0.211 HD
ENDBRANCH   4  50
TORSDOF 15
ENDMDL
