MODEL 1
REMARK VINA RESULT:    -3.959      0.000      0.000
REMARK INTER + INTRA:          -4.446
REMARK INTER:                  -4.191
REMARK INTRA:                  -0.256
REMARK UNBOUND:                -0.256
REMARK SMILES O=c1cc(-c2ccccc2)oc2ccccc12
REMARK SMILES IDX 4 1 3 2 2 3 1 4 17 5 16 6 15 7 14 8 13 9 12 10 11 11 5 12
REMARK SMILES IDX 8 13 7 14 9 15 6 16 10 17
REMARK H PARENT
REMARK Flexibility Score: inf
ROOT
ATOM      1  C   UNL     1      -8.894  -4.501   4.608  1.00  0.00     0.138 A 
ATOM      2  C   UNL     1      -7.956  -5.086   5.484  1.00  0.00     0.100 A 
ATOM      3  C   UNL     1      -7.604  -6.427   5.321  1.00  0.00     0.193 A 
ATOM      4  O   UNL     1      -6.765  -6.950   6.104  1.00  0.00    -0.289 OA
ATOM      5  C   UNL     1      -8.190  -7.174   4.290  1.00  0.00     0.065 A 
ATOM      6  C   UNL     1      -7.880  -8.529   4.071  1.00  0.00     0.016 A 
ATOM      7  C   UNL     1      -8.495  -9.227   3.025  1.00  0.00     0.001 A 
ATOM      8  C   UNL     1      -9.417  -8.583   2.196  1.00  0.00     0.004 A 
ATOM      9  C   UNL     1      -9.730  -7.238   2.407  1.00  0.00     0.048 A 
ATOM     10  C   UNL     1      -9.122  -6.528   3.449  1.00  0.00     0.138 A 
ATOM     11  O   UNL     1      -9.426  -5.250   3.640  1.00  0.00    -0.456 OA
ENDROOT
BRANCH   1  12
ATOM     12  C   UNL     1      -9.325  -3.073   4.713  1.00  0.00     0.017 A 
ATOM     13  C   UNL     1     -10.123  -0.382   5.009  1.00  0.00     0.000 A 
ATOM     14  C   UNL     1      -9.731  -1.120   6.125  1.00  0.00     0.001 A 
ATOM     15  C   UNL     1     -10.120  -0.975   3.747  1.00  0.00     0.001 A 
ATOM     16  C   UNL     1      -9.336  -2.453   5.981  1.00  0.00     0.012 A 
ATOM     17  C   UNL     1      -9.726  -2.308   3.594  1.00  0.00     0.012 A 
ENDBRANCH   1  12
TORSDOF 1
ENDMDL
MODEL 2
REMARK VINA RESULT:    -3.873     15.155     16.904
REMARK INTER + INTRA:          -4.355
REMARK INTER:                  -4.112
REMARK INTRA:                  -0.243
REMARK UNBOUND:                -0.256
REMARK SMILES O=c1cc(-c2ccccc2)oc2ccccc12
REMARK SMILES IDX 4 1 3 2 2 3 1 4 17 5 16 6 15 7 14 8 13 9 12 10 11 11 5 12
REMARK SMILES IDX 8 13 7 14 9 15 6 16 10 17
REMARK H PARENT
REMARK Flexibility Score: inf
ROOT
ATOM      1  C   UNL     1      -8.440  -5.823 -12.693  1.00  0.00     0.138 A 
ATOM      2  C   UNL     1      -8.060  -6.787 -13.651  1.00  0.00     0.100 A 
ATOM      3  C   UNL     1      -7.917  -8.121 -13.268  1.00  0.00     0.193 A 
ATOM      4  O   UNL     1      -7.578  -8.982 -14.125  1.00  0.00    -0.289 OA
ATOM      5  C   UNL     1      -8.152  -8.485 -11.935  1.00  0.00     0.065 A 
ATOM      6  C   UNL     1      -8.027  -9.811 -11.483  1.00  0.00     0.016 A 
ATOM      7  C   UNL     1      -8.273 -10.120 -10.140  1.00  0.00     0.001 A 
ATOM      8  C   UNL     1      -8.646  -9.114  -9.245  1.00  0.00     0.004 A 
ATOM      9  C   UNL     1      -8.773  -7.794  -9.687  1.00  0.00     0.048 A 
ATOM     10  C   UNL     1      -8.529  -7.473 -11.027  1.00  0.00     0.138 A 
ATOM     11  O   UNL     1      -8.653  -6.215 -11.436  1.00  0.00    -0.456 OA
ENDROOT
BRANCH   1  12
ATOM     12  C   UNL     1      -8.615  -4.375 -13.020  1.00  0.00     0.017 A 
ATOM     13  C   UNL     1      -8.858  -1.643 -13.686  1.00  0.00     0.000 A 
ATOM     14  C   UNL     1      -7.746  -2.368 -14.111  1.00  0.00     0.001 A 
ATOM     15  C   UNL     1      -9.850  -2.269 -12.932  1.00  0.00     0.001 A 
ATOM     16  C   UNL     1      -7.623  -3.721 -13.782  1.00  0.00     0.012 A 
ATOM     17  C   UNL     1      -9.735  -3.623 -12.599  1.00  0.00     0.012 A 
ENDBRANCH   1  12
TORSDOF 1
ENDMDL
MODEL 3
REMARK VINA RESULT:    -2.576     15.381     16.921
REMARK INTER + INTRA:          -2.982
REMARK INTER:                  -2.743
REMARK INTRA:                  -0.239
REMARK UNBOUND:                -0.256
REMARK SMILES O=c1cc(-c2ccccc2)oc2ccccc12
REMARK SMILES IDX 4 1 3 2 2 3 1 4 17 5 16 6 15 7 14 8 13 9 12 10 11 11 5 12
REMARK SMILES IDX 8 13 7 14 9 15 6 16 10 17
REMARK H PARENT
REMARK Flexibility Score: inf
ROOT
ATOM      1  C   UNL     1      -8.710  -5.150 -12.367  1.00  0.00     0.138 A 
ATOM      2  C   UNL     1      -8.633  -5.535 -11.012  1.00  0.00     0.100 A 
ATOM      3  C   UNL     1      -8.491  -6.885 -10.687  1.00  0.00     0.193 A 
ATOM      4  O   UNL     1      -8.421  -7.229  -9.475  1.00  0.00    -0.289 OA
ATOM      5  C   UNL     1      -8.427  -7.839 -11.711  1.00  0.00     0.065 A 
ATOM      6  C   UNL     1      -8.285  -9.215 -11.452  1.00  0.00     0.016 A 
ATOM      7  C   UNL     1      -8.227 -10.125 -12.514  1.00  0.00     0.001 A 
ATOM      8  C   UNL     1      -8.310  -9.672 -13.833  1.00  0.00     0.004 A 
ATOM      9  C   UNL     1      -8.452  -8.307 -14.099  1.00  0.00     0.048 A 
ATOM     10  C   UNL     1      -8.511  -7.387 -13.046  1.00  0.00     0.138 A 
ATOM     11  O   UNL     1      -8.645  -6.093 -13.310  1.00  0.00    -0.456 OA
ENDROOT
BRANCH   1  12
ATOM     12  C   UNL     1      -8.862  -3.728 -12.802  1.00  0.00     0.017 A 
ATOM     13  C   UNL     1      -9.227  -1.033 -13.561  1.00  0.00     0.000 A 
ATOM     14  C   UNL     1     -10.078  -1.615 -12.623  1.00  0.00     0.001 A 
ATOM     15  C   UNL     1      -8.195  -1.784 -14.124  1.00  0.00     0.001 A 
ATOM     16  C   UNL     1      -9.900  -2.949 -12.245  1.00  0.00     0.012 A 
ATOM     17  C   UNL     1      -8.009  -3.119 -13.752  1.00  0.00     0.012 A 
ENDBRANCH   1  12
TORSDOF 1
ENDMDL
MODEL 4
REMARK VINA RESULT:    -2.206     13.635     16.194
REMARK INTER + INTRA:          -2.590
REMARK INTER:                  -2.340
REMARK INTRA:                  -0.249
REMARK UNBOUND:                -0.256
REMARK SMILES O=c1cc(-c2ccccc2)oc2ccccc12
REMARK SMILES IDX 4 1 3 2 2 3 1 4 17 5 16 6 15 7 14 8 13 9 12 10 11 11 5 12
REMARK SMILES IDX 8 13 7 14 9 15 6 16 10 17
REMARK H PARENT
REMARK Flexibility Score: inf
ROOT
ATOM      1  C   UNL     1      -7.654  -8.528 -10.336  1.00  0.00     0.138 A 
ATOM      2  C   UNL     1      -7.998  -9.545 -11.252  1.00  0.00     0.100 A 
ATOM      3  C   UNL     1      -8.660  -9.212 -12.434  1.00  0.00     0.193 A 
ATOM      4  O   UNL     1      -8.967 -10.121 -13.253  1.00  0.00    -0.289 OA
ATOM      5  C   UNL     1      -8.974  -7.872 -12.696  1.00  0.00     0.065 A 
ATOM      6  C   UNL     1      -9.640  -7.468 -13.868  1.00  0.00     0.016 A 
ATOM      7  C   UNL     1      -9.930  -6.116 -14.079  1.00  0.00     0.001 A 
ATOM      8  C   UNL     1      -9.559  -5.161 -13.128  1.00  0.00     0.004 A 
ATOM      9  C   UNL     1      -8.898  -5.553 -11.961  1.00  0.00     0.048 A 
ATOM     10  C   UNL     1      -8.602  -6.903 -11.739  1.00  0.00     0.138 A 
ATOM     11  O   UNL     1      -7.973  -7.265 -10.627  1.00  0.00    -0.456 OA
ENDROOT
BRANCH   1  12
ATOM     12  C   UNL     1      -6.945  -8.798  -9.048  1.00  0.00     0.017 A 
ATOM     13  C   UNL     1      -5.553  -9.225  -6.630  1.00  0.00     0.000 A 
ATOM     14  C   UNL     1      -5.257  -8.114  -7.418  1.00  0.00     0.001 A 
ATOM     15  C   UNL     1      -6.537 -10.125  -7.038  1.00  0.00     0.001 A 
ATOM     16  C   UNL     1      -5.944  -7.900  -8.616  1.00  0.00     0.012 A 
ATOM     17  C   UNL     1      -7.230  -9.919  -8.235  1.00  0.00     0.012 A 
ENDBRANCH   1  12
TORSDOF 1
ENDMDL
