MODEL 1
REMARK VINA RESULT:    -3.143      0.000      0.000
REMARK INTER + INTRA:          -8.481
REMARK INTER:                  -6.084
REMARK INTRA:                  -2.398
REMARK UNBOUND:                -2.398
REMARK SMILES CCCCCCCCCCCCCCCCCC(=O)[O-]
REMARK SMILES IDX 10 1 11 2 12 3 13 4 14 5 15 6 16 7 17 8 18 9 19 10 20 11
REMARK SMILES IDX 9 12 8 13 7 14 6 15 5 16 4 17 3 18 2 19 1 20
REMARK H PARENT
REMARK Flexibility Score: inf
ROOT
ATOM      1  C   UNL     1      22.753  68.579  17.677  1.00  0.00     0.000 C 
ENDROOT
BRANCH   1   2
ATOM      2  C   UNL     1      22.069  69.791  18.326  1.00  0.00     0.000 C 
BRANCH   2   3
ATOM      3  C   UNL     1      21.264  70.627  17.317  1.00  0.00     0.000 C 
BRANCH   3   4
ATOM      4  C   UNL     1      21.618  70.292  15.858  1.00  0.00     0.000 C 
BRANCH   4   5
ATOM      5  C   UNL     1      21.841  71.549  15.001  1.00  0.00     0.000 C 
BRANCH   5   6
ATOM      6  C   UNL     1      23.086  72.341  15.427  1.00  0.00     0.000 C 
BRANCH   6   7
ATOM      7  C   UNL     1      23.800  72.939  14.209  1.00  0.00     0.006 C 
BRANCH   7   8
ATOM      8  C   UNL     1      23.966  71.893  13.102  1.00  0.00     0.053 C 
BRANCH   8   9
ATOM      9  C   UNL     1      25.293  72.047  12.429  1.00  0.00     0.041 C 
ATOM     10  O   UNL     1      25.361  72.517  11.262  1.00  0.00    -0.550 OA
ATOM     11  O   UNL     1      26.460  71.721  13.108  1.00  0.00    -0.550 OA
ENDBRANCH   8   9
ENDBRANCH   7   8
ENDBRANCH   6   7
ENDBRANCH   5   6
ENDBRANCH   4   5
ENDBRANCH   3   4
ENDBRANCH   2   3
ENDBRANCH   1   2
BRANCH   1  12
ATOM     12  C   UNL     1      22.751  67.374  18.629  1.00  0.00     0.000 C 
BRANCH  12  13
ATOM     13  C   UNL     1      23.119  66.053  17.928  1.00  0.00    -0.000 C 
BRANCH  13  14
ATOM     14  C   UNL     1      23.330  66.158  16.406  1.00  0.00    -0.000 C 
BRANCH  14  15
ATOM     15  C   UNL     1      22.154  65.586  15.596  1.00  0.00    -0.000 C 
BRANCH  15  16
ATOM     16  C   UNL     1      21.250  66.685  15.012  1.00  0.00    -0.000 C 
BRANCH  16  17
ATOM     17  C   UNL     1      19.755  66.372  15.178  1.00  0.00    -0.000 C 
BRANCH  17  18
ATOM     18  C   UNL     1      19.388  66.228  16.664  1.00  0.00    -0.000 C 
BRANCH  18  19
ATOM     19  C   UNL     1      19.124  67.583  17.341  1.00  0.00    -0.003 C 
ATOM     20  C   UNL     1      19.168  67.499  18.867  1.00  0.00     0.004 C 
ENDBRANCH  18  19
ENDBRANCH  17  18
ENDBRANCH  16  17
ENDBRANCH  15  16
ENDBRANCH  14  15
ENDBRANCH  13  14
ENDBRANCH  12  13
ENDBRANCH   1  12
TORSDOF 16
ENDMDL
MODEL 2
REMARK VINA RESULT:    -3.125      1.179      2.465
REMARK INTER + INTRA:          -8.447
REMARK INTER:                  -6.266
REMARK INTRA:                  -2.180
REMARK UNBOUND:                -2.398
REMARK SMILES CCCCCCCCCCCCCCCCCC(=O)[O-]
REMARK SMILES IDX 10 1 11 2 12 3 13 4 14 5 15 6 16 7 17 8 18 9 19 10 20 11
REMARK SMILES IDX 9 12 8 13 7 14 6 15 5 16 4 17 3 18 2 19 1 20
REMARK H PARENT
REMARK Flexibility Score: inf
ROOT
ATOM      1  C   UNL     1      22.218  69.960  18.082  1.00  0.00     0.000 C 
ENDROOT
BRANCH   1   2
ATOM      2  C   UNL     1      21.419  70.683  16.989  1.00  0.00     0.000 C 
BRANCH   2   3
ATOM      3  C   UNL     1      21.702  70.127  15.583  1.00  0.00     0.000 C 
BRANCH   3   4
ATOM      4  C   UNL     1      21.975  71.236  14.553  1.00  0.00     0.000 C 
BRANCH   4   5
ATOM      5  C   UNL     1      22.674  72.457  15.172  1.00  0.00     0.000 C 
BRANCH   5   6
ATOM      6  C   UNL     1      24.065  72.710  14.571  1.00  0.00     0.000 C 
BRANCH   6   7
ATOM      7  C   UNL     1      24.189  72.070  13.183  1.00  0.00     0.006 C 
BRANCH   7   8
ATOM      8  C   UNL     1      25.657  71.851  12.808  1.00  0.00     0.053 C 
BRANCH   8   9
ATOM      9  C   UNL     1      25.766  71.263  11.437  1.00  0.00     0.041 C 
ATOM     10  O   UNL     1      26.879  71.231  10.848  1.00  0.00    -0.550 OA
ATOM     11  O   UNL     1      24.650  70.701  10.829  1.00  0.00    -0.550 OA
ENDBRANCH   8   9
ENDBRANCH   7   8
ENDBRANCH   6   7
ENDBRANCH   5   6
ENDBRANCH   4   5
ENDBRANCH   3   4
ENDBRANCH   2   3
ENDBRANCH   1   2
BRANCH   1  12
ATOM     12  C   UNL     1      22.691  68.582  17.595  1.00  0.00     0.000 C 
BRANCH  12  13
ATOM     13  C   UNL     1      22.614  67.500  18.687  1.00  0.00    -0.000 C 
BRANCH  13  14
ATOM     14  C   UNL     1      21.250  67.377  19.391  1.00  0.00    -0.000 C 
BRANCH  14  15
ATOM     15  C   UNL     1      20.524  66.060  19.067  1.00  0.00    -0.000 C 
BRANCH  15  16
ATOM     16  C   UNL     1      19.130  66.289  18.461  1.00  0.00    -0.000 C 
BRANCH  16  17
ATOM     17  C   UNL     1      18.906  67.744  18.023  1.00  0.00    -0.000 C 
BRANCH  17  18
ATOM     18  C   UNL     1      19.079  67.891  16.503  1.00  0.00    -0.000 C 
BRANCH  18  19
ATOM     19  C   UNL     1      19.404  66.555  15.813  1.00  0.00    -0.003 C 
ATOM     20  C   UNL     1      20.757  66.571  15.102  1.00  0.00     0.004 C 
ENDBRANCH  18  19
ENDBRANCH  17  18
ENDBRANCH  16  17
ENDBRANCH  15  16
ENDBRANCH  14  15
ENDBRANCH  13  14
ENDBRANCH  12  13
ENDBRANCH   1  12
TORSDOF 16
ENDMDL
MODEL 3
REMARK VINA RESULT:    -3.112      1.548      3.026
REMARK INTER + INTRA:          -8.421
REMARK INTER:                  -5.427
REMARK INTRA:                  -2.994
REMARK UNBOUND:                -2.398
REMARK SMILES CCCCCCCCCCCCCCCCCC(=O)[O-]
REMARK SMILES IDX 10 1 11 2 12 3 13 4 14 5 15 6 16 7 17 8 18 9 19 10 20 11
REMARK SMILES IDX 9 12 8 13 7 14 6 15 5 16 4 17 3 18 2 19 1 20
REMARK H PARENT
REMARK Flexibility Score: inf
ROOT
ATOM      1  C   UNL     1      22.530  68.961  18.376  1.00  0.00     0.000 C 
ENDROOT
BRANCH   1   2
ATOM      2  C   UNL     1      21.607  69.892  17.577  1.00  0.00     0.000 C 
BRANCH   2   3
ATOM      3  C   UNL     1      21.888  69.850  16.066  1.00  0.00     0.000 C 
BRANCH   3   4
ATOM      4  C   UNL     1      20.721  70.406  15.232  1.00  0.00     0.000 C 
BRANCH   4   5
ATOM      5  C   UNL     1      19.895  71.453  15.996  1.00  0.00     0.000 C 
BRANCH   5   6
ATOM      6  C   UNL     1      20.326  72.893  15.678  1.00  0.00     0.000 C 
BRANCH   6   7
ATOM      7  C   UNL     1      21.150  72.947  14.386  1.00  0.00     0.006 C 
BRANCH   7   8
ATOM      8  C   UNL     1      22.404  73.807  14.569  1.00  0.00     0.053 C 
BRANCH   8   9
ATOM      9  C   UNL     1      23.599  72.944  14.824  1.00  0.00     0.041 C 
ATOM     10  O   UNL     1      23.986  72.729  16.004  1.00  0.00    -0.550 OA
ATOM     11  O   UNL     1      24.257  72.335  13.762  1.00  0.00    -0.550 OA
ENDBRANCH   8   9
ENDBRANCH   7   8
ENDBRANCH   6   7
ENDBRANCH   5   6
ENDBRANCH   4   5
ENDBRANCH   3   4
ENDBRANCH   2   3
ENDBRANCH   1   2
BRANCH   1  12
ATOM     12  C   UNL     1      21.718  67.888  19.116  1.00  0.00     0.000 C 
BRANCH  12  13
ATOM     13  C   UNL     1      20.222  67.910  18.754  1.00  0.00    -0.000 C 
BRANCH  13  14
ATOM     14  C   UNL     1      19.735  66.714  17.914  1.00  0.00    -0.000 C 
BRANCH  14  15
ATOM     15  C   UNL     1      19.323  67.112  16.487  1.00  0.00    -0.000 C 
BRANCH  15  16
ATOM     16  C   UNL     1      20.227  66.482  15.414  1.00  0.00    -0.000 C 
BRANCH  16  17
ATOM     17  C   UNL     1      21.404  65.700  16.018  1.00  0.00    -0.000 C 
BRANCH  17  18
ATOM     18  C   UNL     1      22.742  66.378  15.684  1.00  0.00    -0.000 C 
BRANCH  18  19
ATOM     19  C   UNL     1      23.897  65.871  16.562  1.00  0.00    -0.003 C 
ATOM     20  C   UNL     1      23.423  64.958  17.692  1.00  0.00     0.004 C 
ENDBRANCH  18  19
ENDBRANCH  17  18
ENDBRANCH  16  17
ENDBRANCH  15  16
ENDBRANCH  14  15
ENDBRANCH  13  14
ENDBRANCH  12  13
ENDBRANCH   1  12
TORSDOF 16
ENDMDL
MODEL 4
REMARK VINA RESULT:    -3.054      1.828      3.348
REMARK INTER + INTRA:          -8.307
REMARK INTER:                  -5.394
REMARK INTRA:                  -2.913
REMARK UNBOUND:                -2.398
REMARK SMILES CCCCCCCCCCCCCCCCCC(=O)[O-]
REMARK SMILES IDX 10 1 11 2 12 3 13 4 14 5 15 6 16 7 17 8 18 9 19 10 20 11
REMARK SMILES IDX 9 12 8 13 7 14 6 15 5 16 4 17 3 18 2 19 1 20
REMARK H PARENT
REMARK Flexibility Score: inf
ROOT
ATOM      1  C   UNL     1      20.281  67.714  15.484  1.00  0.00     0.000 C 
ENDROOT
BRANCH   1   2
ATOM      2  C   UNL     1      18.881  68.328  15.624  1.00  0.00     0.000 C 
BRANCH   2   3
ATOM      3  C   UNL     1      18.773  69.289  16.819  1.00  0.00     0.000 C 
BRANCH   3   4
ATOM      4  C   UNL     1      18.611  70.756  16.385  1.00  0.00     0.000 C 
BRANCH   4   5
ATOM      5  C   UNL     1      19.753  71.651  16.891  1.00  0.00     0.000 C 
BRANCH   5   6
ATOM      6  C   UNL     1      21.025  70.856  17.223  1.00  0.00     0.000 C 
BRANCH   6   7
ATOM      7  C   UNL     1      22.030  70.920  16.067  1.00  0.00     0.006 C 
BRANCH   7   8
ATOM      8  C   UNL     1      21.812  72.176  15.219  1.00  0.00     0.053 C 
BRANCH   8   9
ATOM      9  C   UNL     1      23.075  72.972  15.126  1.00  0.00     0.041 C 
ATOM     10  O   UNL     1      24.028  72.743  15.918  1.00  0.00    -0.550 OA
ATOM     11  O   UNL     1      23.221  73.932  14.132  1.00  0.00    -0.550 OA
ENDBRANCH   8   9
ENDBRANCH   7   8
ENDBRANCH   6   7
ENDBRANCH   5   6
ENDBRANCH   4   5
ENDBRANCH   3   4
ENDBRANCH   2   3
ENDBRANCH   1   2
BRANCH   1  12
ATOM     12  C   UNL     1      20.205  66.181  15.435  1.00  0.00     0.000 C 
BRANCH  12  13
ATOM     13  C   UNL     1      21.560  65.502  15.706  1.00  0.00    -0.000 C 
BRANCH  13  14
ATOM     14  C   UNL     1      22.786  66.429  15.608  1.00  0.00    -0.000 C 
BRANCH  14  15
ATOM     15  C   UNL     1      23.725  66.312  16.821  1.00  0.00    -0.000 C 
BRANCH  15  16
ATOM     16  C   UNL     1      22.965  66.297  18.157  1.00  0.00    -0.000 C 
BRANCH  16  17
ATOM     17  C   UNL     1      22.510  67.698  18.594  1.00  0.00    -0.000 C 
BRANCH  17  18
ATOM     18  C   UNL     1      21.075  67.662  19.142  1.00  0.00    -0.000 C 
BRANCH  18  19
ATOM     19  C   UNL     1      20.468  66.250  19.117  1.00  0.00    -0.003 C 
ATOM     20  C   UNL     1      18.946  66.263  18.976  1.00  0.00     0.004 C 
ENDBRANCH  18  19
ENDBRANCH  17  18
ENDBRANCH  16  17
ENDBRANCH  15  16
ENDBRANCH  14  15
ENDBRANCH  13  14
ENDBRANCH  12  13
ENDBRANCH   1  12
TORSDOF 16
ENDMDL
MODEL 5
REMARK VINA RESULT:    -3.007      1.940      3.556
REMARK INTER + INTRA:          -8.217
REMARK INTER:                  -5.550
REMARK INTRA:                  -2.667
REMARK UNBOUND:                -2.398
REMARK SMILES CCCCCCCCCCCCCCCCCC(=O)[O-]
REMARK SMILES IDX 10 1 11 2 12 3 13 4 14 5 15 6 16 7 17 8 18 9 19 10 20 11
REMARK SMILES IDX 9 12 8 13 7 14 6 15 5 16 4 17 3 18 2 19 1 20
REMARK H PARENT
REMARK Flexibility Score: inf
ROOT
ATOM      1  C   UNL     1      18.294  67.851  18.538  1.00  0.00     0.000 C 
ENDROOT
BRANCH   1   2
ATOM      2  C   UNL     1      18.643  68.121  17.067  1.00  0.00     0.000 C 
BRANCH   2   3
ATOM      3  C   UNL     1      18.013  69.420  16.539  1.00  0.00     0.000 C 
BRANCH   3   4
ATOM      4  C   UNL     1      19.012  70.282  15.748  1.00  0.00     0.000 C 
BRANCH   4   5
ATOM      5  C   UNL     1      19.448  71.538  16.520  1.00  0.00     0.000 C 
BRANCH   5   6
ATOM      6  C   UNL     1      20.475  72.380  15.747  1.00  0.00     0.000 C 
BRANCH   6   7
ATOM      7  C   UNL     1      20.938  71.653  14.479  1.00  0.00     0.006 C 
BRANCH   7   8
ATOM      8  C   UNL     1      22.427  71.306  14.557  1.00  0.00     0.053 C 
BRANCH   8   9
ATOM      9  C   UNL     1      23.251  72.551  14.666  1.00  0.00     0.041 C 
ATOM     10  O   UNL     1      23.216  73.416  13.751  1.00  0.00    -0.550 OA
ATOM     11  O   UNL     1      24.018  72.781  15.802  1.00  0.00    -0.550 OA
ENDBRANCH   8   9
ENDBRANCH   7   8
ENDBRANCH   6   7
ENDBRANCH   5   6
ENDBRANCH   4   5
ENDBRANCH   3   4
ENDBRANCH   2   3
ENDBRANCH   1   2
BRANCH   1  12
ATOM     12  C   UNL     1      18.678  66.419  18.938  1.00  0.00     0.000 C 
BRANCH  12  13
ATOM     13  C   UNL     1      19.096  65.551  17.737  1.00  0.00    -0.000 C 
BRANCH  13  14
ATOM     14  C   UNL     1      20.504  64.934  17.835  1.00  0.00    -0.000 C 
BRANCH  14  15
ATOM     15  C   UNL     1      21.274  65.391  19.086  1.00  0.00    -0.000 C 
BRANCH  15  16
ATOM     16  C   UNL     1      22.074  66.682  18.846  1.00  0.00    -0.000 C 
BRANCH  16  17
ATOM     17  C   UNL     1      22.442  66.885  17.368  1.00  0.00    -0.000 C 
BRANCH  17  18
ATOM     18  C   UNL     1      22.187  68.336  16.934  1.00  0.00    -0.000 C 
BRANCH  18  19
ATOM     19  C   UNL     1      21.815  69.249  18.114  1.00  0.00    -0.003 C 
ATOM     20  C   UNL     1      22.744  70.456  18.243  1.00  0.00     0.004 C 
ENDBRANCH  18  19
ENDBRANCH  17  18
ENDBRANCH  16  17
ENDBRANCH  15  16
ENDBRANCH  14  15
ENDBRANCH  13  14
ENDBRANCH  12  13
ENDBRANCH   1  12
TORSDOF 16
ENDMDL
MODEL 6
REMARK VINA RESULT:    -3.005      2.606      6.243
REMARK INTER + INTRA:          -8.213
REMARK INTER:                  -5.856
REMARK INTRA:                  -2.357
REMARK UNBOUND:                -2.398
REMARK SMILES CCCCCCCCCCCCCCCCCC(=O)[O-]
REMARK SMILES IDX 10 1 11 2 12 3 13 4 14 5 15 6 16 7 17 8 18 9 19 10 20 11
REMARK SMILES IDX 9 12 8 13 7 14 6 15 5 16 4 17 3 18 2 19 1 20
REMARK H PARENT
REMARK Flexibility Score: inf
ROOT
ATOM      1  C   UNL     1      22.792  67.710  17.694  1.00  0.00     0.000 C 
ENDROOT
BRANCH   1   2
ATOM      2  C   UNL     1      22.544  66.285  18.208  1.00  0.00     0.000 C 
BRANCH   2   3
ATOM      3  C   UNL     1      21.308  66.190  19.117  1.00  0.00     0.000 C 
BRANCH   3   4
ATOM      4  C   UNL     1      20.325  65.095  18.667  1.00  0.00     0.000 C 
BRANCH   4   5
ATOM      5  C   UNL     1      19.094  65.667  17.946  1.00  0.00     0.000 C 
BRANCH   5   6
ATOM      6  C   UNL     1      19.046  67.202  17.985  1.00  0.00     0.000 C 
BRANCH   6   7
ATOM      7  C   UNL     1      19.115  67.789  16.570  1.00  0.00     0.006 C 
BRANCH   7   8
ATOM      8  C   UNL     1      19.439  66.703  15.540  1.00  0.00     0.053 C 
BRANCH   8   9
ATOM      9  C   UNL     1      20.666  67.064  14.765  1.00  0.00     0.041 C 
ATOM     10  O   UNL     1      20.778  68.209  14.251  1.00  0.00    -0.550 OA
ATOM     11  O   UNL     1      21.711  66.155  14.652  1.00  0.00    -0.550 OA
ENDBRANCH   8   9
ENDBRANCH   7   8
ENDBRANCH   6   7
ENDBRANCH   5   6
ENDBRANCH   4   5
ENDBRANCH   3   4
ENDBRANCH   2   3
ENDBRANCH   1   2
BRANCH   1  12
ATOM     12  C   UNL     1      22.352  68.752  18.734  1.00  0.00     0.000 C 
BRANCH  12  13
ATOM     13  C   UNL     1      22.437  70.197  18.209  1.00  0.00    -0.000 C 
BRANCH  13  14
ATOM     14  C   UNL     1      21.902  70.407  16.781  1.00  0.00    -0.000 C 
BRANCH  14  15
ATOM     15  C   UNL     1      20.536  71.113  16.750  1.00  0.00    -0.000 C 
BRANCH  15  16
ATOM     16  C   UNL     1      20.239  71.765  15.390  1.00  0.00    -0.000 C 
BRANCH  16  17
ATOM     17  C   UNL     1      20.624  73.252  15.350  1.00  0.00    -0.000 C 
BRANCH  17  18
ATOM     18  C   UNL     1      21.570  73.543  14.175  1.00  0.00    -0.000 C 
BRANCH  18  19
ATOM     19  C   UNL     1      22.935  74.080  14.634  1.00  0.00    -0.003 C 
ATOM     20  C   UNL     1      23.821  72.995  15.248  1.00  0.00     0.004 C 
ENDBRANCH  18  19
ENDBRANCH  17  18
ENDBRANCH  16  17
ENDBRANCH  15  16
ENDBRANCH  14  15
ENDBRANCH  13  14
ENDBRANCH  12  13
ENDBRANCH   1  12
TORSDOF 16
ENDMDL
MODEL 7
REMARK VINA RESULT:    -3.001      1.437      2.195
REMARK INTER + INTRA:          -8.205
REMARK INTER:                  -6.202
REMARK INTRA:                  -2.003
REMARK UNBOUND:                -2.398
REMARK SMILES CCCCCCCCCCCCCCCCCC(=O)[O-]
REMARK SMILES IDX 10 1 11 2 12 3 13 4 14 5 15 6 16 7 17 8 18 9 19 10 20 11
REMARK SMILES IDX 9 12 8 13 7 14 6 15 5 16 4 17 3 18 2 19 1 20
REMARK H PARENT
REMARK Flexibility Score: inf
ROOT
ATOM      1  C   UNL     1      22.372  70.389  17.641  1.00  0.00     0.000 C 
ENDROOT
BRANCH   1   2
ATOM      2  C   UNL     1      21.391  70.412  16.459  1.00  0.00     0.000 C 
BRANCH   2   3
ATOM      3  C   UNL     1      20.068  71.115  16.802  1.00  0.00     0.000 C 
BRANCH   3   4
ATOM      4  C   UNL     1      19.842  72.388  15.969  1.00  0.00     0.000 C 
BRANCH   4   5
ATOM      5  C   UNL     1      20.924  72.591  14.896  1.00  0.00     0.000 C 
BRANCH   5   6
ATOM      6  C   UNL     1      21.560  73.989  14.954  1.00  0.00     0.000 C 
BRANCH   6   7
ATOM      7  C   UNL     1      22.968  73.977  14.348  1.00  0.00     0.006 C 
BRANCH   7   8
ATOM      8  C   UNL     1      23.661  72.634  14.596  1.00  0.00     0.053 C 
BRANCH   8   9
ATOM      9  C   UNL     1      24.164  72.058  13.310  1.00  0.00     0.041 C 
ATOM     10  O   UNL     1      25.402  71.994  13.085  1.00  0.00    -0.550 OA
ATOM     11  O   UNL     1      23.268  71.543  12.381  1.00  0.00    -0.550 OA
ENDBRANCH   8   9
ENDBRANCH   7   8
ENDBRANCH   6   7
ENDBRANCH   5   6
ENDBRANCH   4   5
ENDBRANCH   3   4
ENDBRANCH   2   3
ENDBRANCH   1   2
BRANCH   1  12
ATOM     12  C   UNL     1      22.317  69.039  18.372  1.00  0.00     0.000 C 
BRANCH  12  13
ATOM     13  C   UNL     1      22.789  67.863  17.498  1.00  0.00    -0.000 C 
BRANCH  13  14
ATOM     14  C   UNL     1      23.132  66.573  18.267  1.00  0.00    -0.000 C 
BRANCH  14  15
ATOM     15  C   UNL     1      22.139  65.430  17.994  1.00  0.00    -0.000 C 
BRANCH  15  16
ATOM     16  C   UNL     1      21.178  65.191  19.171  1.00  0.00    -0.000 C 
BRANCH  16  17
ATOM     17  C   UNL     1      19.703  65.337  18.770  1.00  0.00    -0.000 C 
BRANCH  17  18
ATOM     18  C   UNL     1      19.571  66.073  17.427  1.00  0.00    -0.000 C 
BRANCH  18  19
ATOM     19  C   UNL     1      18.999  67.491  17.584  1.00  0.00    -0.003 C 
ATOM     20  C   UNL     1      18.477  67.765  18.995  1.00  0.00     0.004 C 
ENDBRANCH  18  19
ENDBRANCH  17  18
ENDBRANCH  16  17
ENDBRANCH  15  16
ENDBRANCH  14  15
ENDBRANCH  13  14
ENDBRANCH  12  13
ENDBRANCH   1  12
TORSDOF 16
ENDMDL
MODEL 8
REMARK VINA RESULT:    -2.963      1.131      3.336
REMARK INTER + INTRA:          -8.132
REMARK INTER:                  -5.475
REMARK INTRA:                  -2.657
REMARK UNBOUND:                -2.398
REMARK SMILES CCCCCCCCCCCCCCCCCC(=O)[O-]
REMARK SMILES IDX 10 1 11 2 12 3 13 4 14 5 15 6 16 7 17 8 18 9 19 10 20 11
REMARK SMILES IDX 9 12 8 13 7 14 6 15 5 16 4 17 3 18 2 19 1 20
REMARK H PARENT
REMARK Flexibility Score: inf
ROOT
ATOM      1  C   UNL     1      20.192  67.781  15.036  1.00  0.00     0.000 C 
ENDROOT
BRANCH   1   2
ATOM      2  C   UNL     1      20.737  69.215  15.100  1.00  0.00     0.000 C 
BRANCH   2   3
ATOM      3  C   UNL     1      19.820  70.163  15.890  1.00  0.00     0.000 C 
BRANCH   3   4
ATOM      4  C   UNL     1      20.385  71.590  15.984  1.00  0.00     0.000 C 
BRANCH   4   5
ATOM      5  C   UNL     1      21.589  71.811  15.055  1.00  0.00     0.000 C 
BRANCH   5   6
ATOM      6  C   UNL     1      22.904  72.004  15.826  1.00  0.00     0.000 C 
BRANCH   6   7
ATOM      7  C   UNL     1      23.916  72.801  14.995  1.00  0.00     0.006 C 
BRANCH   7   8
ATOM      8  C   UNL     1      23.565  72.750  13.506  1.00  0.00     0.053 C 
BRANCH   8   9
ATOM      9  C   UNL     1      24.592  71.965  12.751  1.00  0.00     0.041 C 
ATOM     10  O   UNL     1      25.786  71.933  13.151  1.00  0.00    -0.550 OA
ATOM     11  O   UNL     1      24.220  71.226  11.635  1.00  0.00    -0.550 OA
ENDBRANCH   8   9
ENDBRANCH   7   8
ENDBRANCH   6   7
ENDBRANCH   5   6
ENDBRANCH   4   5
ENDBRANCH   3   4
ENDBRANCH   2   3
ENDBRANCH   1   2
BRANCH   1  12
ATOM     12  C   UNL     1      19.076  67.573  16.070  1.00  0.00     0.000 C 
BRANCH  12  13
ATOM     13  C   UNL     1      19.474  66.602  17.197  1.00  0.00    -0.000 C 
BRANCH  13  14
ATOM     14  C   UNL     1      19.475  67.209  18.613  1.00  0.00    -0.000 C 
BRANCH  14  15
ATOM     15  C   UNL     1      20.890  67.372  19.193  1.00  0.00    -0.000 C 
BRANCH  15  16
ATOM     16  C   UNL     1      21.570  68.673  18.734  1.00  0.00    -0.000 C 
BRANCH  16  17
ATOM     17  C   UNL     1      22.855  68.417  17.931  1.00  0.00    -0.000 C 
BRANCH  17  18
ATOM     18  C   UNL     1      23.119  66.910  17.786  1.00  0.00    -0.000 C 
BRANCH  18  19
ATOM     19  C   UNL     1      23.337  66.486  16.324  1.00  0.00    -0.003 C 
ATOM     20  C   UNL     1      22.722  65.124  16.006  1.00  0.00     0.004 C 
ENDBRANCH  18  19
ENDBRANCH  17  18
ENDBRANCH  16  17
ENDBRANCH  15  16
ENDBRANCH  14  15
ENDBRANCH  13  14
ENDBRANCH  12  13
ENDBRANCH   1  12
TORSDOF 16
ENDMDL
MODEL 9
REMARK VINA RESULT:    -2.950      1.213      3.144
REMARK INTER + INTRA:          -8.107
REMARK INTER:                  -5.408
REMARK INTRA:                  -2.699
REMARK UNBOUND:                -2.398
REMARK SMILES CCCCCCCCCCCCCCCCCC(=O)[O-]
REMARK SMILES IDX 10 1 11 2 12 3 13 4 14 5 15 6 16 7 17 8 18 9 19 10 20 11
REMARK SMILES IDX 9 12 8 13 7 14 6 15 5 16 4 17 3 18 2 19 1 20
REMARK H PARENT
REMARK Flexibility Score: inf
ROOT
ATOM      1  C   UNL     1      18.891  67.912  16.930  1.00  0.00     0.000 C 
ENDROOT
BRANCH   1   2
ATOM      2  C   UNL     1      19.618  69.201  16.520  1.00  0.00     0.000 C 
BRANCH   2   3
ATOM      3  C   UNL     1      20.262  69.100  15.127  1.00  0.00     0.000 C 
BRANCH   3   4
ATOM      4  C   UNL     1      21.630  69.800  15.057  1.00  0.00     0.000 C 
BRANCH   4   5
ATOM      5  C   UNL     1      21.772  70.925  16.095  1.00  0.00     0.000 C 
BRANCH   5   6
ATOM      6  C   UNL     1      21.865  72.316  15.450  1.00  0.00     0.000 C 
BRANCH   6   7
ATOM      7  C   UNL     1      23.324  72.697  15.174  1.00  0.00     0.006 C 
BRANCH   7   8
ATOM      8  C   UNL     1      23.502  73.175  13.730  1.00  0.00     0.053 C 
BRANCH   8   9
ATOM      9  C   UNL     1      24.083  72.086  12.885  1.00  0.00     0.041 C 
ATOM     10  O   UNL     1      25.302  71.785  12.988  1.00  0.00    -0.550 OA
ATOM     11  O   UNL     1      23.269  71.368  12.018  1.00  0.00    -0.550 OA
ENDBRANCH   8   9
ENDBRANCH   7   8
ENDBRANCH   6   7
ENDBRANCH   5   6
ENDBRANCH   4   5
ENDBRANCH   3   4
ENDBRANCH   2   3
ENDBRANCH   1   2
BRANCH   1  12
ATOM     12  C   UNL     1      19.082  67.627  18.427  1.00  0.00     0.000 C 
BRANCH  12  13
ATOM     13  C   UNL     1      19.692  66.240  18.701  1.00  0.00    -0.000 C 
BRANCH  13  14
ATOM     14  C   UNL     1      21.153  66.254  19.188  1.00  0.00    -0.000 C 
BRANCH  14  15
ATOM     15  C   UNL     1      21.751  67.670  19.254  1.00  0.00    -0.000 C 
BRANCH  15  16
ATOM     16  C   UNL     1      22.713  67.959  18.090  1.00  0.00    -0.000 C 
BRANCH  16  17
ATOM     17  C   UNL     1      23.345  66.683  17.514  1.00  0.00    -0.000 C 
BRANCH  17  18
ATOM     18  C   UNL     1      22.973  66.507  16.034  1.00  0.00    -0.000 C 
BRANCH  18  19
ATOM     19  C   UNL     1      22.218  65.195  15.765  1.00  0.00    -0.003 C 
ATOM     20  C   UNL     1      20.831  65.424  15.165  1.00  0.00     0.004 C 
ENDBRANCH  18  19
ENDBRANCH  17  18
ENDBRANCH  16  17
ENDBRANCH  15  16
ENDBRANCH  14  15
ENDBRANCH  13  14
ENDBRANCH  12  13
ENDBRANCH   1  12
TORSDOF 16
ENDMDL
