MODEL 1
REMARK VINA RESULT:    -7.482      0.000      0.000
REMARK INTER + INTRA:          -8.405
REMARK INTER:                  -8.357
REMARK INTRA:                  -0.048
REMARK UNBOUND:                -0.048
REMARK SMILES C=C(C)[C@@H]1CC[C@@]2(C(=O)[O-])CC[C@]3(C)[C@@H](CC[C@H]4[C@]5(C)CCC(=O)C(C)(C)[C@H]5CC[C@]43C)[C@@H]12
REMARK SMILES IDX 7 1 6 2 33 3 11 4 5 5 15 6 4 7 12 8 16 9 13 10 17 11 31 12
REMARK SMILES IDX 14 13 18 14 30 15 32 16 19 17 29 18 21 19 20 20 28 21 22 22
REMARK SMILES IDX 25 23 23 24 26 25 27 26 24 27 8 28 9 29 10 30 2 31 3 32 1 33
REMARK H PARENT
REMARK Flexibility Score: inf
ROOT
ATOM      1  C   UNL     1      98.588  85.421  81.740  1.00  0.00     0.014 C 
ATOM      2  C   UNL     1      99.678  86.473  82.038  1.00  0.00     0.014 C 
ATOM      3  C   UNL     1      97.871  86.018  80.529  1.00  0.00     0.012 C 
ATOM      4  C   UNL     1      97.599  85.354  82.923  1.00  0.00     0.014 C 
ATOM      5  C   UNL     1      99.045  87.827  81.762  1.00  0.00     0.009 C 
ATOM      6  C   UNL     1      96.485  85.349  80.169  1.00  0.00     0.000 C 
ATOM      7  C   UNL     1      97.911  87.564  80.761  1.00  0.00     0.018 C 
ATOM      8  C   UNL     1      96.389  84.459  82.683  1.00  0.00     0.008 C 
ATOM      9  C   UNL     1      95.677  86.243  79.199  1.00  0.00     0.005 C 
ATOM     10  C   UNL     1      95.600  84.615  81.303  1.00  0.00    -0.024 C 
ATOM     11  C   UNL     1      94.334  85.618  78.864  1.00  0.00     0.005 C 
ATOM     12  C   UNL     1      94.133  85.308  81.506  1.00  0.00    -0.024 C 
ATOM     13  C   UNL     1      95.373  83.136  80.815  1.00  0.00     0.012 C 
ATOM     14  C   UNL     1      93.378  85.580  80.094  1.00  0.00     0.002 C 
ATOM     15  C   UNL     1      93.245  84.507  82.563  1.00  0.00     0.008 C 
ATOM     16  C   UNL     1      94.327  86.704  82.198  1.00  0.00     0.012 C 
ATOM     17  C   UNL     1      92.003  84.825  79.763  1.00  0.00    -0.025 C 
ATOM     18  C   UNL     1      91.998  83.786  82.063  1.00  0.00     0.006 C 
ATOM     19  C   UNL     1      91.167  85.724  78.789  1.00  0.00     0.015 C 
ATOM     20  C   UNL     1      92.244  83.454  79.052  1.00  0.00     0.012 C 
ATOM     21  C   UNL     1      91.186  84.658  81.081  1.00  0.00     0.008 C 
ATOM     22  C   UNL     1      89.791  85.140  78.452  1.00  0.00     0.077 C 
ATOM     23  C   UNL     1      89.655  84.224  80.936  1.00  0.00     0.027 C 
ATOM     24  C   UNL     1      89.012  84.875  79.711  1.00  0.00     0.138 C 
ATOM     25  C   UNL     1      88.886  84.730  82.194  1.00  0.00     0.020 C 
ATOM     26  C   UNL     1      89.438  82.680  80.809  1.00  0.00     0.020 C 
ATOM     27  O   UNL     1      87.800  85.069  79.692  1.00  0.00    -0.299 OA
ENDROOT
BRANCH   1  28
ATOM     28  C   UNL     1      99.243  84.083  81.440  1.00  0.00     0.048 C 
ATOM     29  O   UNL     1      98.889  83.394  80.441  1.00  0.00    -0.550 OA
ATOM     30  O   UNL     1     100.158  83.527  82.329  1.00  0.00    -0.550 OA
ENDBRANCH   1  28
BRANCH   7  31
ATOM     31  C   UNL     1      98.110  88.400  79.493  1.00  0.00    -0.077 C 
ATOM     32  C   UNL     1      99.497  88.660  78.964  1.00  0.00     0.039 C 
ATOM     33  C   UNL     1      97.069  88.897  78.813  1.00  0.00     0.008 C 
ENDBRANCH   7  31
TORSDOF 2
ENDMDL
MODEL 2
REMARK VINA RESULT:    -7.428      1.854      3.066
REMARK INTER + INTRA:          -8.345
REMARK INTER:                  -7.774
REMARK INTRA:                  -0.571
REMARK UNBOUND:                -0.048
REMARK SMILES C=C(C)[C@@H]1CC[C@@]2(C(=O)[O-])CC[C@]3(C)[C@@H](CC[C@H]4[C@]5(C)CCC(=O)C(C)(C)[C@H]5CC[C@]43C)[C@@H]12
REMARK SMILES IDX 7 1 6 2 33 3 11 4 5 5 15 6 4 7 12 8 16 9 13 10 17 11 31 12
REMARK SMILES IDX 14 13 18 14 30 15 32 16 19 17 29 18 21 19 20 20 28 21 22 22
REMARK SMILES IDX 25 23 23 24 26 25 27 26 24 27 8 28 9 29 10 30 2 31 3 32 1 33
REMARK H PARENT
REMARK Flexibility Score: inf
ROOT
ATOM      1  C   UNL     1     100.309  86.231  84.271  1.00  0.00     0.014 C 
ATOM      2  C   UNL     1     101.364  87.325  84.543  1.00  0.00     0.014 C 
ATOM      3  C   UNL     1     100.079  86.357  82.765  1.00  0.00     0.012 C 
ATOM      4  C   UNL     1      98.999  86.583  85.008  1.00  0.00     0.014 C 
ATOM      5  C   UNL     1     101.007  88.490  83.635  1.00  0.00     0.009 C 
ATOM      6  C   UNL     1      98.808  85.598  82.212  1.00  0.00     0.000 C 
ATOM      7  C   UNL     1     100.220  87.885  82.465  1.00  0.00     0.018 C 
ATOM      8  C   UNL     1      97.831  85.656  84.694  1.00  0.00     0.008 C 
ATOM      9  C   UNL     1      98.451  86.087  80.788  1.00  0.00     0.005 C 
ATOM     10  C   UNL     1      97.535  85.310  83.163  1.00  0.00    -0.024 C 
ATOM     11  C   UNL     1      97.217  85.378  80.256  1.00  0.00     0.005 C 
ATOM     12  C   UNL     1      96.168  86.023  82.622  1.00  0.00    -0.024 C 
ATOM     13  C   UNL     1      97.305  83.753  83.154  1.00  0.00     0.012 C 
ATOM     14  C   UNL     1      95.927  85.774  81.035  1.00  0.00     0.002 C 
ATOM     15  C   UNL     1      94.908  85.645  83.528  1.00  0.00     0.008 C 
ATOM     16  C   UNL     1      96.294  87.574  82.829  1.00  0.00     0.012 C 
ATOM     17  C   UNL     1      94.647  84.945  80.540  1.00  0.00    -0.025 C 
ATOM     18  C   UNL     1      93.806  84.788  82.914  1.00  0.00     0.006 C 
ATOM     19  C   UNL     1      94.265  85.437  79.102  1.00  0.00     0.015 C 
ATOM     20  C   UNL     1      94.940  83.412  80.454  1.00  0.00     0.012 C 
ATOM     21  C   UNL     1      93.447  85.253  81.486  1.00  0.00     0.008 C 
ATOM     22  C   UNL     1      93.006  84.766  78.543  1.00  0.00     0.077 C 
ATOM     23  C   UNL     1      91.998  84.788  80.995  1.00  0.00     0.027 C 
ATOM     24  C   UNL     1      91.848  84.961  79.483  1.00  0.00     0.138 C 
ATOM     25  C   UNL     1      90.938  85.704  81.679  1.00  0.00     0.020 C 
ATOM     26  C   UNL     1      91.657  83.298  81.329  1.00  0.00     0.020 C 
ATOM     27  O   UNL     1      90.733  85.131  78.999  1.00  0.00    -0.299 OA
ENDROOT
BRANCH   1  28
ATOM     28  C   UNL     1     100.868  84.876  84.673  1.00  0.00     0.048 C 
ATOM     29  O   UNL     1     100.985  84.554  85.889  1.00  0.00    -0.550 OA
ATOM     30  O   UNL     1     101.381  84.010  83.712  1.00  0.00    -0.550 OA
ENDBRANCH   1  28
BRANCH   7  31
ATOM     31  C   UNL     1     100.899  88.219  81.132  1.00  0.00    -0.077 C 
ATOM     32  C   UNL     1     100.145  88.968  80.062  1.00  0.00     0.039 C 
ATOM     33  C   UNL     1     102.172  87.881  80.891  1.00  0.00     0.008 C 
ENDBRANCH   7  31
TORSDOF 2
ENDMDL
MODEL 3
REMARK VINA RESULT:    -7.110      2.566      9.216
REMARK INTER + INTRA:          -7.990
REMARK INTER:                  -7.317
REMARK INTRA:                  -0.673
REMARK UNBOUND:                -0.048
REMARK SMILES C=C(C)[C@@H]1CC[C@@]2(C(=O)[O-])CC[C@]3(C)[C@@H](CC[C@H]4[C@]5(C)CCC(=O)C(C)(C)[C@H]5CC[C@]43C)[C@@H]12
REMARK SMILES IDX 7 1 6 2 33 3 11 4 5 5 15 6 4 7 12 8 16 9 13 10 17 11 31 12
REMARK SMILES IDX 14 13 18 14 30 15 32 16 19 17 29 18 21 19 20 20 28 21 22 22
REMARK SMILES IDX 25 23 23 24 26 25 27 26 24 27 8 28 9 29 10 30 2 31 3 32 1 33
REMARK H PARENT
REMARK Flexibility Score: inf
ROOT
ATOM      1  C   UNL     1      86.269  83.163  80.055  1.00  0.00     0.014 C 
ATOM      2  C   UNL     1      84.909  83.660  79.519  1.00  0.00     0.014 C 
ATOM      3  C   UNL     1      86.701  84.303  80.979  1.00  0.00     0.012 C 
ATOM      4  C   UNL     1      87.275  83.057  78.889  1.00  0.00     0.014 C 
ATOM      5  C   UNL     1      85.054  85.161  79.328  1.00  0.00     0.009 C 
ATOM      6  C   UNL     1      88.212  84.262  81.438  1.00  0.00     0.000 C 
ATOM      7  C   UNL     1      86.168  85.601  80.288  1.00  0.00     0.018 C 
ATOM      8  C   UNL     1      88.700  82.721  79.315  1.00  0.00     0.008 C 
ATOM      9  C   UNL     1      88.642  85.623  82.036  1.00  0.00     0.005 C 
ATOM     10  C   UNL     1      89.336  83.542  80.529  1.00  0.00    -0.024 C 
ATOM     11  C   UNL     1      90.101  85.601  82.461  1.00  0.00     0.005 C 
ATOM     12  C   UNL     1      90.503  84.573  80.033  1.00  0.00    -0.024 C 
ATOM     13  C   UNL     1      90.012  82.442  81.430  1.00  0.00     0.012 C 
ATOM     14  C   UNL     1      91.068  85.496  81.244  1.00  0.00     0.002 C 
ATOM     15  C   UNL     1      91.648  83.817  79.216  1.00  0.00     0.008 C 
ATOM     16  C   UNL     1      89.894  85.545  78.961  1.00  0.00     0.012 C 
ATOM     17  C   UNL     1      92.599  85.367  81.702  1.00  0.00    -0.025 C 
ATOM     18  C   UNL     1      93.040  83.729  79.834  1.00  0.00     0.006 C 
ATOM     19  C   UNL     1      93.054  86.742  82.301  1.00  0.00     0.015 C 
ATOM     20  C   UNL     1      92.789  84.282  82.811  1.00  0.00     0.012 C 
ATOM     21  C   UNL     1      93.480  85.075  80.449  1.00  0.00     0.008 C 
ATOM     22  C   UNL     1      94.529  86.768  82.713  1.00  0.00     0.077 C 
ATOM     23  C   UNL     1      95.062  85.225  80.624  1.00  0.00     0.027 C 
ATOM     24  C   UNL     1      95.405  86.393  81.549  1.00  0.00     0.138 C 
ATOM     25  C   UNL     1      95.676  85.538  79.225  1.00  0.00     0.020 C 
ATOM     26  C   UNL     1      95.765  83.953  81.202  1.00  0.00     0.020 C 
ATOM     27  O   UNL     1      96.485  86.965  81.431  1.00  0.00    -0.299 OA
ENDROOT
BRANCH   1  28
ATOM     28  C   UNL     1      86.075  81.847  80.790  1.00  0.00     0.048 C 
ATOM     29  O   UNL     1      86.130  81.791  82.051  1.00  0.00    -0.550 OA
ATOM     30  O   UNL     1      85.958  80.653  80.084  1.00  0.00    -0.550 OA
ENDBRANCH   1  28
BRANCH   7  31
ATOM     31  C   UNL     1      85.654  86.677  81.251  1.00  0.00    -0.077 C 
ATOM     32  C   UNL     1      85.075  86.286  82.587  1.00  0.00     0.039 C 
ATOM     33  C   UNL     1      85.726  87.978  80.947  1.00  0.00     0.008 C 
ENDBRANCH   7  31
TORSDOF 2
ENDMDL
MODEL 4
REMARK VINA RESULT:    -6.944      4.628      9.102
REMARK INTER + INTRA:          -7.805
REMARK INTER:                  -7.250
REMARK INTRA:                  -0.555
REMARK UNBOUND:                -0.048
REMARK SMILES C=C(C)[C@@H]1CC[C@@]2(C(=O)[O-])CC[C@]3(C)[C@@H](CC[C@H]4[C@]5(C)CCC(=O)C(C)(C)[C@H]5CC[C@]43C)[C@@H]12
REMARK SMILES IDX 7 1 6 2 33 3 11 4 5 5 15 6 4 7 12 8 16 9 13 10 17 11 31 12
REMARK SMILES IDX 14 13 18 14 30 15 32 16 19 17 29 18 21 19 20 20 28 21 22 22
REMARK SMILES IDX 25 23 23 24 26 25 27 26 24 27 8 28 9 29 10 30 2 31 3 32 1 33
REMARK H PARENT
REMARK Flexibility Score: inf
ROOT
ATOM      1  C   UNL     1      92.500  87.155  87.945  1.00  0.00     0.014 C 
ATOM      2  C   UNL     1      91.134  86.663  88.470  1.00  0.00     0.014 C 
ATOM      3  C   UNL     1      92.510  86.638  86.505  1.00  0.00     0.012 C 
ATOM      4  C   UNL     1      93.634  86.464  88.731  1.00  0.00     0.014 C 
ATOM      5  C   UNL     1      90.912  85.293  87.851  1.00  0.00     0.009 C 
ATOM      6  C   UNL     1      93.914  86.686  85.782  1.00  0.00     0.000 C 
ATOM      7  C   UNL     1      91.752  85.272  86.566  1.00  0.00     0.018 C 
ATOM      8  C   UNL     1      95.034  86.753  88.203  1.00  0.00     0.008 C 
ATOM      9  C   UNL     1      93.906  85.811  84.506  1.00  0.00     0.005 C 
ATOM     10  C   UNL     1      95.286  86.625  86.631  1.00  0.00    -0.024 C 
ATOM     11  C   UNL     1      95.259  85.833  83.814  1.00  0.00     0.005 C 
ATOM     12  C   UNL     1      96.203  85.325  86.257  1.00  0.00    -0.024 C 
ATOM     13  C   UNL     1      96.106  87.917  86.262  1.00  0.00     0.012 C 
ATOM     14  C   UNL     1      96.361  85.120  84.653  1.00  0.00     0.002 C 
ATOM     15  C   UNL     1      97.594  85.339  87.041  1.00  0.00     0.008 C 
ATOM     16  C   UNL     1      95.501  84.036  86.816  1.00  0.00     0.012 C 
ATOM     17  C   UNL     1      97.806  85.239  83.970  1.00  0.00    -0.025 C 
ATOM     18  C   UNL     1      98.876  85.530  86.237  1.00  0.00     0.006 C 
ATOM     19  C   UNL     1      97.819  84.348  82.680  1.00  0.00     0.015 C 
ATOM     20  C   UNL     1      98.131  86.705  83.535  1.00  0.00     0.012 C 
ATOM     21  C   UNL     1      98.879  84.675  84.951  1.00  0.00     0.008 C 
ATOM     22  C   UNL     1      99.177  84.322  81.971  1.00  0.00     0.077 C 
ATOM     23  C   UNL     1     100.337  84.402  84.354  1.00  0.00     0.027 C 
ATOM     24  C   UNL     1     100.254  83.875  82.921  1.00  0.00     0.138 C 
ATOM     25  C   UNL     1     101.016  83.298  85.222  1.00  0.00     0.020 C 
ATOM     26  C   UNL     1     101.266  85.660  84.334  1.00  0.00     0.020 C 
ATOM     27  O   UNL     1     101.159  83.172  82.479  1.00  0.00    -0.299 OA
ENDROOT
BRANCH   1  28
ATOM     28  C   UNL     1      92.560  88.672  88.029  1.00  0.00     0.048 C 
ATOM     29  O   UNL     1      92.798  89.254  89.124  1.00  0.00    -0.550 OA
ATOM     30  O   UNL     1      92.229  89.455  86.927  1.00  0.00    -0.550 OA
ENDBRANCH   1  28
BRANCH   7  31
ATOM     31  C   UNL     1      90.866  84.973  85.351  1.00  0.00    -0.077 C 
ATOM     32  C   UNL     1      91.175  83.800  84.456  1.00  0.00     0.039 C 
ATOM     33  C   UNL     1      89.793  85.721  85.068  1.00  0.00     0.008 C 
ENDBRANCH   7  31
TORSDOF 2
ENDMDL
MODEL 5
REMARK VINA RESULT:    -6.882      6.348      8.890
REMARK INTER + INTRA:          -7.735
REMARK INTER:                  -7.176
REMARK INTRA:                  -0.559
REMARK UNBOUND:                -0.048
REMARK SMILES C=C(C)[C@@H]1CC[C@@]2(C(=O)[O-])CC[C@]3(C)[C@@H](CC[C@H]4[C@]5(C)CCC(=O)C(C)(C)[C@H]5CC[C@]43C)[C@@H]12
REMARK SMILES IDX 7 1 6 2 33 3 11 4 5 5 15 6 4 7 12 8 16 9 13 10 17 11 31 12
REMARK SMILES IDX 14 13 18 14 30 15 32 16 19 17 29 18 21 19 20 20 28 21 22 22
REMARK SMILES IDX 25 23 23 24 26 25 27 26 24 27 8 28 9 29 10 30 2 31 3 32 1 33
REMARK H PARENT
REMARK Flexibility Score: inf
ROOT
ATOM      1  C   UNL     1      99.705  90.365  79.114  1.00  0.00     0.014 C 
ATOM      2  C   UNL     1     100.548  90.944  77.957  1.00  0.00     0.014 C 
ATOM      3  C   UNL     1     100.496  90.794  80.350  1.00  0.00     0.012 C 
ATOM      4  C   UNL     1      99.705  88.824  79.031  1.00  0.00     0.014 C 
ATOM      5  C   UNL     1     102.001  90.785  78.374  1.00  0.00     0.009 C 
ATOM      6  C   UNL     1     100.080  90.079  81.697  1.00  0.00     0.000 C 
ATOM      7  C   UNL     1     101.994  90.732  79.908  1.00  0.00     0.018 C 
ATOM      8  C   UNL     1      99.030  88.130  80.209  1.00  0.00     0.008 C 
ATOM      9  C   UNL     1     101.161  90.286  82.786  1.00  0.00     0.005 C 
ATOM     10  C   UNL     1      99.412  88.609  81.684  1.00  0.00    -0.024 C 
ATOM     11  C   UNL     1     100.780  89.584  84.078  1.00  0.00     0.005 C 
ATOM     12  C   UNL     1     100.307  87.500  82.482  1.00  0.00    -0.024 C 
ATOM     13  C   UNL     1      98.026  88.735  82.421  1.00  0.00     0.012 C 
ATOM     14  C   UNL     1     100.800  88.032  83.935  1.00  0.00     0.002 C 
ATOM     15  C   UNL     1      99.578  86.081  82.533  1.00  0.00     0.008 C 
ATOM     16  C   UNL     1     101.600  87.198  81.642  1.00  0.00     0.012 C 
ATOM     17  C   UNL     1     100.296  87.300  85.268  1.00  0.00    -0.025 C 
ATOM     18  C   UNL     1      99.101  85.561  83.885  1.00  0.00     0.006 C 
ATOM     19  C   UNL     1     101.385  87.489  86.379  1.00  0.00     0.015 C 
ATOM     20  C   UNL     1      98.961  87.912  85.805  1.00  0.00     0.012 C 
ATOM     21  C   UNL     1     100.161  85.772  84.987  1.00  0.00     0.008 C 
ATOM     22  C   UNL     1     101.051  86.770  87.690  1.00  0.00     0.077 C 
ATOM     23  C   UNL     1      99.983  84.814  86.254  1.00  0.00     0.027 C 
ATOM     24  C   UNL     1     100.817  85.306  87.438  1.00  0.00     0.138 C 
ATOM     25  C   UNL     1     100.507  83.397  85.868  1.00  0.00     0.020 C 
ATOM     26  C   UNL     1      98.506  84.678  86.751  1.00  0.00     0.020 C 
ATOM     27  O   UNL     1     101.199  84.505  88.286  1.00  0.00    -0.299 OA
ENDROOT
BRANCH   1  28
ATOM     28  C   UNL     1      98.307  90.960  79.070  1.00  0.00     0.048 C 
ATOM     29  O   UNL     1      97.702  91.121  77.972  1.00  0.00    -0.550 OA
ATOM     30  O   UNL     1      97.715  91.459  80.226  1.00  0.00    -0.550 OA
ENDBRANCH   1  28
BRANCH   7  31
ATOM     31  C   UNL     1     102.883  91.838  80.488  1.00  0.00    -0.077 C 
ATOM     32  C   UNL     1     104.214  91.496  81.107  1.00  0.00     0.039 C 
ATOM     33  C   UNL     1     102.518  93.125  80.439  1.00  0.00     0.008 C 
ENDBRANCH   7  31
TORSDOF 2
ENDMDL
MODEL 6
REMARK VINA RESULT:    -6.862      2.616      8.439
REMARK INTER + INTRA:          -7.712
REMARK INTER:                  -7.303
REMARK INTRA:                  -0.409
REMARK UNBOUND:                -0.048
REMARK SMILES C=C(C)[C@@H]1CC[C@@]2(C(=O)[O-])CC[C@]3(C)[C@@H](CC[C@H]4[C@]5(C)CCC(=O)C(C)(C)[C@H]5CC[C@]43C)[C@@H]12
REMARK SMILES IDX 7 1 6 2 33 3 11 4 5 5 15 6 4 7 12 8 16 9 13 10 17 11 31 12
REMARK SMILES IDX 14 13 18 14 30 15 32 16 19 17 29 18 21 19 20 20 28 21 22 22
REMARK SMILES IDX 25 23 23 24 26 25 27 26 24 27 8 28 9 29 10 30 2 31 3 32 1 33
REMARK H PARENT
REMARK Flexibility Score: inf
ROOT
ATOM      1  C   UNL     1      94.385  84.522  80.876  1.00  0.00     0.014 C 
ATOM      2  C   UNL     1      92.871  84.398  81.152  1.00  0.00     0.014 C 
ATOM      3  C   UNL     1      94.918  85.089  82.192  1.00  0.00     0.012 C 
ATOM      4  C   UNL     1      94.621  85.557  79.755  1.00  0.00     0.014 C 
ATOM      5  C   UNL     1      92.495  85.603  81.998  1.00  0.00     0.009 C 
ATOM      6  C   UNL     1      96.395  85.647  82.135  1.00  0.00     0.000 C 
ATOM      7  C   UNL     1      93.785  86.035  82.708  1.00  0.00     0.018 C 
ATOM      8  C   UNL     1      96.088  85.881  79.496  1.00  0.00     0.008 C 
ATOM      9  C   UNL     1      96.700  86.524  83.374  1.00  0.00     0.005 C 
ATOM     10  C   UNL     1      97.022  86.196  80.752  1.00  0.00    -0.024 C 
ATOM     11  C   UNL     1      98.111  87.084  83.318  1.00  0.00     0.005 C 
ATOM     12  C   UNL     1      97.441  87.774  80.830  1.00  0.00    -0.024 C 
ATOM     13  C   UNL     1      98.329  85.361  80.484  1.00  0.00     0.012 C 
ATOM     14  C   UNL     1      98.289  88.123  82.171  1.00  0.00     0.002 C 
ATOM     15  C   UNL     1      98.143  88.264  79.483  1.00  0.00     0.008 C 
ATOM     16  C   UNL     1      96.132  88.640  80.878  1.00  0.00     0.012 C 
ATOM     17  C   UNL     1      99.805  88.630  82.049  1.00  0.00    -0.025 C 
ATOM     18  C   UNL     1      99.618  88.648  79.533  1.00  0.00     0.006 C 
ATOM     19  C   UNL     1     100.126  89.530  83.291  1.00  0.00     0.015 C 
ATOM     20  C   UNL     1     100.822  87.443  82.049  1.00  0.00     0.012 C 
ATOM     21  C   UNL     1      99.943  89.512  80.771  1.00  0.00     0.008 C 
ATOM     22  C   UNL     1     101.532  90.138  83.256  1.00  0.00     0.077 C 
ATOM     23  C   UNL     1     101.279  90.378  80.628  1.00  0.00     0.027 C 
ATOM     24  C   UNL     1     101.734  90.917  81.985  1.00  0.00     0.138 C 
ATOM     25  C   UNL     1     100.966  91.605  79.717  1.00  0.00     0.020 C 
ATOM     26  C   UNL     1     102.485  89.596  80.010  1.00  0.00     0.020 C 
ATOM     27  O   UNL     1     102.400  91.947  82.038  1.00  0.00    -0.299 OA
ENDROOT
BRANCH   1  28
ATOM     28  C   UNL     1      94.955  83.153  80.547  1.00  0.00     0.048 C 
ATOM     29  O   UNL     1      94.239  82.261  80.008  1.00  0.00    -0.550 OA
ATOM     30  O   UNL     1      96.243  82.808  80.947  1.00  0.00    -0.550 OA
ENDBRANCH   1  28
BRANCH   7  31
ATOM     31  C   UNL     1      93.588  86.032  84.229  1.00  0.00    -0.077 C 
ATOM     32  C   UNL     1      93.508  87.333  84.986  1.00  0.00     0.039 C 
ATOM     33  C   UNL     1      93.458  84.890  84.914  1.00  0.00     0.008 C 
ENDBRANCH   7  31
TORSDOF 2
ENDMDL
MODEL 7
REMARK VINA RESULT:    -6.833      2.935      4.445
REMARK INTER + INTRA:          -7.680
REMARK INTER:                  -7.250
REMARK INTRA:                  -0.430
REMARK UNBOUND:                -0.048
REMARK SMILES C=C(C)[C@@H]1CC[C@@]2(C(=O)[O-])CC[C@]3(C)[C@@H](CC[C@H]4[C@]5(C)CCC(=O)C(C)(C)[C@H]5CC[C@]43C)[C@@H]12
REMARK SMILES IDX 7 1 6 2 33 3 11 4 5 5 15 6 4 7 12 8 16 9 13 10 17 11 31 12
REMARK SMILES IDX 14 13 18 14 30 15 32 16 19 17 29 18 21 19 20 20 28 21 22 22
REMARK SMILES IDX 25 23 23 24 26 25 27 26 24 27 8 28 9 29 10 30 2 31 3 32 1 33
REMARK H PARENT
REMARK Flexibility Score: inf
ROOT
ATOM      1  C   UNL     1      94.517  85.806  85.714  1.00  0.00     0.014 C 
ATOM      2  C   UNL     1      95.742  86.692  86.027  1.00  0.00     0.014 C 
ATOM      3  C   UNL     1      94.602  85.643  84.196  1.00  0.00     0.012 C 
ATOM      4  C   UNL     1      93.223  86.573  86.062  1.00  0.00     0.014 C 
ATOM      5  C   UNL     1      95.855  87.678  84.876  1.00  0.00     0.009 C 
ATOM      6  C   UNL     1      93.304  85.060  83.508  1.00  0.00     0.000 C 
ATOM      7  C   UNL     1      95.168  87.006  83.679  1.00  0.00     0.018 C 
ATOM      8  C   UNL     1      91.939  85.861  85.655  1.00  0.00     0.008 C 
ATOM      9  C   UNL     1      93.344  85.288  81.978  1.00  0.00     0.005 C 
ATOM     10  C   UNL     1      91.849  85.256  84.180  1.00  0.00    -0.024 C 
ATOM     11  C   UNL     1      92.090  84.749  81.308  1.00  0.00     0.005 C 
ATOM     12  C   UNL     1      90.822  86.099  83.228  1.00  0.00    -0.024 C 
ATOM     13  C   UNL     1      91.247  83.816  84.386  1.00  0.00     0.012 C 
ATOM     14  C   UNL     1      90.819  85.563  81.695  1.00  0.00     0.002 C 
ATOM     15  C   UNL     1      89.366  86.197  83.875  1.00  0.00     0.008 C 
ATOM     16  C   UNL     1      91.288  87.598  83.189  1.00  0.00     0.012 C 
ATOM     17  C   UNL     1      89.486  84.928  81.072  1.00  0.00    -0.025 C 
ATOM     18  C   UNL     1      88.216  85.472  83.183  1.00  0.00     0.006 C 
ATOM     19  C   UNL     1      89.505  85.160  79.522  1.00  0.00     0.015 C 
ATOM     20  C   UNL     1      89.402  83.386  81.318  1.00  0.00     0.012 C 
ATOM     21  C   UNL     1      88.248  85.676  81.653  1.00  0.00     0.008 C 
ATOM     22  C   UNL     1      88.242  84.657  78.815  1.00  0.00     0.077 C 
ATOM     23  C   UNL     1      86.843  85.423  80.933  1.00  0.00     0.027 C 
ATOM     24  C   UNL     1      87.018  85.287  79.420  1.00  0.00     0.138 C 
ATOM     25  C   UNL     1      85.937  86.665  81.191  1.00  0.00     0.020 C 
ATOM     26  C   UNL     1      86.090  84.146  81.431  1.00  0.00     0.020 C 
ATOM     27  O   UNL     1      86.086  85.573  78.673  1.00  0.00    -0.299 OA
ENDROOT
BRANCH   1  28
ATOM     28  C   UNL     1      94.641  84.487  86.459  1.00  0.00     0.048 C 
ATOM     29  O   UNL     1      93.736  84.098  87.250  1.00  0.00    -0.550 OA
ATOM     30  O   UNL     1      95.811  83.739  86.382  1.00  0.00    -0.550 OA
ENDBRANCH   1  28
BRANCH   7  31
ATOM     31  C   UNL     1      96.139  86.892  82.498  1.00  0.00    -0.077 C 
ATOM     32  C   UNL     1      96.029  87.840  81.331  1.00  0.00     0.039 C 
ATOM     33  C   UNL     1      97.114  85.975  82.480  1.00  0.00     0.008 C 
ENDBRANCH   7  31
TORSDOF 2
ENDMDL
MODEL 8
REMARK VINA RESULT:    -6.780      2.836      5.196
REMARK INTER + INTRA:          -7.620
REMARK INTER:                  -6.940
REMARK INTRA:                  -0.680
REMARK UNBOUND:                -0.048
REMARK SMILES C=C(C)[C@@H]1CC[C@@]2(C(=O)[O-])CC[C@]3(C)[C@@H](CC[C@H]4[C@]5(C)CCC(=O)C(C)(C)[C@H]5CC[C@]43C)[C@@H]12
REMARK SMILES IDX 7 1 6 2 33 3 11 4 5 5 15 6 4 7 12 8 16 9 13 10 17 11 31 12
REMARK SMILES IDX 14 13 18 14 30 15 32 16 19 17 29 18 21 19 20 20 28 21 22 22
REMARK SMILES IDX 25 23 23 24 26 25 27 26 24 27 8 28 9 29 10 30 2 31 3 32 1 33
REMARK H PARENT
REMARK Flexibility Score: inf
ROOT
ATOM      1  C   UNL     1     100.987  86.743  84.068  1.00  0.00     0.014 C 
ATOM      2  C   UNL     1     102.044  86.328  85.114  1.00  0.00     0.014 C 
ATOM      3  C   UNL     1      99.689  86.717  84.877  1.00  0.00     0.012 C 
ATOM      4  C   UNL     1     100.907  85.671  82.961  1.00  0.00     0.014 C 
ATOM      5  C   UNL     1     101.381  85.278  85.990  1.00  0.00     0.009 C 
ATOM      6  C   UNL     1      98.361  86.775  84.022  1.00  0.00     0.000 C 
ATOM      7  C   UNL     1      99.871  85.538  85.887  1.00  0.00     0.018 C 
ATOM      8  C   UNL     1      99.789  85.892  81.948  1.00  0.00     0.008 C 
ATOM      9  C   UNL     1      97.138  86.365  84.877  1.00  0.00     0.005 C 
ATOM     10  C   UNL     1      98.330  86.234  82.501  1.00  0.00    -0.024 C 
ATOM     11  C   UNL     1      95.859  86.396  84.058  1.00  0.00     0.005 C 
ATOM     12  C   UNL     1      97.285  84.995  82.292  1.00  0.00    -0.024 C 
ATOM     13  C   UNL     1      97.846  87.433  81.603  1.00  0.00     0.012 C 
ATOM     14  C   UNL     1      95.834  85.291  82.960  1.00  0.00     0.002 C 
ATOM     15  C   UNL     1      97.205  84.543  80.763  1.00  0.00     0.008 C 
ATOM     16  C   UNL     1      97.865  83.721  83.003  1.00  0.00     0.012 C 
ATOM     17  C   UNL     1      94.532  85.396  82.032  1.00  0.00    -0.025 C 
ATOM     18  C   UNL     1      95.903  84.779  80.005  1.00  0.00     0.006 C 
ATOM     19  C   UNL     1      93.284  84.972  82.880  1.00  0.00     0.015 C 
ATOM     20  C   UNL     1      94.287  86.855  81.527  1.00  0.00     0.012 C 
ATOM     21  C   UNL     1      94.670  84.389  80.849  1.00  0.00     0.008 C 
ATOM     22  C   UNL     1      91.977  84.962  82.079  1.00  0.00     0.077 C 
ATOM     23  C   UNL     1      93.356  84.098  79.986  1.00  0.00     0.027 C 
ATOM     24  C   UNL     1      92.110  84.074  80.873  1.00  0.00     0.138 C 
ATOM     25  C   UNL     1      93.501  82.684  79.345  1.00  0.00     0.020 C 
ATOM     26  C   UNL     1      93.096  85.137  78.846  1.00  0.00     0.020 C 
ATOM     27  O   UNL     1      91.131  83.418  80.528  1.00  0.00    -0.299 OA
ENDROOT
BRANCH   1  28
ATOM     28  C   UNL     1     101.320  88.125  83.530  1.00  0.00     0.048 C 
ATOM     29  O   UNL     1     102.128  88.272  82.569  1.00  0.00    -0.550 OA
ATOM     30  O   UNL     1     100.841  89.266  84.165  1.00  0.00    -0.550 OA
ENDBRANCH   1  28
BRANCH   7  31
ATOM     31  C   UNL     1      99.273  85.783  87.277  1.00  0.00    -0.077 C 
ATOM     32  C   UNL     1      98.406  84.735  87.926  1.00  0.00     0.039 C 
ATOM     33  C   UNL     1      99.520  86.911  87.955  1.00  0.00     0.008 C 
ENDBRANCH   7  31
TORSDOF 2
ENDMDL
MODEL 9
REMARK VINA RESULT:    -6.678      2.999      5.407
REMARK INTER + INTRA:          -7.507
REMARK INTER:                  -6.800
REMARK INTRA:                  -0.707
REMARK UNBOUND:                -0.048
REMARK SMILES C=C(C)[C@@H]1CC[C@@]2(C(=O)[O-])CC[C@]3(C)[C@@H](CC[C@H]4[C@]5(C)CCC(=O)C(C)(C)[C@H]5CC[C@]43C)[C@@H]12
REMARK SMILES IDX 7 1 6 2 33 3 11 4 5 5 15 6 4 7 12 8 16 9 13 10 17 11 31 12
REMARK SMILES IDX 14 13 18 14 30 15 32 16 19 17 29 18 21 19 20 20 28 21 22 22
REMARK SMILES IDX 25 23 23 24 26 25 27 26 24 27 8 28 9 29 10 30 2 31 3 32 1 33
REMARK H PARENT
REMARK Flexibility Score: inf
ROOT
ATOM      1  C   UNL     1     100.779  86.902  82.660  1.00  0.00     0.014 C 
ATOM      2  C   UNL     1     102.183  86.261  82.624  1.00  0.00     0.014 C 
ATOM      3  C   UNL     1     100.226  86.420  84.002  1.00  0.00     0.012 C 
ATOM      4  C   UNL     1      99.915  86.315  81.524  1.00  0.00     0.014 C 
ATOM      5  C   UNL     1     102.037  84.889  83.260  1.00  0.00     0.009 C 
ATOM      6  C   UNL     1      98.673  86.628  84.204  1.00  0.00     0.000 C 
ATOM      7  C   UNL     1     100.813  84.982  84.182  1.00  0.00     0.018 C 
ATOM      8  C   UNL     1      98.457  86.758  81.548  1.00  0.00     0.008 C 
ATOM      9  C   UNL     1      98.155  85.785  85.394  1.00  0.00     0.005 C 
ATOM     10  C   UNL     1      97.673  86.690  82.938  1.00  0.00    -0.024 C 
ATOM     11  C   UNL     1      96.658  85.961  85.584  1.00  0.00     0.005 C 
ATOM     12  C   UNL     1      96.553  85.500  82.958  1.00  0.00    -0.024 C 
ATOM     13  C   UNL     1      96.916  88.068  83.025  1.00  0.00     0.012 C 
ATOM     14  C   UNL     1      95.839  85.348  84.409  1.00  0.00     0.002 C 
ATOM     15  C   UNL     1      95.522  85.641  81.748  1.00  0.00     0.008 C 
ATOM     16  C   UNL     1      97.265  84.134  82.653  1.00  0.00     0.012 C 
ATOM     17  C   UNL     1      94.268  85.630  84.561  1.00  0.00    -0.025 C 
ATOM     18  C   UNL     1      94.070  85.981  82.070  1.00  0.00     0.006 C 
ATOM     19  C   UNL     1      93.725  84.773  85.756  1.00  0.00     0.015 C 
ATOM     20  C   UNL     1      93.970  87.130  84.881  1.00  0.00     0.012 C 
ATOM     21  C   UNL     1      93.541  85.158  83.265  1.00  0.00     0.008 C 
ATOM     22  C   UNL     1      92.212  84.902  85.959  1.00  0.00     0.077 C 
ATOM     23  C   UNL     1      91.947  85.050  83.326  1.00  0.00     0.027 C 
ATOM     24  C   UNL     1      91.482  84.548  84.693  1.00  0.00     0.138 C 
ATOM     25  C   UNL     1      91.492  84.004  82.262  1.00  0.00     0.020 C 
ATOM     26  C   UNL     1      91.203  86.397  83.047  1.00  0.00     0.020 C 
ATOM     27  O   UNL     1      90.413  83.952  84.790  1.00  0.00    -0.299 OA
ENDROOT
BRANCH   1  28
ATOM     28  C   UNL     1     100.910  88.415  82.583  1.00  0.00     0.048 C 
ATOM     29  O   UNL     1     101.139  88.994  81.483  1.00  0.00    -0.550 OA
ATOM     30  O   UNL     1     100.906  89.184  83.742  1.00  0.00    -0.550 OA
ENDBRANCH   1  28
BRANCH   7  31
ATOM     31  C   UNL     1     101.196  84.620  85.622  1.00  0.00    -0.077 C 
ATOM     32  C   UNL     1     101.711  85.681  86.560  1.00  0.00     0.039 C 
ATOM     33  C   UNL     1     101.063  83.372  86.087  1.00  0.00     0.008 C 
ENDBRANCH   7  31
TORSDOF 2
ENDMDL
