MODEL 1
REMARK VINA RESULT:    -5.389      0.000      0.000
REMARK INTER + INTRA:          -9.394
REMARK INTER:                  -7.909
REMARK INTRA:                  -1.485
REMARK UNBOUND:                -1.485
REMARK SMILES Cc1cc2c(C(C)C)c(O)c(O)c(C=O)c2c(O)c1-c1c(C)cc2c(C(C)C)c(O)c(O)c(C=O)c2c1O
REMARK SMILES IDX 1 1 2 2 3 3 4 4 16 5 13 6 11 7 9 8 5 9 17 10 19 11 20 12
REMARK SMILES IDX 37 13 21 14 36 15 23 16 22 17 24 18 33 19 25 20 31 21 29 22
REMARK SMILES IDX 38 23 34 25 35 26 26 27 27 28 28 29 32 30 30 32 18 34 6 36
REMARK SMILES IDX 7 37 8 38 14 39 15 40 10 41 12 43
REMARK H PARENT 38 24 32 31 30 33 18 35 10 42 12 44
REMARK Flexibility Score: inf
ROOT
ATOM      1  C   UNL     1     -47.971 -61.621   2.125  1.00  0.00     0.045 C 
ATOM      2  C   UNL     1     -47.487 -61.175   0.766  1.00  0.00    -0.039 A 
ATOM      3  C   UNL     1     -46.317 -60.418   0.667  1.00  0.00     0.013 A 
ATOM      4  C   UNL     1     -45.826 -59.972  -0.580  1.00  0.00    -0.006 A 
ATOM      5  C   UNL     1     -46.448 -60.453  -1.768  1.00  0.00     0.039 A 
ATOM      6  C   UNL     1     -45.809 -60.228  -3.022  1.00  0.00     0.072 A 
ATOM      7  C   UNL     1     -44.627 -59.461  -3.079  1.00  0.00     0.169 A 
ATOM      8  C   UNL     1     -44.090 -58.895  -1.917  1.00  0.00     0.162 A 
ATOM      9  C   UNL     1     -44.715 -59.080  -0.664  1.00  0.00     0.008 A 
ATOM     10  C   UNL     1     -47.704 -61.120  -1.662  1.00  0.00     0.132 A 
ATOM     11  C   UNL     1     -48.213 -61.482  -0.397  1.00  0.00     0.031 A 
ENDROOT
BRANCH  11  12
ATOM     12  C   UNL     1     -49.513 -62.195  -0.287  1.00  0.00     0.031 A 
ATOM     13  C   UNL     1     -49.552 -63.606  -0.288  1.00  0.00     0.132 A 
ATOM     14  C   UNL     1     -50.705 -61.459  -0.212  1.00  0.00    -0.039 A 
ATOM     15  C   UNL     1     -50.790 -64.295  -0.109  1.00  0.00     0.039 A 
ATOM     16  C   UNL     1     -51.924 -62.130  -0.102  1.00  0.00     0.013 A 
ATOM     17  C   UNL     1     -50.693 -59.949  -0.250  1.00  0.00     0.045 C 
ATOM     18  C   UNL     1     -51.996 -63.537  -0.014  1.00  0.00    -0.006 A 
ATOM     19  C   UNL     1     -50.865 -65.718  -0.060  1.00  0.00     0.072 A 
ATOM     20  C   UNL     1     -53.253 -64.204   0.121  1.00  0.00     0.008 A 
ATOM     21  C   UNL     1     -52.119 -66.355  -0.100  1.00  0.00     0.169 A 
ATOM     22  C   UNL     1     -53.303 -65.597  -0.094  1.00  0.00     0.162 A 
BRANCH  13  23
ATOM     23  O   UNL     1     -48.371 -64.320  -0.514  1.00  0.00    -0.507 OA
ATOM     24  H   UNL     1     -47.714 -64.571   0.215  1.00  0.00     0.293 HD
ENDBRANCH  13  23
BRANCH  19  25
ATOM     25  C   UNL     1     -49.663 -66.568   0.121  1.00  0.00     0.264 C 
ATOM     26  O   UNL     1     -49.166 -67.209  -0.842  1.00  0.00    -0.298 OA
ENDBRANCH  19  25
BRANCH  20  27
ATOM     27  C   UNL     1     -54.548 -63.437   0.447  1.00  0.00     0.017 C 
ATOM     28  C   UNL     1     -55.424 -63.282  -0.802  1.00  0.00     0.012 C 
ATOM     29  C   UNL     1     -55.345 -64.037   1.620  1.00  0.00     0.012 C 
ENDBRANCH  20  27
BRANCH  21  30
ATOM     30  O   UNL     1     -52.163 -67.755  -0.090  1.00  0.00    -0.504 OA
ATOM     31  H   UNL     1     -52.990 -68.295   0.127  1.00  0.00     0.293 HD
ENDBRANCH  21  30
BRANCH  22  32
ATOM     32  O   UNL     1     -54.540 -66.211  -0.310  1.00  0.00    -0.504 OA
ATOM     33  H   UNL     1     -54.678 -67.010  -0.911  1.00  0.00     0.293 HD
ENDBRANCH  22  32
ENDBRANCH  11  12
BRANCH  10  34
ATOM     34  O   UNL     1     -48.462 -61.380  -2.809  1.00  0.00    -0.507 OA
ATOM     35  H   UNL     1     -48.165 -62.000  -3.553  1.00  0.00     0.293 HD
ENDBRANCH  10  34
BRANCH   9  36
ATOM     36  C   UNL     1     -44.197 -58.317   0.568  1.00  0.00     0.017 C 
ATOM     37  C   UNL     1     -42.810 -58.817   0.981  1.00  0.00     0.012 C 
ATOM     38  C   UNL     1     -44.214 -56.788   0.395  1.00  0.00     0.012 C 
ENDBRANCH   9  36
BRANCH   6  39
ATOM     39  C   UNL     1     -46.269 -60.875  -4.269  1.00  0.00     0.264 C 
ATOM     40  O   UNL     1     -46.948 -60.230  -5.112  1.00  0.00    -0.298 OA
ENDBRANCH   6  39
BRANCH   8  41
ATOM     41  O   UNL     1     -42.906 -58.158  -2.002  1.00  0.00    -0.504 OA
ATOM     42  H   UNL     1     -42.180 -58.358  -2.680  1.00  0.00     0.293 HD
ENDBRANCH   8  41
BRANCH   7  43
ATOM     43  O   UNL     1     -43.945 -59.258  -4.285  1.00  0.00    -0.504 OA
ATOM     44  H   UNL     1     -44.239 -59.638  -5.176  1.00  0.00     0.293 HD
ENDBRANCH   7  43
TORSDOF 11
ENDMDL
MODEL 2
REMARK VINA RESULT:    -5.074      0.528      9.108
REMARK INTER + INTRA:          -8.932
REMARK INTER:                  -7.519
REMARK INTRA:                  -1.413
REMARK UNBOUND:                -1.485
REMARK SMILES Cc1cc2c(C(C)C)c(O)c(O)c(C=O)c2c(O)c1-c1c(C)cc2c(C(C)C)c(O)c(O)c(C=O)c2c1O
REMARK SMILES IDX 1 1 2 2 3 3 4 4 16 5 13 6 11 7 9 8 5 9 17 10 19 11 20 12
REMARK SMILES IDX 37 13 21 14 36 15 23 16 22 17 24 18 33 19 25 20 31 21 29 22
REMARK SMILES IDX 38 23 34 25 35 26 26 27 27 28 28 29 32 30 30 32 18 34 6 36
REMARK SMILES IDX 7 37 8 38 14 39 15 40 10 41 12 43
REMARK H PARENT 38 24 32 31 30 33 18 35 10 42 12 44
REMARK Flexibility Score: inf
ROOT
ATOM      1  C   UNL     1     -50.607 -59.644  -0.402  1.00  0.00     0.045 C 
ATOM      2  C   UNL     1     -50.652 -61.151  -0.309  1.00  0.00    -0.039 A 
ATOM      3  C   UNL     1     -51.881 -61.793  -0.143  1.00  0.00     0.013 A 
ATOM      4  C   UNL     1     -51.975 -63.199  -0.044  1.00  0.00    -0.006 A 
ATOM      5  C   UNL     1     -50.808 -63.979  -0.290  1.00  0.00     0.039 A 
ATOM      6  C   UNL     1     -50.942 -65.389  -0.455  1.00  0.00     0.072 A 
ATOM      7  C   UNL     1     -52.201 -65.999  -0.283  1.00  0.00     0.169 A 
ATOM      8  C   UNL     1     -53.318 -65.234   0.075  1.00  0.00     0.162 A 
ATOM      9  C   UNL     1     -53.212 -63.840   0.269  1.00  0.00     0.008 A 
ATOM     10  C   UNL     1     -49.543 -63.322  -0.337  1.00  0.00     0.132 A 
ATOM     11  C   UNL     1     -49.472 -61.913  -0.352  1.00  0.00     0.031 A 
ENDROOT
BRANCH  11  12
ATOM     12  C   UNL     1     -48.155 -61.228  -0.421  1.00  0.00     0.031 A 
ATOM     13  C   UNL     1     -47.587 -60.902  -1.671  1.00  0.00     0.132 A 
ATOM     14  C   UNL     1     -47.462 -60.935   0.764  1.00  0.00    -0.039 A 
ATOM     15  C   UNL     1     -46.358 -60.180  -1.741  1.00  0.00     0.039 A 
ATOM     16  C   UNL     1     -46.228 -60.286   0.698  1.00  0.00     0.013 A 
ATOM     17  C   UNL     1     -48.029 -61.310   2.112  1.00  0.00     0.045 C 
ATOM     18  C   UNL     1     -45.669 -59.868  -0.530  1.00  0.00    -0.006 A 
ATOM     19  C   UNL     1     -45.776 -59.793  -2.984  1.00  0.00     0.072 A 
ATOM     20  C   UNL     1     -44.415 -59.185  -0.575  1.00  0.00     0.008 A 
ATOM     21  C   UNL     1     -44.467 -59.278  -3.014  1.00  0.00     0.169 A 
ATOM     22  C   UNL     1     -43.762 -59.055  -1.819  1.00  0.00     0.162 A 
BRANCH  13  23
ATOM     23  O   UNL     1     -48.221 -61.336  -2.841  1.00  0.00    -0.507 OA
ATOM     24  H   UNL     1     -49.120 -61.801  -2.857  1.00  0.00     0.293 HD
ENDBRANCH  13  23
BRANCH  19  25
ATOM     25  C   UNL     1     -46.534 -59.830  -4.258  1.00  0.00     0.264 C 
ATOM     26  O   UNL     1     -46.499 -60.841  -5.009  1.00  0.00    -0.298 OA
ENDBRANCH  19  25
BRANCH  20  27
ATOM     27  C   UNL     1     -43.745 -58.633   0.697  1.00  0.00     0.017 C 
ATOM     28  C   UNL     1     -42.532 -59.483   1.093  1.00  0.00     0.012 C 
ATOM     29  C   UNL     1     -43.378 -57.140   0.608  1.00  0.00     0.012 C 
ENDBRANCH  20  27
BRANCH  21  30
ATOM     30  O   UNL     1     -43.904 -58.943  -4.252  1.00  0.00    -0.504 OA
ATOM     31  H   UNL     1     -44.367 -59.078  -5.141  1.00  0.00     0.293 HD
ENDBRANCH  21  30
BRANCH  22  32
ATOM     32  O   UNL     1     -42.407 -58.712  -1.846  1.00  0.00    -0.504 OA
ATOM     33  H   UNL     1     -41.771 -58.858  -1.075  1.00  0.00     0.293 HD
ENDBRANCH  22  32
ENDBRANCH  11  12
BRANCH  10  34
ATOM     34  O   UNL     1     -48.361 -64.071  -0.324  1.00  0.00    -0.507 OA
ATOM     35  H   UNL     1     -47.804 -64.259  -1.148  1.00  0.00     0.293 HD
ENDBRANCH  10  34
BRANCH   9  36
ATOM     36  C   UNL     1     -54.414 -63.051   0.818  1.00  0.00     0.017 C 
ATOM     37  C   UNL     1     -55.503 -62.898  -0.247  1.00  0.00     0.012 C 
ATOM     38  C   UNL     1     -54.984 -63.630   2.125  1.00  0.00     0.012 C 
ENDBRANCH   9  36
BRANCH   6  39
ATOM     39  C   UNL     1     -49.826 -66.236  -0.925  1.00  0.00     0.264 C 
ATOM     40  O   UNL     1     -49.292 -67.078  -0.154  1.00  0.00    -0.298 OA
ENDBRANCH   6  39
BRANCH   8  41
ATOM     41  O   UNL     1     -54.557 -65.865   0.218  1.00  0.00    -0.504 OA
ATOM     42  H   UNL     1     -54.687 -66.708   0.763  1.00  0.00     0.293 HD
ENDBRANCH   8  41
BRANCH   7  43
ATOM     43  O   UNL     1     -52.381 -67.373  -0.482  1.00  0.00    -0.504 OA
ATOM     44  H   UNL     1     -53.215 -67.785  -0.880  1.00  0.00     0.293 HD
ENDBRANCH   7  43
TORSDOF 11
ENDMDL
MODEL 3
REMARK VINA RESULT:    -4.901      1.871      9.234
REMARK INTER + INTRA:          -8.678
REMARK INTER:                  -7.643
REMARK INTRA:                  -1.035
REMARK UNBOUND:                -1.485
REMARK SMILES Cc1cc2c(C(C)C)c(O)c(O)c(C=O)c2c(O)c1-c1c(C)cc2c(C(C)C)c(O)c(O)c(C=O)c2c1O
REMARK SMILES IDX 1 1 2 2 3 3 4 4 16 5 13 6 11 7 9 8 5 9 17 10 19 11 20 12
REMARK SMILES IDX 37 13 21 14 36 15 23 16 22 17 24 18 33 19 25 20 31 21 29 22
REMARK SMILES IDX 38 23 34 25 35 26 26 27 27 28 28 29 32 30 30 32 18 34 6 36
REMARK SMILES IDX 7 37 8 38 14 39 15 40 10 41 12 43
REMARK H PARENT 38 24 32 31 30 33 18 35 10 42 12 44
REMARK Flexibility Score: inf
ROOT
ATOM      1  C   UNL     1     -47.896 -64.285  -1.091  1.00  0.00     0.045 C 
ATOM      2  C   UNL     1     -49.085 -63.519  -0.565  1.00  0.00    -0.039 A 
ATOM      3  C   UNL     1     -50.334 -64.140  -0.510  1.00  0.00     0.013 A 
ATOM      4  C   UNL     1     -51.479 -63.465  -0.031  1.00  0.00    -0.006 A 
ATOM      5  C   UNL     1     -51.312 -62.180   0.562  1.00  0.00     0.039 A 
ATOM      6  C   UNL     1     -52.401 -61.604   1.280  1.00  0.00     0.072 A 
ATOM      7  C   UNL     1     -53.646 -62.266   1.316  1.00  0.00     0.169 A 
ATOM      8  C   UNL     1     -53.829 -63.472   0.629  1.00  0.00     0.162 A 
ATOM      9  C   UNL     1     -52.776 -64.054  -0.111  1.00  0.00     0.008 A 
ATOM     10  C   UNL     1     -50.068 -61.503   0.394  1.00  0.00     0.132 A 
ATOM     11  C   UNL     1     -48.960 -62.178  -0.163  1.00  0.00     0.031 A 
ENDROOT
BRANCH  11  12
ATOM     12  C   UNL     1     -47.658 -61.479  -0.321  1.00  0.00     0.031 A 
ATOM     13  C   UNL     1     -47.275 -60.964  -1.577  1.00  0.00     0.132 A 
ATOM     14  C   UNL     1     -46.795 -61.362   0.780  1.00  0.00    -0.039 A 
ATOM     15  C   UNL     1     -46.060 -60.228  -1.717  1.00  0.00     0.039 A 
ATOM     16  C   UNL     1     -45.576 -60.700   0.632  1.00  0.00     0.013 A 
ATOM     17  C   UNL     1     -47.164 -61.942   2.125  1.00  0.00     0.045 C 
ATOM     18  C   UNL     1     -45.197 -60.096  -0.587  1.00  0.00    -0.006 A 
ATOM     19  C   UNL     1     -45.660 -59.653  -2.959  1.00  0.00     0.072 A 
ATOM     20  C   UNL     1     -43.953 -59.403  -0.712  1.00  0.00     0.008 A 
ATOM     21  C   UNL     1     -44.363 -59.128  -3.103  1.00  0.00     0.169 A 
ATOM     22  C   UNL     1     -43.488 -59.082  -2.004  1.00  0.00     0.162 A 
BRANCH  13  23
ATOM     23  O   UNL     1     -48.079 -61.222  -2.693  1.00  0.00    -0.507 OA
ATOM     24  H   UNL     1     -47.733 -61.246  -3.645  1.00  0.00     0.293 HD
ENDBRANCH  13  23
BRANCH  19  25
ATOM     25  C   UNL     1     -46.597 -59.504  -4.099  1.00  0.00     0.264 C 
ATOM     26  O   UNL     1     -46.677 -60.384  -4.997  1.00  0.00    -0.298 OA
ENDBRANCH  19  25
BRANCH  20  27
ATOM     27  C   UNL     1     -43.098 -59.044   0.517  1.00  0.00     0.017 C 
ATOM     28  C   UNL     1     -41.865 -59.951   0.613  1.00  0.00     0.012 C 
ATOM     29  C   UNL     1     -42.705 -57.556   0.587  1.00  0.00     0.012 C 
ENDBRANCH  20  27
BRANCH  21  30
ATOM     30  O   UNL     1     -43.982 -58.604  -4.345  1.00  0.00    -0.504 OA
ATOM     31  H   UNL     1     -43.063 -58.718  -4.751  1.00  0.00     0.293 HD
ENDBRANCH  21  30
BRANCH  22  32
ATOM     32  O   UNL     1     -42.147 -58.726  -2.177  1.00  0.00    -0.504 OA
ATOM     33  H   UNL     1     -41.840 -57.908  -2.683  1.00  0.00     0.293 HD
ENDBRANCH  22  32
ENDBRANCH  11  12
BRANCH  10  34
ATOM     34  O   UNL     1     -49.949 -60.152   0.739  1.00  0.00    -0.507 OA
ATOM     35  H   UNL     1     -49.165 -59.569   0.472  1.00  0.00     0.293 HD
ENDBRANCH  10  34
BRANCH   9  36
ATOM     36  C   UNL     1     -53.050 -65.290  -0.986  1.00  0.00     0.017 C 
ATOM     37  C   UNL     1     -52.295 -65.200  -2.315  1.00  0.00     0.012 C 
ATOM     38  C   UNL     1     -52.771 -66.623  -0.271  1.00  0.00     0.012 C 
ENDBRANCH   9  36
BRANCH   6  39
ATOM     39  C   UNL     1     -52.246 -60.387   2.104  1.00  0.00     0.264 C 
ATOM     40  O   UNL     1     -52.821 -59.315   1.775  1.00  0.00    -0.298 OA
ENDBRANCH   6  39
BRANCH   8  41
ATOM     41  O   UNL     1     -55.068 -64.115   0.701  1.00  0.00    -0.504 OA
ATOM     42  H   UNL     1     -55.947 -63.615   0.742  1.00  0.00     0.293 HD
ENDBRANCH   8  41
BRANCH   7  43
ATOM     43  O   UNL     1     -54.724 -61.756   2.049  1.00  0.00    -0.504 OA
ATOM     44  H   UNL     1     -55.647 -62.171   2.065  1.00  0.00     0.293 HD
ENDBRANCH   7  43
TORSDOF 11
ENDMDL
MODEL 4
REMARK VINA RESULT:    -4.803      2.287      4.331
REMARK INTER + INTRA:          -8.534
REMARK INTER:                  -7.703
REMARK INTRA:                  -0.831
REMARK UNBOUND:                -1.485
REMARK SMILES Cc1cc2c(C(C)C)c(O)c(O)c(C=O)c2c(O)c1-c1c(C)cc2c(C(C)C)c(O)c(O)c(C=O)c2c1O
REMARK SMILES IDX 1 1 2 2 3 3 4 4 16 5 13 6 11 7 9 8 5 9 17 10 19 11 20 12
REMARK SMILES IDX 37 13 21 14 36 15 23 16 22 17 24 18 33 19 25 20 31 21 29 22
REMARK SMILES IDX 38 23 34 25 35 26 26 27 27 28 28 29 32 30 30 32 18 34 6 36
REMARK SMILES IDX 7 37 8 38 14 39 15 40 10 41 12 43
REMARK H PARENT 38 24 32 31 30 33 18 35 10 42 12 44
REMARK Flexibility Score: inf
ROOT
ATOM      1  C   UNL     1     -46.256 -62.658  -3.212  1.00  0.00     0.045 C 
ATOM      2  C   UNL     1     -46.121 -61.668  -2.080  1.00  0.00    -0.039 A 
ATOM      3  C   UNL     1     -45.245 -60.588  -2.212  1.00  0.00     0.013 A 
ATOM      4  C   UNL     1     -45.078 -59.638  -1.180  1.00  0.00    -0.006 A 
ATOM      5  C   UNL     1     -45.950 -59.695  -0.054  1.00  0.00     0.039 A 
ATOM      6  C   UNL     1     -45.972 -58.600   0.859  1.00  0.00     0.072 A 
ATOM      7  C   UNL     1     -45.074 -57.527   0.688  1.00  0.00     0.169 A 
ATOM      8  C   UNL     1     -44.141 -57.539  -0.356  1.00  0.00     0.162 A 
ATOM      9  C   UNL     1     -44.079 -58.621  -1.261  1.00  0.00     0.008 A 
ATOM     10  C   UNL     1     -46.752 -60.859   0.133  1.00  0.00     0.132 A 
ATOM     11  C   UNL     1     -46.837 -61.836  -0.883  1.00  0.00     0.031 A 
ENDROOT
BRANCH  11  12
ATOM     12  C   UNL     1     -47.688 -63.040  -0.697  1.00  0.00     0.031 A 
ATOM     13  C   UNL     1     -49.032 -63.034  -1.126  1.00  0.00     0.132 A 
ATOM     14  C   UNL     1     -47.157 -64.174  -0.062  1.00  0.00    -0.039 A 
ATOM     15  C   UNL     1     -49.831 -64.212  -1.017  1.00  0.00     0.039 A 
ATOM     16  C   UNL     1     -47.956 -65.307   0.106  1.00  0.00     0.013 A 
ATOM     17  C   UNL     1     -45.735 -64.191   0.443  1.00  0.00     0.045 C 
ATOM     18  C   UNL     1     -49.278 -65.368  -0.388  1.00  0.00    -0.006 A 
ATOM     19  C   UNL     1     -51.179 -64.260  -1.480  1.00  0.00     0.072 A 
ATOM     20  C   UNL     1     -50.071 -66.545  -0.225  1.00  0.00     0.008 A 
ATOM     21  C   UNL     1     -51.993 -65.362  -1.158  1.00  0.00     0.169 A 
ATOM     22  C   UNL     1     -51.460 -66.460  -0.461  1.00  0.00     0.162 A 
BRANCH  13  23
ATOM     23  O   UNL     1     -49.585 -61.847  -1.618  1.00  0.00    -0.507 OA
ATOM     24  H   UNL     1     -50.579 -61.688  -1.724  1.00  0.00     0.293 HD
ENDBRANCH  13  23
BRANCH  19  25
ATOM     25  C   UNL     1     -51.745 -63.221  -2.375  1.00  0.00     0.264 C 
ATOM     26  O   UNL     1     -52.654 -62.444  -1.979  1.00  0.00    -0.298 OA
ENDBRANCH  19  25
BRANCH  20  27
ATOM     27  C   UNL     1     -49.459 -67.879   0.241  1.00  0.00     0.017 C 
ATOM     28  C   UNL     1     -48.102 -68.125  -0.427  1.00  0.00     0.012 C 
ATOM     29  C   UNL     1     -49.362 -68.016   1.772  1.00  0.00     0.012 C 
ENDBRANCH  20  27
BRANCH  21  30
ATOM     30  O   UNL     1     -53.324 -65.365  -1.592  1.00  0.00    -0.504 OA
ATOM     31  H   UNL     1     -54.123 -65.352  -0.972  1.00  0.00     0.293 HD
ENDBRANCH  21  30
BRANCH  22  32
ATOM     32  O   UNL     1     -52.296 -67.474   0.014  1.00  0.00    -0.504 OA
ATOM     33  H   UNL     1     -52.036 -68.129   0.738  1.00  0.00     0.293 HD
ENDBRANCH  22  32
ENDBRANCH  11  12
BRANCH  10  34
ATOM     34  O   UNL     1     -47.425 -61.064   1.342  1.00  0.00    -0.507 OA
ATOM     35  H   UNL     1     -48.433 -61.084   1.431  1.00  0.00     0.293 HD
ENDBRANCH  10  34
BRANCH   9  36
ATOM     36  C   UNL     1     -42.943 -58.686  -2.297  1.00  0.00     0.017 C 
ATOM     37  C   UNL     1     -43.351 -58.001  -3.604  1.00  0.00     0.012 C 
ATOM     38  C   UNL     1     -41.602 -58.143  -1.773  1.00  0.00     0.012 C 
ENDBRANCH   9  36
BRANCH   6  39
ATOM     39  C   UNL     1     -46.993 -58.480   1.921  1.00  0.00     0.264 C 
ATOM     40  O   UNL     1     -47.595 -57.390   2.110  1.00  0.00    -0.298 OA
ENDBRANCH   6  39
BRANCH   8  41
ATOM     41  O   UNL     1     -43.279 -56.451  -0.512  1.00  0.00    -0.504 OA
ATOM     42  H   UNL     1     -42.907 -55.926   0.270  1.00  0.00     0.293 HD
ENDBRANCH   8  41
BRANCH   7  43
ATOM     43  O   UNL     1     -45.097 -56.412   1.536  1.00  0.00    -0.504 OA
ATOM     44  H   UNL     1     -44.395 -56.218   2.239  1.00  0.00     0.293 HD
ENDBRANCH   7  43
TORSDOF 11
ENDMDL
MODEL 5
REMARK VINA RESULT:    -4.731      2.407      4.012
REMARK INTER + INTRA:          -8.429
REMARK INTER:                  -7.987
REMARK INTRA:                  -0.442
REMARK UNBOUND:                -1.485
REMARK SMILES Cc1cc2c(C(C)C)c(O)c(O)c(C=O)c2c(O)c1-c1c(C)cc2c(C(C)C)c(O)c(O)c(C=O)c2c1O
REMARK SMILES IDX 1 1 2 2 3 3 4 4 16 5 13 6 11 7 9 8 5 9 17 10 19 11 20 12
REMARK SMILES IDX 37 13 21 14 36 15 23 16 22 17 24 18 33 19 25 20 31 21 29 22
REMARK SMILES IDX 38 23 34 25 35 26 26 27 27 28 28 29 32 30 30 32 18 34 6 36
REMARK SMILES IDX 7 37 8 38 14 39 15 40 10 41 12 43
REMARK H PARENT 38 24 32 31 30 33 18 35 10 42 12 44
REMARK Flexibility Score: inf
ROOT
ATOM      1  C   UNL     1     -45.155 -61.008  -3.133  1.00  0.00     0.045 C 
ATOM      2  C   UNL     1     -45.182 -60.057  -1.961  1.00  0.00    -0.039 A 
ATOM      3  C   UNL     1     -44.076 -59.241  -1.712  1.00  0.00     0.013 A 
ATOM      4  C   UNL     1     -44.050 -58.339  -0.626  1.00  0.00    -0.006 A 
ATOM      5  C   UNL     1     -45.246 -58.142   0.125  1.00  0.00     0.039 A 
ATOM      6  C   UNL     1     -45.313 -57.054   1.044  1.00  0.00     0.072 A 
ATOM      7  C   UNL     1     -44.174 -56.251   1.265  1.00  0.00     0.169 A 
ATOM      8  C   UNL     1     -42.970 -56.530   0.608  1.00  0.00     0.162 A 
ATOM      9  C   UNL     1     -42.867 -57.615  -0.290  1.00  0.00     0.008 A 
ATOM     10  C   UNL     1     -46.325 -59.057  -0.053  1.00  0.00     0.132 A 
ATOM     11  C   UNL     1     -46.290 -60.005  -1.098  1.00  0.00     0.031 A 
ENDROOT
BRANCH  11  12
ATOM     12  C   UNL     1     -47.423 -60.946  -1.296  1.00  0.00     0.031 A 
ATOM     13  C   UNL     1     -47.314 -62.288  -0.877  1.00  0.00     0.132 A 
ATOM     14  C   UNL     1     -48.593 -60.500  -1.932  1.00  0.00    -0.039 A 
ATOM     15  C   UNL     1     -48.426 -63.176  -0.997  1.00  0.00     0.039 A 
ATOM     16  C   UNL     1     -49.659 -61.383  -2.111  1.00  0.00     0.013 A 
ATOM     17  C   UNL     1     -48.718 -59.079  -2.428  1.00  0.00     0.045 C 
ATOM     18  C   UNL     1     -49.619 -62.709  -1.627  1.00  0.00    -0.006 A 
ATOM     19  C   UNL     1     -48.370 -64.527  -0.544  1.00  0.00     0.072 A 
ATOM     20  C   UNL     1     -50.730 -63.591  -1.801  1.00  0.00     0.008 A 
ATOM     21  C   UNL     1     -49.404 -65.421  -0.877  1.00  0.00     0.169 A 
ATOM     22  C   UNL     1     -50.538 -64.970  -1.575  1.00  0.00     0.162 A 
BRANCH  13  23
ATOM     23  O   UNL     1     -46.090 -62.751  -0.383  1.00  0.00    -0.507 OA
ATOM     24  H   UNL     1     -45.988 -63.270   0.480  1.00  0.00     0.293 HD
ENDBRANCH  13  23
BRANCH  19  25
ATOM     25  C   UNL     1     -47.294 -65.016   0.352  1.00  0.00     0.264 C 
ATOM     26  O   UNL     1     -46.389 -65.782  -0.075  1.00  0.00    -0.298 OA
ENDBRANCH  19  25
BRANCH  20  27
ATOM     27  C   UNL     1     -52.106 -63.081  -2.269  1.00  0.00     0.017 C 
ATOM     28  C   UNL     1     -53.050 -62.876  -1.079  1.00  0.00     0.012 C 
ATOM     29  C   UNL     1     -52.033 -61.820  -3.150  1.00  0.00     0.012 C 
ENDBRANCH  20  27
BRANCH  21  30
ATOM     30  O   UNL     1     -49.305 -66.752  -0.452  1.00  0.00    -0.504 OA
ATOM     31  H   UNL     1     -48.685 -67.435  -0.866  1.00  0.00     0.293 HD
ENDBRANCH  21  30
BRANCH  22  32
ATOM     32  O   UNL     1     -51.482 -65.879  -2.061  1.00  0.00    -0.504 OA
ATOM     33  H   UNL     1     -51.270 -66.618  -2.717  1.00  0.00     0.293 HD
ENDBRANCH  22  32
ENDBRANCH  11  12
BRANCH  10  34
ATOM     34  O   UNL     1     -47.407 -59.051   0.834  1.00  0.00    -0.507 OA
ATOM     35  H   UNL     1     -48.321 -59.424   0.612  1.00  0.00     0.293 HD
ENDBRANCH  10  34
BRANCH   9  36
ATOM     36  C   UNL     1     -41.494 -57.995  -0.873  1.00  0.00     0.017 C 
ATOM     37  C   UNL     1     -41.008 -59.332  -0.306  1.00  0.00     0.012 C 
ATOM     38  C   UNL     1     -41.457 -57.992  -2.412  1.00  0.00     0.012 C 
ENDBRANCH   9  36
BRANCH   6  39
ATOM     39  C   UNL     1     -46.576 -56.649   1.696  1.00  0.00     0.264 C 
ATOM     40  O   UNL     1     -47.147 -55.574   1.372  1.00  0.00    -0.298 OA
ENDBRANCH   6  39
BRANCH   8  41
ATOM     41  O   UNL     1     -41.866 -55.703   0.831  1.00  0.00    -0.504 OA
ATOM     42  H   UNL     1     -40.959 -55.868   0.410  1.00  0.00     0.293 HD
ENDBRANCH   8  41
BRANCH   7  43
ATOM     43  O   UNL     1     -44.215 -55.147   2.125  1.00  0.00    -0.504 OA
ATOM     44  H   UNL     1     -44.839 -54.359   2.009  1.00  0.00     0.293 HD
ENDBRANCH   7  43
TORSDOF 11
ENDMDL
MODEL 6
REMARK VINA RESULT:    -4.722      2.155      3.492
REMARK INTER + INTRA:          -8.415
REMARK INTER:                  -7.634
REMARK INTRA:                  -0.781
REMARK UNBOUND:                -1.485
REMARK SMILES Cc1cc2c(C(C)C)c(O)c(O)c(C=O)c2c(O)c1-c1c(C)cc2c(C(C)C)c(O)c(O)c(C=O)c2c1O
REMARK SMILES IDX 1 1 2 2 3 3 4 4 16 5 13 6 11 7 9 8 5 9 17 10 19 11 20 12
REMARK SMILES IDX 37 13 21 14 36 15 23 16 22 17 24 18 33 19 25 20 31 21 29 22
REMARK SMILES IDX 38 23 34 25 35 26 26 27 27 28 28 29 32 30 30 32 18 34 6 36
REMARK SMILES IDX 7 37 8 38 14 39 15 40 10 41 12 43
REMARK H PARENT 38 24 32 31 30 33 18 35 10 42 12 44
REMARK Flexibility Score: inf
ROOT
ATOM      1  C   UNL     1     -46.564 -62.103  -3.379  1.00  0.00     0.045 C 
ATOM      2  C   UNL     1     -46.325 -61.129  -2.250  1.00  0.00    -0.039 A 
ATOM      3  C   UNL     1     -45.319 -60.168  -2.372  1.00  0.00     0.013 A 
ATOM      4  C   UNL     1     -45.053 -59.239  -1.343  1.00  0.00    -0.006 A 
ATOM      5  C   UNL     1     -45.944 -59.178  -0.232  1.00  0.00     0.039 A 
ATOM      6  C   UNL     1     -45.845 -58.082   0.674  1.00  0.00     0.072 A 
ATOM      7  C   UNL     1     -44.817 -57.130   0.514  1.00  0.00     0.169 A 
ATOM      8  C   UNL     1     -43.875 -57.268  -0.513  1.00  0.00     0.162 A 
ATOM      9  C   UNL     1     -43.933 -58.356  -1.411  1.00  0.00     0.008 A 
ATOM     10  C   UNL     1     -46.888 -60.231  -0.054  1.00  0.00     0.132 A 
ATOM     11  C   UNL     1     -47.078 -61.197  -1.066  1.00  0.00     0.031 A 
ENDROOT
BRANCH  11  12
ATOM     12  C   UNL     1     -48.076 -62.284  -0.888  1.00  0.00     0.031 A 
ATOM     13  C   UNL     1     -47.676 -63.542  -0.388  1.00  0.00     0.132 A 
ATOM     14  C   UNL     1     -49.414 -62.064  -1.249  1.00  0.00    -0.039 A 
ATOM     15  C   UNL     1     -48.643 -64.564  -0.146  1.00  0.00     0.039 A 
ATOM     16  C   UNL     1     -50.352 -63.083  -1.075  1.00  0.00     0.013 A 
ATOM     17  C   UNL     1     -49.859 -60.741  -1.824  1.00  0.00     0.045 C 
ATOM     18  C   UNL     1     -50.006 -64.325  -0.498  1.00  0.00    -0.006 A 
ATOM     19  C   UNL     1     -48.285 -65.832   0.400  1.00  0.00     0.072 A 
ATOM     20  C   UNL     1     -50.985 -65.348  -0.308  1.00  0.00     0.008 A 
ATOM     21  C   UNL     1     -49.226 -66.878   0.418  1.00  0.00     0.169 A 
ATOM     22  C   UNL     1     -50.545 -66.656  -0.013  1.00  0.00     0.162 A 
BRANCH  13  23
ATOM     23  O   UNL     1     -46.316 -63.790  -0.176  1.00  0.00    -0.507 OA
ATOM     24  H   UNL     1     -45.726 -63.227   0.424  1.00  0.00     0.293 HD
ENDBRANCH  13  23
BRANCH  19  25
ATOM     25  C   UNL     1     -46.969 -66.075   1.038  1.00  0.00     0.264 C 
ATOM     26  O   UNL     1     -46.084 -66.767   0.468  1.00  0.00    -0.298 OA
ENDBRANCH  19  25
BRANCH  20  27
ATOM     27  C   UNL     1     -52.492 -65.068  -0.462  1.00  0.00     0.017 C 
ATOM     28  C   UNL     1     -53.071 -65.823  -1.664  1.00  0.00     0.012 C 
ATOM     29  C   UNL     1     -53.307 -65.340   0.816  1.00  0.00     0.012 C 
ENDBRANCH  20  27
BRANCH  21  30
ATOM     30  O   UNL     1     -48.837 -68.125   0.924  1.00  0.00    -0.504 OA
ATOM     31  H   UNL     1     -49.428 -68.715   1.493  1.00  0.00     0.293 HD
ENDBRANCH  21  30
BRANCH  22  32
ATOM     32  O   UNL     1     -51.434 -67.724  -0.163  1.00  0.00    -0.504 OA
ATOM     33  H   UNL     1     -51.992 -68.105   0.588  1.00  0.00     0.293 HD
ENDBRANCH  22  32
ENDBRANCH  11  12
BRANCH  10  34
ATOM     34  O   UNL     1     -47.603 -60.341   1.145  1.00  0.00    -0.507 OA
ATOM     35  H   UNL     1     -48.024 -59.555   1.624  1.00  0.00     0.293 HD
ENDBRANCH  10  34
BRANCH   9  36
ATOM     36  C   UNL     1     -42.797 -58.570  -2.426  1.00  0.00     0.017 C 
ATOM     37  C   UNL     1     -43.161 -57.983  -3.792  1.00  0.00     0.012 C 
ATOM     38  C   UNL     1     -41.432 -58.052  -1.938  1.00  0.00     0.012 C 
ENDBRANCH   9  36
BRANCH   6  39
ATOM     39  C   UNL     1     -46.861 -57.827   1.717  1.00  0.00     0.264 C 
ATOM     40  O   UNL     1     -47.351 -56.676   1.866  1.00  0.00    -0.298 OA
ENDBRANCH   6  39
BRANCH   8  41
ATOM     41  O   UNL     1     -42.881 -56.297  -0.659  1.00  0.00    -0.504 OA
ATOM     42  H   UNL     1     -42.484 -55.792   0.124  1.00  0.00     0.293 HD
ENDBRANCH   8  41
BRANCH   7  43
ATOM     43  O   UNL     1     -44.715 -56.015   1.355  1.00  0.00    -0.504 OA
ATOM     44  H   UNL     1     -44.808 -55.057   1.042  1.00  0.00     0.293 HD
ENDBRANCH   7  43
TORSDOF 11
ENDMDL
MODEL 7
REMARK VINA RESULT:    -4.681      2.116      9.487
REMARK INTER + INTRA:          -8.356
REMARK INTER:                  -7.426
REMARK INTRA:                  -0.930
REMARK UNBOUND:                -1.485
REMARK SMILES Cc1cc2c(C(C)C)c(O)c(O)c(C=O)c2c(O)c1-c1c(C)cc2c(C(C)C)c(O)c(O)c(C=O)c2c1O
REMARK SMILES IDX 1 1 2 2 3 3 4 4 16 5 13 6 11 7 9 8 5 9 17 10 19 11 20 12
REMARK SMILES IDX 37 13 21 14 36 15 23 16 22 17 24 18 33 19 25 20 31 21 29 22
REMARK SMILES IDX 38 23 34 25 35 26 26 27 27 28 28 29 32 30 30 32 18 34 6 36
REMARK SMILES IDX 7 37 8 38 14 39 15 40 10 41 12 43
REMARK H PARENT 38 24 32 31 30 33 18 35 10 42 12 44
REMARK Flexibility Score: inf
ROOT
ATOM      1  C   UNL     1     -49.512 -59.939  -2.258  1.00  0.00     0.045 C 
ATOM      2  C   UNL     1     -49.402 -61.175  -1.397  1.00  0.00    -0.039 A 
ATOM      3  C   UNL     1     -50.536 -61.956  -1.168  1.00  0.00     0.013 A 
ATOM      4  C   UNL     1     -50.487 -63.118  -0.366  1.00  0.00    -0.006 A 
ATOM      5  C   UNL     1     -49.216 -63.587   0.076  1.00  0.00     0.039 A 
ATOM      6  C   UNL     1     -49.123 -64.886   0.655  1.00  0.00     0.072 A 
ATOM      7  C   UNL     1     -50.292 -65.646   0.866  1.00  0.00     0.169 A 
ATOM      8  C   UNL     1     -51.548 -65.123   0.535  1.00  0.00     0.162 A 
ATOM      9  C   UNL     1     -51.674 -63.830  -0.017  1.00  0.00     0.008 A 
ATOM     10  C   UNL     1     -48.086 -62.728  -0.055  1.00  0.00     0.132 A 
ATOM     11  C   UNL     1     -48.183 -61.530  -0.795  1.00  0.00     0.031 A 
ENDROOT
BRANCH  11  12
ATOM     12  C   UNL     1     -47.000 -60.644  -0.948  1.00  0.00     0.031 A 
ATOM     13  C   UNL     1     -46.804 -59.560  -0.066  1.00  0.00     0.132 A 
ATOM     14  C   UNL     1     -46.092 -60.871  -1.995  1.00  0.00    -0.039 A 
ATOM     15  C   UNL     1     -45.632 -58.751  -0.163  1.00  0.00     0.039 A 
ATOM     16  C   UNL     1     -44.978 -60.043  -2.133  1.00  0.00     0.013 A 
ATOM     17  C   UNL     1     -46.302 -61.999  -2.977  1.00  0.00     0.045 C 
ATOM     18  C   UNL     1     -44.703 -59.002  -1.218  1.00  0.00    -0.006 A 
ATOM     19  C   UNL     1     -45.376 -57.675   0.738  1.00  0.00     0.072 A 
ATOM     20  C   UNL     1     -43.545 -58.178  -1.364  1.00  0.00     0.008 A 
ATOM     21  C   UNL     1     -44.327 -56.776   0.474  1.00  0.00     0.169 A 
ATOM     22  C   UNL     1     -43.470 -56.983  -0.620  1.00  0.00     0.162 A 
BRANCH  13  23
ATOM     23  O   UNL     1     -47.796 -59.260   0.875  1.00  0.00    -0.507 OA
ATOM     24  H   UNL     1     -48.712 -58.902   0.635  1.00  0.00     0.293 HD
ENDBRANCH  13  23
BRANCH  19  25
ATOM     25  C   UNL     1     -46.127 -57.511   2.006  1.00  0.00     0.264 C 
ATOM     26  O   UNL     1     -47.043 -56.654   2.116  1.00  0.00    -0.298 OA
ENDBRANCH  19  25
BRANCH  20  27
ATOM     27  C   UNL     1     -42.410 -58.540  -2.340  1.00  0.00     0.017 C 
ATOM     28  C   UNL     1     -42.735 -58.068  -3.762  1.00  0.00     0.012 C 
ATOM     29  C   UNL     1     -41.023 -58.045  -1.890  1.00  0.00     0.012 C 
ENDBRANCH  20  27
BRANCH  21  30
ATOM     30  O   UNL     1     -44.122 -55.705   1.354  1.00  0.00    -0.504 OA
ATOM     31  H   UNL     1     -44.862 -55.243   1.866  1.00  0.00     0.293 HD
ENDBRANCH  21  30
BRANCH  22  32
ATOM     32  O   UNL     1     -42.540 -56.006  -0.989  1.00  0.00    -0.504 OA
ATOM     33  H   UNL     1     -42.767 -55.189  -1.538  1.00  0.00     0.293 HD
ENDBRANCH  22  32
ENDBRANCH  11  12
BRANCH  10  34
ATOM     34  O   UNL     1     -46.883 -63.044   0.587  1.00  0.00    -0.507 OA
ATOM     35  H   UNL     1     -45.973 -62.960   0.152  1.00  0.00     0.293 HD
ENDBRANCH  10  34
BRANCH   9  36
ATOM     36  C   UNL     1     -53.072 -63.219  -0.220  1.00  0.00     0.017 C 
ATOM     37  C   UNL     1     -54.007 -64.208  -0.923  1.00  0.00     0.012 C 
ATOM     38  C   UNL     1     -53.700 -62.678   1.076  1.00  0.00     0.012 C 
ENDBRANCH   9  36
BRANCH   6  39
ATOM     39  C   UNL     1     -47.823 -65.532   0.937  1.00  0.00     0.264 C 
ATOM     40  O   UNL     1     -47.436 -65.701   2.124  1.00  0.00    -0.298 OA
ENDBRANCH   6  39
BRANCH   8  41
ATOM     41  O   UNL     1     -52.686 -65.909   0.736  1.00  0.00    -0.504 OA
ATOM     42  H   UNL     1     -53.607 -65.516   0.890  1.00  0.00     0.293 HD
ENDBRANCH   8  41
BRANCH   7  43
ATOM     43  O   UNL     1     -50.236 -66.944   1.389  1.00  0.00    -0.504 OA
ATOM     44  H   UNL     1     -50.192 -67.783   0.824  1.00  0.00     0.293 HD
ENDBRANCH   7  43
TORSDOF 11
ENDMDL
MODEL 8
REMARK VINA RESULT:    -4.598      1.343      9.071
REMARK INTER + INTRA:          -8.234
REMARK INTER:                  -7.450
REMARK INTRA:                  -0.784
REMARK UNBOUND:                -1.485
REMARK SMILES Cc1cc2c(C(C)C)c(O)c(O)c(C=O)c2c(O)c1-c1c(C)cc2c(C(C)C)c(O)c(O)c(C=O)c2c1O
REMARK SMILES IDX 1 1 2 2 3 3 4 4 16 5 13 6 11 7 9 8 5 9 17 10 19 11 20 12
REMARK SMILES IDX 37 13 21 14 36 15 23 16 22 17 24 18 33 19 25 20 31 21 29 22
REMARK SMILES IDX 38 23 34 25 35 26 26 27 27 28 28 29 32 30 30 32 18 34 6 36
REMARK SMILES IDX 7 37 8 38 14 39 15 40 10 41 12 43
REMARK H PARENT 38 24 32 31 30 33 18 35 10 42 12 44
REMARK Flexibility Score: inf
ROOT
ATOM      1  C   UNL     1     -50.353 -60.588  -1.816  1.00  0.00     0.045 C 
ATOM      2  C   UNL     1     -50.135 -61.919  -1.137  1.00  0.00    -0.039 A 
ATOM      3  C   UNL     1     -51.146 -62.882  -1.171  1.00  0.00     0.013 A 
ATOM      4  C   UNL     1     -50.993 -64.140  -0.546  1.00  0.00    -0.006 A 
ATOM      5  C   UNL     1     -49.716 -64.488  -0.019  1.00  0.00     0.039 A 
ATOM      6  C   UNL     1     -49.474 -65.837   0.373  1.00  0.00     0.072 A 
ATOM      7  C   UNL     1     -50.521 -66.781   0.320  1.00  0.00     0.169 A 
ATOM      8  C   UNL     1     -51.804 -66.397  -0.089  1.00  0.00     0.162 A 
ATOM      9  C   UNL     1     -52.079 -65.062  -0.459  1.00  0.00     0.008 A 
ATOM     10  C   UNL     1     -48.732 -63.465   0.122  1.00  0.00     0.132 A 
ATOM     11  C   UNL     1     -48.944 -62.189  -0.442  1.00  0.00     0.031 A 
ENDROOT
BRANCH  11  12
ATOM     12  C   UNL     1     -47.910 -61.130  -0.313  1.00  0.00     0.031 A 
ATOM     13  C   UNL     1     -46.930 -60.966  -1.315  1.00  0.00     0.132 A 
ATOM     14  C   UNL     1     -47.893 -60.311   0.828  1.00  0.00    -0.039 A 
ATOM     15  C   UNL     1     -45.981 -59.903  -1.231  1.00  0.00     0.039 A 
ATOM     16  C   UNL     1     -46.926 -59.312   0.945  1.00  0.00     0.013 A 
ATOM     17  C   UNL     1     -48.906 -60.494   1.933  1.00  0.00     0.045 C 
ATOM     18  C   UNL     1     -45.983 -59.063  -0.077  1.00  0.00    -0.006 A 
ATOM     19  C   UNL     1     -45.004 -59.678  -2.245  1.00  0.00     0.072 A 
ATOM     20  C   UNL     1     -45.014 -58.020   0.053  1.00  0.00     0.008 A 
ATOM     21  C   UNL     1     -43.958 -58.763  -2.020  1.00  0.00     0.169 A 
ATOM     22  C   UNL     1     -43.921 -58.001  -0.839  1.00  0.00     0.162 A 
BRANCH  13  23
ATOM     23  O   UNL     1     -46.872 -61.886  -2.367  1.00  0.00    -0.507 OA
ATOM     24  H   UNL     1     -47.554 -61.933  -3.114  1.00  0.00     0.293 HD
ENDBRANCH  13  23
BRANCH  19  25
ATOM     25  C   UNL     1     -45.092 -60.312  -3.583  1.00  0.00     0.264 C 
ATOM     26  O   UNL     1     -44.449 -61.362  -3.851  1.00  0.00    -0.298 OA
ENDBRANCH  19  25
BRANCH  20  27
ATOM     27  C   UNL     1     -45.111 -56.955   1.161  1.00  0.00     0.017 C 
ATOM     28  C   UNL     1     -43.896 -57.020   2.094  1.00  0.00     0.012 C 
ATOM     29  C   UNL     1     -45.334 -55.527   0.631  1.00  0.00     0.012 C 
ENDBRANCH  20  27
BRANCH  21  30
ATOM     30  O   UNL     1     -42.990 -58.589  -3.017  1.00  0.00    -0.504 OA
ATOM     31  H   UNL     1     -43.159 -58.735  -4.003  1.00  0.00     0.293 HD
ENDBRANCH  21  30
BRANCH  22  32
ATOM     32  O   UNL     1     -42.801 -57.224  -0.529  1.00  0.00    -0.504 OA
ATOM     33  H   UNL     1     -42.073 -57.511   0.110  1.00  0.00     0.293 HD
ENDBRANCH  22  32
ENDBRANCH  11  12
BRANCH  10  34
ATOM     34  O   UNL     1     -47.567 -63.706   0.860  1.00  0.00    -0.507 OA
ATOM     35  H   UNL     1     -47.563 -63.973   1.836  1.00  0.00     0.293 HD
ENDBRANCH  10  34
BRANCH   9  36
ATOM     36  C   UNL     1     -53.528 -64.633  -0.748  1.00  0.00     0.017 C 
ATOM     37  C   UNL     1     -54.322 -65.775  -1.389  1.00  0.00     0.012 C 
ATOM     38  C   UNL     1     -54.257 -64.064   0.482  1.00  0.00     0.012 C 
ENDBRANCH   9  36
BRANCH   6  39
ATOM     39  C   UNL     1     -48.124 -66.327   0.721  1.00  0.00     0.264 C 
ATOM     40  O   UNL     1     -47.546 -67.180  -0.004  1.00  0.00    -0.298 OA
ENDBRANCH   6  39
BRANCH   8  41
ATOM     41  O   UNL     1     -52.815 -67.359  -0.151  1.00  0.00    -0.504 OA
ATOM     42  H   UNL     1     -53.442 -67.551   0.621  1.00  0.00     0.293 HD
ENDBRANCH   8  41
BRANCH   7  43
ATOM     43  O   UNL     1     -50.311 -68.125   0.652  1.00  0.00    -0.504 OA
ATOM     44  H   UNL     1     -49.398 -68.556   0.726  1.00  0.00     0.293 HD
ENDBRANCH   7  43
TORSDOF 11
ENDMDL
MODEL 9
REMARK VINA RESULT:    -4.350      1.789      3.054
REMARK INTER + INTRA:          -7.869
REMARK INTER:                  -7.046
REMARK INTRA:                  -0.823
REMARK UNBOUND:                -1.485
REMARK SMILES Cc1cc2c(C(C)C)c(O)c(O)c(C=O)c2c(O)c1-c1c(C)cc2c(C(C)C)c(O)c(O)c(C=O)c2c1O
REMARK SMILES IDX 1 1 2 2 3 3 4 4 16 5 13 6 11 7 9 8 5 9 17 10 19 11 20 12
REMARK SMILES IDX 37 13 21 14 36 15 23 16 22 17 24 18 33 19 25 20 31 21 29 22
REMARK SMILES IDX 38 23 34 25 35 26 26 27 27 28 28 29 32 30 30 32 18 34 6 36
REMARK SMILES IDX 7 37 8 38 14 39 15 40 10 41 12 43
REMARK H PARENT 38 24 32 31 30 33 18 35 10 42 12 44
REMARK Flexibility Score: inf
ROOT
ATOM      1  C   UNL     1     -47.109 -62.745   1.983  1.00  0.00     0.045 C 
ATOM      2  C   UNL     1     -46.838 -61.975   0.712  1.00  0.00    -0.039 A 
ATOM      3  C   UNL     1     -45.668 -61.222   0.600  1.00  0.00     0.013 A 
ATOM      4  C   UNL     1     -45.372 -60.481  -0.565  1.00  0.00    -0.006 A 
ATOM      5  C   UNL     1     -46.207 -60.646  -1.708  1.00  0.00     0.039 A 
ATOM      6  C   UNL     1     -45.777 -60.118  -2.961  1.00  0.00     0.072 A 
ATOM      7  C   UNL     1     -44.586 -59.366  -3.032  1.00  0.00     0.169 A 
ATOM      8  C   UNL     1     -43.836 -59.110  -1.878  1.00  0.00     0.162 A 
ATOM      9  C   UNL     1     -44.250 -59.600  -0.620  1.00  0.00     0.008 A 
ATOM     10  C   UNL     1     -47.457 -61.314  -1.552  1.00  0.00     0.132 A 
ATOM     11  C   UNL     1     -47.763 -61.980  -0.346  1.00  0.00     0.031 A 
ENDROOT
BRANCH  11  12
ATOM     12  C   UNL     1     -49.058 -62.692  -0.190  1.00  0.00     0.031 A 
ATOM     13  C   UNL     1     -50.132 -62.076   0.487  1.00  0.00     0.132 A 
ATOM     14  C   UNL     1     -49.199 -63.996  -0.692  1.00  0.00    -0.039 A 
ATOM     15  C   UNL     1     -51.400 -62.726   0.574  1.00  0.00     0.039 A 
ATOM     16  C   UNL     1     -50.417 -64.661  -0.551  1.00  0.00     0.013 A 
ATOM     17  C   UNL     1     -48.051 -64.693  -1.383  1.00  0.00     0.045 C 
ATOM     18  C   UNL     1     -51.540 -64.044   0.044  1.00  0.00    -0.006 A 
ATOM     19  C   UNL     1     -52.522 -62.117   1.210  1.00  0.00     0.072 A 
ATOM     20  C   UNL     1     -52.786 -64.734   0.159  1.00  0.00     0.008 A 
ATOM     21  C   UNL     1     -53.680 -62.875   1.464  1.00  0.00     0.169 A 
ATOM     22  C   UNL     1     -53.775 -64.203   1.013  1.00  0.00     0.162 A 
BRANCH  13  23
ATOM     23  O   UNL     1     -49.926 -60.840   1.109  1.00  0.00    -0.507 OA
ATOM     24  H   UNL     1     -49.940 -60.703   2.112  1.00  0.00     0.293 HD
ENDBRANCH  13  23
BRANCH  19  25
ATOM     25  C   UNL     1     -52.554 -60.672   1.543  1.00  0.00     0.264 C 
ATOM     26  O   UNL     1     -53.622 -60.008   1.467  1.00  0.00    -0.298 OA
ENDBRANCH  19  25
BRANCH  20  27
ATOM     27  C   UNL     1     -53.053 -66.056  -0.585  1.00  0.00     0.017 C 
ATOM     28  C   UNL     1     -52.838 -67.260   0.340  1.00  0.00     0.012 C 
ATOM     29  C   UNL     1     -54.431 -66.115  -1.270  1.00  0.00     0.012 C 
ENDBRANCH  20  27
BRANCH  21  30
ATOM     30  O   UNL     1     -54.753 -62.263   2.125  1.00  0.00    -0.504 OA
ATOM     31  H   UNL     1     -55.499 -62.769   2.583  1.00  0.00     0.293 HD
ENDBRANCH  21  30
BRANCH  22  32
ATOM     32  O   UNL     1     -54.842 -65.014   1.409  1.00  0.00    -0.504 OA
ATOM     33  H   UNL     1     -54.937 -65.411   2.333  1.00  0.00     0.293 HD
ENDBRANCH  22  32
ENDBRANCH  11  12
BRANCH  10  34
ATOM     34  O   UNL     1     -48.408 -61.277  -2.578  1.00  0.00    -0.507 OA
ATOM     35  H   UNL     1     -48.278 -61.711  -3.484  1.00  0.00     0.293 HD
ENDBRANCH  10  34
BRANCH   9  36
ATOM     36  C   UNL     1     -43.498 -59.171   0.652  1.00  0.00     0.017 C 
ATOM     37  C   UNL     1     -44.443 -58.491   1.646  1.00  0.00     0.012 C 
ATOM     38  C   UNL     1     -42.711 -60.314   1.317  1.00  0.00     0.012 C 
ENDBRANCH   9  36
BRANCH   6  39
ATOM     39  C   UNL     1     -46.469 -60.431  -4.228  1.00  0.00     0.264 C 
ATOM     40  O   UNL     1     -46.887 -59.506  -4.974  1.00  0.00    -0.298 OA
ENDBRANCH   6  39
BRANCH   8  41
ATOM     41  O   UNL     1     -42.649 -58.380  -1.985  1.00  0.00    -0.504 OA
ATOM     42  H   UNL     1     -42.350 -57.709  -1.288  1.00  0.00     0.293 HD
ENDBRANCH   8  41
BRANCH   7  43
ATOM     43  O   UNL     1     -44.107 -58.870  -4.251  1.00  0.00    -0.504 OA
ATOM     44  H   UNL     1     -43.200 -58.436  -4.371  1.00  0.00     0.293 HD
ENDBRANCH   7  43
TORSDOF 11
ENDMDL
