MODEL 1
REMARK VINA RESULT:    -4.204      0.000      0.000
REMARK INTER + INTRA:          -4.608
REMARK INTER:                  -4.573
REMARK INTRA:                  -0.035
REMARK UNBOUND:                -0.035
REMARK SMILES O=C([O-])c1ccc(O)cc1
REMARK SMILES IDX 4 1 5 2 10 3 6 4 9 5 7 6 2 7 1 8 3 9 8 10
REMARK H PARENT 8 11
REMARK Flexibility Score: inf
ROOT
ATOM      1  C   UNL     1     -30.844 -19.141 -30.955  1.00  0.00    -0.003 A 
ATOM      2  C   UNL     1     -29.576 -19.075 -30.350  1.00  0.00     0.014 A 
ATOM      3  C   UNL     1     -30.933 -19.115 -32.358  1.00  0.00     0.014 A 
ATOM      4  C   UNL     1     -28.422 -18.988 -31.134  1.00  0.00     0.047 A 
ATOM      5  C   UNL     1     -29.776 -19.027 -33.139  1.00  0.00     0.047 A 
ATOM      6  C   UNL     1     -28.519 -18.962 -32.532  1.00  0.00     0.115 A 
ENDROOT
BRANCH   1   7
ATOM      7  C   UNL     1     -32.070 -19.235 -30.132  1.00  0.00     0.071 C 
ATOM      8  O   UNL     1     -32.011 -19.640 -28.940  1.00  0.00    -0.545 OA
ATOM      9  O   UNL     1     -33.304 -18.876 -30.662  1.00  0.00    -0.545 OA
ENDBRANCH   1   7
BRANCH   6  10
ATOM     10  O   UNL     1     -27.375 -18.875 -33.322  1.00  0.00    -0.508 OA
ATOM     11  H   UNL     1     -27.390 -19.123 -34.305  1.00  0.00     0.293 HD
ENDBRANCH   6  10
TORSDOF 2
ENDMDL
MODEL 2
REMARK VINA RESULT:    -4.171      0.211      1.848
REMARK INTER + INTRA:          -4.571
REMARK INTER:                  -4.535
REMARK INTRA:                  -0.036
REMARK UNBOUND:                -0.035
REMARK SMILES O=C([O-])c1ccc(O)cc1
REMARK SMILES IDX 4 1 5 2 10 3 6 4 9 5 7 6 2 7 1 8 3 9 8 10
REMARK H PARENT 8 11
REMARK Flexibility Score: inf
ROOT
ATOM      1  C   UNL     1     -30.921 -19.046 -31.148  1.00  0.00    -0.003 A 
ATOM      2  C   UNL     1     -30.960 -18.935 -32.549  1.00  0.00     0.014 A 
ATOM      3  C   UNL     1     -29.673 -19.101 -30.502  1.00  0.00     0.014 A 
ATOM      4  C   UNL     1     -29.774 -18.877 -33.287  1.00  0.00     0.047 A 
ATOM      5  C   UNL     1     -28.489 -19.044 -31.244  1.00  0.00     0.047 A 
ATOM      6  C   UNL     1     -28.534 -18.932 -32.636  1.00  0.00     0.115 A 
ENDROOT
BRANCH   1   7
ATOM      7  C   UNL     1     -32.172 -19.107 -30.360  1.00  0.00     0.071 C 
ATOM      8  O   UNL     1     -33.285 -18.882 -30.907  1.00  0.00    -0.545 OA
ATOM      9  O   UNL     1     -32.138 -19.414 -29.004  1.00  0.00    -0.545 OA
ENDBRANCH   1   7
BRANCH   6  10
ATOM     10  O   UNL     1     -27.347 -18.876 -33.362  1.00  0.00    -0.508 OA
ATOM     11  H   UNL     1     -26.931 -19.708 -33.763  1.00  0.00     0.293 HD
ENDBRANCH   6  10
TORSDOF 2
ENDMDL
MODEL 3
REMARK VINA RESULT:    -4.056      1.547      1.965
REMARK INTER + INTRA:          -4.446
REMARK INTER:                  -4.419
REMARK INTRA:                  -0.027
REMARK UNBOUND:                -0.035
REMARK SMILES O=C([O-])c1ccc(O)cc1
REMARK SMILES IDX 4 1 5 2 10 3 6 4 9 5 7 6 2 7 1 8 3 9 8 10
REMARK H PARENT 8 11
REMARK Flexibility Score: inf
ROOT
ATOM      1  C   UNL     1     -30.402 -20.345 -30.834  1.00  0.00    -0.003 A 
ATOM      2  C   UNL     1     -29.466 -19.295 -30.868  1.00  0.00     0.014 A 
ATOM      3  C   UNL     1     -30.776 -20.964 -32.040  1.00  0.00     0.014 A 
ATOM      4  C   UNL     1     -28.916 -18.877 -32.083  1.00  0.00     0.047 A 
ATOM      5  C   UNL     1     -30.224 -20.542 -33.253  1.00  0.00     0.047 A 
ATOM      6  C   UNL     1     -29.294 -19.499 -33.280  1.00  0.00     0.115 A 
ENDROOT
BRANCH   1   7
ATOM      7  C   UNL     1     -30.988 -20.793 -29.551  1.00  0.00     0.071 C 
ATOM      8  O   UNL     1     -31.987 -20.201 -29.062  1.00  0.00    -0.545 OA
ATOM      9  O   UNL     1     -30.445 -21.876 -28.869  1.00  0.00    -0.545 OA
ENDBRANCH   1   7
BRANCH   6  10
ATOM     10  O   UNL     1     -28.751 -19.090 -34.496  1.00  0.00    -0.508 OA
ATOM     11  H   UNL     1     -28.118 -19.683 -35.020  1.00  0.00     0.293 HD
ENDBRANCH   6  10
TORSDOF 2
ENDMDL
MODEL 4
REMARK VINA RESULT:    -3.988      2.651      3.697
REMARK INTER + INTRA:          -4.373
REMARK INTER:                  -4.337
REMARK INTRA:                  -0.036
REMARK UNBOUND:                -0.035
REMARK SMILES O=C([O-])c1ccc(O)cc1
REMARK SMILES IDX 4 1 5 2 10 3 6 4 9 5 7 6 2 7 1 8 3 9 8 10
REMARK H PARENT 8 11
REMARK Flexibility Score: inf
ROOT
ATOM      1  C   UNL     1     -30.457 -20.736 -32.804  1.00  0.00    -0.003 A 
ATOM      2  C   UNL     1     -31.117 -20.835 -31.565  1.00  0.00     0.014 A 
ATOM      3  C   UNL     1     -29.258 -20.007 -32.882  1.00  0.00     0.014 A 
ATOM      4  C   UNL     1     -30.584 -20.218 -30.429  1.00  0.00     0.047 A 
ATOM      5  C   UNL     1     -28.729 -19.391 -31.743  1.00  0.00     0.047 A 
ATOM      6  C   UNL     1     -29.389 -19.493 -30.515  1.00  0.00     0.115 A 
ENDROOT
BRANCH   1   7
ATOM      7  C   UNL     1     -31.015 -21.386 -34.010  1.00  0.00     0.071 C 
ATOM      8  O   UNL     1     -30.496 -21.189 -35.142  1.00  0.00    -0.545 OA
ATOM      9  O   UNL     1     -32.118 -22.227 -33.912  1.00  0.00    -0.545 OA
ENDBRANCH   1   7
BRANCH   6  10
ATOM     10  O   UNL     1     -28.850 -18.875 -29.389  1.00  0.00    -0.508 OA
ATOM     11  H   UNL     1     -27.866 -18.957 -29.159  1.00  0.00     0.293 HD
ENDBRANCH   6  10
TORSDOF 2
ENDMDL
MODEL 5
REMARK VINA RESULT:    -3.832      2.528      3.628
REMARK INTER + INTRA:          -4.203
REMARK INTER:                  -4.170
REMARK INTRA:                  -0.033
REMARK UNBOUND:                -0.035
REMARK SMILES O=C([O-])c1ccc(O)cc1
REMARK SMILES IDX 4 1 5 2 10 3 6 4 9 5 7 6 2 7 1 8 3 9 8 10
REMARK H PARENT 8 11
REMARK Flexibility Score: inf
ROOT
ATOM      1  C   UNL     1     -30.476 -20.530 -32.884  1.00  0.00    -0.003 A 
ATOM      2  C   UNL     1     -29.275 -19.800 -32.935  1.00  0.00     0.014 A 
ATOM      3  C   UNL     1     -31.120 -20.697 -31.645  1.00  0.00     0.014 A 
ATOM      4  C   UNL     1     -28.731 -19.249 -31.771  1.00  0.00     0.047 A 
ATOM      5  C   UNL     1     -30.573 -20.144 -30.483  1.00  0.00     0.047 A 
ATOM      6  C   UNL     1     -29.379 -19.420 -30.541  1.00  0.00     0.115 A 
ENDROOT
BRANCH   1   7
ATOM      7  C   UNL     1     -31.058 -21.115 -34.112  1.00  0.00     0.071 C 
ATOM      8  O   UNL     1     -30.312 -21.513 -35.047  1.00  0.00    -0.545 OA
ATOM      9  O   UNL     1     -32.436 -21.235 -34.251  1.00  0.00    -0.545 OA
ENDBRANCH   1   7
BRANCH   6  10
ATOM     10  O   UNL     1     -28.846 -18.875 -29.375  1.00  0.00    -0.508 OA
ATOM     11  H   UNL     1     -28.668 -19.445 -28.556  1.00  0.00     0.293 HD
ENDBRANCH   6  10
TORSDOF 2
ENDMDL
MODEL 6
REMARK VINA RESULT:    -3.758      2.052      4.237
REMARK INTER + INTRA:          -4.122
REMARK INTER:                  -4.095
REMARK INTRA:                  -0.027
REMARK UNBOUND:                -0.035
REMARK SMILES O=C([O-])c1ccc(O)cc1
REMARK SMILES IDX 4 1 5 2 10 3 6 4 9 5 7 6 2 7 1 8 3 9 8 10
REMARK H PARENT 8 11
REMARK Flexibility Score: inf
ROOT
ATOM      1  C   UNL     1     -30.992 -20.313 -31.993  1.00  0.00    -0.003 A 
ATOM      2  C   UNL     1     -30.665 -21.047 -30.838  1.00  0.00     0.014 A 
ATOM      3  C   UNL     1     -31.874 -19.223 -31.881  1.00  0.00     0.014 A 
ATOM      4  C   UNL     1     -31.208 -20.695 -29.599  1.00  0.00     0.047 A 
ATOM      5  C   UNL     1     -32.415 -18.875 -30.639  1.00  0.00     0.047 A 
ATOM      6  C   UNL     1     -32.085 -19.608 -29.496  1.00  0.00     0.115 A 
ENDROOT
BRANCH   1   7
ATOM      7  C   UNL     1     -30.421 -20.678 -33.308  1.00  0.00     0.071 C 
ATOM      8  O   UNL     1     -29.261 -20.304 -33.629  1.00  0.00    -0.545 OA
ATOM      9  O   UNL     1     -31.156 -21.442 -34.208  1.00  0.00    -0.545 OA
ENDBRANCH   1   7
BRANCH   6  10
ATOM     10  O   UNL     1     -32.631 -19.250 -28.265  1.00  0.00    -0.508 OA
ATOM     11  H   UNL     1     -33.165 -18.396 -28.151  1.00  0.00     0.293 HD
ENDBRANCH   6  10
TORSDOF 2
ENDMDL
MODEL 7
REMARK VINA RESULT:    -3.675      3.267      4.159
REMARK INTER + INTRA:          -4.032
REMARK INTER:                  -3.997
REMARK INTRA:                  -0.035
REMARK UNBOUND:                -0.035
REMARK SMILES O=C([O-])c1ccc(O)cc1
REMARK SMILES IDX 4 1 5 2 10 3 6 4 9 5 7 6 2 7 1 8 3 9 8 10
REMARK H PARENT 8 11
REMARK Flexibility Score: inf
ROOT
ATOM      1  C   UNL     1     -30.916 -21.216 -33.829  1.00  0.00    -0.003 A 
ATOM      2  C   UNL     1     -31.334 -21.456 -32.508  1.00  0.00     0.014 A 
ATOM      3  C   UNL     1     -29.838 -20.342 -34.056  1.00  0.00     0.014 A 
ATOM      4  C   UNL     1     -30.685 -20.835 -31.437  1.00  0.00     0.047 A 
ATOM      5  C   UNL     1     -29.192 -19.722 -32.981  1.00  0.00     0.047 A 
ATOM      6  C   UNL     1     -29.612 -19.965 -31.671  1.00  0.00     0.115 A 
ENDROOT
BRANCH   1   7
ATOM      7  C   UNL     1     -31.597 -21.871 -34.968  1.00  0.00     0.071 C 
ATOM      8  O   UNL     1     -32.753 -22.355 -34.830  1.00  0.00    -0.545 OA
ATOM      9  O   UNL     1     -30.972 -21.960 -36.207  1.00  0.00    -0.545 OA
ENDBRANCH   1   7
BRANCH   6  10
ATOM     10  O   UNL     1     -28.959 -19.341 -30.610  1.00  0.00    -0.508 OA
ATOM     11  H   UNL     1     -28.264 -19.828 -30.056  1.00  0.00     0.293 HD
ENDBRANCH   6  10
TORSDOF 2
ENDMDL
MODEL 8
REMARK VINA RESULT:    -3.538      2.300      2.947
REMARK INTER + INTRA:          -3.883
REMARK INTER:                  -3.849
REMARK INTRA:                  -0.033
REMARK UNBOUND:                -0.035
REMARK SMILES O=C([O-])c1ccc(O)cc1
REMARK SMILES IDX 4 1 5 2 10 3 6 4 9 5 7 6 2 7 1 8 3 9 8 10
REMARK H PARENT 8 11
REMARK Flexibility Score: inf
ROOT
ATOM      1  C   UNL     1     -30.120 -19.764 -31.586  1.00  0.00    -0.003 A 
ATOM      2  C   UNL     1     -29.205 -19.491 -32.619  1.00  0.00     0.014 A 
ATOM      3  C   UNL     1     -31.201 -20.626 -31.842  1.00  0.00     0.014 A 
ATOM      4  C   UNL     1     -29.369 -20.071 -33.880  1.00  0.00     0.047 A 
ATOM      5  C   UNL     1     -31.361 -21.204 -33.106  1.00  0.00     0.047 A 
ATOM      6  C   UNL     1     -30.448 -20.929 -34.127  1.00  0.00     0.115 A 
ENDROOT
BRANCH   1   7
ATOM      7  C   UNL     1     -29.953 -19.154 -30.248  1.00  0.00     0.071 C 
ATOM      8  O   UNL     1     -30.958 -18.880 -29.539  1.00  0.00    -0.545 OA
ATOM      9  O   UNL     1     -28.683 -18.875 -29.754  1.00  0.00    -0.545 OA
ENDBRANCH   1   7
BRANCH   6  10
ATOM     10  O   UNL     1     -30.620 -21.512 -35.381  1.00  0.00    -0.508 OA
ATOM     11  H   UNL     1     -31.363 -21.219 -36.004  1.00  0.00     0.293 HD
ENDBRANCH   6  10
TORSDOF 2
ENDMDL
MODEL 9
REMARK VINA RESULT:    -3.208      5.169      6.251
REMARK INTER + INTRA:          -3.524
REMARK INTER:                  -3.494
REMARK INTRA:                  -0.030
REMARK UNBOUND:                -0.035
REMARK SMILES O=C([O-])c1ccc(O)cc1
REMARK SMILES IDX 4 1 5 2 10 3 6 4 9 5 7 6 2 7 1 8 3 9 8 10
REMARK H PARENT 8 11
REMARK Flexibility Score: inf
ROOT
ATOM      1  C   UNL     1     -31.844 -21.595 -35.120  1.00  0.00    -0.003 A 
ATOM      2  C   UNL     1     -31.254 -22.203 -36.242  1.00  0.00     0.014 A 
ATOM      3  C   UNL     1     -33.177 -21.155 -35.203  1.00  0.00     0.014 A 
ATOM      4  C   UNL     1     -31.985 -22.370 -37.422  1.00  0.00     0.047 A 
ATOM      5  C   UNL     1     -33.904 -21.323 -36.386  1.00  0.00     0.047 A 
ATOM      6  C   UNL     1     -33.313 -21.929 -37.497  1.00  0.00     0.115 A 
ENDROOT
BRANCH   1   7
ATOM      7  C   UNL     1     -31.076 -21.416 -33.867  1.00  0.00     0.071 C 
ATOM      8  O   UNL     1     -31.518 -21.865 -32.776  1.00  0.00    -0.545 OA
ATOM      9  O   UNL     1     -29.855 -20.750 -33.878  1.00  0.00    -0.545 OA
ENDBRANCH   1   7
BRANCH   6  10
ATOM     10  O   UNL     1     -34.050 -22.091 -38.668  1.00  0.00    -0.508 OA
ATOM     11  H   UNL     1     -34.904 -22.638 -38.686  1.00  0.00     0.293 HD
ENDBRANCH   6  10
TORSDOF 2
ENDMDL
