MODEL 1
REMARK VINA RESULT:    -4.944      0.000      0.000
REMARK INTER + INTRA:          -8.155
REMARK INTER:                  -7.545
REMARK INTRA:                  -0.611
REMARK UNBOUND:                -0.611
REMARK SMILES CC1=CCC[C@H](C)C(=O)C[C@H](C(C)C)C(=O)C1
REMARK SMILES IDX 8 1 9 2 6 3 7 4 5 5 4 6 3 7 2 8 1 9 10 11 11 12 15 13 16 14
REMARK SMILES IDX 17 15 12 17 13 18 14 19
REMARK H PARENT
REMARK Flexibility Score: 70.00
ROOT
ATOM      1  C   UNL     1     -12.933 -19.093  29.618  1.00  0.00     0.136 C 
ATOM      2  O   UNL     1     -13.878 -19.267  28.863  1.00  0.00    -0.299 OA
ENDROOT
BRANCH   1   3
ATOM      3  C   UNL     1     -13.090 -19.553  31.094  1.00  0.00     0.053 C 
ATOM      4  C   UNL     1     -11.752 -20.030  31.662  1.00  0.00     0.016 C 
BRANCH   3   5
ATOM      5  C   UNL     1     -13.640 -18.373  31.871  1.00  0.00     0.015 C 
BRANCH   5   6
ATOM      6  C   UNL     1     -13.400 -16.869  31.787  1.00  0.00     0.028 C 
BRANCH   6   7
ATOM      7  C   UNL     1     -12.240 -16.445  32.739  1.00  0.00    -0.028 C 
ATOM      8  C   UNL     1     -10.891 -16.255  32.441  1.00  0.00    -0.070 CG0
ATOM      9  C   UNL     1      -9.948 -15.894  33.553  1.00  0.00     0.039 C 
ATOM     10  G   UNL     1     -10.315 -16.359  31.030  1.00  0.00     0.000 G0
ENDBRANCH   6   7
ENDBRANCH   5   6
ENDBRANCH   3   5
ENDBRANCH   1   3
BRANCH   1  11
ATOM     11  C   UNL     1     -11.661 -18.401  29.047  1.00  0.00     0.087 C 
BRANCH  11  12
ATOM     12  C   UNL     1     -11.747 -16.827  28.860  1.00  0.00     0.066 C 
BRANCH  12  13
ATOM     13  C   UNL     1     -10.609 -16.022  29.575  1.00  0.00     0.140 C 
ATOM     14  O   UNL     1      -9.926 -15.205  28.973  1.00  0.00    -0.299 OA
BRANCH  13  15
ATOM     15  C   UNL     1     -10.297 -16.338  31.024  1.00  0.00     0.106 CG0
ATOM     16  G   UNL     1     -10.875 -16.260  32.435  1.00  0.00     0.000 G0
ENDBRANCH  13  15
ENDBRANCH  12  13
BRANCH  12  17
ATOM     17  C   UNL     1     -11.950 -16.424  27.366  1.00  0.00    -0.006 C 
ATOM     18  C   UNL     1     -11.230 -17.394  26.417  1.00  0.00     0.008 C 
ATOM     19  C   UNL     1     -13.424 -16.266  26.946  1.00  0.00     0.008 C 
ENDBRANCH  12  17
ENDBRANCH  11  12
ENDBRANCH   1  11
TORSDOF 1
ENDMDL
MODEL 2
REMARK VINA RESULT:    -4.856      2.057      4.520
REMARK INTER + INTRA:          -8.021
REMARK INTER:                  -7.576
REMARK INTRA:                  -0.445
REMARK UNBOUND:                -0.611
REMARK SMILES CC1=CCC[C@H](C)C(=O)C[C@H](C(C)C)C(=O)C1
REMARK SMILES IDX 8 1 9 2 6 3 7 4 5 5 4 6 3 7 2 8 1 9 10 11 11 12 15 13 16 14
REMARK SMILES IDX 17 15 12 17 13 18 14 19
REMARK H PARENT
REMARK Flexibility Score: 70.00
ROOT
ATOM      1  C   UNL     1     -12.110 -16.060  28.600  1.00  0.00     0.136 C 
ATOM      2  O   UNL     1     -10.897 -15.993  28.725  1.00  0.00    -0.299 OA
ENDROOT
BRANCH   1   3
ATOM      3  C   UNL     1     -12.675 -16.975  27.477  1.00  0.00     0.053 C 
ATOM      4  C   UNL     1     -11.740 -16.994  26.267  1.00  0.00     0.016 C 
BRANCH   3   5
ATOM      5  C   UNL     1     -12.845 -18.358  28.076  1.00  0.00     0.015 C 
BRANCH   5   6
ATOM      6  C   UNL     1     -13.993 -19.036  28.818  1.00  0.00     0.028 C 
BRANCH   6   7
ATOM      7  C   UNL     1     -13.442 -20.025  29.892  1.00  0.00    -0.028 C 
ATOM      8  C   UNL     1     -12.971 -19.747  31.174  1.00  0.00    -0.070 CG0
ATOM      9  C   UNL     1     -12.438 -20.875  32.010  1.00  0.00     0.039 C 
ATOM     10  G   UNL     1     -12.998 -18.353  31.800  1.00  0.00     0.000 G0
ENDBRANCH   6   7
ENDBRANCH   5   6
ENDBRANCH   3   5
ENDBRANCH   1   3
BRANCH   1  11
ATOM     11  C   UNL     1     -12.992 -15.206  29.558  1.00  0.00     0.087 C 
BRANCH  11  12
ATOM     12  C   UNL     1     -13.602 -15.967  30.810  1.00  0.00     0.066 C 
BRANCH  12  13
ATOM     13  C   UNL     1     -12.594 -16.904  31.558  1.00  0.00     0.140 C 
ATOM     14  O   UNL     1     -11.477 -16.522  31.875  1.00  0.00    -0.299 OA
BRANCH  13  15
ATOM     15  C   UNL     1     -12.992 -18.344  31.809  1.00  0.00     0.106 CG0
ATOM     16  G   UNL     1     -12.964 -19.739  31.187  1.00  0.00     0.000 G0
ENDBRANCH  13  15
ENDBRANCH  12  13
BRANCH  12  17
ATOM     17  C   UNL     1     -14.379 -15.004  31.761  1.00  0.00    -0.006 C 
ATOM     18  C   UNL     1     -15.209 -13.981  30.971  1.00  0.00     0.008 C 
ATOM     19  C   UNL     1     -15.263 -15.716  32.801  1.00  0.00     0.008 C 
ENDBRANCH  12  17
ENDBRANCH  11  12
ENDBRANCH   1  11
TORSDOF 1
ENDMDL
MODEL 3
REMARK VINA RESULT:    -4.849      1.874      2.574
REMARK INTER + INTRA:          -8.011
REMARK INTER:                  -7.531
REMARK INTRA:                  -0.480
REMARK UNBOUND:                -0.611
REMARK SMILES CC1=CCC[C@H](C)C(=O)C[C@H](C(C)C)C(=O)C1
REMARK SMILES IDX 8 1 9 2 6 3 7 4 5 5 4 6 3 7 2 8 1 9 10 11 11 12 15 13 16 14
REMARK SMILES IDX 17 15 12 17 13 18 14 19
REMARK H PARENT
REMARK Flexibility Score: 70.00
ROOT
ATOM      1  C   UNL     1     -11.445 -18.818  30.071  1.00  0.00     0.136 C 
ATOM      2  O   UNL     1     -10.242 -18.863  30.277  1.00  0.00    -0.299 OA
ENDROOT
BRANCH   1   3
ATOM      3  C   UNL     1     -12.398 -19.025  31.282  1.00  0.00     0.053 C 
ATOM      4  C   UNL     1     -12.494 -20.505  31.655  1.00  0.00     0.016 C 
BRANCH   3   5
ATOM      5  C   UNL     1     -11.847 -18.194  32.426  1.00  0.00     0.015 C 
BRANCH   5   6
ATOM      6  C   UNL     1     -11.658 -16.693  32.624  1.00  0.00     0.028 C 
BRANCH   6   7
ATOM      7  C   UNL     1     -13.039 -15.982  32.776  1.00  0.00    -0.028 C 
ATOM      8  C   UNL     1     -13.878 -15.486  31.779  1.00  0.00    -0.070 CG0
ATOM      9  C   UNL     1     -15.145 -14.788  32.182  1.00  0.00     0.039 C 
ATOM     10  G   UNL     1     -13.600 -15.641  30.286  1.00  0.00     0.000 G0
ENDBRANCH   6   7
ENDBRANCH   5   6
ENDBRANCH   3   5
ENDBRANCH   1   3
BRANCH   1  11
ATOM     11  C   UNL     1     -11.927 -18.581  28.609  1.00  0.00     0.087 C 
BRANCH  11  12
ATOM     12  C   UNL     1     -12.895 -17.343  28.385  1.00  0.00     0.066 C 
BRANCH  12  13
ATOM     13  C   UNL     1     -12.576 -16.096  29.278  1.00  0.00     0.140 C 
ATOM     14  O   UNL     1     -11.489 -15.537  29.233  1.00  0.00    -0.299 OA
BRANCH  13  15
ATOM     15  C   UNL     1     -13.615 -15.637  30.280  1.00  0.00     0.106 CG0
ATOM     16  G   UNL     1     -13.869 -15.470  31.777  1.00  0.00     0.000 G0
ENDBRANCH  13  15
ENDBRANCH  12  13
BRANCH  12  17
ATOM     17  C   UNL     1     -13.066 -16.999  26.873  1.00  0.00    -0.006 C 
ATOM     18  C   UNL     1     -13.797 -15.662  26.678  1.00  0.00     0.008 C 
ATOM     19  C   UNL     1     -11.752 -17.008  26.068  1.00  0.00     0.008 C 
ENDBRANCH  12  17
ENDBRANCH  11  12
ENDBRANCH   1  11
TORSDOF 1
ENDMDL
MODEL 4
REMARK VINA RESULT:    -4.601      1.856      4.560
REMARK INTER + INTRA:          -7.632
REMARK INTER:                  -7.415
REMARK INTRA:                  -0.217
REMARK UNBOUND:                -0.611
REMARK SMILES CC1=CCC[C@H](C)C(=O)C[C@H](C(C)C)C(=O)C1
REMARK SMILES IDX 8 1 9 2 6 3 7 4 5 5 4 6 3 7 2 8 1 9 10 11 11 12 15 13 16 14
REMARK SMILES IDX 17 15 12 17 13 18 14 19
REMARK H PARENT
REMARK Flexibility Score: 70.00
ROOT
ATOM      1  C   UNL     1     -11.957 -16.128  28.488  1.00  0.00     0.136 C 
ATOM      2  O   UNL     1     -12.493 -15.031  28.535  1.00  0.00    -0.299 OA
ENDROOT
BRANCH   1   3
ATOM      3  C   UNL     1     -12.308 -17.057  27.292  1.00  0.00     0.053 C 
ATOM      4  C   UNL     1     -11.125 -17.182  26.332  1.00  0.00     0.016 C 
BRANCH   3   5
ATOM      5  C   UNL     1     -12.701 -18.401  27.875  1.00  0.00     0.015 C 
BRANCH   5   6
ATOM      6  C   UNL     1     -13.862 -18.853  28.757  1.00  0.00     0.028 C 
BRANCH   6   7
ATOM      7  C   UNL     1     -13.368 -19.867  29.834  1.00  0.00    -0.028 C 
ATOM      8  C   UNL     1     -12.929 -19.615  31.133  1.00  0.00    -0.070 CG0
ATOM      9  C   UNL     1     -12.449 -20.765  31.971  1.00  0.00     0.039 C 
ATOM     10  G   UNL     1     -12.939 -18.228  31.773  1.00  0.00     0.000 G0
ENDBRANCH   6   7
ENDBRANCH   5   6
ENDBRANCH   3   5
ENDBRANCH   1   3
BRANCH   1  11
ATOM     11  C   UNL     1     -10.986 -16.516  29.642  1.00  0.00     0.087 C 
BRANCH  11  12
ATOM     12  C   UNL     1     -11.460 -16.138  31.109  1.00  0.00     0.066 C 
BRANCH  12  13
ATOM     13  C   UNL     1     -12.843 -16.743  31.524  1.00  0.00     0.140 C 
ATOM     14  O   UNL     1     -13.827 -16.037  31.695  1.00  0.00    -0.299 OA
BRANCH  13  15
ATOM     15  C   UNL     1     -12.930 -18.229  31.805  1.00  0.00     0.106 CG0
ATOM     16  G   UNL     1     -12.926 -19.597  31.124  1.00  0.00     0.000 G0
ENDBRANCH  13  15
ENDBRANCH  12  13
BRANCH  12  17
ATOM     17  C   UNL     1     -10.336 -16.371  32.166  1.00  0.00    -0.006 C 
ATOM     18  C   UNL     1     -10.709 -15.769  33.529  1.00  0.00     0.008 C 
ATOM     19  C   UNL     1      -9.918 -17.844  32.333  1.00  0.00     0.008 C 
ENDBRANCH  12  17
ENDBRANCH  11  12
ENDBRANCH   1  11
TORSDOF 1
ENDMDL
MODEL 5
REMARK VINA RESULT:    -4.591      2.116      3.781
REMARK INTER + INTRA:          -7.617
REMARK INTER:                  -7.558
REMARK INTRA:                  -0.059
REMARK UNBOUND:                -0.611
REMARK SMILES CC1=CCC[C@H](C)C(=O)C[C@H](C(C)C)C(=O)C1
REMARK SMILES IDX 8 1 9 2 6 3 7 4 5 5 4 6 3 7 2 8 1 9 10 11 11 12 15 13 16 14
REMARK SMILES IDX 17 15 12 17 13 18 14 19
REMARK H PARENT
REMARK Flexibility Score: 70.00
ROOT
ATOM      1  C   UNL     1     -12.914 -15.934  31.795  1.00  0.00     0.136 C 
ATOM      2  O   UNL     1     -13.533 -15.327  32.656  1.00  0.00    -0.299 OA
ENDROOT
BRANCH   1   3
ATOM      3  C   UNL     1     -11.566 -16.594  32.200  1.00  0.00     0.053 C 
ATOM      4  C   UNL     1     -11.020 -15.977  33.488  1.00  0.00     0.016 C 
BRANCH   3   5
ATOM      5  C   UNL     1     -11.829 -18.079  32.357  1.00  0.00     0.015 C 
BRANCH   5   6
ATOM      6  C   UNL     1     -11.354 -19.307  31.587  1.00  0.00     0.028 C 
BRANCH   6   7
ATOM      7  C   UNL     1     -12.481 -19.832  30.644  1.00  0.00    -0.028 C 
ATOM      8  C   UNL     1     -12.856 -19.362  29.387  1.00  0.00    -0.070 CG0
ATOM      9  C   UNL     1     -14.020 -20.007  28.690  1.00  0.00     0.039 C 
ATOM     10  G   UNL     1     -12.124 -18.240  28.652  1.00  0.00     0.000 G0
ENDBRANCH   6   7
ENDBRANCH   5   6
ENDBRANCH   3   5
ENDBRANCH   1   3
BRANCH   1  11
ATOM     11  C   UNL     1     -13.513 -15.975  30.359  1.00  0.00     0.087 C 
BRANCH  11  12
ATOM     12  C   UNL     1     -12.503 -15.671  29.173  1.00  0.00     0.066 C 
BRANCH  12  13
ATOM     13  C   UNL     1     -11.537 -16.853  28.820  1.00  0.00     0.140 C 
ATOM     14  O   UNL     1     -10.346 -16.669  28.617  1.00  0.00    -0.299 OA
BRANCH  13  15
ATOM     15  C   UNL     1     -12.123 -18.239  28.639  1.00  0.00     0.106 CG0
ATOM     16  G   UNL     1     -12.852 -19.356  29.384  1.00  0.00     0.000 G0
ENDBRANCH  13  15
ENDBRANCH  12  13
BRANCH  12  17
ATOM     17  C   UNL     1     -13.224 -15.064  27.929  1.00  0.00    -0.006 C 
ATOM     18  C   UNL     1     -13.712 -16.160  26.969  1.00  0.00     0.008 C 
ATOM     19  C   UNL     1     -14.379 -14.104  28.272  1.00  0.00     0.008 C 
ENDBRANCH  12  17
ENDBRANCH  11  12
ENDBRANCH   1  11
TORSDOF 1
ENDMDL
MODEL 6
REMARK VINA RESULT:    -4.332      2.435      4.719
REMARK INTER + INTRA:          -7.222
REMARK INTER:                  -6.693
REMARK INTRA:                  -0.529
REMARK UNBOUND:                -0.611
REMARK SMILES CC1=CCC[C@H](C)C(=O)C[C@H](C(C)C)C(=O)C1
REMARK SMILES IDX 8 1 9 2 6 3 7 4 5 5 4 6 3 7 2 8 1 9 10 11 11 12 15 13 16 14
REMARK SMILES IDX 17 15 12 17 13 18 14 19
REMARK H PARENT
REMARK Flexibility Score: 70.00
ROOT
ATOM      1  C   UNL     1     -12.206 -17.776  32.171  1.00  0.00     0.136 C 
ATOM      2  O   UNL     1     -11.362 -17.130  32.773  1.00  0.00    -0.299 OA
ENDROOT
BRANCH   1   3
ATOM      3  C   UNL     1     -11.792 -19.165  31.609  1.00  0.00     0.053 C 
ATOM      4  C   UNL     1     -13.000 -19.899  31.024  1.00  0.00     0.016 C 
BRANCH   3   5
ATOM      5  C   UNL     1     -10.725 -18.918  30.560  1.00  0.00     0.015 C 
BRANCH   5   6
ATOM      6  C   UNL     1     -10.397 -17.723  29.670  1.00  0.00     0.028 C 
BRANCH   6   7
ATOM      7  C   UNL     1     -11.419 -17.619  28.495  1.00  0.00    -0.028 C 
ATOM      8  C   UNL     1     -12.482 -16.730  28.341  1.00  0.00    -0.070 CG0
ATOM      9  C   UNL     1     -13.367 -16.863  27.134  1.00  0.00     0.039 C 
ATOM     10  G   UNL     1     -12.784 -15.596  29.318  1.00  0.00     0.000 G0
ENDBRANCH   6   7
ENDBRANCH   5   6
ENDBRANCH   3   5
ENDBRANCH   1   3
BRANCH   1  11
ATOM     11  C   UNL     1     -13.619 -17.145  31.994  1.00  0.00     0.087 C 
BRANCH  11  12
ATOM     12  C   UNL     1     -13.662 -15.569  31.815  1.00  0.00     0.066 C 
BRANCH  12  13
ATOM     13  C   UNL     1     -13.792 -15.085  30.331  1.00  0.00     0.140 C 
ATOM     14  O   UNL     1     -14.723 -14.380  29.966  1.00  0.00    -0.299 OA
BRANCH  13  15
ATOM     15  C   UNL     1     -12.784 -15.581  29.314  1.00  0.00     0.106 CG0
ATOM     16  G   UNL     1     -12.497 -16.730  28.350  1.00  0.00     0.000 G0
ENDBRANCH  13  15
ENDBRANCH  12  13
BRANCH  12  17
ATOM     17  C   UNL     1     -14.686 -14.897  32.781  1.00  0.00    -0.006 C 
ATOM     18  C   UNL     1     -15.844 -15.846  33.125  1.00  0.00     0.008 C 
ATOM     19  C   UNL     1     -14.064 -14.329  34.071  1.00  0.00     0.008 C 
ENDBRANCH  12  17
ENDBRANCH  11  12
ENDBRANCH   1  11
TORSDOF 1
ENDMDL
MODEL 7
REMARK VINA RESULT:    -4.147      2.248      4.595
REMARK INTER + INTRA:          -6.940
REMARK INTER:                  -6.686
REMARK INTRA:                  -0.255
REMARK UNBOUND:                -0.611
REMARK SMILES CC1=CCC[C@H](C)C(=O)C[C@H](C(C)C)C(=O)C1
REMARK SMILES IDX 8 1 9 2 6 3 7 4 5 5 4 6 3 7 2 8 1 9 10 11 11 12 15 13 16 14
REMARK SMILES IDX 17 15 12 17 13 18 14 19
REMARK H PARENT
REMARK Flexibility Score: 70.00
ROOT
ATOM      1  C   UNL     1     -12.889 -16.487  32.403  1.00  0.00     0.136 C 
ATOM      2  O   UNL     1     -12.132 -15.755  33.023  1.00  0.00    -0.299 OA
ENDROOT
BRANCH   1   3
ATOM      3  C   UNL     1     -14.216 -15.876  31.872  1.00  0.00     0.053 C 
ATOM      4  C   UNL     1     -14.733 -14.789  32.815  1.00  0.00     0.016 C 
BRANCH   3   5
ATOM      5  C   UNL     1     -13.929 -15.326  30.488  1.00  0.00     0.015 C 
BRANCH   5   6
ATOM      6  C   UNL     1     -12.636 -15.071  29.717  1.00  0.00     0.028 C 
BRANCH   6   7
ATOM      7  C   UNL     1     -12.751 -15.613  28.259  1.00  0.00    -0.028 C 
ATOM      8  C   UNL     1     -12.184 -16.761  27.709  1.00  0.00    -0.070 CG0
ATOM      9  C   UNL     1     -12.399 -17.046  26.250  1.00  0.00     0.039 C 
ATOM     10  G   UNL     1     -11.377 -17.776  28.517  1.00  0.00     0.000 G0
ENDBRANCH   6   7
ENDBRANCH   5   6
ENDBRANCH   3   5
ENDBRANCH   1   3
BRANCH   1  11
ATOM     11  C   UNL     1     -12.474 -17.976  32.216  1.00  0.00     0.087 C 
BRANCH  11  12
ATOM     12  C   UNL     1     -12.591 -18.553  30.742  1.00  0.00     0.066 C 
BRANCH  12  13
ATOM     13  C   UNL     1     -11.285 -18.425  29.886  1.00  0.00     0.140 C 
ATOM     14  O   UNL     1     -10.196 -18.766  30.324  1.00  0.00    -0.299 OA
BRANCH  13  15
ATOM     15  C   UNL     1     -11.375 -17.779  28.519  1.00  0.00     0.106 CG0
ATOM     16  G   UNL     1     -12.175 -16.763  27.705  1.00  0.00     0.000 G0
ENDBRANCH  13  15
ENDBRANCH  12  13
BRANCH  12  17
ATOM     17  C   UNL     1     -13.210 -19.985  30.721  1.00  0.00    -0.006 C 
ATOM     18  C   UNL     1     -13.321 -20.531  29.289  1.00  0.00     0.008 C 
ATOM     19  C   UNL     1     -12.487 -21.003  31.623  1.00  0.00     0.008 C 
ENDBRANCH  12  17
ENDBRANCH  11  12
ENDBRANCH   1  11
TORSDOF 1
ENDMDL
MODEL 8
REMARK VINA RESULT:    -4.132      1.560      3.529
REMARK INTER + INTRA:          -6.916
REMARK INTER:                  -7.425
REMARK INTRA:                   0.508
REMARK UNBOUND:                -0.611
REMARK SMILES CC1=CCC[C@H](C)C(=O)C[C@H](C(C)C)C(=O)C1
REMARK SMILES IDX 8 1 9 2 6 3 7 4 5 5 4 6 3 7 2 8 1 9 10 11 11 12 15 13 16 14
REMARK SMILES IDX 17 15 12 17 13 18 14 19
REMARK H PARENT
REMARK Flexibility Score: 70.00
ROOT
ATOM      1  C   UNL     1     -10.386 -16.385  29.938  1.00  0.00     0.136 C 
ATOM      2  O   UNL     1     -10.104 -15.244  29.605  1.00  0.00    -0.299 OA
ENDROOT
BRANCH   1   3
ATOM      3  C   UNL     1     -10.778 -16.631  31.422  1.00  0.00     0.053 C 
ATOM      4  C   UNL     1      -9.882 -15.827  32.365  1.00  0.00     0.016 C 
BRANCH   3   5
ATOM      5  C   UNL     1     -12.236 -16.241  31.567  1.00  0.00     0.015 C 
BRANCH   5   6
ATOM      6  C   UNL     1     -13.511 -17.048  31.795  1.00  0.00     0.028 C 
BRANCH   6   7
ATOM      7  C   UNL     1     -13.167 -18.516  32.194  1.00  0.00    -0.028 C 
ATOM      8  C   UNL     1     -12.700 -19.552  31.386  1.00  0.00    -0.070 CG0
ATOM      9  C   UNL     1     -12.489 -20.908  31.999  1.00  0.00     0.039 C 
ATOM     10  G   UNL     1     -12.353 -19.381  29.909  1.00  0.00     0.000 G0
ENDBRANCH   6   7
ENDBRANCH   5   6
ENDBRANCH   3   5
ENDBRANCH   1   3
BRANCH   1  11
ATOM     11  C   UNL     1     -10.306 -17.502  28.857  1.00  0.00     0.087 C 
BRANCH  11  12
ATOM     12  C   UNL     1     -11.611 -17.721  27.981  1.00  0.00     0.066 C 
BRANCH  12  13
ATOM     13  C   UNL     1     -12.715 -18.599  28.664  1.00  0.00     0.140 C 
ATOM     14  O   UNL     1     -13.870 -18.601  28.264  1.00  0.00    -0.299 OA
BRANCH  13  15
ATOM     15  C   UNL     1     -12.349 -19.390  29.904  1.00  0.00     0.106 CG0
ATOM     16  G   UNL     1     -12.691 -19.557  31.383  1.00  0.00     0.000 G0
ENDBRANCH  13  15
ENDBRANCH  12  13
BRANCH  12  17
ATOM     17  C   UNL     1     -12.156 -16.381  27.396  1.00  0.00    -0.006 C 
ATOM     18  C   UNL     1     -12.909 -16.607  26.076  1.00  0.00     0.008 C 
ATOM     19  C   UNL     1     -13.028 -15.570  28.373  1.00  0.00     0.008 C 
ENDBRANCH  12  17
ENDBRANCH  11  12
ENDBRANCH   1  11
TORSDOF 1
ENDMDL
MODEL 9
REMARK VINA RESULT:    -4.111      1.985      3.812
REMARK INTER + INTRA:          -6.885
REMARK INTER:                  -7.062
REMARK INTRA:                   0.176
REMARK UNBOUND:                -0.611
REMARK SMILES CC1=CCC[C@H](C)C(=O)C[C@H](C(C)C)C(=O)C1
REMARK SMILES IDX 8 1 9 2 6 3 7 4 5 5 4 6 3 7 2 8 1 9 10 11 11 12 15 13 16 14
REMARK SMILES IDX 17 15 12 17 13 18 14 19
REMARK H PARENT
REMARK Flexibility Score: 70.00
ROOT
ATOM      1  C   UNL     1     -12.570 -16.378  30.651  1.00  0.00     0.136 C 
ATOM      2  O   UNL     1     -13.402 -16.908  31.373  1.00  0.00    -0.299 OA
ENDROOT
BRANCH   1   3
ATOM      3  C   UNL     1     -11.250 -15.883  31.308  1.00  0.00     0.053 C 
ATOM      4  C   UNL     1     -11.291 -16.070  32.825  1.00  0.00     0.016 C 
BRANCH   3   5
ATOM      5  C   UNL     1     -10.118 -16.670  30.676  1.00  0.00     0.015 C 
BRANCH   5   6
ATOM      6  C   UNL     1     -10.006 -18.104  30.166  1.00  0.00     0.028 C 
BRANCH   6   7
ATOM      7  C   UNL     1     -10.750 -19.085  31.123  1.00  0.00    -0.028 C 
ATOM      8  C   UNL     1     -11.938 -19.783  30.906  1.00  0.00    -0.070 CG0
ATOM      9  C   UNL     1     -12.488 -20.637  32.012  1.00  0.00     0.039 C 
ATOM     10  G   UNL     1     -12.702 -19.758  29.583  1.00  0.00     0.000 G0
ENDBRANCH   6   7
ENDBRANCH   5   6
ENDBRANCH   3   5
ENDBRANCH   1   3
BRANCH   1  11
ATOM     11  C   UNL     1     -12.909 -16.219  29.140  1.00  0.00     0.087 C 
BRANCH  11  12
ATOM     12  C   UNL     1     -12.604 -17.477  28.221  1.00  0.00     0.066 C 
BRANCH  12  13
ATOM     13  C   UNL     1     -13.369 -18.782  28.628  1.00  0.00     0.140 C 
ATOM     14  O   UNL     1     -14.509 -19.003  28.245  1.00  0.00    -0.299 OA
BRANCH  13  15
ATOM     15  C   UNL     1     -12.701 -19.744  29.591  1.00  0.00     0.106 CG0
ATOM     16  G   UNL     1     -11.929 -19.804  30.907  1.00  0.00     0.000 G0
ENDBRANCH  13  15
ENDBRANCH  12  13
BRANCH  12  17
ATOM     17  C   UNL     1     -12.720 -17.136  26.703  1.00  0.00    -0.006 C 
ATOM     18  C   UNL     1     -13.613 -15.908  26.467  1.00  0.00     0.008 C 
ATOM     19  C   UNL     1     -11.368 -16.954  25.988  1.00  0.00     0.008 C 
ENDBRANCH  12  17
ENDBRANCH  11  12
ENDBRANCH   1  11
TORSDOF 1
ENDMDL
