MODEL 1
REMARK VINA RESULT:    -3.924      0.000      0.000
REMARK INTER + INTRA:          -5.636
REMARK INTER:                  -5.300
REMARK INTRA:                  -0.336
REMARK UNBOUND:                -0.336
REMARK SMILES CCCCCCCC(=O)[O-]
REMARK SMILES IDX 5 1 6 2 7 3 8 4 9 5 10 6 4 7 3 8 2 9 1 10
REMARK H PARENT
REMARK Flexibility Score: inf
ROOT
ATOM      1  C   UNL     1      44.709  -2.956  14.719  1.00  0.00     0.000 C 
ENDROOT
BRANCH   1   2
ATOM      2  C   UNL     1      44.334  -1.601  15.329  1.00  0.00     0.006 C 
BRANCH   2   3
ATOM      3  C   UNL     1      43.844  -0.629  14.252  1.00  0.00     0.053 C 
BRANCH   3   4
ATOM      4  C   UNL     1      44.776   0.536  14.135  1.00  0.00     0.041 C 
ATOM      5  O   UNL     1      46.021   0.355  14.134  1.00  0.00    -0.550 OA
ATOM      6  O   UNL     1      44.269   1.828  14.078  1.00  0.00    -0.550 OA
ENDBRANCH   3   4
ENDBRANCH   2   3
ENDBRANCH   1   2
BRANCH   1   7
ATOM      7  C   UNL     1      46.078  -3.430  15.232  1.00  0.00     0.000 C 
BRANCH   7   8
ATOM      8  C   UNL     1      46.765  -2.390  16.131  1.00  0.00    -0.000 C 
BRANCH   8   9
ATOM      9  C   UNL     1      48.201  -2.786  16.503  1.00  0.00    -0.003 C 
ATOM     10  C   UNL     1      48.232  -4.132  17.222  1.00  0.00     0.004 C 
ENDBRANCH   8   9
ENDBRANCH   7   8
ENDBRANCH   1   7
TORSDOF 6
ENDMDL
MODEL 2
REMARK VINA RESULT:    -3.900      8.708     10.045
REMARK INTER + INTRA:          -5.604
REMARK INTER:                  -5.349
REMARK INTRA:                  -0.254
REMARK UNBOUND:                -0.336
REMARK SMILES CCCCCCCC(=O)[O-]
REMARK SMILES IDX 5 1 6 2 7 3 8 4 9 5 10 6 4 7 3 8 2 9 1 10
REMARK H PARENT
REMARK Flexibility Score: inf
ROOT
ATOM      1  C   UNL     1      45.877   8.146  19.135  1.00  0.00     0.000 C 
ENDROOT
BRANCH   1   2
ATOM      2  C   UNL     1      46.569   7.016  18.363  1.00  0.00     0.006 C 
BRANCH   2   3
ATOM      3  C   UNL     1      46.779   7.401  16.896  1.00  0.00     0.053 C 
BRANCH   3   4
ATOM      4  C   UNL     1      46.992   6.178  16.059  1.00  0.00     0.041 C 
ATOM      5  O   UNL     1      46.390   6.050  14.961  1.00  0.00    -0.550 OA
ATOM      6  O   UNL     1      47.815   5.158  16.515  1.00  0.00    -0.550 OA
ENDBRANCH   3   4
ENDBRANCH   2   3
ENDBRANCH   1   2
BRANCH   1   7
ATOM      7  C   UNL     1      46.141   8.023  20.643  1.00  0.00     0.000 C 
BRANCH   7   8
ATOM      8  C   UNL     1      47.097   6.869  20.985  1.00  0.00    -0.000 C 
BRANCH   8   9
ATOM      9  C   UNL     1      47.890   7.122  22.275  1.00  0.00    -0.003 C 
ATOM     10  C   UNL     1      47.539   8.478  22.880  1.00  0.00     0.004 C 
ENDBRANCH   8   9
ENDBRANCH   7   8
ENDBRANCH   1   7
TORSDOF 6
ENDMDL
MODEL 3
REMARK VINA RESULT:    -3.804      9.197     10.788
REMARK INTER + INTRA:          -5.475
REMARK INTER:                  -5.198
REMARK INTRA:                  -0.277
REMARK UNBOUND:                -0.336
REMARK SMILES CCCCCCCC(=O)[O-]
REMARK SMILES IDX 5 1 6 2 7 3 8 4 9 5 10 6 4 7 3 8 2 9 1 10
REMARK H PARENT
REMARK Flexibility Score: inf
ROOT
ATOM      1  C   UNL     1      46.042   8.215  18.614  1.00  0.00     0.000 C 
ENDROOT
BRANCH   1   2
ATOM      2  C   UNL     1      46.134   8.214  20.145  1.00  0.00     0.006 C 
BRANCH   2   3
ATOM      3  C   UNL     1      46.883   6.978  20.649  1.00  0.00     0.053 C 
BRANCH   3   4
ATOM      4  C   UNL     1      47.537   7.263  21.965  1.00  0.00     0.041 C 
ATOM      5  O   UNL     1      48.245   6.384  22.524  1.00  0.00    -0.550 OA
ATOM      6  O   UNL     1      47.324   8.480  22.598  1.00  0.00    -0.550 OA
ENDBRANCH   3   4
ENDBRANCH   2   3
ENDBRANCH   1   2
BRANCH   1   7
ATOM      7  C   UNL     1      46.690   6.954  18.024  1.00  0.00     0.000 C 
BRANCH   7   8
ATOM      8  C   UNL     1      46.171   6.625  16.615  1.00  0.00    -0.000 C 
BRANCH   8   9
ATOM      9  C   UNL     1      44.780   7.216  16.345  1.00  0.00    -0.003 C 
ATOM     10  C   UNL     1      43.930   6.264  15.508  1.00  0.00     0.004 C 
ENDBRANCH   8   9
ENDBRANCH   7   8
ENDBRANCH   1   7
TORSDOF 6
ENDMDL
MODEL 4
REMARK VINA RESULT:    -3.800      8.471      9.770
REMARK INTER + INTRA:          -5.468
REMARK INTER:                  -5.181
REMARK INTRA:                  -0.288
REMARK UNBOUND:                -0.336
REMARK SMILES CCCCCCCC(=O)[O-]
REMARK SMILES IDX 5 1 6 2 7 3 8 4 9 5 10 6 4 7 3 8 2 9 1 10
REMARK H PARENT
REMARK Flexibility Score: inf
ROOT
ATOM      1  C   UNL     1      46.670   7.090  18.553  1.00  0.00     0.000 C 
ENDROOT
BRANCH   1   2
ATOM      2  C   UNL     1      46.764   7.541  17.091  1.00  0.00     0.006 C 
BRANCH   2   3
ATOM      3  C   UNL     1      46.070   6.541  16.162  1.00  0.00     0.053 C 
BRANCH   3   4
ATOM      4  C   UNL     1      44.632   6.912  15.974  1.00  0.00     0.041 C 
ATOM      5  O   UNL     1      43.815   6.070  15.516  1.00  0.00    -0.550 OA
ATOM      6  O   UNL     1      44.203   8.202  16.257  1.00  0.00    -0.550 OA
ENDBRANCH   3   4
ENDBRANCH   2   3
ENDBRANCH   1   2
BRANCH   1   7
ATOM      7  C   UNL     1      46.025   8.179  19.424  1.00  0.00     0.000 C 
BRANCH   7   8
ATOM      8  C   UNL     1      46.286   7.969  20.924  1.00  0.00    -0.000 C 
BRANCH   8   9
ATOM      9  C   UNL     1      47.308   6.856  21.197  1.00  0.00    -0.003 C 
ATOM     10  C   UNL     1      48.158   7.179  22.423  1.00  0.00     0.004 C 
ENDBRANCH   8   9
ENDBRANCH   7   8
ENDBRANCH   1   7
TORSDOF 6
ENDMDL
MODEL 5
REMARK VINA RESULT:    -3.782      9.099     10.720
REMARK INTER + INTRA:          -5.445
REMARK INTER:                  -5.219
REMARK INTRA:                  -0.227
REMARK UNBOUND:                -0.336
REMARK SMILES CCCCCCCC(=O)[O-]
REMARK SMILES IDX 5 1 6 2 7 3 8 4 9 5 10 6 4 7 3 8 2 9 1 10
REMARK H PARENT
REMARK Flexibility Score: inf
ROOT
ATOM      1  C   UNL     1      45.972   8.181  19.000  1.00  0.00     0.000 C 
ENDROOT
BRANCH   1   2
ATOM      2  C   UNL     1      46.750   7.302  19.986  1.00  0.00     0.006 C 
BRANCH   2   3
ATOM      3  C   UNL     1      46.604   7.822  21.419  1.00  0.00     0.053 C 
BRANCH   3   4
ATOM      4  C   UNL     1      47.806   7.459  22.233  1.00  0.00     0.041 C 
ATOM      5  O   UNL     1      48.200   6.264  22.284  1.00  0.00    -0.550 OA
ATOM      6  O   UNL     1      48.463   8.431  22.975  1.00  0.00    -0.550 OA
ENDBRANCH   3   4
ENDBRANCH   2   3
ENDBRANCH   1   2
BRANCH   1   7
ATOM      7  C   UNL     1      45.930   7.538  17.606  1.00  0.00     0.000 C 
BRANCH   7   8
ATOM      8  C   UNL     1      46.841   6.305  17.494  1.00  0.00    -0.000 C 
BRANCH   8   9
ATOM      9  C   UNL     1      47.180   5.950  16.040  1.00  0.00    -0.003 C 
ATOM     10  C   UNL     1      46.020   6.287  15.106  1.00  0.00     0.004 C 
ENDBRANCH   8   9
ENDBRANCH   7   8
ENDBRANCH   1   7
TORSDOF 6
ENDMDL
MODEL 6
REMARK VINA RESULT:    -3.705      9.474     10.262
REMARK INTER + INTRA:          -5.340
REMARK INTER:                  -5.012
REMARK INTRA:                  -0.328
REMARK UNBOUND:                -0.336
REMARK SMILES CCCCCCCC(=O)[O-]
REMARK SMILES IDX 5 1 6 2 7 3 8 4 9 5 10 6 4 7 3 8 2 9 1 10
REMARK H PARENT
REMARK Flexibility Score: inf
ROOT
ATOM      1  C   UNL     1      46.410   7.348  18.627  1.00  0.00     0.000 C 
ENDROOT
BRANCH   1   2
ATOM      2  C   UNL     1      45.458   8.551  18.640  1.00  0.00     0.006 C 
BRANCH   2   3
ATOM      3  C   UNL     1      44.168   8.239  17.876  1.00  0.00     0.053 C 
BRANCH   3   4
ATOM      4  C   UNL     1      44.469   7.937  16.441  1.00  0.00     0.041 C 
ATOM      5  O   UNL     1      44.990   8.815  15.705  1.00  0.00    -0.550 OA
ATOM      6  O   UNL     1      44.129   6.702  15.905  1.00  0.00    -0.550 OA
ENDBRANCH   3   4
ENDBRANCH   2   3
ENDBRANCH   1   2
BRANCH   1   7
ATOM      7  C   UNL     1      46.797   6.939  20.057  1.00  0.00     0.000 C 
BRANCH   7   8
ATOM      8  C   UNL     1      46.352   7.968  21.108  1.00  0.00    -0.000 C 
BRANCH   8   9
ATOM      9  C   UNL     1      47.263   7.983  22.344  1.00  0.00    -0.003 C 
ATOM     10  C   UNL     1      48.124   6.724  22.407  1.00  0.00     0.004 C 
ENDBRANCH   8   9
ENDBRANCH   7   8
ENDBRANCH   1   7
TORSDOF 6
ENDMDL
MODEL 7
REMARK VINA RESULT:    -3.664     12.362     13.397
REMARK INTER + INTRA:          -5.285
REMARK INTER:                  -4.934
REMARK INTRA:                  -0.350
REMARK UNBOUND:                -0.336
REMARK SMILES CCCCCCCC(=O)[O-]
REMARK SMILES IDX 5 1 6 2 7 3 8 4 9 5 10 6 4 7 3 8 2 9 1 10
REMARK H PARENT
REMARK Flexibility Score: inf
ROOT
ATOM      1  C   UNL     1      44.321   8.484  22.145  1.00  0.00     0.000 C 
ENDROOT
BRANCH   1   2
ATOM      2  C   UNL     1      44.058   9.777  22.927  1.00  0.00     0.006 C 
BRANCH   2   3
ATOM      3  C   UNL     1      44.823   9.782  24.253  1.00  0.00     0.053 C 
BRANCH   3   4
ATOM      4  C   UNL     1      43.921   9.385  25.380  1.00  0.00     0.041 C 
ATOM      5  O   UNL     1      44.393   8.813  26.398  1.00  0.00    -0.550 OA
ATOM      6  O   UNL     1      42.553   9.600  25.284  1.00  0.00    -0.550 OA
ENDBRANCH   3   4
ENDBRANCH   2   3
ENDBRANCH   1   2
BRANCH   1   7
ATOM      7  C   UNL     1      45.279   8.736  20.972  1.00  0.00     0.000 C 
BRANCH   7   8
ATOM      8  C   UNL     1      46.450   7.742  20.939  1.00  0.00    -0.000 C 
BRANCH   8   9
ATOM      9  C   UNL     1      47.313   7.802  22.208  1.00  0.00    -0.003 C 
ATOM     10  C   UNL     1      48.111   6.514  22.392  1.00  0.00     0.004 C 
ENDBRANCH   8   9
ENDBRANCH   7   8
ENDBRANCH   1   7
TORSDOF 6
ENDMDL
MODEL 8
REMARK VINA RESULT:    -3.610      9.761     11.462
REMARK INTER + INTRA:          -5.212
REMARK INTER:                  -4.731
REMARK INTRA:                  -0.481
REMARK UNBOUND:                -0.336
REMARK SMILES CCCCCCCC(=O)[O-]
REMARK SMILES IDX 5 1 6 2 7 3 8 4 9 5 10 6 4 7 3 8 2 9 1 10
REMARK H PARENT
REMARK Flexibility Score: inf
ROOT
ATOM      1  C   UNL     1      45.667   9.227  19.763  1.00  0.00     0.000 C 
ENDROOT
BRANCH   1   2
ATOM      2  C   UNL     1      45.641   8.329  21.006  1.00  0.00     0.006 C 
BRANCH   2   3
ATOM      3  C   UNL     1      46.772   7.298  20.961  1.00  0.00     0.053 C 
BRANCH   3   4
ATOM      4  C   UNL     1      47.625   7.402  22.187  1.00  0.00     0.041 C 
ATOM      5  O   UNL     1      47.803   8.518  22.741  1.00  0.00    -0.550 OA
ATOM      6  O   UNL     1      48.264   6.276  22.687  1.00  0.00    -0.550 OA
ENDBRANCH   3   4
ENDBRANCH   2   3
ENDBRANCH   1   2
BRANCH   1   7
ATOM      7  C   UNL     1      44.477   8.922  18.840  1.00  0.00     0.000 C 
BRANCH   7   8
ATOM      8  C   UNL     1      44.813   7.872  17.768  1.00  0.00    -0.000 C 
BRANCH   8   9
ATOM      9  C   UNL     1      46.270   7.959  17.292  1.00  0.00    -0.003 C 
ATOM     10  C   UNL     1      46.919   6.578  17.251  1.00  0.00     0.004 C 
ENDBRANCH   8   9
ENDBRANCH   7   8
ENDBRANCH   1   7
TORSDOF 6
ENDMDL
MODEL 9
REMARK VINA RESULT:    -3.603     11.925     13.120
REMARK INTER + INTRA:          -5.203
REMARK INTER:                  -4.860
REMARK INTRA:                  -0.343
REMARK UNBOUND:                -0.336
REMARK SMILES CCCCCCCC(=O)[O-]
REMARK SMILES IDX 5 1 6 2 7 3 8 4 9 5 10 6 4 7 3 8 2 9 1 10
REMARK H PARENT
REMARK Flexibility Score: inf
ROOT
ATOM      1  C   UNL     1      44.557   8.560  21.448  1.00  0.00     0.000 C 
ENDROOT
BRANCH   1   2
ATOM      2  C   UNL     1      45.986   8.703  20.909  1.00  0.00     0.006 C 
BRANCH   2   3
ATOM      3  C   UNL     1      46.747   7.379  21.014  1.00  0.00     0.053 C 
BRANCH   3   4
ATOM      4  C   UNL     1      47.677   7.400  22.187  1.00  0.00     0.041 C 
ATOM      5  O   UNL     1      48.235   6.340  22.572  1.00  0.00    -0.550 OA
ATOM      6  O   UNL     1      47.888   8.582  22.885  1.00  0.00    -0.550 OA
ENDBRANCH   3   4
ENDBRANCH   2   3
ENDBRANCH   1   2
BRANCH   1   7
ATOM      7  C   UNL     1      44.230   9.685  22.442  1.00  0.00     0.000 C 
BRANCH   7   8
ATOM      8  C   UNL     1      43.806   9.152  23.820  1.00  0.00    -0.000 C 
BRANCH   8   9
ATOM      9  C   UNL     1      44.978   9.067  24.807  1.00  0.00    -0.003 C 
ATOM     10  C   UNL     1      44.480   9.009  26.249  1.00  0.00     0.004 C 
ENDBRANCH   8   9
ENDBRANCH   7   8
ENDBRANCH   1   7
TORSDOF 6
ENDMDL
