MODEL 1
REMARK VINA RESULT:    -4.095      0.000      0.000
REMARK INTER + INTRA:          -4.795
REMARK INTER:                  -4.694
REMARK INTRA:                  -0.101
REMARK UNBOUND:                -0.101
REMARK SMILES COc1cc(C(=O)[O-])ccc1O
REMARK SMILES IDX 5 1 9 2 4 3 10 4 3 5 11 6 6 7 7 8 8 9 2 10 1 11 12 12
REMARK H PARENT 12 13
REMARK Flexibility Score: inf
ROOT
ATOM      1  C   UNL     1      75.608  15.022  44.680  1.00  0.00     0.001 A 
ATOM      2  C   UNL     1      74.596  15.236  45.628  1.00  0.00     0.014 A 
ATOM      3  C   UNL     1      75.461  15.562  43.389  1.00  0.00     0.060 A 
ATOM      4  C   UNL     1      73.459  15.973  45.295  1.00  0.00     0.051 A 
ATOM      5  C   UNL     1      74.314  16.308  43.047  1.00  0.00     0.161 A 
ATOM      6  C   UNL     1      73.312  16.509  44.012  1.00  0.00     0.157 A 
ENDROOT
BRANCH   1   7
ATOM      7  C   UNL     1      76.812  14.239  45.039  1.00  0.00     0.072 C 
ATOM      8  O   UNL     1      77.847  14.289  44.323  1.00  0.00    -0.545 OA
ATOM      9  O   UNL     1      76.816  13.434  46.173  1.00  0.00    -0.545 OA
ENDBRANCH   1   7
BRANCH   5  10
ATOM     10  O   UNL     1      74.140  16.858  41.766  1.00  0.00    -0.493 OA
ATOM     11  C   UNL     1      74.660  18.117  41.349  1.00  0.00     0.278 C 
ENDBRANCH   5  10
BRANCH   6  12
ATOM     12  O   UNL     1      72.162  17.242  43.716  1.00  0.00    -0.504 OA
ATOM     13  H   UNL     1      71.934  17.530  42.772  1.00  0.00     0.293 HD
ENDBRANCH   6  12
TORSDOF 3
ENDMDL
MODEL 2
REMARK VINA RESULT:    -3.985      2.515      3.122
REMARK INTER + INTRA:          -4.668
REMARK INTER:                  -4.572
REMARK INTRA:                  -0.096
REMARK UNBOUND:                -0.101
REMARK SMILES COc1cc(C(=O)[O-])ccc1O
REMARK SMILES IDX 5 1 9 2 4 3 10 4 3 5 11 6 6 7 7 8 8 9 2 10 1 11 12 12
REMARK H PARENT 12 13
REMARK Flexibility Score: inf
ROOT
ATOM      1  C   UNL     1      75.576  17.142  43.462  1.00  0.00     0.001 A 
ATOM      2  C   UNL     1      75.195  15.883  42.973  1.00  0.00     0.014 A 
ATOM      3  C   UNL     1      75.220  18.294  42.737  1.00  0.00     0.060 A 
ATOM      4  C   UNL     1      74.475  15.776  41.783  1.00  0.00     0.051 A 
ATOM      5  C   UNL     1      74.492  18.191  41.534  1.00  0.00     0.161 A 
ATOM      6  C   UNL     1      74.121  16.920  41.061  1.00  0.00     0.157 A 
ENDROOT
BRANCH   1   7
ATOM      7  C   UNL     1      76.340  17.250  44.725  1.00  0.00     0.072 C 
ATOM      8  O   UNL     1      77.481  16.726  44.832  1.00  0.00    -0.545 OA
ATOM      9  O   UNL     1      75.808  17.931  45.814  1.00  0.00    -0.545 OA
ENDBRANCH   1   7
BRANCH   5  10
ATOM     10  O   UNL     1      74.123  19.323  40.789  1.00  0.00    -0.493 OA
ATOM     11  C   UNL     1      74.956  19.967  39.829  1.00  0.00     0.278 C 
ENDBRANCH   5  10
BRANCH   6  12
ATOM     12  O   UNL     1      73.400  16.773  39.876  1.00  0.00    -0.504 OA
ATOM     13  H   UNL     1      73.851  16.748  38.970  1.00  0.00     0.293 HD
ENDBRANCH   6  12
TORSDOF 3
ENDMDL
MODEL 3
REMARK VINA RESULT:    -3.952     11.631     12.509
REMARK INTER + INTRA:          -4.631
REMARK INTER:                  -4.535
REMARK INTRA:                  -0.096
REMARK UNBOUND:                -0.101
REMARK SMILES COc1cc(C(=O)[O-])ccc1O
REMARK SMILES IDX 5 1 9 2 4 3 10 4 3 5 11 6 6 7 7 8 8 9 2 10 1 11 12 12
REMARK H PARENT 12 13
REMARK Flexibility Score: inf
ROOT
ATOM      1  C   UNL     1      81.721  25.365  45.592  1.00  0.00     0.001 A 
ATOM      2  C   UNL     1      82.770  26.111  46.151  1.00  0.00     0.014 A 
ATOM      3  C   UNL     1      80.663  24.947  46.419  1.00  0.00     0.060 A 
ATOM      4  C   UNL     1      82.764  26.431  47.510  1.00  0.00     0.051 A 
ATOM      5  C   UNL     1      80.651  25.268  47.792  1.00  0.00     0.161 A 
ATOM      6  C   UNL     1      81.713  26.015  48.332  1.00  0.00     0.157 A 
ENDROOT
BRANCH   1   7
ATOM      7  C   UNL     1      81.733  25.028  44.151  1.00  0.00     0.072 C 
ATOM      8  O   UNL     1      81.094  25.730  43.323  1.00  0.00    -0.545 OA
ATOM      9  O   UNL     1      82.448  23.928  43.691  1.00  0.00    -0.545 OA
ENDBRANCH   1   7
BRANCH   5  10
ATOM     10  O   UNL     1      79.609  24.863  48.642  1.00  0.00    -0.493 OA
ATOM     11  C   UNL     1      79.516  23.582  49.257  1.00  0.00     0.278 C 
ENDBRANCH   5  10
BRANCH   6  12
ATOM     12  O   UNL     1      81.742  26.355  49.685  1.00  0.00    -0.504 OA
ATOM     13  H   UNL     1      81.746  27.317  50.000  1.00  0.00     0.293 HD
ENDBRANCH   6  12
TORSDOF 3
ENDMDL
MODEL 4
REMARK VINA RESULT:    -3.942     11.804     12.784
REMARK INTER + INTRA:          -4.619
REMARK INTER:                  -4.526
REMARK INTRA:                  -0.093
REMARK UNBOUND:                -0.101
REMARK SMILES COc1cc(C(=O)[O-])ccc1O
REMARK SMILES IDX 5 1 9 2 4 3 10 4 3 5 11 6 6 7 7 8 8 9 2 10 1 11 12 12
REMARK H PARENT 12 13
REMARK Flexibility Score: inf
ROOT
ATOM      1  C   UNL     1      82.702  25.264  44.365  1.00  0.00     0.001 A 
ATOM      2  C   UNL     1      82.697  26.559  43.823  1.00  0.00     0.014 A 
ATOM      3  C   UNL     1      81.955  25.007  45.529  1.00  0.00     0.060 A 
ATOM      4  C   UNL     1      81.962  27.577  44.432  1.00  0.00     0.051 A 
ATOM      5  C   UNL     1      81.211  26.032  46.148  1.00  0.00     0.161 A 
ATOM      6  C   UNL     1      81.220  27.322  45.589  1.00  0.00     0.157 A 
ENDROOT
BRANCH   1   7
ATOM      7  C   UNL     1      83.484  24.188  43.715  1.00  0.00     0.072 C 
ATOM      8  O   UNL     1      84.708  24.039  43.973  1.00  0.00    -0.545 OA
ATOM      9  O   UNL     1      82.877  23.327  42.808  1.00  0.00    -0.545 OA
ENDBRANCH   1   7
BRANCH   5  10
ATOM     10  O   UNL     1      80.456  25.804  47.311  1.00  0.00    -0.493 OA
ATOM     11  C   UNL     1      81.010  25.547  48.597  1.00  0.00     0.278 C 
ENDBRANCH   5  10
BRANCH   6  12
ATOM     12  O   UNL     1      80.497  28.365  46.169  1.00  0.00    -0.504 OA
ATOM     13  H   UNL     1      79.710  28.199  46.785  1.00  0.00     0.293 HD
ENDBRANCH   6  12
TORSDOF 3
ENDMDL
MODEL 5
REMARK VINA RESULT:    -3.933     10.551     11.703
REMARK INTER + INTRA:          -4.608
REMARK INTER:                  -4.514
REMARK INTRA:                  -0.094
REMARK UNBOUND:                -0.101
REMARK SMILES COc1cc(C(=O)[O-])ccc1O
REMARK SMILES IDX 5 1 9 2 4 3 10 4 3 5 11 6 6 7 7 8 8 9 2 10 1 11 12 12
REMARK H PARENT 12 13
REMARK Flexibility Score: inf
ROOT
ATOM      1  C   UNL     1      82.936  23.086  42.710  1.00  0.00     0.001 A 
ATOM      2  C   UNL     1      84.195  23.375  43.257  1.00  0.00     0.014 A 
ATOM      3  C   UNL     1      81.815  23.812  43.151  1.00  0.00     0.060 A 
ATOM      4  C   UNL     1      84.333  24.369  44.227  1.00  0.00     0.051 A 
ATOM      5  C   UNL     1      81.948  24.818  44.130  1.00  0.00     0.161 A 
ATOM      6  C   UNL     1      83.219  25.091  44.666  1.00  0.00     0.157 A 
ENDROOT
BRANCH   1   7
ATOM      7  C   UNL     1      82.796  22.030  41.681  1.00  0.00     0.072 C 
ATOM      8  O   UNL     1      81.914  22.120  40.786  1.00  0.00    -0.545 OA
ATOM      9  O   UNL     1      83.635  20.922  41.691  1.00  0.00    -0.545 OA
ENDBRANCH   1   7
BRANCH   5  10
ATOM     10  O   UNL     1      80.847  25.559  44.589  1.00  0.00    -0.493 OA
ATOM     11  C   UNL     1      80.002  25.169  45.668  1.00  0.00     0.278 C 
ENDBRANCH   5  10
BRANCH   6  12
ATOM     12  O   UNL     1      83.396  26.078  45.636  1.00  0.00    -0.504 OA
ATOM     13  H   UNL     1      82.689  26.285  46.331  1.00  0.00     0.293 HD
ENDBRANCH   6  12
TORSDOF 3
ENDMDL
MODEL 6
REMARK VINA RESULT:    -3.912     10.294     11.581
REMARK INTER + INTRA:          -4.584
REMARK INTER:                  -4.496
REMARK INTRA:                  -0.088
REMARK UNBOUND:                -0.101
REMARK SMILES COc1cc(C(=O)[O-])ccc1O
REMARK SMILES IDX 5 1 9 2 4 3 10 4 3 5 11 6 6 7 7 8 8 9 2 10 1 11 12 12
REMARK H PARENT 12 13
REMARK Flexibility Score: inf
ROOT
ATOM      1  C   UNL     1      83.079  24.271  43.693  1.00  0.00     0.001 A 
ATOM      2  C   UNL     1      84.247  23.498  43.613  1.00  0.00     0.014 A 
ATOM      3  C   UNL     1      81.958  23.898  42.929  1.00  0.00     0.060 A 
ATOM      4  C   UNL     1      84.297  22.375  42.786  1.00  0.00     0.051 A 
ATOM      5  C   UNL     1      82.002  22.764  42.092  1.00  0.00     0.161 A 
ATOM      6  C   UNL     1      83.183  22.004  42.026  1.00  0.00     0.157 A 
ENDROOT
BRANCH   1   7
ATOM      7  C   UNL     1      83.032  25.461  44.572  1.00  0.00     0.072 C 
ATOM      8  O   UNL     1      81.986  26.158  44.653  1.00  0.00    -0.545 OA
ATOM      9  O   UNL     1      84.145  25.828  45.321  1.00  0.00    -0.545 OA
ENDBRANCH   1   7
BRANCH   5  10
ATOM     10  O   UNL     1      80.899  22.368  41.318  1.00  0.00    -0.493 OA
ATOM     11  C   UNL     1      79.562  22.280  41.800  1.00  0.00     0.278 C 
ENDBRANCH   5  10
BRANCH   6  12
ATOM     12  O   UNL     1      83.270  20.875  41.211  1.00  0.00    -0.504 OA
ATOM     13  H   UNL     1      83.759  20.037  41.501  1.00  0.00     0.293 HD
ENDBRANCH   6  12
TORSDOF 3
ENDMDL
MODEL 7
REMARK VINA RESULT:    -3.810     15.880     16.575
REMARK INTER + INTRA:          -4.467
REMARK INTER:                  -4.371
REMARK INTRA:                  -0.096
REMARK UNBOUND:                -0.101
REMARK SMILES COc1cc(C(=O)[O-])ccc1O
REMARK SMILES IDX 5 1 9 2 4 3 10 4 3 5 11 6 6 7 7 8 8 9 2 10 1 11 12 12
REMARK H PARENT 12 13
REMARK Flexibility Score: inf
ROOT
ATOM      1  C   UNL     1      89.039  11.224  37.449  1.00  0.00     0.001 A 
ATOM      2  C   UNL     1      88.702  12.293  36.605  1.00  0.00     0.014 A 
ATOM      3  C   UNL     1      89.834  11.472  38.583  1.00  0.00     0.060 A 
ATOM      4  C   UNL     1      89.151  13.584  36.886  1.00  0.00     0.051 A 
ATOM      5  C   UNL     1      90.290  12.774  38.872  1.00  0.00     0.161 A 
ATOM      6  C   UNL     1      89.941  13.831  38.012  1.00  0.00     0.157 A 
ENDROOT
BRANCH   1   7
ATOM      7  C   UNL     1      88.560   9.856  37.146  1.00  0.00     0.072 C 
ATOM      8  O   UNL     1      89.292   9.044  36.519  1.00  0.00    -0.545 OA
ATOM      9  O   UNL     1      87.293   9.449  37.548  1.00  0.00    -0.545 OA
ENDBRANCH   1   7
BRANCH   5  10
ATOM     10  O   UNL     1      91.085  13.051  39.996  1.00  0.00    -0.493 OA
ATOM     11  C   UNL     1      90.581  13.261  41.312  1.00  0.00     0.278 C 
ENDBRANCH   5  10
BRANCH   6  12
ATOM     12  O   UNL     1      90.371  15.135  38.261  1.00  0.00    -0.504 OA
ATOM     13  H   UNL     1      90.341  15.545  39.186  1.00  0.00     0.293 HD
ENDBRANCH   6  12
TORSDOF 3
ENDMDL
MODEL 8
REMARK VINA RESULT:    -3.804     11.128     12.603
REMARK INTER + INTRA:          -4.461
REMARK INTER:                  -4.381
REMARK INTRA:                  -0.080
REMARK UNBOUND:                -0.101
REMARK SMILES COc1cc(C(=O)[O-])ccc1O
REMARK SMILES IDX 5 1 9 2 4 3 10 4 3 5 11 6 6 7 7 8 8 9 2 10 1 11 12 12
REMARK H PARENT 12 13
REMARK Flexibility Score: inf
ROOT
ATOM      1  C   UNL     1      81.857  25.779  44.323  1.00  0.00     0.001 A 
ATOM      2  C   UNL     1      83.088  26.107  44.911  1.00  0.00     0.014 A 
ATOM      3  C   UNL     1      81.779  24.656  43.479  1.00  0.00     0.060 A 
ATOM      4  C   UNL     1      84.220  25.330  44.661  1.00  0.00     0.051 A 
ATOM      5  C   UNL     1      82.920  23.868  43.223  1.00  0.00     0.161 A 
ATOM      6  C   UNL     1      84.144  24.215  43.822  1.00  0.00     0.157 A 
ENDROOT
BRANCH   1   7
ATOM      7  C   UNL     1      80.659  26.606  44.592  1.00  0.00     0.072 C 
ATOM      8  O   UNL     1      79.708  26.646  43.767  1.00  0.00    -0.545 OA
ATOM      9  O   UNL     1      80.568  27.354  45.761  1.00  0.00    -0.545 OA
ENDBRANCH   1   7
BRANCH   5  10
ATOM     10  O   UNL     1      82.872  22.742  42.385  1.00  0.00    -0.493 OA
ATOM     11  C   UNL     1      81.867  22.504  41.405  1.00  0.00     0.278 C 
ENDBRANCH   5  10
BRANCH   6  12
ATOM     12  O   UNL     1      85.297  23.462  43.596  1.00  0.00    -0.504 OA
ATOM     13  H   UNL     1      85.573  23.163  42.669  1.00  0.00     0.293 HD
ENDBRANCH   6  12
TORSDOF 3
ENDMDL
MODEL 9
REMARK VINA RESULT:    -3.741     11.603     12.362
REMARK INTER + INTRA:          -4.388
REMARK INTER:                  -4.291
REMARK INTRA:                  -0.097
REMARK UNBOUND:                -0.101
REMARK SMILES COc1cc(C(=O)[O-])ccc1O
REMARK SMILES IDX 5 1 9 2 4 3 10 4 3 5 11 6 6 7 7 8 8 9 2 10 1 11 12 12
REMARK H PARENT 12 13
REMARK Flexibility Score: inf
ROOT
ATOM      1  C   UNL     1      82.769  25.381  45.130  1.00  0.00     0.001 A 
ATOM      2  C   UNL     1      83.280  26.094  46.226  1.00  0.00     0.014 A 
ATOM      3  C   UNL     1      81.405  25.035  45.115  1.00  0.00     0.060 A 
ATOM      4  C   UNL     1      82.446  26.452  47.286  1.00  0.00     0.051 A 
ATOM      5  C   UNL     1      80.559  25.396  46.183  1.00  0.00     0.161 A 
ATOM      6  C   UNL     1      81.092  26.108  47.272  1.00  0.00     0.157 A 
ENDROOT
BRANCH   1   7
ATOM      7  C   UNL     1      83.658  25.003  44.008  1.00  0.00     0.072 C 
ATOM      8  O   UNL     1      84.632  25.734  43.686  1.00  0.00    -0.545 OA
ATOM      9  O   UNL     1      83.427  23.834  43.291  1.00  0.00    -0.545 OA
ENDBRANCH   1   7
BRANCH   5  10
ATOM     10  O   UNL     1      79.194  25.063  46.195  1.00  0.00    -0.493 OA
ATOM     11  C   UNL     1      78.665  23.831  46.675  1.00  0.00     0.278 C 
ENDBRANCH   5  10
BRANCH   6  12
ATOM     12  O   UNL     1      80.290  26.485  48.350  1.00  0.00    -0.504 OA
ATOM     13  H   UNL     1      80.045  25.841  49.091  1.00  0.00     0.293 HD
ENDBRANCH   6  12
TORSDOF 3
ENDMDL
