MODEL 1
REMARK VINA RESULT:    -4.423      0.000      0.000
REMARK INTER + INTRA:          -6.482
REMARK INTER:                  -5.974
REMARK INTRA:                  -0.508
REMARK UNBOUND:                -0.508
REMARK SMILES O=C[C@@H](O)[C@H](O)[C@H](O)CO
REMARK SMILES IDX 7 1 9 2 10 3 5 5 3 6 2 7 1 8 4 9 6 11 8 13
REMARK H PARENT 10 4 4 10 6 12 8 14
REMARK Flexibility Score: inf
ROOT
ATOM      1  C   UNL     1     -98.948 -61.838 -64.357  1.00  0.00     0.171 C 
ENDROOT
BRANCH   1   2
ATOM      2  C   UNL     1     -98.748 -63.277 -63.853  1.00  0.00     0.190 C 
BRANCH   2   3
ATOM      3  O   UNL     1     -99.987 -63.898 -63.650  1.00  0.00    -0.394 OA
ATOM      4  H   UNL     1    -100.036 -64.640 -64.308  1.00  0.00     0.210 HD
ENDBRANCH   2   3
ENDBRANCH   1   2
BRANCH   1   5
ATOM      5  C   UNL     1     -99.210 -61.733 -65.886  1.00  0.00     0.181 C 
BRANCH   5   6
ATOM      6  C   UNL     1    -100.137 -60.567 -66.327  1.00  0.00     0.209 C 
BRANCH   6   7
ATOM      7  C   UNL     1     -99.388 -59.313 -66.705  1.00  0.00     0.258 C 
ATOM      8  O   UNL     1     -98.182 -59.235 -66.538  1.00  0.00    -0.300 OA
ENDBRANCH   6   7
BRANCH   6   9
ATOM      9  O   UNL     1    -100.950 -60.983 -67.395  1.00  0.00    -0.383 OA
ATOM     10  H   UNL     1    -100.359 -61.082 -68.187  1.00  0.00     0.211 HD
ENDBRANCH   6   9
ENDBRANCH   5   6
BRANCH   5  11
ATOM     11  O   UNL     1     -99.678 -62.965 -66.376  1.00  0.00    -0.387 OA
ATOM     12  H   UNL     1    -100.527 -63.162 -65.900  1.00  0.00     0.211 HD
ENDBRANCH   5  11
ENDBRANCH   1   5
BRANCH   1  13
ATOM     13  O   UNL     1     -97.796 -61.097 -64.043  1.00  0.00    -0.388 OA
ATOM     14  H   UNL     1     -97.982 -60.151 -64.281  1.00  0.00     0.211 HD
ENDBRANCH   1  13
TORSDOF 8
ENDMDL
MODEL 2
REMARK VINA RESULT:    -4.240      0.932      1.629
REMARK INTER + INTRA:          -6.235
REMARK INTER:                  -5.706
REMARK INTRA:                  -0.529
REMARK UNBOUND:                -0.508
REMARK SMILES O=C[C@@H](O)[C@H](O)[C@H](O)CO
REMARK SMILES IDX 7 1 9 2 10 3 5 5 3 6 2 7 1 8 4 9 6 11 8 13
REMARK H PARENT 10 4 4 10 6 12 8 14
REMARK Flexibility Score: inf
ROOT
ATOM      1  C   UNL     1     -98.939 -61.836 -64.450  1.00  0.00     0.171 C 
ENDROOT
BRANCH   1   2
ATOM      2  C   UNL     1     -98.773 -63.276 -63.937  1.00  0.00     0.190 C 
BRANCH   2   3
ATOM      3  O   UNL     1    -100.025 -63.849 -63.680  1.00  0.00    -0.394 OA
ATOM      4  H   UNL     1    -100.627 -63.098 -63.436  1.00  0.00     0.210 HD
ENDBRANCH   2   3
ENDBRANCH   1   2
BRANCH   1   5
ATOM      5  C   UNL     1     -99.054 -61.725 -65.997  1.00  0.00     0.181 C 
BRANCH   5   6
ATOM      6  C   UNL     1     -99.668 -60.402 -66.529  1.00  0.00     0.209 C 
BRANCH   6   7
ATOM      7  C   UNL     1    -101.162 -60.314 -66.343  1.00  0.00     0.258 C 
ATOM      8  O   UNL     1    -101.640 -59.596 -65.480  1.00  0.00    -0.300 OA
ENDBRANCH   6   7
BRANCH   6   9
ATOM      9  O   UNL     1     -99.041 -59.304 -65.916  1.00  0.00    -0.383 OA
ATOM     10  H   UNL     1     -98.388 -59.672 -65.263  1.00  0.00     0.211 HD
ENDBRANCH   6   9
ENDBRANCH   5   6
BRANCH   5  11
ATOM     11  O   UNL     1     -99.739 -62.843 -66.507  1.00  0.00    -0.387 OA
ATOM     12  H   UNL     1     -99.115 -63.614 -66.452  1.00  0.00     0.211 HD
ENDBRANCH   5  11
ENDBRANCH   1   5
BRANCH   1  13
ATOM     13  O   UNL     1     -97.831 -61.085 -64.023  1.00  0.00    -0.388 OA
ATOM     14  H   UNL     1     -97.407 -60.701 -64.834  1.00  0.00     0.211 HD
ENDBRANCH   1  13
TORSDOF 8
ENDMDL
MODEL 3
REMARK VINA RESULT:    -4.200      2.251      3.949
REMARK INTER + INTRA:          -6.180
REMARK INTER:                  -5.723
REMARK INTRA:                  -0.457
REMARK UNBOUND:                -0.508
REMARK SMILES O=C[C@@H](O)[C@H](O)[C@H](O)CO
REMARK SMILES IDX 7 1 9 2 10 3 5 5 3 6 2 7 1 8 4 9 6 11 8 13
REMARK H PARENT 10 4 4 10 6 12 8 14
REMARK Flexibility Score: inf
ROOT
ATOM      1  C   UNL     1     -97.956 -58.481 -66.530  1.00  0.00     0.171 C 
ENDROOT
BRANCH   1   2
ATOM      2  C   UNL     1     -96.630 -58.229 -65.794  1.00  0.00     0.190 C 
BRANCH   2   3
ATOM      3  O   UNL     1     -96.856 -58.079 -64.421  1.00  0.00    -0.394 OA
ATOM      4  H   UNL     1     -96.587 -58.938 -64.000  1.00  0.00     0.210 HD
ENDBRANCH   2   3
ENDBRANCH   1   2
BRANCH   1   5
ATOM      5  C   UNL     1     -98.517 -59.920 -66.350  1.00  0.00     0.181 C 
BRANCH   5   6
ATOM      6  C   UNL     1     -99.990 -60.126 -66.798  1.00  0.00     0.209 C 
BRANCH   6   7
ATOM      7  C   UNL     1    -100.292 -61.535 -67.241  1.00  0.00     0.258 C 
ATOM      8  O   UNL     1     -99.662 -62.478 -66.790  1.00  0.00    -0.300 OA
ENDBRANCH   6   7
BRANCH   6   9
ATOM      9  O   UNL     1    -100.860 -59.750 -65.762  1.00  0.00    -0.383 OA
ATOM     10  H   UNL     1    -100.361 -59.119 -65.179  1.00  0.00     0.211 HD
ENDBRANCH   6   9
ENDBRANCH   5   6
BRANCH   5  11
ATOM     11  O   UNL     1     -98.327 -60.344 -65.022  1.00  0.00    -0.387 OA
ATOM     12  H   UNL     1     -99.119 -60.038 -64.506  1.00  0.00     0.211 HD
ENDBRANCH   5  11
ENDBRANCH   1   5
BRANCH   1  13
ATOM     13  O   UNL     1     -97.753 -58.242 -67.900  1.00  0.00    -0.388 OA
ATOM     14  H   UNL     1     -98.649 -58.141 -68.315  1.00  0.00     0.211 HD
ENDBRANCH   1  13
TORSDOF 8
ENDMDL
MODEL 4
REMARK VINA RESULT:    -4.151      1.637      3.838
REMARK INTER + INTRA:          -6.115
REMARK INTER:                  -5.786
REMARK INTRA:                  -0.329
REMARK UNBOUND:                -0.508
REMARK SMILES O=C[C@@H](O)[C@H](O)[C@H](O)CO
REMARK SMILES IDX 7 1 9 2 10 3 5 5 3 6 2 7 1 8 4 9 6 11 8 13
REMARK H PARENT 10 4 4 10 6 12 8 14
REMARK Flexibility Score: inf
ROOT
ATOM      1  C   UNL     1     -99.600 -60.237 -66.525  1.00  0.00     0.171 C 
ENDROOT
BRANCH   1   2
ATOM      2  C   UNL     1    -101.129 -60.350 -66.413  1.00  0.00     0.190 C 
BRANCH   2   3
ATOM      3  O   UNL     1    -101.622 -59.406 -65.504  1.00  0.00    -0.394 OA
ATOM      4  H   UNL     1    -101.769 -58.572 -66.024  1.00  0.00     0.210 HD
ENDBRANCH   2   3
ENDBRANCH   1   2
BRANCH   1   5
ATOM      5  C   UNL     1     -98.823 -61.166 -65.548  1.00  0.00     0.181 C 
BRANCH   5   6
ATOM      6  C   UNL     1     -99.699 -62.125 -64.698  1.00  0.00     0.209 C 
BRANCH   6   7
ATOM      7  C   UNL     1     -98.969 -63.364 -64.244  1.00  0.00     0.258 C 
ATOM      8  O   UNL     1     -97.913 -63.276 -63.638  1.00  0.00    -0.300 OA
ENDBRANCH   6   7
BRANCH   6   9
ATOM      9  O   UNL     1    -100.219 -61.438 -63.588  1.00  0.00    -0.383 OA
ATOM     10  H   UNL     1    -100.620 -62.121 -62.987  1.00  0.00     0.211 HD
ENDBRANCH   6   9
ENDBRANCH   5   6
BRANCH   5  11
ATOM     11  O   UNL     1     -97.974 -60.398 -64.732  1.00  0.00    -0.387 OA
ATOM     12  H   UNL     1     -98.529 -60.049 -63.986  1.00  0.00     0.211 HD
ENDBRANCH   5  11
ENDBRANCH   1   5
BRANCH   1  13
ATOM     13  O   UNL     1     -99.236 -58.904 -66.268  1.00  0.00    -0.388 OA
ATOM     14  H   UNL     1     -99.648 -58.650 -65.402  1.00  0.00     0.211 HD
ENDBRANCH   1  13
TORSDOF 8
ENDMDL
MODEL 5
REMARK VINA RESULT:    -4.084      2.001      3.129
REMARK INTER + INTRA:          -6.024
REMARK INTER:                  -5.749
REMARK INTRA:                  -0.276
REMARK UNBOUND:                -0.508
REMARK SMILES O=C[C@@H](O)[C@H](O)[C@H](O)CO
REMARK SMILES IDX 7 1 9 2 10 3 5 5 3 6 2 7 1 8 4 9 6 11 8 13
REMARK H PARENT 10 4 4 10 6 12 8 14
REMARK Flexibility Score: inf
ROOT
ATOM      1  C   UNL     1    -100.231 -61.898 -66.844  1.00  0.00     0.171 C 
ENDROOT
BRANCH   1   2
ATOM      2  C   UNL     1     -99.729 -62.583 -68.126  1.00  0.00     0.190 C 
BRANCH   2   3
ATOM      3  O   UNL     1    -100.714 -63.436 -68.640  1.00  0.00    -0.394 OA
ATOM      4  H   UNL     1    -101.514 -62.869 -68.800  1.00  0.00     0.210 HD
ENDBRANCH   2   3
ENDBRANCH   1   2
BRANCH   1   5
ATOM      5  C   UNL     1     -99.934 -60.373 -66.784  1.00  0.00     0.181 C 
BRANCH   5   6
ATOM      6  C   UNL     1     -98.462 -59.989 -66.472  1.00  0.00     0.209 C 
BRANCH   6   7
ATOM      7  C   UNL     1     -98.106 -58.583 -66.886  1.00  0.00     0.258 C 
ATOM      8  O   UNL     1     -97.315 -57.923 -66.231  1.00  0.00    -0.300 OA
ENDBRANCH   6   7
BRANCH   6   9
ATOM      9  O   UNL     1     -98.201 -60.170 -65.104  1.00  0.00    -0.383 OA
ATOM     10  H   UNL     1     -98.359 -59.294 -64.661  1.00  0.00     0.211 HD
ENDBRANCH   6   9
ENDBRANCH   5   6
BRANCH   5  11
ATOM     11  O   UNL     1    -100.820 -59.748 -65.888  1.00  0.00    -0.387 OA
ATOM     12  H   UNL     1    -101.453 -60.447 -65.573  1.00  0.00     0.211 HD
ENDBRANCH   5  11
ENDBRANCH   1   5
BRANCH   1  13
ATOM     13  O   UNL     1     -99.622 -62.522 -65.742  1.00  0.00    -0.388 OA
ATOM     14  H   UNL     1     -99.324 -61.803 -65.126  1.00  0.00     0.211 HD
ENDBRANCH   1  13
TORSDOF 8
ENDMDL
MODEL 6
REMARK VINA RESULT:    -3.968      1.150      2.118
REMARK INTER + INTRA:          -5.868
REMARK INTER:                  -5.526
REMARK INTRA:                  -0.342
REMARK UNBOUND:                -0.508
REMARK SMILES O=C[C@@H](O)[C@H](O)[C@H](O)CO
REMARK SMILES IDX 7 1 9 2 10 3 5 5 3 6 2 7 1 8 4 9 6 11 8 13
REMARK H PARENT 10 4 4 10 6 12 8 14
REMARK Flexibility Score: inf
ROOT
ATOM      1  C   UNL     1     -99.284 -63.319 -64.236  1.00  0.00     0.171 C 
ENDROOT
BRANCH   1   2
ATOM      2  C   UNL     1     -97.948 -63.617 -63.534  1.00  0.00     0.190 C 
BRANCH   2   3
ATOM      3  O   UNL     1     -97.885 -62.949 -62.305  1.00  0.00    -0.394 OA
ATOM      4  H   UNL     1     -97.816 -61.982 -62.519  1.00  0.00     0.210 HD
ENDBRANCH   2   3
ENDBRANCH   1   2
BRANCH   1   5
ATOM      5  C   UNL     1     -99.474 -61.826 -64.628  1.00  0.00     0.181 C 
BRANCH   5   6
ATOM      6  C   UNL     1     -99.943 -61.572 -66.086  1.00  0.00     0.209 C 
BRANCH   6   7
ATOM      7  C   UNL     1     -99.264 -60.393 -66.739  1.00  0.00     0.258 C 
ATOM      8  O   UNL     1     -99.807 -59.301 -66.769  1.00  0.00    -0.300 OA
ENDBRANCH   6   7
BRANCH   6   9
ATOM      9  O   UNL     1     -99.748 -62.729 -66.859  1.00  0.00    -0.383 OA
ATOM     10  H   UNL     1     -99.567 -63.473 -66.225  1.00  0.00     0.211 HD
ENDBRANCH   6   9
ENDBRANCH   5   6
BRANCH   5  11
ATOM     11  O   UNL     1     -98.303 -61.103 -64.338  1.00  0.00    -0.387 OA
ATOM     12  H   UNL     1     -97.986 -60.713 -65.195  1.00  0.00     0.211 HD
ENDBRANCH   5  11
ENDBRANCH   1   5
BRANCH   1  13
ATOM     13  O   UNL     1    -100.328 -63.699 -63.377  1.00  0.00    -0.388 OA
ATOM     14  H   UNL     1    -100.210 -63.194 -62.531  1.00  0.00     0.211 HD
ENDBRANCH   1  13
TORSDOF 8
ENDMDL
MODEL 7
REMARK VINA RESULT:    -3.841      1.595      2.328
REMARK INTER + INTRA:          -5.696
REMARK INTER:                  -5.421
REMARK INTRA:                  -0.275
REMARK UNBOUND:                -0.508
REMARK SMILES O=C[C@@H](O)[C@H](O)[C@H](O)CO
REMARK SMILES IDX 7 1 9 2 10 3 5 5 3 6 2 7 1 8 4 9 6 11 8 13
REMARK H PARENT 10 4 4 10 6 12 8 14
REMARK Flexibility Score: inf
ROOT
ATOM      1  C   UNL     1     -98.561 -62.299 -63.591  1.00  0.00     0.171 C 
ENDROOT
BRANCH   1   2
ATOM      2  C   UNL     1     -98.177 -63.785 -63.690  1.00  0.00     0.190 C 
BRANCH   2   3
ATOM      3  O   UNL     1     -96.999 -64.032 -62.975  1.00  0.00    -0.394 OA
ATOM      4  H   UNL     1     -96.964 -65.014 -62.830  1.00  0.00     0.210 HD
ENDBRANCH   2   3
ENDBRANCH   1   2
BRANCH   1   5
ATOM      5  C   UNL     1     -99.694 -61.871 -64.566  1.00  0.00     0.181 C 
BRANCH   5   6
ATOM      6  C   UNL     1     -99.224 -61.217 -65.893  1.00  0.00     0.209 C 
BRANCH   6   7
ATOM      7  C   UNL     1    -100.176 -61.436 -67.042  1.00  0.00     0.258 C 
ATOM      8  O   UNL     1    -100.124 -62.459 -67.707  1.00  0.00    -0.300 OA
ENDBRANCH   6   7
BRANCH   6   9
ATOM      9  O   UNL     1     -99.011 -59.842 -65.699  1.00  0.00    -0.383 OA
ATOM     10  H   UNL     1     -98.052 -59.728 -65.465  1.00  0.00     0.211 HD
ENDBRANCH   6   9
ENDBRANCH   5   6
BRANCH   5  11
ATOM     11  O   UNL     1    -100.616 -61.048 -63.894  1.00  0.00    -0.387 OA
ATOM     12  H   UNL     1    -101.333 -61.641 -63.546  1.00  0.00     0.211 HD
ENDBRANCH   5  11
ENDBRANCH   1   5
BRANCH   1  13
ATOM     13  O   UNL     1     -97.417 -61.529 -63.860  1.00  0.00    -0.388 OA
ATOM     14  H   UNL     1     -97.717 -60.591 -63.982  1.00  0.00     0.211 HD
ENDBRANCH   1  13
TORSDOF 8
ENDMDL
MODEL 8
REMARK VINA RESULT:    -3.621     12.771     14.186
REMARK INTER + INTRA:          -5.398
REMARK INTER:                  -5.072
REMARK INTRA:                  -0.326
REMARK UNBOUND:                -0.508
REMARK SMILES O=C[C@@H](O)[C@H](O)[C@H](O)CO
REMARK SMILES IDX 7 1 9 2 10 3 5 5 3 6 2 7 1 8 4 9 6 11 8 13
REMARK H PARENT 10 4 4 10 6 12 8 14
REMARK Flexibility Score: inf
ROOT
ATOM      1  C   UNL     1    -107.664 -50.387 -65.208  1.00  0.00     0.171 C 
ENDROOT
BRANCH   1   2
ATOM      2  C   UNL     1    -106.648 -49.679 -66.119  1.00  0.00     0.190 C 
BRANCH   2   3
ATOM      3  O   UNL     1    -105.953 -50.616 -66.895  1.00  0.00    -0.394 OA
ATOM      4  H   UNL     1    -106.489 -51.451 -66.865  1.00  0.00     0.210 HD
ENDBRANCH   2   3
ENDBRANCH   1   2
BRANCH   1   5
ATOM      5  C   UNL     1    -107.020 -51.145 -64.012  1.00  0.00     0.181 C 
BRANCH   5   6
ATOM      6  C   UNL     1    -107.406 -50.621 -62.602  1.00  0.00     0.209 C 
BRANCH   6   7
ATOM      7  C   UNL     1    -108.071 -49.268 -62.624  1.00  0.00     0.258 C 
ATOM      8  O   UNL     1    -107.817 -48.436 -61.768  1.00  0.00    -0.300 OA
ENDBRANCH   6   7
BRANCH   6   9
ATOM      9  O   UNL     1    -108.233 -51.555 -61.956  1.00  0.00    -0.383 OA
ATOM     10  H   UNL     1    -108.683 -51.075 -61.210  1.00  0.00     0.211 HD
ENDBRANCH   6   9
ENDBRANCH   5   6
BRANCH   5  11
ATOM     11  O   UNL     1    -105.624 -51.191 -64.171  1.00  0.00    -0.387 OA
ATOM     12  H   UNL     1    -105.437 -51.013 -65.131  1.00  0.00     0.211 HD
ENDBRANCH   5  11
ENDBRANCH   1   5
BRANCH   1  13
ATOM     13  O   UNL     1    -108.392 -51.303 -65.986  1.00  0.00    -0.388 OA
ATOM     14  H   UNL     1    -108.320 -51.006 -66.931  1.00  0.00     0.211 HD
ENDBRANCH   1  13
TORSDOF 8
ENDMDL
MODEL 9
REMARK VINA RESULT:    -3.579     13.088     14.546
REMARK INTER + INTRA:          -5.342
REMARK INTER:                  -4.771
REMARK INTRA:                  -0.571
REMARK UNBOUND:                -0.508
REMARK SMILES O=C[C@@H](O)[C@H](O)[C@H](O)CO
REMARK SMILES IDX 7 1 9 2 10 3 5 5 3 6 2 7 1 8 4 9 6 11 8 13
REMARK H PARENT 10 4 4 10 6 12 8 14
REMARK Flexibility Score: inf
ROOT
ATOM      1  C   UNL     1    -107.011 -50.989 -63.926  1.00  0.00     0.171 C 
ENDROOT
BRANCH   1   2
ATOM      2  C   UNL     1    -107.103 -50.255 -65.275  1.00  0.00     0.190 C 
BRANCH   2   3
ATOM      3  O   UNL     1    -105.886 -49.628 -65.571  1.00  0.00    -0.394 OA
ATOM      4  H   UNL     1    -105.696 -49.829 -66.524  1.00  0.00     0.210 HD
ENDBRANCH   2   3
ENDBRANCH   1   2
BRANCH   1   5
ATOM      5  C   UNL     1    -107.352 -50.099 -62.697  1.00  0.00     0.181 C 
BRANCH   5   6
ATOM      6  C   UNL     1    -108.550 -50.580 -61.834  1.00  0.00     0.209 C 
BRANCH   6   7
ATOM      7  C   UNL     1    -109.803 -50.835 -62.634  1.00  0.00     0.258 C 
ATOM      8  O   UNL     1    -110.306 -49.946 -63.302  1.00  0.00    -0.300 OA
ENDBRANCH   6   7
BRANCH   6   9
ATOM      9  O   UNL     1    -108.191 -51.736 -61.121  1.00  0.00    -0.383 OA
ATOM     10  H   UNL     1    -107.260 -51.961 -61.385  1.00  0.00     0.211 HD
ENDBRANCH   6   9
ENDBRANCH   5   6
BRANCH   5  11
ATOM     11  O   UNL     1    -107.526 -48.765 -63.106  1.00  0.00    -0.387 OA
ATOM     12  H   UNL     1    -106.679 -48.485 -63.544  1.00  0.00     0.211 HD
ENDBRANCH   5  11
ENDBRANCH   1   5
BRANCH   1  13
ATOM     13  O   UNL     1    -105.704 -51.482 -63.780  1.00  0.00    -0.388 OA
ATOM     14  H   UNL     1    -105.778 -52.419 -63.460  1.00  0.00     0.211 HD
ENDBRANCH   1  13
TORSDOF 8
ENDMDL
