MODEL 1
REMARK VINA RESULT:    -4.067      0.000      0.000
REMARK INTER + INTRA:          -8.113
REMARK INTER:                  -6.207
REMARK INTRA:                  -1.906
REMARK UNBOUND:                -1.906
REMARK SMILES CC(=O)CCC=C(C)CCC=C(C)CCC=C(C)C
REMARK SMILES IDX 10 1 11 2 12 3 13 4 14 5 15 6 16 7 18 8 17 9 19 10 9 11 7 12
REMARK SMILES IDX 6 13 8 14 5 15 4 16 2 17 3 18 1 19
REMARK H PARENT
REMARK Flexibility Score: inf
ROOT
ATOM      1  C   UNL     1     176.300 180.025 236.908  1.00  0.00     0.032 C 
ENDROOT
BRANCH   1   2
ATOM      2  C   UNL     1     177.279 181.128 237.226  1.00  0.00    -0.028 C 
ATOM      3  C   UNL     1     177.835 181.947 236.304  1.00  0.00    -0.077 C 
ATOM      4  C   UNL     1     177.471 181.864 234.840  1.00  0.00     0.039 C 
BRANCH   3   5
ATOM      5  C   UNL     1     178.836 182.987 236.755  1.00  0.00     0.034 C 
BRANCH   5   6
ATOM      6  C   UNL     1     179.587 182.515 238.005  1.00  0.00     0.032 C 
BRANCH   6   7
ATOM      7  C   UNL     1     179.671 183.618 239.028  1.00  0.00    -0.028 C 
ATOM      8  C   UNL     1     180.476 184.787 241.035  1.00  0.00     0.039 C 
ATOM      9  C   UNL     1     180.535 183.633 240.067  1.00  0.00    -0.080 C 
ATOM     10  C   UNL     1     181.559 182.541 240.272  1.00  0.00     0.039 C 
ENDBRANCH   6   7
ENDBRANCH   5   6
ENDBRANCH   3   5
ENDBRANCH   1   2
BRANCH   1  11
ATOM     11  C   UNL     1     176.960 178.651 237.066  1.00  0.00     0.034 C 
BRANCH  11  12
ATOM     12  C   UNL     1     177.741 178.287 235.820  1.00  0.00    -0.077 C 
ATOM     13  C   UNL     1     179.092 178.226 235.786  1.00  0.00    -0.028 C 
ATOM     14  C   UNL     1     176.976 177.904 234.578  1.00  0.00     0.039 C 
BRANCH  13  15
ATOM     15  C   UNL     1     179.998 178.581 236.938  1.00  0.00     0.035 C 
BRANCH  15  16
ATOM     16  C   UNL     1     181.145 179.483 236.470  1.00  0.00     0.079 C 
BRANCH  16  17
ATOM     17  C   UNL     1     182.465 178.773 236.589  1.00  0.00     0.130 C 
ATOM     18  O   UNL     1     183.501 179.421 236.618  1.00  0.00    -0.300 OA
ATOM     19  C   UNL     1     182.521 177.277 236.648  1.00  0.00     0.087 C 
ENDBRANCH  16  17
ENDBRANCH  15  16
ENDBRANCH  13  15
ENDBRANCH  11  12
ENDBRANCH   1  11
TORSDOF 9
ENDMDL
MODEL 2
REMARK VINA RESULT:    -4.020     14.433     16.249
REMARK INTER + INTRA:          -8.041
REMARK INTER:                  -5.855
REMARK INTRA:                  -2.187
REMARK UNBOUND:                -1.906
REMARK SMILES CC(=O)CCC=C(C)CCC=C(C)CCC=C(C)C
REMARK SMILES IDX 10 1 11 2 12 3 13 4 14 5 15 6 16 7 18 8 17 9 19 10 9 11 7 12
REMARK SMILES IDX 6 13 8 14 5 15 4 16 2 17 3 18 1 19
REMARK H PARENT
REMARK Flexibility Score: inf
ROOT
ATOM      1  C   UNL     1     181.832 190.417 223.048  1.00  0.00     0.032 C 
ENDROOT
BRANCH   1   2
ATOM      2  C   UNL     1     183.259 190.901 222.971  1.00  0.00    -0.028 C 
ATOM      3  C   UNL     1     184.019 191.217 224.044  1.00  0.00    -0.077 C 
ATOM      4  C   UNL     1     183.510 191.055 225.458  1.00  0.00     0.039 C 
BRANCH   3   5
ATOM      5  C   UNL     1     185.424 191.730 223.823  1.00  0.00     0.034 C 
BRANCH   5   6
ATOM      6  C   UNL     1     186.243 190.736 222.992  1.00  0.00     0.032 C 
BRANCH   6   7
ATOM      7  C   UNL     1     186.932 189.734 223.883  1.00  0.00    -0.028 C 
ATOM      8  C   UNL     1     187.308 187.572 224.989  1.00  0.00     0.039 C 
ATOM      9  C   UNL     1     186.544 188.448 224.030  1.00  0.00    -0.080 C 
ATOM     10  C   UNL     1     185.386 187.867 223.254  1.00  0.00     0.039 C 
ENDBRANCH   6   7
ENDBRANCH   5   6
ENDBRANCH   3   5
ENDBRANCH   1   2
BRANCH   1  11
ATOM     11  C   UNL     1     181.764 188.896 222.876  1.00  0.00     0.034 C 
BRANCH  11  12
ATOM     12  C   UNL     1     181.182 188.244 224.114  1.00  0.00    -0.077 C 
ATOM     13  C   UNL     1     181.425 186.958 224.455  1.00  0.00    -0.028 C 
ATOM     14  C   UNL     1     180.353 189.088 225.049  1.00  0.00     0.039 C 
BRANCH  13  15
ATOM     15  C   UNL     1     182.229 185.986 223.628  1.00  0.00     0.035 C 
BRANCH  15  16
ATOM     16  C   UNL     1     182.475 184.687 224.403  1.00  0.00     0.079 C 
BRANCH  16  17
ATOM     17  C   UNL     1     183.932 184.534 224.739  1.00  0.00     0.130 C 
ATOM     18  O   UNL     1     184.630 183.777 224.079  1.00  0.00    -0.300 OA
ATOM     19  C   UNL     1     184.530 185.284 225.890  1.00  0.00     0.087 C 
ENDBRANCH  16  17
ENDBRANCH  15  16
ENDBRANCH  13  15
ENDBRANCH  11  12
ENDBRANCH   1  11
TORSDOF 9
ENDMDL
MODEL 3
REMARK VINA RESULT:    -4.003     15.368     16.959
REMARK INTER + INTRA:          -8.016
REMARK INTER:                  -5.450
REMARK INTRA:                  -2.566
REMARK UNBOUND:                -1.906
REMARK SMILES CC(=O)CCC=C(C)CCC=C(C)CCC=C(C)C
REMARK SMILES IDX 10 1 11 2 12 3 13 4 14 5 15 6 16 7 18 8 17 9 19 10 9 11 7 12
REMARK SMILES IDX 6 13 8 14 5 15 4 16 2 17 3 18 1 19
REMARK H PARENT
REMARK Flexibility Score: inf
ROOT
ATOM      1  C   UNL     1     189.380 181.514 224.132  1.00  0.00     0.032 C 
ENDROOT
BRANCH   1   2
ATOM      2  C   UNL     1     189.667 182.769 223.345  1.00  0.00    -0.028 C 
ATOM      3  C   UNL     1     190.496 183.756 223.755  1.00  0.00    -0.077 C 
ATOM      4  C   UNL     1     191.273 183.660 225.046  1.00  0.00     0.039 C 
BRANCH   3   5
ATOM      5  C   UNL     1     190.663 184.982 222.885  1.00  0.00     0.034 C 
BRANCH   5   6
ATOM      6  C   UNL     1     191.688 185.946 223.494  1.00  0.00     0.032 C 
BRANCH   6   7
ATOM      7  C   UNL     1     191.023 187.225 223.936  1.00  0.00    -0.028 C 
ATOM      8  C   UNL     1     190.343 189.000 225.494  1.00  0.00     0.039 C 
ATOM      9  C   UNL     1     191.094 187.730 225.187  1.00  0.00    -0.080 C 
ATOM     10  C   UNL     1     191.913 187.069 226.272  1.00  0.00     0.039 C 
ENDBRANCH   6   7
ENDBRANCH   5   6
ENDBRANCH   3   5
ENDBRANCH   1   2
BRANCH   1  11
ATOM     11  C   UNL     1     188.076 181.656 224.924  1.00  0.00     0.034 C 
BRANCH  11  12
ATOM     12  C   UNL     1     186.880 181.618 223.995  1.00  0.00    -0.077 C 
ATOM     13  C   UNL     1     186.037 182.663 223.833  1.00  0.00    -0.028 C 
ATOM     14  C   UNL     1     186.659 180.384 223.156  1.00  0.00     0.039 C 
BRANCH  13  15
ATOM     15  C   UNL     1     186.118 183.961 224.597  1.00  0.00     0.035 C 
BRANCH  15  16
ATOM     16  C   UNL     1     186.811 185.042 223.762  1.00  0.00     0.079 C 
BRANCH  16  17
ATOM     17  C   UNL     1     187.494 186.046 224.649  1.00  0.00     0.130 C 
ATOM     18  O   UNL     1     187.525 187.223 224.320  1.00  0.00    -0.300 OA
ATOM     19  C   UNL     1     188.155 185.612 225.922  1.00  0.00     0.087 C 
ENDBRANCH  16  17
ENDBRANCH  15  16
ENDBRANCH  13  15
ENDBRANCH  11  12
ENDBRANCH   1  11
TORSDOF 9
ENDMDL
MODEL 4
REMARK VINA RESULT:    -3.997     14.435     16.434
REMARK INTER + INTRA:          -8.006
REMARK INTER:                  -6.074
REMARK INTRA:                  -1.932
REMARK UNBOUND:                -1.906
REMARK SMILES CC(=O)CCC=C(C)CCC=C(C)CCC=C(C)C
REMARK SMILES IDX 10 1 11 2 12 3 13 4 14 5 15 6 16 7 18 8 17 9 19 10 9 11 7 12
REMARK SMILES IDX 6 13 8 14 5 15 4 16 2 17 3 18 1 19
REMARK H PARENT
REMARK Flexibility Score: inf
ROOT
ATOM      1  C   UNL     1     182.124 190.958 222.877  1.00  0.00     0.032 C 
ENDROOT
BRANCH   1   2
ATOM      2  C   UNL     1     183.612 191.058 223.104  1.00  0.00    -0.028 C 
ATOM      3  C   UNL     1     184.187 191.299 224.305  1.00  0.00    -0.077 C 
ATOM      4  C   UNL     1     183.371 191.436 225.568  1.00  0.00     0.039 C 
BRANCH   3   5
ATOM      5  C   UNL     1     185.693 191.416 224.386  1.00  0.00     0.034 C 
BRANCH   5   6
ATOM      6  C   UNL     1     186.366 190.547 223.317  1.00  0.00     0.032 C 
BRANCH   6   7
ATOM      7  C   UNL     1     187.163 189.437 223.954  1.00  0.00    -0.028 C 
ATOM      8  C   UNL     1     187.622 187.170 224.784  1.00  0.00     0.039 C 
ATOM      9  C   UNL     1     186.729 188.164 224.088  1.00  0.00    -0.080 C 
ATOM     10  C   UNL     1     185.392 187.713 223.549  1.00  0.00     0.039 C 
ENDBRANCH   6   7
ENDBRANCH   5   6
ENDBRANCH   3   5
ENDBRANCH   1   2
BRANCH   1  11
ATOM     11  C   UNL     1     181.663 189.497 222.936  1.00  0.00     0.034 C 
BRANCH  11  12
ATOM     12  C   UNL     1     180.312 189.391 223.615  1.00  0.00    -0.077 C 
ATOM     13  C   UNL     1     180.155 188.935 224.878  1.00  0.00    -0.028 C 
ATOM     14  C   UNL     1     179.095 189.885 222.875  1.00  0.00     0.039 C 
BRANCH  13  15
ATOM     15  C   UNL     1     181.268 188.403 225.746  1.00  0.00     0.035 C 
BRANCH  15  16
ATOM     16  C   UNL     1     181.114 186.895 225.964  1.00  0.00     0.079 C 
BRANCH  16  17
ATOM     17  C   UNL     1     182.292 186.150 225.399  1.00  0.00     0.130 C 
ATOM     18  O   UNL     1     183.365 186.179 225.985  1.00  0.00    -0.300 OA
ATOM     19  C   UNL     1     182.167 185.392 224.113  1.00  0.00     0.087 C 
ENDBRANCH  16  17
ENDBRANCH  15  16
ENDBRANCH  13  15
ENDBRANCH  11  12
ENDBRANCH   1  11
TORSDOF 9
ENDMDL
MODEL 5
REMARK VINA RESULT:    -3.931     15.523     17.558
REMARK INTER + INTRA:          -7.905
REMARK INTER:                  -6.049
REMARK INTRA:                  -1.856
REMARK UNBOUND:                -1.906
REMARK SMILES CC(=O)CCC=C(C)CCC=C(C)CCC=C(C)C
REMARK SMILES IDX 10 1 11 2 12 3 13 4 14 5 15 6 16 7 18 8 17 9 19 10 9 11 7 12
REMARK SMILES IDX 6 13 8 14 5 15 4 16 2 17 3 18 1 19
REMARK H PARENT
REMARK Flexibility Score: inf
ROOT
ATOM      1  C   UNL     1     188.885 181.207 225.250  1.00  0.00     0.032 C 
ENDROOT
BRANCH   1   2
ATOM      2  C   UNL     1     189.682 182.103 224.334  1.00  0.00    -0.028 C 
ATOM      3  C   UNL     1     190.553 183.048 224.756  1.00  0.00    -0.077 C 
ATOM      4  C   UNL     1     190.856 183.257 226.221  1.00  0.00     0.039 C 
BRANCH   3   5
ATOM      5  C   UNL     1     191.258 183.907 223.729  1.00  0.00     0.034 C 
BRANCH   5   6
ATOM      6  C   UNL     1     192.211 183.063 222.875  1.00  0.00     0.032 C 
BRANCH   6   7
ATOM      7  C   UNL     1     193.545 182.905 223.560  1.00  0.00    -0.028 C 
ATOM      8  C   UNL     1     195.821 183.523 224.250  1.00  0.00     0.039 C 
ATOM      9  C   UNL     1     194.522 183.838 223.556  1.00  0.00    -0.080 C 
ATOM     10  C   UNL     1     194.341 185.184 222.892  1.00  0.00     0.039 C 
ENDBRANCH   6   7
ENDBRANCH   5   6
ENDBRANCH   3   5
ENDBRANCH   1   2
BRANCH   1  11
ATOM     11  C   UNL     1     187.426 181.668 225.325  1.00  0.00     0.034 C 
BRANCH  11  12
ATOM     12  C   UNL     1     186.796 181.668 223.947  1.00  0.00    -0.077 C 
ATOM     13  C   UNL     1     186.324 182.787 223.351  1.00  0.00    -0.028 C 
ATOM     14  C   UNL     1     186.757 180.375 223.173  1.00  0.00     0.039 C 
BRANCH  13  15
ATOM     15  C   UNL     1     186.287 184.153 223.991  1.00  0.00     0.035 C 
BRANCH  15  16
ATOM     16  C   UNL     1     187.523 184.970 223.603  1.00  0.00     0.079 C 
BRANCH  16  17
ATOM     17  C   UNL     1     187.888 185.935 224.696  1.00  0.00     0.130 C 
ATOM     18  O   UNL     1     188.195 187.085 224.412  1.00  0.00    -0.300 OA
ATOM     19  C   UNL     1     187.902 185.494 226.128  1.00  0.00     0.087 C 
ENDBRANCH  16  17
ENDBRANCH  15  16
ENDBRANCH  13  15
ENDBRANCH  11  12
ENDBRANCH   1  11
TORSDOF 9
ENDMDL
MODEL 6
REMARK VINA RESULT:    -3.886     14.992     17.081
REMARK INTER + INTRA:          -7.836
REMARK INTER:                  -6.115
REMARK INTRA:                  -1.721
REMARK UNBOUND:                -1.906
REMARK SMILES CC(=O)CCC=C(C)CCC=C(C)CCC=C(C)C
REMARK SMILES IDX 10 1 11 2 12 3 13 4 14 5 15 6 16 7 18 8 17 9 19 10 9 11 7 12
REMARK SMILES IDX 6 13 8 14 5 15 4 16 2 17 3 18 1 19
REMARK H PARENT
REMARK Flexibility Score: inf
ROOT
ATOM      1  C   UNL     1     186.799 185.639 223.449  1.00  0.00     0.032 C 
ENDROOT
BRANCH   1   2
ATOM      2  C   UNL     1     187.052 184.220 223.003  1.00  0.00    -0.028 C 
ATOM      3  C   UNL     1     186.378 183.142 223.463  1.00  0.00    -0.077 C 
ATOM      4  C   UNL     1     185.241 183.272 224.450  1.00  0.00     0.039 C 
BRANCH   3   5
ATOM      5  C   UNL     1     186.761 181.768 222.961  1.00  0.00     0.034 C 
BRANCH   5   6
ATOM      6  C   UNL     1     188.242 181.481 223.234  1.00  0.00     0.032 C 
BRANCH   6   7
ATOM      7  C   UNL     1     188.529 181.512 224.714  1.00  0.00    -0.028 C 
ATOM      8  C   UNL     1     189.683 182.170 226.781  1.00  0.00     0.039 C 
ATOM      9  C   UNL     1     189.483 182.275 225.291  1.00  0.00    -0.080 C 
ATOM     10  C   UNL     1     190.336 183.232 224.491  1.00  0.00     0.039 C 
ENDBRANCH   6   7
ENDBRANCH   5   6
ENDBRANCH   3   5
ENDBRANCH   1   2
BRANCH   1  11
ATOM     11  C   UNL     1     187.937 186.137 224.346  1.00  0.00     0.034 C 
BRANCH  11  12
ATOM     12  C   UNL     1     187.390 186.971 225.488  1.00  0.00    -0.077 C 
ATOM     13  C   UNL     1     187.226 188.311 225.410  1.00  0.00    -0.028 C 
ATOM     14  C   UNL     1     186.941 186.266 226.742  1.00  0.00     0.039 C 
BRANCH  13  15
ATOM     15  C   UNL     1     187.629 189.161 224.231  1.00  0.00     0.035 C 
BRANCH  15  16
ATOM     16  C   UNL     1     186.438 189.397 223.298  1.00  0.00     0.079 C 
BRANCH  16  17
ATOM     17  C   UNL     1     185.653 190.605 223.728  1.00  0.00     0.130 C 
ATOM     18  O   UNL     1     184.656 190.466 224.421  1.00  0.00    -0.300 OA
ATOM     19  C   UNL     1     186.071 191.977 223.294  1.00  0.00     0.087 C 
ENDBRANCH  16  17
ENDBRANCH  15  16
ENDBRANCH  13  15
ENDBRANCH  11  12
ENDBRANCH   1  11
TORSDOF 9
ENDMDL
MODEL 7
REMARK VINA RESULT:    -3.881     14.244     15.893
REMARK INTER + INTRA:          -7.829
REMARK INTER:                  -5.253
REMARK INTRA:                  -2.575
REMARK UNBOUND:                -1.906
REMARK SMILES CC(=O)CCC=C(C)CCC=C(C)CCC=C(C)C
REMARK SMILES IDX 10 1 11 2 12 3 13 4 14 5 15 6 16 7 18 8 17 9 19 10 9 11 7 12
REMARK SMILES IDX 6 13 8 14 5 15 4 16 2 17 3 18 1 19
REMARK H PARENT
REMARK Flexibility Score: inf
ROOT
ATOM      1  C   UNL     1     180.450 189.456 224.236  1.00  0.00     0.032 C 
ENDROOT
BRANCH   1   2
ATOM      2  C   UNL     1     181.600 189.955 223.397  1.00  0.00    -0.028 C 
ATOM      3  C   UNL     1     182.726 190.513 223.898  1.00  0.00    -0.077 C 
ATOM      4  C   UNL     1     182.962 190.638 225.385  1.00  0.00     0.039 C 
BRANCH   3   5
ATOM      5  C   UNL     1     183.787 191.010 222.941  1.00  0.00     0.034 C 
BRANCH   5   6
ATOM      6  C   UNL     1     185.014 191.521 223.705  1.00  0.00     0.032 C 
BRANCH   6   7
ATOM      7  C   UNL     1     186.166 190.558 223.572  1.00  0.00    -0.028 C 
ATOM      8  C   UNL     1     188.041 189.156 224.320  1.00  0.00     0.039 C 
ATOM      9  C   UNL     1     186.889 190.083 224.610  1.00  0.00    -0.080 C 
ATOM     10  C   UNL     1     186.565 190.443 226.041  1.00  0.00     0.039 C 
ENDBRANCH   6   7
ENDBRANCH   5   6
ENDBRANCH   3   5
ENDBRANCH   1   2
BRANCH   1  11
ATOM     11  C   UNL     1     180.407 187.924 224.242  1.00  0.00     0.034 C 
BRANCH  11  12
ATOM     12  C   UNL     1     181.114 187.375 225.465  1.00  0.00    -0.077 C 
ATOM     13  C   UNL     1     182.327 186.779 225.411  1.00  0.00    -0.028 C 
ATOM     14  C   UNL     1     180.470 187.567 226.815  1.00  0.00     0.039 C 
BRANCH  13  15
ATOM     15  C   UNL     1     183.097 186.509 224.143  1.00  0.00     0.035 C 
BRANCH  15  16
ATOM     16  C   UNL     1     184.434 187.257 224.148  1.00  0.00     0.079 C 
BRANCH  16  17
ATOM     17  C   UNL     1     185.543 186.366 224.635  1.00  0.00     0.130 C 
ATOM     18  O   UNL     1     185.949 185.459 223.922  1.00  0.00    -0.300 OA
ATOM     19  C   UNL     1     186.139 186.567 225.995  1.00  0.00     0.087 C 
ENDBRANCH  16  17
ENDBRANCH  15  16
ENDBRANCH  13  15
ENDBRANCH  11  12
ENDBRANCH   1  11
TORSDOF 9
ENDMDL
MODEL 8
REMARK VINA RESULT:    -3.840     13.788     16.090
REMARK INTER + INTRA:          -7.766
REMARK INTER:                  -4.923
REMARK INTRA:                  -2.843
REMARK UNBOUND:                -1.906
REMARK SMILES CC(=O)CCC=C(C)CCC=C(C)CCC=C(C)C
REMARK SMILES IDX 10 1 11 2 12 3 13 4 14 5 15 6 16 7 18 8 17 9 19 10 9 11 7 12
REMARK SMILES IDX 6 13 8 14 5 15 4 16 2 17 3 18 1 19
REMARK H PARENT
REMARK Flexibility Score: inf
ROOT
ATOM      1  C   UNL     1     190.093 185.037 224.489  1.00  0.00     0.032 C 
ENDROOT
BRANCH   1   2
ATOM      2  C   UNL     1     188.997 184.075 224.103  1.00  0.00    -0.028 C 
ATOM      3  C   UNL     1     189.207 182.842 223.588  1.00  0.00    -0.077 C 
ATOM      4  C   UNL     1     190.598 182.282 223.401  1.00  0.00     0.039 C 
BRANCH   3   5
ATOM      5  C   UNL     1     188.015 181.993 223.205  1.00  0.00     0.034 C 
BRANCH   5   6
ATOM      6  C   UNL     1     186.804 182.873 222.875  1.00  0.00     0.032 C 
BRANCH   6   7
ATOM      7  C   UNL     1     185.707 182.676 223.891  1.00  0.00    -0.028 C 
ATOM      8  C   UNL     1     184.062 183.323 225.598  1.00  0.00     0.039 C 
ATOM      9  C   UNL     1     185.119 183.676 224.584  1.00  0.00    -0.080 C 
ATOM     10  C   UNL     1     185.480 185.126 224.359  1.00  0.00     0.039 C 
ENDBRANCH   6   7
ENDBRANCH   5   6
ENDBRANCH   3   5
ENDBRANCH   1   2
BRANCH   1  11
ATOM     11  C   UNL     1     190.297 185.047 226.008  1.00  0.00     0.034 C 
BRANCH  11  12
ATOM     12  C   UNL     1     191.483 184.186 226.392  1.00  0.00    -0.077 C 
ATOM     13  C   UNL     1     191.380 183.103 227.195  1.00  0.00    -0.028 C 
ATOM     14  C   UNL     1     192.829 184.507 225.794  1.00  0.00     0.039 C 
BRANCH  13  15
ATOM     15  C   UNL     1     190.111 182.652 227.874  1.00  0.00     0.035 C 
BRANCH  15  16
ATOM     16  C   UNL     1     189.424 181.547 227.066  1.00  0.00     0.079 C 
BRANCH  16  17
ATOM     17  C   UNL     1     187.946 181.802 226.961  1.00  0.00     0.130 C 
ATOM     18  O   UNL     1     187.212 180.937 226.503  1.00  0.00    -0.300 OA
ATOM     19  C   UNL     1     187.368 183.115 227.393  1.00  0.00     0.087 C 
ENDBRANCH  16  17
ENDBRANCH  15  16
ENDBRANCH  13  15
ENDBRANCH  11  12
ENDBRANCH   1  11
TORSDOF 9
ENDMDL
