MODEL 1
REMARK VINA RESULT:    -7.025      0.000      0.000
REMARK INTER + INTRA:         -11.728
REMARK INTER:                 -10.721
REMARK INTRA:                  -1.007
REMARK UNBOUND:                -1.007
REMARK SMILES CC(=O)CCC=C(C)CCC=C(C)CCC=C(C)C
REMARK SMILES IDX 10 1 11 2 12 3 13 4 14 5 15 6 16 7 18 8 17 9 19 10 9 11 7 12
REMARK SMILES IDX 6 13 8 14 5 15 4 16 2 17 3 18 1 19
REMARK H PARENT
REMARK Flexibility Score: inf
ROOT
ATOM      1  C   UNL     1      -9.578  74.456  26.910  1.00  0.00     0.032 C 
ENDROOT
BRANCH   1   2
ATOM      2  C   UNL     1      -9.837  74.416  28.394  1.00  0.00    -0.028 C 
ATOM      3  C   UNL     1     -11.014  74.060  28.955  1.00  0.00    -0.077 C 
ATOM      4  C   UNL     1     -12.185  73.591  28.122  1.00  0.00     0.039 C 
BRANCH   3   5
ATOM      5  C   UNL     1     -11.158  74.115  30.460  1.00  0.00     0.034 C 
BRANCH   5   6
ATOM      6  C   UNL     1     -11.682  72.782  31.005  1.00  0.00     0.032 C 
BRANCH   6   7
ATOM      7  C   UNL     1     -10.840  72.309  32.164  1.00  0.00    -0.028 C 
ATOM      8  C   UNL     1     -10.177  72.028  34.513  1.00  0.00     0.039 C 
ATOM      9  C   UNL     1     -11.085  72.606  33.458  1.00  0.00    -0.080 C 
ATOM     10  C   UNL     1     -12.225  73.507  33.871  1.00  0.00     0.039 C 
ENDBRANCH   6   7
ENDBRANCH   5   6
ENDBRANCH   3   5
ENDBRANCH   1   2
BRANCH   1  11
ATOM     11  C   UNL     1      -8.995  73.124  26.426  1.00  0.00     0.034 C 
BRANCH  11  12
ATOM     12  C   UNL     1      -9.225  72.943  24.941  1.00  0.00    -0.077 C 
ATOM     13  C   UNL     1     -10.303  73.527  24.368  1.00  0.00    -0.028 C 
ATOM     14  C   UNL     1      -8.235  72.131  24.139  1.00  0.00     0.039 C 
BRANCH  13  15
ATOM     15  C   UNL     1     -10.670  73.397  22.911  1.00  0.00     0.035 C 
BRANCH  15  16
ATOM     16  C   UNL     1     -10.393  74.703  22.162  1.00  0.00     0.079 C 
BRANCH  16  17
ATOM     17  C   UNL     1      -9.057  74.651  21.473  1.00  0.00     0.130 C 
ATOM     18  O   UNL     1      -8.037  74.859  22.112  1.00  0.00    -0.300 OA
ATOM     19  C   UNL     1      -8.971  74.366  20.004  1.00  0.00     0.087 C 
ENDBRANCH  16  17
ENDBRANCH  15  16
ENDBRANCH  13  15
ENDBRANCH  11  12
ENDBRANCH   1  11
TORSDOF 9
ENDMDL
MODEL 2
REMARK VINA RESULT:    -6.972      3.434      9.728
REMARK INTER + INTRA:         -11.647
REMARK INTER:                 -10.793
REMARK INTRA:                  -0.854
REMARK UNBOUND:                -1.007
REMARK SMILES CC(=O)CCC=C(C)CCC=C(C)CCC=C(C)C
REMARK SMILES IDX 10 1 11 2 12 3 13 4 14 5 15 6 16 7 18 8 17 9 19 10 9 11 7 12
REMARK SMILES IDX 6 13 8 14 5 15 4 16 2 17 3 18 1 19
REMARK H PARENT
REMARK Flexibility Score: inf
ROOT
ATOM      1  C   UNL     1     -10.143  74.605  28.999  1.00  0.00     0.032 C 
ENDROOT
BRANCH   1   2
ATOM      2  C   UNL     1      -9.436  73.777  27.955  1.00  0.00    -0.028 C 
ATOM      3  C   UNL     1      -9.610  73.919  26.622  1.00  0.00    -0.077 C 
ATOM      4  C   UNL     1     -10.501  74.995  26.044  1.00  0.00     0.039 C 
BRANCH   3   5
ATOM      5  C   UNL     1      -8.879  72.986  25.682  1.00  0.00     0.034 C 
BRANCH   5   6
ATOM      6  C   UNL     1      -9.672  72.790  24.385  1.00  0.00     0.032 C 
BRANCH   6   7
ATOM      7  C   UNL     1      -8.791  73.014  23.181  1.00  0.00    -0.028 C 
ATOM      8  C   UNL     1      -8.064  74.038  21.068  1.00  0.00     0.039 C 
ATOM      9  C   UNL     1      -9.059  73.893  22.191  1.00  0.00    -0.080 C 
ATOM     10  C   UNL     1     -10.326  74.716  22.172  1.00  0.00     0.039 C 
ENDBRANCH   6   7
ENDBRANCH   5   6
ENDBRANCH   3   5
ENDBRANCH   1   2
BRANCH   1  11
ATOM     11  C   UNL     1     -11.244  73.788  29.684  1.00  0.00     0.034 C 
BRANCH  11  12
ATOM     12  C   UNL     1     -11.221  74.003  31.182  1.00  0.00    -0.077 C 
ATOM     13  C   UNL     1     -11.639  73.005  31.994  1.00  0.00    -0.028 C 
ATOM     14  C   UNL     1     -10.715  75.318  31.726  1.00  0.00     0.039 C 
BRANCH  13  15
ATOM     15  C   UNL     1     -11.703  73.100  33.498  1.00  0.00     0.035 C 
BRANCH  15  16
ATOM     16  C   UNL     1     -10.626  72.224  34.144  1.00  0.00     0.079 C 
BRANCH  16  17
ATOM     17  C   UNL     1     -10.495  72.533  35.610  1.00  0.00     0.130 C 
ATOM     18  O   UNL     1     -10.762  73.653  36.019  1.00  0.00    -0.300 OA
ATOM     19  C   UNL     1     -10.020  71.484  36.568  1.00  0.00     0.087 C 
ENDBRANCH  16  17
ENDBRANCH  15  16
ENDBRANCH  13  15
ENDBRANCH  11  12
ENDBRANCH   1  11
TORSDOF 9
ENDMDL
MODEL 3
REMARK VINA RESULT:    -6.944      1.424      2.501
REMARK INTER + INTRA:         -11.604
REMARK INTER:                 -10.668
REMARK INTRA:                  -0.936
REMARK UNBOUND:                -1.007
REMARK SMILES CC(=O)CCC=C(C)CCC=C(C)CCC=C(C)C
REMARK SMILES IDX 10 1 11 2 12 3 13 4 14 5 15 6 16 7 18 8 17 9 19 10 9 11 7 12
REMARK SMILES IDX 6 13 8 14 5 15 4 16 2 17 3 18 1 19
REMARK H PARENT
REMARK Flexibility Score: inf
ROOT
ATOM      1  C   UNL     1     -11.173  72.740  29.125  1.00  0.00     0.032 C 
ENDROOT
BRANCH   1   2
ATOM      2  C   UNL     1     -11.526  73.232  30.506  1.00  0.00    -0.028 C 
ATOM      3  C   UNL     1     -10.758  74.069  31.238  1.00  0.00    -0.077 C 
ATOM      4  C   UNL     1      -9.475  74.655  30.695  1.00  0.00     0.039 C 
BRANCH   3   5
ATOM      5  C   UNL     1     -11.204  74.444  32.634  1.00  0.00     0.034 C 
BRANCH   5   6
ATOM      6  C   UNL     1     -11.848  73.245  33.339  1.00  0.00     0.032 C 
BRANCH   6   7
ATOM      7  C   UNL     1     -10.800  72.390  34.006  1.00  0.00    -0.028 C 
ATOM      8  C   UNL     1      -9.574  71.354  35.867  1.00  0.00     0.039 C 
ATOM      9  C   UNL     1     -10.642  72.280  35.343  1.00  0.00    -0.080 C 
ATOM     10  C   UNL     1     -11.490  73.064  36.317  1.00  0.00     0.039 C 
ENDBRANCH   6   7
ENDBRANCH   5   6
ENDBRANCH   3   5
ENDBRANCH   1   2
BRANCH   1  11
ATOM     11  C   UNL     1     -11.597  73.758  28.062  1.00  0.00     0.034 C 
BRANCH  11  12
ATOM     12  C   UNL     1     -10.542  73.883  26.983  1.00  0.00    -0.077 C 
ATOM     13  C   UNL     1     -10.871  74.467  25.808  1.00  0.00    -0.028 C 
ATOM     14  C   UNL     1      -9.148  73.369  27.258  1.00  0.00     0.039 C 
BRANCH  13  15
ATOM     15  C   UNL     1      -9.930  74.622  24.640  1.00  0.00     0.035 C 
BRANCH  15  16
ATOM     16  C   UNL     1     -10.466  73.884  23.410  1.00  0.00     0.079 C 
BRANCH  16  17
ATOM     17  C   UNL     1      -9.957  74.517  22.144  1.00  0.00     0.130 C 
ATOM     18  O   UNL     1     -10.749  74.994  21.344  1.00  0.00    -0.300 OA
ATOM     19  C   UNL     1      -8.489  74.548  21.847  1.00  0.00     0.087 C 
ENDBRANCH  16  17
ENDBRANCH  15  16
ENDBRANCH  13  15
ENDBRANCH  11  12
ENDBRANCH   1  11
TORSDOF 9
ENDMDL
MODEL 4
REMARK VINA RESULT:    -6.921      3.459      9.418
REMARK INTER + INTRA:         -11.570
REMARK INTER:                 -10.440
REMARK INTRA:                  -1.130
REMARK UNBOUND:                -1.007
REMARK SMILES CC(=O)CCC=C(C)CCC=C(C)CCC=C(C)C
REMARK SMILES IDX 10 1 11 2 12 3 13 4 14 5 15 6 16 7 18 8 17 9 19 10 9 11 7 12
REMARK SMILES IDX 6 13 8 14 5 15 4 16 2 17 3 18 1 19
REMARK H PARENT
REMARK Flexibility Score: inf
ROOT
ATOM      1  C   UNL     1      -9.344  73.825  29.758  1.00  0.00     0.032 C 
ENDROOT
BRANCH   1   2
ATOM      2  C   UNL     1      -9.623  74.216  28.328  1.00  0.00    -0.028 C 
ATOM      3  C   UNL     1     -10.824  74.085  27.721  1.00  0.00    -0.077 C 
ATOM      4  C   UNL     1     -12.042  73.587  28.463  1.00  0.00     0.039 C 
BRANCH   3   5
ATOM      5  C   UNL     1     -10.955  74.466  26.263  1.00  0.00     0.034 C 
BRANCH   5   6
ATOM      6  C   UNL     1     -10.037  73.602  25.391  1.00  0.00     0.032 C 
BRANCH   6   7
ATOM      7  C   UNL     1      -9.779  74.268  24.063  1.00  0.00    -0.028 C 
ATOM      8  C   UNL     1     -10.125  74.784  21.685  1.00  0.00     0.039 C 
ATOM      9  C   UNL     1     -10.470  74.010  22.931  1.00  0.00    -0.080 C 
ATOM     10  C   UNL     1     -11.560  72.964  22.879  1.00  0.00     0.039 C 
ENDBRANCH   6   7
ENDBRANCH   5   6
ENDBRANCH   3   5
ENDBRANCH   1   2
BRANCH   1  11
ATOM     11  C   UNL     1      -9.404  75.051  30.676  1.00  0.00     0.034 C 
BRANCH  11  12
ATOM     12  C   UNL     1     -10.422  74.850  31.777  1.00  0.00    -0.077 C 
ATOM     13  C   UNL     1     -10.623  73.605  32.266  1.00  0.00    -0.028 C 
ATOM     14  C   UNL     1     -11.171  76.049  32.311  1.00  0.00     0.039 C 
BRANCH  13  15
ATOM     15  C   UNL     1     -11.630  73.261  33.334  1.00  0.00     0.035 C 
BRANCH  15  16
ATOM     16  C   UNL     1     -11.225  71.982  34.072  1.00  0.00     0.079 C 
BRANCH  16  17
ATOM     17  C   UNL     1     -10.415  72.306  35.297  1.00  0.00     0.130 C 
ATOM     18  O   UNL     1      -9.445  71.619  35.582  1.00  0.00    -0.300 OA
ATOM     19  C   UNL     1     -10.801  73.453  36.182  1.00  0.00     0.087 C 
ENDBRANCH  16  17
ENDBRANCH  15  16
ENDBRANCH  13  15
ENDBRANCH  11  12
ENDBRANCH   1  11
TORSDOF 9
ENDMDL
MODEL 5
REMARK VINA RESULT:    -6.889      1.896      3.980
REMARK INTER + INTRA:         -11.521
REMARK INTER:                 -10.494
REMARK INTRA:                  -1.026
REMARK UNBOUND:                -1.007
REMARK SMILES CC(=O)CCC=C(C)CCC=C(C)CCC=C(C)C
REMARK SMILES IDX 10 1 11 2 12 3 13 4 14 5 15 6 16 7 18 8 17 9 19 10 9 11 7 12
REMARK SMILES IDX 6 13 8 14 5 15 4 16 2 17 3 18 1 19
REMARK H PARENT
REMARK Flexibility Score: inf
ROOT
ATOM      1  C   UNL     1     -10.723  72.014  30.324  1.00  0.00     0.032 C 
ENDROOT
BRANCH   1   2
ATOM      2  C   UNL     1     -11.065  72.397  31.742  1.00  0.00    -0.028 C 
ATOM      3  C   UNL     1     -10.996  73.656  32.230  1.00  0.00    -0.077 C 
ATOM      4  C   UNL     1     -10.625  74.832  31.356  1.00  0.00     0.039 C 
BRANCH   3   5
ATOM      5  C   UNL     1     -11.316  73.896  33.689  1.00  0.00     0.034 C 
BRANCH   5   6
ATOM      6  C   UNL     1     -10.898  72.694  34.542  1.00  0.00     0.032 C 
BRANCH   6   7
ATOM      7  C   UNL     1     -11.589  72.723  35.883  1.00  0.00    -0.028 C 
ATOM      8  C   UNL     1     -11.925  72.228  38.266  1.00  0.00     0.039 C 
ATOM      9  C   UNL     1     -11.150  72.074  36.983  1.00  0.00    -0.080 C 
ATOM     10  C   UNL     1      -9.924  71.191  36.956  1.00  0.00     0.039 C 
ENDBRANCH   6   7
ENDBRANCH   5   6
ENDBRANCH   3   5
ENDBRANCH   1   2
BRANCH   1  11
ATOM     11  C   UNL     1     -11.960  72.106  29.425  1.00  0.00     0.034 C 
BRANCH  11  12
ATOM     12  C   UNL     1     -11.741  73.103  28.308  1.00  0.00    -0.077 C 
ATOM     13  C   UNL     1     -10.489  73.288  27.829  1.00  0.00    -0.028 C 
ATOM     14  C   UNL     1     -12.929  73.848  27.746  1.00  0.00     0.039 C 
BRANCH  13  15
ATOM     15  C   UNL     1     -10.126  74.274  26.747  1.00  0.00     0.035 C 
BRANCH  15  16
ATOM     16  C   UNL     1      -9.250  73.612  25.680  1.00  0.00     0.079 C 
BRANCH  16  17
ATOM     17  C   UNL     1      -9.843  73.800  24.310  1.00  0.00     0.130 C 
ATOM     18  O   UNL     1     -10.953  73.351  24.063  1.00  0.00    -0.300 OA
ATOM     19  C   UNL     1      -9.074  74.515  23.241  1.00  0.00     0.087 C 
ENDBRANCH  16  17
ENDBRANCH  15  16
ENDBRANCH  13  15
ENDBRANCH  11  12
ENDBRANCH   1  11
TORSDOF 9
ENDMDL
MODEL 6
REMARK VINA RESULT:    -6.840      4.332     10.471
REMARK INTER + INTRA:         -11.447
REMARK INTER:                 -10.591
REMARK INTRA:                  -0.856
REMARK UNBOUND:                -1.007
REMARK SMILES CC(=O)CCC=C(C)CCC=C(C)CCC=C(C)C
REMARK SMILES IDX 10 1 11 2 12 3 13 4 14 5 15 6 16 7 18 8 17 9 19 10 9 11 7 12
REMARK SMILES IDX 6 13 8 14 5 15 4 16 2 17 3 18 1 19
REMARK H PARENT
REMARK Flexibility Score: inf
ROOT
ATOM      1  C   UNL     1     -10.258  74.570  31.614  1.00  0.00     0.032 C 
ENDROOT
BRANCH   1   2
ATOM      2  C   UNL     1     -10.835  74.500  30.223  1.00  0.00    -0.028 C 
ATOM      3  C   UNL     1     -10.529  73.545  29.315  1.00  0.00    -0.077 C 
ATOM      4  C   UNL     1      -9.607  72.395  29.649  1.00  0.00     0.039 C 
BRANCH   3   5
ATOM      5  C   UNL     1     -11.140  73.622  27.933  1.00  0.00     0.034 C 
BRANCH   5   6
ATOM      6  C   UNL     1     -10.273  74.478  27.003  1.00  0.00     0.032 C 
BRANCH   6   7
ATOM      7  C   UNL     1      -9.199  73.642  26.354  1.00  0.00    -0.028 C 
ATOM      8  C   UNL     1      -8.097  72.361  24.570  1.00  0.00     0.039 C 
ATOM      9  C   UNL     1      -9.268  73.148  25.099  1.00  0.00    -0.080 C 
ATOM     10  C   UNL     1     -10.485  73.348  24.226  1.00  0.00     0.039 C 
ENDBRANCH   6   7
ENDBRANCH   5   6
ENDBRANCH   3   5
ENDBRANCH   1   2
BRANCH   1  11
ATOM     11  C   UNL     1     -11.371  74.515  32.666  1.00  0.00     0.034 C 
BRANCH  11  12
ATOM     12  C   UNL     1     -11.192  73.320  33.577  1.00  0.00    -0.077 C 
ATOM     13  C   UNL     1     -11.362  73.481  34.910  1.00  0.00    -0.028 C 
ATOM     14  C   UNL     1     -10.849  71.980  32.970  1.00  0.00     0.039 C 
BRANCH  13  15
ATOM     15  C   UNL     1     -11.179  72.385  35.930  1.00  0.00     0.035 C 
BRANCH  15  16
ATOM     16  C   UNL     1     -11.843  72.763  37.257  1.00  0.00     0.079 C 
BRANCH  16  17
ATOM     17  C   UNL     1     -11.675  71.663  38.270  1.00  0.00     0.130 C 
ATOM     18  O   UNL     1     -11.187  70.596  37.930  1.00  0.00    -0.300 OA
ATOM     19  C   UNL     1     -12.122  71.861  39.687  1.00  0.00     0.087 C 
ENDBRANCH  16  17
ENDBRANCH  15  16
ENDBRANCH  13  15
ENDBRANCH  11  12
ENDBRANCH   1  11
TORSDOF 9
ENDMDL
MODEL 7
REMARK VINA RESULT:    -6.803      3.836      9.952
REMARK INTER + INTRA:         -11.389
REMARK INTER:                 -10.383
REMARK INTRA:                  -1.006
REMARK UNBOUND:                -1.007
REMARK SMILES CC(=O)CCC=C(C)CCC=C(C)CCC=C(C)C
REMARK SMILES IDX 10 1 11 2 12 3 13 4 14 5 15 6 16 7 18 8 17 9 19 10 9 11 7 12
REMARK SMILES IDX 6 13 8 14 5 15 4 16 2 17 3 18 1 19
REMARK H PARENT
REMARK Flexibility Score: inf
ROOT
ATOM      1  C   UNL     1     -10.354  72.012  30.468  1.00  0.00     0.032 C 
ENDROOT
BRANCH   1   2
ATOM      2  C   UNL     1     -10.370  72.879  29.235  1.00  0.00    -0.028 C 
ATOM      3  C   UNL     1      -9.866  74.133  29.176  1.00  0.00    -0.077 C 
ATOM      4  C   UNL     1      -9.162  74.765  30.354  1.00  0.00     0.039 C 
BRANCH   3   5
ATOM      5  C   UNL     1      -9.994  74.916  27.888  1.00  0.00     0.034 C 
BRANCH   5   6
ATOM      6  C   UNL     1      -9.305  74.182  26.734  1.00  0.00     0.032 C 
BRANCH   6   7
ATOM      7  C   UNL     1     -10.240  74.032  25.560  1.00  0.00    -0.028 C 
ATOM      8  C   UNL     1     -11.058  73.152  23.417  1.00  0.00     0.039 C 
ATOM      9  C   UNL     1     -10.011  73.230  24.498  1.00  0.00    -0.080 C 
ATOM     10  C   UNL     1      -8.737  72.431  24.358  1.00  0.00     0.039 C 
ENDBRANCH   6   7
ENDBRANCH   5   6
ENDBRANCH   3   5
ENDBRANCH   1   2
BRANCH   1  11
ATOM     11  C   UNL     1     -11.591  72.277  31.333  1.00  0.00     0.034 C 
BRANCH  11  12
ATOM     12  C   UNL     1     -11.194  72.818  32.689  1.00  0.00    -0.077 C 
ATOM     13  C   UNL     1     -10.545  72.006  33.555  1.00  0.00    -0.028 C 
ATOM     14  C   UNL     1     -11.517  74.254  33.030  1.00  0.00     0.039 C 
BRANCH  13  15
ATOM     15  C   UNL     1     -10.126  72.405  34.948  1.00  0.00     0.035 C 
BRANCH  15  16
ATOM     16  C   UNL     1     -11.235  72.097  35.957  1.00  0.00     0.079 C 
BRANCH  16  17
ATOM     17  C   UNL     1     -11.185  73.056  37.115  1.00  0.00     0.130 C 
ATOM     18  O   UNL     1     -10.437  74.021  37.070  1.00  0.00    -0.300 OA
ATOM     19  C   UNL     1     -12.031  72.825  38.330  1.00  0.00     0.087 C 
ENDBRANCH  16  17
ENDBRANCH  15  16
ENDBRANCH  13  15
ENDBRANCH  11  12
ENDBRANCH   1  11
TORSDOF 9
ENDMDL
MODEL 8
REMARK VINA RESULT:    -6.787      3.001      8.598
REMARK INTER + INTRA:         -11.365
REMARK INTER:                 -10.063
REMARK INTRA:                  -1.302
REMARK UNBOUND:                -1.007
REMARK SMILES CC(=O)CCC=C(C)CCC=C(C)CCC=C(C)C
REMARK SMILES IDX 10 1 11 2 12 3 13 4 14 5 15 6 16 7 18 8 17 9 19 10 9 11 7 12
REMARK SMILES IDX 6 13 8 14 5 15 4 16 2 17 3 18 1 19
REMARK H PARENT
REMARK Flexibility Score: inf
ROOT
ATOM      1  C   UNL     1     -10.668  74.352  25.765  1.00  0.00     0.032 C 
ENDROOT
BRANCH   1   2
ATOM      2  C   UNL     1      -9.872  74.593  24.508  1.00  0.00    -0.028 C 
ATOM      3  C   UNL     1     -10.114  73.989  23.323  1.00  0.00    -0.077 C 
ATOM      4  C   UNL     1     -11.279  73.046  23.132  1.00  0.00     0.039 C 
BRANCH   3   5
ATOM      5  C   UNL     1      -9.204  74.281  22.150  1.00  0.00     0.034 C 
BRANCH   5   6
ATOM      6  C   UNL     1      -7.755  73.903  22.479  1.00  0.00     0.032 C 
BRANCH   6   7
ATOM      7  C   UNL     1      -7.546  72.416  22.341  1.00  0.00    -0.028 C 
ATOM      8  C   UNL     1      -7.173  70.105  23.088  1.00  0.00     0.039 C 
ATOM      9  C   UNL     1      -7.324  71.576  23.376  1.00  0.00    -0.080 C 
ATOM     10  C   UNL     1      -7.207  72.072  24.798  1.00  0.00     0.039 C 
ENDBRANCH   6   7
ENDBRANCH   5   6
ENDBRANCH   3   5
ENDBRANCH   1   2
BRANCH   1  11
ATOM     11  C   UNL     1      -9.755  74.364  26.996  1.00  0.00     0.034 C 
BRANCH  11  12
ATOM     12  C   UNL     1     -10.552  74.125  28.260  1.00  0.00    -0.077 C 
ATOM     13  C   UNL     1      -9.951  74.306  29.458  1.00  0.00    -0.028 C 
ATOM     14  C   UNL     1     -12.001  73.710  28.147  1.00  0.00     0.039 C 
BRANCH  13  15
ATOM     15  C   UNL     1     -10.616  74.068  30.791  1.00  0.00     0.035 C 
BRANCH  15  16
ATOM     16  C   UNL     1     -10.268  72.679  31.331  1.00  0.00     0.079 C 
BRANCH  16  17
ATOM     17  C   UNL     1     -10.825  72.489  32.715  1.00  0.00     0.130 C 
ATOM     18  O   UNL     1     -10.325  71.660  33.461  1.00  0.00    -0.300 OA
ATOM     19  C   UNL     1     -12.001  73.294  33.178  1.00  0.00     0.087 C 
ENDBRANCH  16  17
ENDBRANCH  15  16
ENDBRANCH  13  15
ENDBRANCH  11  12
ENDBRANCH   1  11
TORSDOF 9
ENDMDL
MODEL 9
REMARK VINA RESULT:    -6.555      4.264     10.260
REMARK INTER + INTRA:         -11.011
REMARK INTER:                 -10.160
REMARK INTRA:                  -0.851
REMARK UNBOUND:                -1.007
REMARK SMILES CC(=O)CCC=C(C)CCC=C(C)CCC=C(C)C
REMARK SMILES IDX 10 1 11 2 12 3 13 4 14 5 15 6 16 7 18 8 17 9 19 10 9 11 7 12
REMARK SMILES IDX 6 13 8 14 5 15 4 16 2 17 3 18 1 19
REMARK H PARENT
REMARK Flexibility Score: inf
ROOT
ATOM      1  C   UNL     1     -11.156  72.337  33.341  1.00  0.00     0.032 C 
ENDROOT
BRANCH   1   2
ATOM      2  C   UNL     1     -11.602  73.129  32.138  1.00  0.00    -0.028 C 
ATOM      3  C   UNL     1     -10.944  73.160  30.957  1.00  0.00    -0.077 C 
ATOM      4  C   UNL     1      -9.707  72.328  30.711  1.00  0.00     0.039 C 
BRANCH   3   5
ATOM      5  C   UNL     1     -11.471  74.040  29.845  1.00  0.00     0.034 C 
BRANCH   5   6
ATOM      6  C   UNL     1     -11.849  73.200  28.620  1.00  0.00     0.032 C 
BRANCH   6   7
ATOM      7  C   UNL     1     -11.644  73.986  27.349  1.00  0.00    -0.028 C 
ATOM      8  C   UNL     1     -10.414  74.910  25.434  1.00  0.00     0.039 C 
ATOM      9  C   UNL     1     -10.458  74.127  26.720  1.00  0.00    -0.080 C 
ATOM     10  C   UNL     1      -9.182  73.538  27.277  1.00  0.00     0.039 C 
ENDBRANCH   6   7
ENDBRANCH   5   6
ENDBRANCH   3   5
ENDBRANCH   1   2
BRANCH   1  11
ATOM     11  C   UNL     1     -11.193  73.203  34.604  1.00  0.00     0.034 C 
BRANCH  11  12
ATOM     12  C   UNL     1     -10.814  72.392  35.824  1.00  0.00    -0.077 C 
ATOM     13  C   UNL     1      -9.777  71.527  35.741  1.00  0.00    -0.028 C 
ATOM     14  C   UNL     1     -11.592  72.588  37.105  1.00  0.00     0.039 C 
BRANCH  13  15
ATOM     15  C   UNL     1      -9.320  70.634  36.867  1.00  0.00     0.035 C 
BRANCH  15  16
ATOM     16  C   UNL     1      -7.979  69.977  36.529  1.00  0.00     0.079 C 
BRANCH  16  17
ATOM     17  C   UNL     1      -8.190  68.677  35.802  1.00  0.00     0.130 C 
ATOM     18  O   UNL     1      -9.159  67.983  36.069  1.00  0.00    -0.300 OA
ATOM     19  C   UNL     1      -7.208  68.219  34.766  1.00  0.00     0.087 C 
ENDBRANCH  16  17
ENDBRANCH  15  16
ENDBRANCH  13  15
ENDBRANCH  11  12
ENDBRANCH   1  11
TORSDOF 9
ENDMDL
