MODEL 1
REMARK VINA RESULT:    -4.151      0.000      0.000
REMARK INTER + INTRA:          -5.635
REMARK INTER:                  -5.365
REMARK INTRA:                  -0.270
REMARK UNBOUND:                -0.270
REMARK SMILES CCCCCCC(=O)[O-]
REMARK SMILES IDX 5 1 6 2 7 3 8 4 9 5 4 6 3 7 2 8 1 9
REMARK H PARENT
REMARK Flexibility Score: inf
ROOT
ATOM      1  C   UNL     1       3.629  46.210  10.980  1.00  0.00     0.006 C 
ENDROOT
BRANCH   1   2
ATOM      2  C   UNL     1       3.965  46.226   9.483  1.00  0.00     0.053 C 
BRANCH   2   3
ATOM      3  C   UNL     1       4.875  47.370   9.164  1.00  0.00     0.041 C 
ATOM      4  O   UNL     1       6.010  47.447   9.705  1.00  0.00    -0.550 OA
ATOM      5  O   UNL     1       4.490  48.325   8.232  1.00  0.00    -0.550 OA
ENDBRANCH   2   3
ENDBRANCH   1   2
BRANCH   1   6
ATOM      6  C   UNL     1       4.189  44.972  11.699  1.00  0.00     0.000 C 
BRANCH   6   7
ATOM      7  C   UNL     1       3.083  44.084  12.294  1.00  0.00    -0.000 C 
BRANCH   7   8
ATOM      8  C   UNL     1       2.180  43.467  11.214  1.00  0.00    -0.003 C 
ATOM      9  C   UNL     1       2.963  42.648  10.187  1.00  0.00     0.004 C 
ENDBRANCH   7   8
ENDBRANCH   6   7
ENDBRANCH   1   6
TORSDOF 5
ENDMDL
MODEL 2
REMARK VINA RESULT:    -4.125      0.119      1.085
REMARK INTER + INTRA:          -5.601
REMARK INTER:                  -5.346
REMARK INTRA:                  -0.256
REMARK UNBOUND:                -0.270
REMARK SMILES CCCCCCC(=O)[O-]
REMARK SMILES IDX 5 1 6 2 7 3 8 4 9 5 4 6 3 7 2 8 1 9
REMARK H PARENT
REMARK Flexibility Score: inf
ROOT
ATOM      1  C   UNL     1       3.553  46.137  10.940  1.00  0.00     0.006 C 
ENDROOT
BRANCH   1   2
ATOM      2  C   UNL     1       4.020  46.143   9.479  1.00  0.00     0.053 C 
BRANCH   2   3
ATOM      3  C   UNL     1       4.883  47.335   9.211  1.00  0.00     0.041 C 
ATOM      4  O   UNL     1       4.513  48.213   8.388  1.00  0.00    -0.550 OA
ATOM      5  O   UNL     1       6.074  47.501   9.907  1.00  0.00    -0.550 OA
ENDBRANCH   2   3
ENDBRANCH   1   2
BRANCH   1   6
ATOM      6  C   UNL     1       4.134  44.961  11.741  1.00  0.00     0.000 C 
BRANCH   6   7
ATOM      7  C   UNL     1       3.042  44.036  12.308  1.00  0.00    -0.000 C 
BRANCH   7   8
ATOM      8  C   UNL     1       2.178  43.404  11.207  1.00  0.00    -0.003 C 
ATOM      9  C   UNL     1       3.001  42.605  10.196  1.00  0.00     0.004 C 
ENDBRANCH   7   8
ENDBRANCH   6   7
ENDBRANCH   1   6
TORSDOF 5
ENDMDL
MODEL 3
REMARK VINA RESULT:    -3.943      1.110      1.404
REMARK INTER + INTRA:          -5.366
REMARK INTER:                  -5.042
REMARK INTRA:                  -0.324
REMARK UNBOUND:                -0.270
REMARK SMILES CCCCCCC(=O)[O-]
REMARK SMILES IDX 5 1 6 2 7 3 8 4 9 5 4 6 3 7 2 8 1 9
REMARK H PARENT
REMARK Flexibility Score: inf
ROOT
ATOM      1  C   UNL     1       4.467  46.367  10.984  1.00  0.00     0.006 C 
ENDROOT
BRANCH   1   2
ATOM      2  C   UNL     1       4.475  46.264   9.453  1.00  0.00     0.053 C 
BRANCH   2   3
ATOM      3  C   UNL     1       3.600  47.319   8.854  1.00  0.00     0.041 C 
ATOM      4  O   UNL     1       2.380  47.379   9.160  1.00  0.00    -0.550 OA
ATOM      5  O   UNL     1       4.143  48.268   7.996  1.00  0.00    -0.550 OA
ENDBRANCH   2   3
ENDBRANCH   1   2
BRANCH   1   6
ATOM      6  C   UNL     1       4.101  45.038  11.663  1.00  0.00     0.000 C 
BRANCH   6   7
ATOM      7  C   UNL     1       2.595  44.730  11.586  1.00  0.00    -0.000 C 
BRANCH   7   8
ATOM      8  C   UNL     1       2.313  43.264  11.227  1.00  0.00    -0.003 C 
ATOM      9  C   UNL     1       2.921  42.857   9.884  1.00  0.00     0.004 C 
ENDBRANCH   7   8
ENDBRANCH   6   7
ENDBRANCH   1   6
TORSDOF 5
ENDMDL
MODEL 4
REMARK VINA RESULT:    -3.929      2.732      4.571
REMARK INTER + INTRA:          -5.348
REMARK INTER:                  -5.143
REMARK INTRA:                  -0.205
REMARK UNBOUND:                -0.270
REMARK SMILES CCCCCCC(=O)[O-]
REMARK SMILES IDX 5 1 6 2 7 3 8 4 9 5 4 6 3 7 2 8 1 9
REMARK H PARENT
REMARK Flexibility Score: inf
ROOT
ATOM      1  C   UNL     1       3.558  46.112  11.012  1.00  0.00     0.006 C 
ENDROOT
BRANCH   1   2
ATOM      2  C   UNL     1       3.652  44.824  11.840  1.00  0.00     0.053 C 
BRANCH   2   3
ATOM      3  C   UNL     1       3.398  43.628  10.978  1.00  0.00     0.041 C 
ATOM      4  O   UNL     1       2.310  43.001  11.070  1.00  0.00    -0.550 OA
ATOM      5  O   UNL     1       4.342  43.236  10.037  1.00  0.00    -0.550 OA
ENDBRANCH   2   3
ENDBRANCH   1   2
BRANCH   1   6
ATOM      6  C   UNL     1       4.937  46.697  10.670  1.00  0.00     0.000 C 
BRANCH   6   7
ATOM      7  C   UNL     1       5.034  47.168   9.208  1.00  0.00    -0.000 C 
BRANCH   7   8
ATOM      8  C   UNL     1       3.665  47.540   8.620  1.00  0.00    -0.003 C 
ATOM      9  C   UNL     1       3.754  48.648   7.570  1.00  0.00     0.004 C 
ENDBRANCH   7   8
ENDBRANCH   6   7
ENDBRANCH   1   6
TORSDOF 5
ENDMDL
MODEL 5
REMARK VINA RESULT:    -3.915      1.444      1.998
REMARK INTER + INTRA:          -5.330
REMARK INTER:                  -4.923
REMARK INTRA:                  -0.407
REMARK UNBOUND:                -0.270
REMARK SMILES CCCCCCC(=O)[O-]
REMARK SMILES IDX 5 1 6 2 7 3 8 4 9 5 4 6 3 7 2 8 1 9
REMARK H PARENT
REMARK Flexibility Score: inf
ROOT
ATOM      1  C   UNL     1       2.308  46.562   9.990  1.00  0.00     0.006 C 
ENDROOT
BRANCH   1   2
ATOM      2  C   UNL     1       3.634  46.588   9.221  1.00  0.00     0.053 C 
BRANCH   2   3
ATOM      3  C   UNL     1       4.789  46.605  10.171  1.00  0.00     0.041 C 
ATOM      4  O   UNL     1       5.771  47.365   9.962  1.00  0.00    -0.550 OA
ATOM      5  O   UNL     1       4.760  45.817  11.315  1.00  0.00    -0.550 OA
ENDBRANCH   2   3
ENDBRANCH   1   2
BRANCH   1   6
ATOM      6  C   UNL     1       1.545  45.240   9.810  1.00  0.00     0.000 C 
BRANCH   6   7
ATOM      7  C   UNL     1       1.479  44.415  11.107  1.00  0.00    -0.000 C 
BRANCH   7   8
ATOM      8  C   UNL     1       2.421  43.202  11.080  1.00  0.00    -0.003 C 
ATOM      9  C   UNL     1       2.885  42.846   9.667  1.00  0.00     0.004 C 
ENDBRANCH   7   8
ENDBRANCH   6   7
ENDBRANCH   1   6
TORSDOF 5
ENDMDL
MODEL 6
REMARK VINA RESULT:    -3.896      1.059      1.632
REMARK INTER + INTRA:          -5.305
REMARK INTER:                  -5.090
REMARK INTRA:                  -0.215
REMARK UNBOUND:                -0.270
REMARK SMILES CCCCCCC(=O)[O-]
REMARK SMILES IDX 5 1 6 2 7 3 8 4 9 5 4 6 3 7 2 8 1 9
REMARK H PARENT
REMARK Flexibility Score: inf
ROOT
ATOM      1  C   UNL     1       3.956  45.862   9.345  1.00  0.00     0.006 C 
ENDROOT
BRANCH   1   2
ATOM      2  C   UNL     1       4.961  46.752  10.087  1.00  0.00     0.053 C 
BRANCH   2   3
ATOM      3  C   UNL     1       5.600  47.719   9.141  1.00  0.00     0.041 C 
ATOM      4  O   UNL     1       6.854  47.835   9.105  1.00  0.00    -0.550 OA
ATOM      5  O   UNL     1       4.815  48.458   8.265  1.00  0.00    -0.550 OA
ENDBRANCH   2   3
ENDBRANCH   1   2
BRANCH   1   6
ATOM      6  C   UNL     1       3.908  44.432   9.904  1.00  0.00     0.000 C 
BRANCH   6   7
ATOM      7  C   UNL     1       2.528  44.069  10.481  1.00  0.00    -0.000 C 
BRANCH   7   8
ATOM      8  C   UNL     1       2.576  43.795  11.992  1.00  0.00    -0.003 C 
ATOM      9  C   UNL     1       3.891  44.243  12.632  1.00  0.00     0.004 C 
ENDBRANCH   7   8
ENDBRANCH   6   7
ENDBRANCH   1   6
TORSDOF 5
ENDMDL
MODEL 7
REMARK VINA RESULT:    -3.846      2.739      4.283
REMARK INTER + INTRA:          -5.240
REMARK INTER:                  -4.824
REMARK INTRA:                  -0.416
REMARK UNBOUND:                -0.270
REMARK SMILES CCCCCCC(=O)[O-]
REMARK SMILES IDX 5 1 6 2 7 3 8 4 9 5 4 6 3 7 2 8 1 9
REMARK H PARENT
REMARK Flexibility Score: inf
ROOT
ATOM      1  C   UNL     1       1.314  44.777  11.199  1.00  0.00     0.006 C 
ENDROOT
BRANCH   1   2
ATOM      2  C   UNL     1       1.974  43.434  11.537  1.00  0.00     0.053 C 
BRANCH   2   3
ATOM      3  C   UNL     1       3.457  43.593  11.646  1.00  0.00     0.041 C 
ATOM      4  O   UNL     1       4.214  43.098  10.770  1.00  0.00    -0.550 OA
ATOM      5  O   UNL     1       4.002  44.331  12.690  1.00  0.00    -0.550 OA
ENDBRANCH   2   3
ENDBRANCH   1   2
BRANCH   1   6
ATOM      6  C   UNL     1       1.717  45.301   9.812  1.00  0.00     0.000 C 
BRANCH   6   7
ATOM      7  C   UNL     1       2.478  46.637   9.883  1.00  0.00    -0.000 C 
BRANCH   7   8
ATOM      8  C   UNL     1       3.902  46.533   9.317  1.00  0.00    -0.003 C 
ATOM      9  C   UNL     1       4.978  46.810  10.368  1.00  0.00     0.004 C 
ENDBRANCH   7   8
ENDBRANCH   6   7
ENDBRANCH   1   6
TORSDOF 5
ENDMDL
MODEL 8
REMARK VINA RESULT:    -3.813      1.493      2.297
REMARK INTER + INTRA:          -5.197
REMARK INTER:                  -4.819
REMARK INTRA:                  -0.378
REMARK UNBOUND:                -0.270
REMARK SMILES CCCCCCC(=O)[O-]
REMARK SMILES IDX 5 1 6 2 7 3 8 4 9 5 4 6 3 7 2 8 1 9
REMARK H PARENT
REMARK Flexibility Score: inf
ROOT
ATOM      1  C   UNL     1       1.663  45.434   9.607  1.00  0.00     0.006 C 
ENDROOT
BRANCH   1   2
ATOM      2  C   UNL     1       2.272  46.822   9.843  1.00  0.00     0.053 C 
BRANCH   2   3
ATOM      3  C   UNL     1       3.589  46.941   9.143  1.00  0.00     0.041 C 
ATOM      4  O   UNL     1       3.894  48.005   8.543  1.00  0.00    -0.550 OA
ATOM      5  O   UNL     1       4.501  45.895   9.196  1.00  0.00    -0.550 OA
ENDBRANCH   2   3
ENDBRANCH   1   2
BRANCH   1   6
ATOM      6  C   UNL     1       1.555  44.609  10.898  1.00  0.00     0.000 C 
BRANCH   6   7
ATOM      7  C   UNL     1       2.327  43.280  10.817  1.00  0.00    -0.000 C 
BRANCH   7   8
ATOM      8  C   UNL     1       3.748  43.390  11.390  1.00  0.00    -0.003 C 
ATOM      9  C   UNL     1       3.850  44.411  12.524  1.00  0.00     0.004 C 
ENDBRANCH   7   8
ENDBRANCH   6   7
ENDBRANCH   1   6
TORSDOF 5
ENDMDL
MODEL 9
REMARK VINA RESULT:    -3.754      3.246      4.880
REMARK INTER + INTRA:          -5.121
REMARK INTER:                  -4.938
REMARK INTRA:                  -0.183
REMARK UNBOUND:                -0.270
REMARK SMILES CCCCCCC(=O)[O-]
REMARK SMILES IDX 5 1 6 2 7 3 8 4 9 5 4 6 3 7 2 8 1 9
REMARK H PARENT
REMARK Flexibility Score: inf
ROOT
ATOM      1  C   UNL     1       3.800  43.606  10.188  1.00  0.00     0.006 C 
ENDROOT
BRANCH   1   2
ATOM      2  C   UNL     1       3.392  43.715  11.663  1.00  0.00     0.053 C 
BRANCH   2   3
ATOM      3  C   UNL     1       1.906  43.616  11.803  1.00  0.00     0.041 C 
ATOM      4  O   UNL     1       1.159  44.445  11.221  1.00  0.00    -0.550 OA
ATOM      5  O   UNL     1       1.345  42.579  12.536  1.00  0.00    -0.550 OA
ENDBRANCH   2   3
ENDBRANCH   1   2
BRANCH   1   6
ATOM      6  C   UNL     1       4.064  44.977   9.546  1.00  0.00     0.000 C 
BRANCH   6   7
ATOM      7  C   UNL     1       4.538  46.027  10.566  1.00  0.00    -0.000 C 
BRANCH   7   8
ATOM      8  C   UNL     1       5.261  47.208   9.902  1.00  0.00    -0.003 C 
ATOM      9  C   UNL     1       4.515  47.746   8.681  1.00  0.00     0.004 C 
ENDBRANCH   7   8
ENDBRANCH   6   7
ENDBRANCH   1   6
TORSDOF 5
ENDMDL
