MODEL 1
REMARK VINA RESULT:    -6.896      0.000      0.000
REMARK INTER + INTRA:          -8.110
REMARK INTER:                  -8.508
REMARK INTRA:                   0.398
REMARK UNBOUND:                 0.398
REMARK SMILES O=c1c(O)c(-c2cc(O)c(O)c(O)c2)oc2cc(O)cc(O)c12
REMARK SMILES IDX 5 1 3 2 2 3 1 4 23 5 21 6 20 7 18 8 17 9 16 10 15 11 6 12
REMARK SMILES IDX 7 13 8 14 14 15 10 16 12 17 9 18 11 20 13 22 4 24 22 26
REMARK SMILES IDX 19 28
REMARK H PARENT 9 19 11 21 13 23 4 25 22 27 19 29
REMARK Flexibility Score: inf
ROOT
ATOM      1  C   UNL     1      15.645  -9.495  12.361  1.00  0.00     0.180 A 
ATOM      2  C   UNL     1      16.374 -10.682  12.550  1.00  0.00     0.208 A 
ATOM      3  C   UNL     1      15.681 -11.902  12.625  1.00  0.00     0.238 A 
ATOM      4  O   UNL     1      16.343 -12.967  12.741  1.00  0.00    -0.285 OA
ATOM      5  C   UNL     1      14.269 -11.917  12.526  1.00  0.00     0.111 A 
ATOM      6  C   UNL     1      13.463 -13.091  12.628  1.00  0.00     0.134 A 
ATOM      7  C   UNL     1      12.087 -13.006  12.385  1.00  0.00     0.093 A 
ATOM      8  C   UNL     1      11.478 -11.780  12.105  1.00  0.00     0.123 A 
ATOM      9  C   UNL     1      12.249 -10.620  12.063  1.00  0.00     0.094 A 
ATOM     10  C   UNL     1      13.630 -10.678  12.265  1.00  0.00     0.146 A 
ATOM     11  O   UNL     1      14.328  -9.550  12.206  1.00  0.00    -0.452 OA
ENDROOT
BRANCH   1  12
ATOM     12  C   UNL     1      16.302  -8.170  12.297  1.00  0.00     0.029 A 
ATOM     13  C   UNL     1      15.536  -7.010  12.486  1.00  0.00     0.062 A 
ATOM     14  C   UNL     1      16.133  -5.746  12.452  1.00  0.00     0.162 A 
ATOM     15  C   UNL     1      17.688  -8.050  12.105  1.00  0.00     0.062 A 
ATOM     16  C   UNL     1      17.518  -5.629  12.240  1.00  0.00     0.200 A 
ATOM     17  C   UNL     1      18.297  -6.787  12.071  1.00  0.00     0.162 A 
BRANCH  14  18
ATOM     18  O   UNL     1      15.334  -4.617  12.631  1.00  0.00    -0.504 OA
ATOM     19  H   UNL     1      14.622  -4.348  11.962  1.00  0.00     0.293 HD
ENDBRANCH  14  18
BRANCH  16  20
ATOM     20  O   UNL     1      18.105  -4.364  12.203  1.00  0.00    -0.502 OA
ATOM     21  H   UNL     1      17.581  -3.520  12.405  1.00  0.00     0.293 HD
ENDBRANCH  16  20
BRANCH  17  22
ATOM     22  O   UNL     1      19.672  -6.679  11.875  1.00  0.00    -0.504 OA
ATOM     23  H   UNL     1      20.129  -7.099  11.074  1.00  0.00     0.293 HD
ENDBRANCH  17  22
ENDBRANCH   1  12
BRANCH   2  24
ATOM     24  O   UNL     1      17.769 -10.647  12.624  1.00  0.00    -0.502 OA
ATOM     25  H   UNL     1      18.289 -11.139  13.341  1.00  0.00     0.293 HD
ENDBRANCH   2  24
BRANCH   6  26
ATOM     26  O   UNL     1      13.956 -14.348  12.991  1.00  0.00    -0.507 OA
ATOM     27  H   UNL     1      14.320 -14.581  13.902  1.00  0.00     0.293 HD
ENDBRANCH   6  26
BRANCH   8  28
ATOM     28  O   UNL     1      10.107 -11.702  11.879  1.00  0.00    -0.508 OA
ATOM     29  H   UNL     1       9.589 -12.478  11.483  1.00  0.00     0.293 HD
ENDBRANCH   8  28
TORSDOF 7
ENDMDL
MODEL 2
REMARK VINA RESULT:    -6.868      0.074      1.756
REMARK INTER + INTRA:          -8.077
REMARK INTER:                  -8.530
REMARK INTRA:                   0.454
REMARK UNBOUND:                 0.398
REMARK SMILES O=c1c(O)c(-c2cc(O)c(O)c(O)c2)oc2cc(O)cc(O)c12
REMARK SMILES IDX 5 1 3 2 2 3 1 4 23 5 21 6 20 7 18 8 17 9 16 10 15 11 6 12
REMARK SMILES IDX 7 13 8 14 14 15 10 16 12 17 9 18 11 20 13 22 4 24 22 26
REMARK SMILES IDX 19 28
REMARK H PARENT 9 19 11 21 13 23 4 25 22 27 19 29
REMARK Flexibility Score: inf
ROOT
ATOM      1  C   UNL     1      15.672  -9.477  12.406  1.00  0.00     0.180 A 
ATOM      2  C   UNL     1      16.404 -10.666  12.568  1.00  0.00     0.208 A 
ATOM      3  C   UNL     1      15.715 -11.889  12.620  1.00  0.00     0.238 A 
ATOM      4  O   UNL     1      16.380 -12.954  12.711  1.00  0.00    -0.285 OA
ATOM      5  C   UNL     1      14.303 -11.905  12.525  1.00  0.00     0.111 A 
ATOM      6  C   UNL     1      13.500 -13.083  12.606  1.00  0.00     0.134 A 
ATOM      7  C   UNL     1      12.122 -12.996  12.370  1.00  0.00     0.093 A 
ATOM      8  C   UNL     1      11.510 -11.765  12.118  1.00  0.00     0.123 A 
ATOM      9  C   UNL     1      12.277 -10.603  12.097  1.00  0.00     0.094 A 
ATOM     10  C   UNL     1      13.659 -10.662  12.294  1.00  0.00     0.146 A 
ATOM     11  O   UNL     1      14.355  -9.532  12.255  1.00  0.00    -0.452 OA
ENDROOT
BRANCH   1  12
ATOM     12  C   UNL     1      16.326  -8.149  12.368  1.00  0.00     0.029 A 
ATOM     13  C   UNL     1      17.708  -8.065  12.146  1.00  0.00     0.062 A 
ATOM     14  C   UNL     1      18.348  -6.824  12.084  1.00  0.00     0.162 A 
ATOM     15  C   UNL     1      15.580  -6.964  12.492  1.00  0.00     0.062 A 
ATOM     16  C   UNL     1      17.602  -5.641  12.229  1.00  0.00     0.200 A 
ATOM     17  C   UNL     1      16.213  -5.714  12.429  1.00  0.00     0.162 A 
BRANCH  14  18
ATOM     18  O   UNL     1      19.727  -6.784  11.876  1.00  0.00    -0.504 OA
ATOM     19  H   UNL     1      20.375  -7.302  12.458  1.00  0.00     0.293 HD
ENDBRANCH  14  18
BRANCH  16  20
ATOM     20  O   UNL     1      18.249  -4.406  12.170  1.00  0.00    -0.502 OA
ATOM     21  H   UNL     1      17.988  -3.692  11.500  1.00  0.00     0.293 HD
ENDBRANCH  16  20
BRANCH  17  22
ATOM     22  O   UNL     1      15.464  -4.546  12.560  1.00  0.00    -0.504 OA
ATOM     23  H   UNL     1      15.906  -3.645  12.703  1.00  0.00     0.293 HD
ENDBRANCH  17  22
ENDBRANCH   1  12
BRANCH   2  24
ATOM     24  O   UNL     1      17.800 -10.629  12.638  1.00  0.00    -0.502 OA
ATOM     25  H   UNL     1      18.391 -11.093  11.959  1.00  0.00     0.293 HD
ENDBRANCH   2  24
BRANCH   6  26
ATOM     26  O   UNL     1      13.997 -14.346  12.940  1.00  0.00    -0.507 OA
ATOM     27  H   UNL     1      14.954 -14.537  13.196  1.00  0.00     0.293 HD
ENDBRANCH   6  26
BRANCH   8  28
ATOM     28  O   UNL     1      10.137 -11.686  11.899  1.00  0.00    -0.508 OA
ATOM     29  H   UNL     1       9.737 -11.831  10.979  1.00  0.00     0.293 HD
ENDBRANCH   8  28
TORSDOF 7
ENDMDL
MODEL 3
REMARK VINA RESULT:    -5.580      1.256      7.486
REMARK INTER + INTRA:          -6.487
REMARK INTER:                  -6.919
REMARK INTRA:                   0.432
REMARK UNBOUND:                 0.398
REMARK SMILES O=c1c(O)c(-c2cc(O)c(O)c(O)c2)oc2cc(O)cc(O)c12
REMARK SMILES IDX 5 1 3 2 2 3 1 4 23 5 21 6 20 7 18 8 17 9 16 10 15 11 6 12
REMARK SMILES IDX 7 13 8 14 14 15 10 16 12 17 9 18 11 20 13 22 4 24 22 26
REMARK SMILES IDX 19 28
REMARK H PARENT 9 19 11 21 13 23 4 25 22 27 19 29
REMARK Flexibility Score: inf
ROOT
ATOM      1  C   UNL     1      15.372  -9.001  12.258  1.00  0.00     0.180 A 
ATOM      2  C   UNL     1      14.429  -7.966  12.139  1.00  0.00     0.208 A 
ATOM      3  C   UNL     1      14.881  -6.640  12.037  1.00  0.00     0.238 A 
ATOM      4  O   UNL     1      14.035  -5.723  11.876  1.00  0.00    -0.285 OA
ATOM      5  C   UNL     1      16.270  -6.366  12.070  1.00  0.00     0.111 A 
ATOM      6  C   UNL     1      16.838  -5.058  12.014  1.00  0.00     0.134 A 
ATOM      7  C   UNL     1      18.228  -4.913  11.923  1.00  0.00     0.093 A 
ATOM      8  C   UNL     1      19.073  -6.026  11.950  1.00  0.00     0.123 A 
ATOM      9  C   UNL     1      18.529  -7.303  12.066  1.00  0.00     0.094 A 
ATOM     10  C   UNL     1      17.144  -7.482  12.122  1.00  0.00     0.146 A 
ATOM     11  O   UNL     1      16.668  -8.717  12.221  1.00  0.00    -0.452 OA
ENDROOT
BRANCH   1  12
ATOM     12  C   UNL     1      14.971 -10.420  12.396  1.00  0.00     0.029 A 
ATOM     13  C   UNL     1      15.959 -11.414  12.458  1.00  0.00     0.062 A 
ATOM     14  C   UNL     1      15.610 -12.759  12.609  1.00  0.00     0.162 A 
ATOM     15  C   UNL     1      13.621 -10.789  12.523  1.00  0.00     0.062 A 
ATOM     16  C   UNL     1      14.257 -13.127  12.715  1.00  0.00     0.200 A 
ATOM     17  C   UNL     1      13.261 -12.135  12.676  1.00  0.00     0.162 A 
BRANCH  14  18
ATOM     18  O   UNL     1      16.622 -13.718  12.653  1.00  0.00    -0.504 OA
ATOM     19  H   UNL     1      17.351 -13.701  13.357  1.00  0.00     0.293 HD
ENDBRANCH  14  18
BRANCH  16  20
ATOM     20  O   UNL     1      13.918 -14.472  12.862  1.00  0.00    -0.502 OA
ATOM     21  H   UNL     1      14.618 -15.195  12.980  1.00  0.00     0.293 HD
ENDBRANCH  16  20
BRANCH  17  22
ATOM     22  O   UNL     1      11.919 -12.490  12.795  1.00  0.00    -0.504 OA
ATOM     23  H   UNL     1      11.510 -12.730  13.691  1.00  0.00     0.293 HD
ENDBRANCH  17  22
ENDBRANCH   1  12
BRANCH   2  24
ATOM     24  O   UNL     1      13.063  -8.261  12.087  1.00  0.00    -0.502 OA
ATOM     25  H   UNL     1      12.668  -8.888  11.397  1.00  0.00     0.293 HD
ENDBRANCH   2  24
BRANCH   6  26
ATOM     26  O   UNL     1      16.091  -3.878  12.072  1.00  0.00    -0.507 OA
ATOM     27  H   UNL     1      15.102  -3.834  12.269  1.00  0.00     0.293 HD
ENDBRANCH   6  26
BRANCH   8  28
ATOM     28  O   UNL     1      20.454  -5.872  11.875  1.00  0.00    -0.508 OA
ATOM     29  H   UNL     1      20.901  -4.985  12.080  1.00  0.00     0.293 HD
ENDBRANCH   8  28
TORSDOF 7
ENDMDL
MODEL 4
REMARK VINA RESULT:    -5.360      1.604      6.844
REMARK INTER + INTRA:          -6.215
REMARK INTER:                  -6.651
REMARK INTRA:                   0.435
REMARK UNBOUND:                 0.398
REMARK SMILES O=c1c(O)c(-c2cc(O)c(O)c(O)c2)oc2cc(O)cc(O)c12
REMARK SMILES IDX 5 1 3 2 2 3 1 4 23 5 21 6 20 7 18 8 17 9 16 10 15 11 6 12
REMARK SMILES IDX 7 13 8 14 14 15 10 16 12 17 9 18 11 20 13 22 4 24 22 26
REMARK SMILES IDX 19 28
REMARK H PARENT 9 19 11 21 13 23 4 25 22 27 19 29
REMARK Flexibility Score: inf
ROOT
ATOM      1  C   UNL     1      15.111  -9.010  12.564  1.00  0.00     0.180 A 
ATOM      2  C   UNL     1      16.373  -8.519  12.190  1.00  0.00     0.208 A 
ATOM      3  C   UNL     1      16.582  -7.131  12.158  1.00  0.00     0.238 A 
ATOM      4  O   UNL     1      17.731  -6.699  11.875  1.00  0.00    -0.285 OA
ATOM      5  C   UNL     1      15.522  -6.251  12.485  1.00  0.00     0.111 A 
ATOM      6  C   UNL     1      15.611  -4.827  12.447  1.00  0.00     0.134 A 
ATOM      7  C   UNL     1      14.540  -4.056  12.916  1.00  0.00     0.093 A 
ATOM      8  C   UNL     1      13.359  -4.658  13.361  1.00  0.00     0.123 A 
ATOM      9  C   UNL     1      13.242  -6.045  13.344  1.00  0.00     0.094 A 
ATOM     10  C   UNL     1      14.307  -6.842  12.917  1.00  0.00     0.146 A 
ATOM     11  O   UNL     1      14.157  -8.161  12.927  1.00  0.00    -0.452 OA
ENDROOT
BRANCH   1  12
ATOM     12  C   UNL     1      14.807 -10.459  12.597  1.00  0.00     0.029 A 
ATOM     13  C   UNL     1      15.860 -11.384  12.638  1.00  0.00     0.062 A 
ATOM     14  C   UNL     1      15.602 -12.758  12.691  1.00  0.00     0.162 A 
ATOM     15  C   UNL     1      13.483 -10.927  12.644  1.00  0.00     0.062 A 
ATOM     16  C   UNL     1      14.276 -13.223  12.718  1.00  0.00     0.200 A 
ATOM     17  C   UNL     1      13.214 -12.302  12.699  1.00  0.00     0.162 A 
BRANCH  14  18
ATOM     18  O   UNL     1      16.677 -13.646  12.717  1.00  0.00    -0.504 OA
ATOM     19  H   UNL     1      17.136 -13.962  11.870  1.00  0.00     0.293 HD
ENDBRANCH  14  18
BRANCH  16  20
ATOM     20  O   UNL     1      14.027 -14.595  12.766  1.00  0.00    -0.502 OA
ATOM     21  H   UNL     1      14.538 -15.257  12.193  1.00  0.00     0.293 HD
ENDBRANCH  16  20
BRANCH  17  22
ATOM     22  O   UNL     1      11.897 -12.755  12.739  1.00  0.00    -0.504 OA
ATOM     23  H   UNL     1      11.117 -12.114  12.830  1.00  0.00     0.293 HD
ENDBRANCH  17  22
ENDBRANCH   1  12
BRANCH   2  24
ATOM     24  O   UNL     1      17.413  -9.405  11.892  1.00  0.00    -0.502 OA
ATOM     25  H   UNL     1      17.292 -10.196  11.272  1.00  0.00     0.293 HD
ENDBRANCH   2  24
BRANCH   6  26
ATOM     26  O   UNL     1      16.708  -4.126  11.938  1.00  0.00    -0.507 OA
ATOM     27  H   UNL     1      16.772  -3.764  10.998  1.00  0.00     0.293 HD
ENDBRANCH   6  26
BRANCH   8  28
ATOM     28  O   UNL     1      12.293  -3.883  13.810  1.00  0.00    -0.508 OA
ATOM     29  H   UNL     1      11.951  -3.953  14.762  1.00  0.00     0.293 HD
ENDBRANCH   8  28
TORSDOF 7
ENDMDL
MODEL 5
REMARK VINA RESULT:    -5.038      1.662      6.629
REMARK INTER + INTRA:          -5.819
REMARK INTER:                  -6.199
REMARK INTRA:                   0.380
REMARK UNBOUND:                 0.398
REMARK SMILES O=c1c(O)c(-c2cc(O)c(O)c(O)c2)oc2cc(O)cc(O)c12
REMARK SMILES IDX 5 1 3 2 2 3 1 4 23 5 21 6 20 7 18 8 17 9 16 10 15 11 6 12
REMARK SMILES IDX 7 13 8 14 14 15 10 16 12 17 9 18 11 20 13 22 4 24 22 26
REMARK SMILES IDX 19 28
REMARK H PARENT 9 19 11 21 13 23 4 25 22 27 19 29
REMARK Flexibility Score: inf
ROOT
ATOM      1  C   UNL     1      15.083  -8.936  12.602  1.00  0.00     0.180 A 
ATOM      2  C   UNL     1      16.329  -8.416  12.209  1.00  0.00     0.208 A 
ATOM      3  C   UNL     1      16.506  -7.023  12.175  1.00  0.00     0.238 A 
ATOM      4  O   UNL     1      17.639  -6.565  11.875  1.00  0.00    -0.285 OA
ATOM      5  C   UNL     1      15.431  -6.168  12.519  1.00  0.00     0.111 A 
ATOM      6  C   UNL     1      15.487  -4.742  12.481  1.00  0.00     0.134 A 
ATOM      7  C   UNL     1      14.406  -3.996  12.967  1.00  0.00     0.093 A 
ATOM      8  C   UNL     1      13.246  -4.625  13.430  1.00  0.00     0.123 A 
ATOM      9  C   UNL     1      13.160  -6.015  13.414  1.00  0.00     0.094 A 
ATOM     10  C   UNL     1      14.236  -6.787  12.969  1.00  0.00     0.146 A 
ATOM     11  O   UNL     1      14.116  -8.109  12.981  1.00  0.00    -0.452 OA
ENDROOT
BRANCH   1  12
ATOM     12  C   UNL     1      14.813 -10.391  12.638  1.00  0.00     0.029 A 
ATOM     13  C   UNL     1      13.487 -10.848  12.614  1.00  0.00     0.062 A 
ATOM     14  C   UNL     1      13.202 -12.217  12.626  1.00  0.00     0.162 A 
ATOM     15  C   UNL     1      15.859 -11.329  12.639  1.00  0.00     0.062 A 
ATOM     16  C   UNL     1      14.252 -13.152  12.648  1.00  0.00     0.200 A 
ATOM     17  C   UNL     1      15.584 -12.704  12.650  1.00  0.00     0.162 A 
BRANCH  14  18
ATOM     18  O   UNL     1      11.870 -12.630  12.616  1.00  0.00    -0.504 OA
ATOM     19  H   UNL     1      11.576 -13.511  13.022  1.00  0.00     0.293 HD
ENDBRANCH  14  18
BRANCH  16  20
ATOM     20  O   UNL     1      13.959 -14.516  12.664  1.00  0.00    -0.502 OA
ATOM     21  H   UNL     1      13.067 -14.880  12.349  1.00  0.00     0.293 HD
ENDBRANCH  16  20
BRANCH  17  22
ATOM     22  O   UNL     1      16.630 -13.625  12.657  1.00  0.00    -0.504 OA
ATOM     23  H   UNL     1      16.617 -14.439  13.260  1.00  0.00     0.293 HD
ENDBRANCH  17  22
ENDBRANCH   1  12
BRANCH   2  24
ATOM     24  O   UNL     1      17.383  -9.278  11.894  1.00  0.00    -0.502 OA
ATOM     25  H   UNL     1      17.298 -10.286  11.952  1.00  0.00     0.293 HD
ENDBRANCH   2  24
BRANCH   6  26
ATOM     26  O   UNL     1      16.559  -4.016  11.956  1.00  0.00    -0.507 OA
ATOM     27  H   UNL     1      16.494  -3.381  11.174  1.00  0.00     0.293 HD
ENDBRANCH   6  26
BRANCH   8  28
ATOM     28  O   UNL     1      12.170  -3.875  13.897  1.00  0.00    -0.508 OA
ATOM     29  H   UNL     1      11.212  -4.153  13.717  1.00  0.00     0.293 HD
ENDBRANCH   8  28
TORSDOF 7
ENDMDL
MODEL 6
REMARK VINA RESULT:    -4.001      1.289      2.813
REMARK INTER + INTRA:          -4.538
REMARK INTER:                  -5.029
REMARK INTRA:                   0.491
REMARK UNBOUND:                 0.398
REMARK SMILES O=c1c(O)c(-c2cc(O)c(O)c(O)c2)oc2cc(O)cc(O)c12
REMARK SMILES IDX 5 1 3 2 2 3 1 4 23 5 21 6 20 7 18 8 17 9 16 10 15 11 6 12
REMARK SMILES IDX 7 13 8 14 14 15 10 16 12 17 9 18 11 20 13 22 4 24 22 26
REMARK SMILES IDX 19 28
REMARK H PARENT 9 19 11 21 13 23 4 25 22 27 19 29
REMARK Flexibility Score: inf
ROOT
ATOM      1  C   UNL     1      15.265  -8.633  12.425  1.00  0.00     0.180 A 
ATOM      2  C   UNL     1      13.899  -8.365  12.615  1.00  0.00     0.208 A 
ATOM      3  C   UNL     1      13.004  -9.441  12.737  1.00  0.00     0.238 A 
ATOM      4  O   UNL     1      11.790  -9.195  12.961  1.00  0.00    -0.285 OA
ATOM      5  C   UNL     1      13.485 -10.769  12.650  1.00  0.00     0.111 A 
ATOM      6  C   UNL     1      12.662 -11.934  12.719  1.00  0.00     0.134 A 
ATOM      7  C   UNL     1      13.260 -13.200  12.753  1.00  0.00     0.093 A 
ATOM      8  C   UNL     1      14.646 -13.345  12.656  1.00  0.00     0.123 A 
ATOM      9  C   UNL     1      15.452 -12.217  12.528  1.00  0.00     0.094 A 
ATOM     10  C   UNL     1      14.888 -10.939  12.528  1.00  0.00     0.146 A 
ATOM     11  O   UNL     1      15.694  -9.889  12.414  1.00  0.00    -0.452 OA
ENDROOT
BRANCH   1  12
ATOM     12  C   UNL     1      16.265  -7.552  12.264  1.00  0.00     0.029 A 
ATOM     13  C   UNL     1      15.832  -6.224  12.141  1.00  0.00     0.062 A 
ATOM     14  C   UNL     1      16.754  -5.181  12.009  1.00  0.00     0.162 A 
ATOM     15  C   UNL     1      17.643  -7.823  12.287  1.00  0.00     0.062 A 
ATOM     16  C   UNL     1      18.133  -5.458  12.012  1.00  0.00     0.200 A 
ATOM     17  C   UNL     1      18.576  -6.784  12.157  1.00  0.00     0.162 A 
BRANCH  14  18
ATOM     18  O   UNL     1      16.283  -3.875  11.875  1.00  0.00    -0.504 OA
ATOM     19  H   UNL     1      15.781  -3.404  12.619  1.00  0.00     0.293 HD
ENDBRANCH  14  18
BRANCH  16  20
ATOM     20  O   UNL     1      19.046  -4.412  11.875  1.00  0.00    -0.502 OA
ATOM     21  H   UNL     1      20.048  -4.569  11.868  1.00  0.00     0.293 HD
ENDBRANCH  16  20
BRANCH  17  22
ATOM     22  O   UNL     1      19.941  -7.065  12.175  1.00  0.00    -0.504 OA
ATOM     23  H   UNL     1      20.300  -7.932  12.558  1.00  0.00     0.293 HD
ENDBRANCH  17  22
ENDBRANCH   1  12
BRANCH   2  24
ATOM     24  O   UNL     1      13.448  -7.046  12.719  1.00  0.00    -0.502 OA
ATOM     25  H   UNL     1      13.408  -6.552  13.603  1.00  0.00     0.293 HD
ENDBRANCH   2  24
BRANCH   6  26
ATOM     26  O   UNL     1      11.265 -11.904  12.729  1.00  0.00    -0.507 OA
ATOM     27  H   UNL     1      10.705 -11.128  12.408  1.00  0.00     0.293 HD
ENDBRANCH   6  26
BRANCH   8  28
ATOM     28  O   UNL     1      15.232 -14.609  12.675  1.00  0.00    -0.508 OA
ATOM     29  H   UNL     1      15.324 -15.163  11.832  1.00  0.00     0.293 HD
ENDBRANCH   8  28
TORSDOF 7
ENDMDL
