MODEL 1
REMARK VINA RESULT:    -5.164      0.000      0.000
REMARK INTER + INTRA:          -7.046
REMARK INTER:                  -6.522
REMARK INTRA:                  -0.524
REMARK UNBOUND:                -0.524
REMARK SMILES Oc1cc(O)cc(CCc2ccccc2O)c1
REMARK SMILES IDX 9 1 10 2 12 3 13 4 11 5 14 6 15 7 16 8 8 10 7 11 6 12 17 13
REMARK SMILES IDX 4 14 2 15 3 16 5 17 1 19
REMARK H PARENT 16 9 5 18 1 20
REMARK Flexibility Score: inf
ROOT
ATOM      1  C   UNL     1      13.991   3.880  20.929  1.00  0.00     0.044 C 
ENDROOT
BRANCH   1   2
ATOM      2  C   UNL     1      13.686   2.663  21.766  1.00  0.00    -0.006 A 
ATOM      3  C   UNL     1      14.314   0.444  22.539  1.00  0.00     0.001 A 
ATOM      4  C   UNL     1      13.190   0.409  23.365  1.00  0.00     0.004 A 
ATOM      5  C   UNL     1      14.566   1.568  21.746  1.00  0.00     0.007 A 
ATOM      6  C   UNL     1      12.315   1.498  23.405  1.00  0.00     0.046 A 
ATOM      7  C   UNL     1      12.560   2.630  22.614  1.00  0.00     0.118 A 
BRANCH   7   8
ATOM      8  O   UNL     1      11.691   3.720  22.670  1.00  0.00    -0.508 OA
ATOM      9  H   UNL     1      11.745   4.477  22.000  1.00  0.00     0.293 HD
ENDBRANCH   7   8
ENDBRANCH   1   2
BRANCH   1  10
ATOM     10  C   UNL     1      13.615   3.634  19.464  1.00  0.00     0.040 C 
BRANCH  10  11
ATOM     11  C   UNL     1      12.702   4.719  18.963  1.00  0.00    -0.040 A 
ATOM     12  C   UNL     1      12.196   4.670  17.654  1.00  0.00     0.050 A 
ATOM     13  C   UNL     1      12.395   5.820  19.780  1.00  0.00     0.050 A 
ATOM     14  C   UNL     1      11.373   5.696  17.175  1.00  0.00     0.119 A 
ATOM     15  C   UNL     1      11.572   6.848  19.302  1.00  0.00     0.119 A 
ATOM     16  C   UNL     1      11.060   6.782  18.002  1.00  0.00     0.092 A 
BRANCH  14  17
ATOM     17  O   UNL     1      10.875   5.625  15.875  1.00  0.00    -0.508 OA
ATOM     18  H   UNL     1      11.449   5.300  15.105  1.00  0.00     0.293 HD
ENDBRANCH  14  17
BRANCH  15  19
ATOM     19  O   UNL     1      11.258   7.939  20.109  1.00  0.00    -0.508 OA
ATOM     20  H   UNL     1      10.297   8.206  20.289  1.00  0.00     0.293 HD
ENDBRANCH  15  19
ENDBRANCH  10  11
ENDBRANCH   1  10
TORSDOF 6
ENDMDL
MODEL 2
REMARK VINA RESULT:    -5.133      0.266      2.052
REMARK INTER + INTRA:          -7.008
REMARK INTER:                  -6.506
REMARK INTRA:                  -0.502
REMARK UNBOUND:                -0.524
REMARK SMILES Oc1cc(O)cc(CCc2ccccc2O)c1
REMARK SMILES IDX 9 1 10 2 12 3 13 4 11 5 14 6 15 7 16 8 8 10 7 11 6 12 17 13
REMARK SMILES IDX 4 14 2 15 3 16 5 17 1 19
REMARK H PARENT 16 9 5 18 1 20
REMARK Flexibility Score: inf
ROOT
ATOM      1  C   UNL     1      14.012   3.725  20.968  1.00  0.00     0.044 C 
ENDROOT
BRANCH   1   2
ATOM      2  C   UNL     1      13.756   2.434  21.705  1.00  0.00    -0.006 A 
ATOM      3  C   UNL     1      14.488   0.201  22.330  1.00  0.00     0.001 A 
ATOM      4  C   UNL     1      13.348   0.043  23.119  1.00  0.00     0.004 A 
ATOM      5  C   UNL     1      14.696   1.392  21.630  1.00  0.00     0.007 A 
ATOM      6  C   UNL     1      12.413   1.077  23.214  1.00  0.00     0.046 A 
ATOM      7  C   UNL     1      12.613   2.277  22.515  1.00  0.00     0.118 A 
BRANCH   7   8
ATOM      8  O   UNL     1      11.683   3.310  22.626  1.00  0.00    -0.508 OA
ATOM      9  H   UNL     1      10.774   3.163  23.047  1.00  0.00     0.293 HD
ENDBRANCH   7   8
ENDBRANCH   1   2
BRANCH   1  10
ATOM     10  C   UNL     1      13.732   3.555  19.471  1.00  0.00     0.040 C 
BRANCH  10  11
ATOM     11  C   UNL     1      12.836   4.657  18.972  1.00  0.00    -0.040 A 
ATOM     12  C   UNL     1      12.500   5.731  19.811  1.00  0.00     0.050 A 
ATOM     13  C   UNL     1      12.283   4.590  17.682  1.00  0.00     0.050 A 
ATOM     14  C   UNL     1      11.641   6.739  19.360  1.00  0.00     0.119 A 
ATOM     15  C   UNL     1      11.422   5.598  17.228  1.00  0.00     0.119 A 
ATOM     16  C   UNL     1      11.105   6.672  18.067  1.00  0.00     0.092 A 
BRANCH  14  17
ATOM     17  O   UNL     1      11.324   7.801  20.206  1.00  0.00    -0.508 OA
ATOM     18  H   UNL     1      11.455   8.764  19.917  1.00  0.00     0.293 HD
ENDBRANCH  14  17
BRANCH  15  19
ATOM     19  O   UNL     1      10.876   5.541  15.949  1.00  0.00    -0.508 OA
ATOM     20  H   UNL     1      10.482   6.361  15.504  1.00  0.00     0.293 HD
ENDBRANCH  15  19
ENDBRANCH  10  11
ENDBRANCH   1  10
TORSDOF 6
ENDMDL
MODEL 3
REMARK VINA RESULT:    -5.013      4.017      5.821
REMARK INTER + INTRA:          -6.856
REMARK INTER:                  -6.075
REMARK INTRA:                  -0.781
REMARK UNBOUND:                -0.524
REMARK SMILES Oc1cc(O)cc(CCc2ccccc2O)c1
REMARK SMILES IDX 9 1 10 2 12 3 13 4 11 5 14 6 15 7 16 8 8 10 7 11 6 12 17 13
REMARK SMILES IDX 4 14 2 15 3 16 5 17 1 19
REMARK H PARENT 16 9 5 18 1 20
REMARK Flexibility Score: inf
ROOT
ATOM      1  C   UNL     1      11.028   5.742  17.119  1.00  0.00     0.044 C 
ENDROOT
BRANCH   1   2
ATOM      2  C   UNL     1      11.225   6.733  18.239  1.00  0.00    -0.006 A 
ATOM      3  C   UNL     1      11.025   9.006  19.081  1.00  0.00     0.001 A 
ATOM      4  C   UNL     1      11.512   8.594  20.322  1.00  0.00     0.004 A 
ATOM      5  C   UNL     1      10.877   8.080  18.044  1.00  0.00     0.007 A 
ATOM      6  C   UNL     1      11.848   7.254  20.533  1.00  0.00     0.046 A 
ATOM      7  C   UNL     1      11.702   6.317  19.499  1.00  0.00     0.118 A 
BRANCH   7   8
ATOM      8  O   UNL     1      12.024   4.979  19.721  1.00  0.00    -0.508 OA
ATOM      9  H   UNL     1      12.784   4.711  20.336  1.00  0.00     0.293 HD
ENDBRANCH   7   8
ENDBRANCH   1   2
BRANCH   1  10
ATOM     10  C   UNL     1      11.972   6.052  15.953  1.00  0.00     0.040 C 
BRANCH  10  11
ATOM     11  C   UNL     1      13.374   5.612  16.276  1.00  0.00    -0.040 A 
ATOM     12  C   UNL     1      13.632   4.282  16.643  1.00  0.00     0.050 A 
ATOM     13  C   UNL     1      14.427   6.542  16.269  1.00  0.00     0.050 A 
ATOM     14  C   UNL     1      14.930   3.878  16.975  1.00  0.00     0.119 A 
ATOM     15  C   UNL     1      15.728   6.140  16.603  1.00  0.00     0.119 A 
ATOM     16  C   UNL     1      15.977   4.809  16.952  1.00  0.00     0.092 A 
BRANCH  14  17
ATOM     17  O   UNL     1      15.166   2.551  17.330  1.00  0.00    -0.508 OA
ATOM     18  H   UNL     1      14.410   1.934  17.605  1.00  0.00     0.293 HD
ENDBRANCH  14  17
BRANCH  15  19
ATOM     19  O   UNL     1      16.777   7.055  16.592  1.00  0.00    -0.508 OA
ATOM     20  H   UNL     1      16.631   8.027  16.347  1.00  0.00     0.293 HD
ENDBRANCH  15  19
ENDBRANCH  10  11
ENDBRANCH   1  10
TORSDOF 6
ENDMDL
MODEL 4
REMARK VINA RESULT:    -5.005      2.872      3.844
REMARK INTER + INTRA:          -6.846
REMARK INTER:                  -6.420
REMARK INTRA:                  -0.426
REMARK UNBOUND:                -0.524
REMARK SMILES Oc1cc(O)cc(CCc2ccccc2O)c1
REMARK SMILES IDX 9 1 10 2 12 3 13 4 11 5 14 6 15 7 16 8 8 10 7 11 6 12 17 13
REMARK SMILES IDX 4 14 2 15 3 16 5 17 1 19
REMARK H PARENT 16 9 5 18 1 20
REMARK Flexibility Score: inf
ROOT
ATOM      1  C   UNL     1      12.061   5.644  21.247  1.00  0.00     0.044 C 
ENDROOT
BRANCH   1   2
ATOM      2  C   UNL     1      11.672   5.753  22.701  1.00  0.00    -0.006 A 
ATOM      3  C   UNL     1      10.997   7.130  24.588  1.00  0.00     0.001 A 
ATOM      4  C   UNL     1      10.876   5.989  25.383  1.00  0.00     0.004 A 
ATOM      5  C   UNL     1      11.388   7.014  23.251  1.00  0.00     0.007 A 
ATOM      6  C   UNL     1      11.141   4.728  24.843  1.00  0.00     0.046 A 
ATOM      7  C   UNL     1      11.534   4.602  23.502  1.00  0.00     0.118 A 
BRANCH   7   8
ATOM      8  O   UNL     1      11.782   3.339  22.965  1.00  0.00    -0.508 OA
ATOM      9  H   UNL     1      12.294   2.634  23.482  1.00  0.00     0.293 HD
ENDBRANCH   7   8
ENDBRANCH   1   2
BRANCH   1  10
ATOM     10  C   UNL     1      11.729   6.940  20.502  1.00  0.00     0.040 C 
BRANCH  10  11
ATOM     11  C   UNL     1      11.784   6.724  19.014  1.00  0.00    -0.040 A 
ATOM     12  C   UNL     1      12.383   5.569  18.488  1.00  0.00     0.050 A 
ATOM     13  C   UNL     1      11.289   7.704  18.137  1.00  0.00     0.050 A 
ATOM     14  C   UNL     1      12.465   5.381  17.104  1.00  0.00     0.119 A 
ATOM     15  C   UNL     1      11.370   7.519  16.750  1.00  0.00     0.119 A 
ATOM     16  C   UNL     1      11.955   6.357  16.237  1.00  0.00     0.092 A 
BRANCH  14  17
ATOM     17  O   UNL     1      13.057   4.224  16.601  1.00  0.00    -0.508 OA
ATOM     18  H   UNL     1      12.982   3.973  15.622  1.00  0.00     0.293 HD
ENDBRANCH  14  17
BRANCH  15  19
ATOM     19  O   UNL     1      10.875   8.483  15.876  1.00  0.00    -0.508 OA
ATOM     20  H   UNL     1      11.462   9.229  15.522  1.00  0.00     0.293 HD
ENDBRANCH  15  19
ENDBRANCH  10  11
ENDBRANCH   1  10
TORSDOF 6
ENDMDL
MODEL 5
REMARK VINA RESULT:    -5.002      2.134      6.524
REMARK INTER + INTRA:          -6.842
REMARK INTER:                  -6.317
REMARK INTRA:                  -0.525
REMARK UNBOUND:                -0.524
REMARK SMILES Oc1cc(O)cc(CCc2ccccc2O)c1
REMARK SMILES IDX 9 1 10 2 12 3 13 4 11 5 14 6 15 7 16 8 8 10 7 11 6 12 17 13
REMARK SMILES IDX 4 14 2 15 3 16 5 17 1 19
REMARK H PARENT 16 9 5 18 1 20
REMARK Flexibility Score: inf
ROOT
ATOM      1  C   UNL     1      14.323   3.705  17.983  1.00  0.00     0.044 C 
ENDROOT
BRANCH   1   2
ATOM      2  C   UNL     1      13.202   4.560  17.446  1.00  0.00    -0.006 A 
ATOM      3  C   UNL     1      10.876   5.262  17.543  1.00  0.00     0.001 A 
ATOM      4  C   UNL     1      11.107   6.184  16.522  1.00  0.00     0.004 A 
ATOM      5  C   UNL     1      11.918   4.456  18.009  1.00  0.00     0.007 A 
ATOM      6  C   UNL     1      12.382   6.307  15.964  1.00  0.00     0.046 A 
ATOM      7  C   UNL     1      13.435   5.503  16.425  1.00  0.00     0.118 A 
BRANCH   7   8
ATOM      8  O   UNL     1      14.709   5.642  15.875  1.00  0.00    -0.508 OA
ATOM      9  H   UNL     1      15.039   6.531  15.518  1.00  0.00     0.293 HD
ENDBRANCH   7   8
ENDBRANCH   1   2
BRANCH   1  10
ATOM     10  C   UNL     1      14.739   4.177  19.380  1.00  0.00     0.040 C 
BRANCH  10  11
ATOM     11  C   UNL     1      14.359   3.158  20.418  1.00  0.00    -0.040 A 
ATOM     12  C   UNL     1      13.162   3.293  21.139  1.00  0.00     0.050 A 
ATOM     13  C   UNL     1      15.227   2.093  20.717  1.00  0.00     0.050 A 
ATOM     14  C   UNL     1      12.822   2.364  22.128  1.00  0.00     0.119 A 
ATOM     15  C   UNL     1      14.889   1.162  21.708  1.00  0.00     0.119 A 
ATOM     16  C   UNL     1      13.687   1.297  22.409  1.00  0.00     0.092 A 
BRANCH  14  17
ATOM     17  O   UNL     1      11.626   2.512  22.827  1.00  0.00    -0.508 OA
ATOM     18  H   UNL     1      11.533   3.184  23.580  1.00  0.00     0.293 HD
ENDBRANCH  14  17
BRANCH  15  19
ATOM     19  O   UNL     1      15.741   0.101  22.004  1.00  0.00    -0.508 OA
ATOM     20  H   UNL     1      16.748   0.209  21.987  1.00  0.00     0.293 HD
ENDBRANCH  15  19
ENDBRANCH  10  11
ENDBRANCH   1  10
TORSDOF 6
ENDMDL
MODEL 6
REMARK VINA RESULT:    -4.973      4.034      5.984
REMARK INTER + INTRA:          -6.805
REMARK INTER:                  -6.041
REMARK INTRA:                  -0.764
REMARK UNBOUND:                -0.524
REMARK SMILES Oc1cc(O)cc(CCc2ccccc2O)c1
REMARK SMILES IDX 9 1 10 2 12 3 13 4 11 5 14 6 15 7 16 8 8 10 7 11 6 12 17 13
REMARK SMILES IDX 4 14 2 15 3 16 5 17 1 19
REMARK H PARENT 16 9 5 18 1 20
REMARK Flexibility Score: inf
ROOT
ATOM      1  C   UNL     1      11.112   5.755  17.064  1.00  0.00     0.044 C 
ENDROOT
BRANCH   1   2
ATOM      2  C   UNL     1      11.236   6.745  18.195  1.00  0.00    -0.006 A 
ATOM      3  C   UNL     1      10.956   9.010  19.033  1.00  0.00     0.001 A 
ATOM      4  C   UNL     1      11.386   8.601  20.296  1.00  0.00     0.004 A 
ATOM      5  C   UNL     1      10.875   8.087  17.988  1.00  0.00     0.007 A 
ATOM      6  C   UNL     1      11.734   7.266  20.519  1.00  0.00     0.046 A 
ATOM      7  C   UNL     1      11.656   6.332  19.476  1.00  0.00     0.118 A 
BRANCH   7   8
ATOM      8  O   UNL     1      11.989   4.998  19.710  1.00  0.00    -0.508 OA
ATOM      9  H   UNL     1      11.560   4.244  19.188  1.00  0.00     0.293 HD
ENDBRANCH   7   8
ENDBRANCH   1   2
BRANCH   1  10
ATOM     10  C   UNL     1      12.110   6.084  15.949  1.00  0.00     0.040 C 
BRANCH  10  11
ATOM     11  C   UNL     1      13.498   5.653  16.337  1.00  0.00    -0.040 A 
ATOM     12  C   UNL     1      14.557   6.575  16.321  1.00  0.00     0.050 A 
ATOM     13  C   UNL     1      13.758   4.311  16.662  1.00  0.00     0.050 A 
ATOM     14  C   UNL     1      15.855   6.168  16.649  1.00  0.00     0.119 A 
ATOM     15  C   UNL     1      15.057   3.901  16.991  1.00  0.00     0.119 A 
ATOM     16  C   UNL     1      16.102   4.831  16.987  1.00  0.00     0.092 A 
BRANCH  14  17
ATOM     17  O   UNL     1      16.891   7.101  16.635  1.00  0.00    -0.508 OA
ATOM     18  H   UNL     1      17.740   6.939  16.106  1.00  0.00     0.293 HD
ENDBRANCH  14  17
BRANCH  15  19
ATOM     19  O   UNL     1      15.321   2.574  17.320  1.00  0.00    -0.508 OA
ATOM     20  H   UNL     1      16.258   2.193  17.278  1.00  0.00     0.293 HD
ENDBRANCH  15  19
ENDBRANCH  10  11
ENDBRANCH   1  10
TORSDOF 6
ENDMDL
MODEL 7
REMARK VINA RESULT:    -4.912      1.663      2.296
REMARK INTER + INTRA:          -6.728
REMARK INTER:                  -6.333
REMARK INTRA:                  -0.395
REMARK UNBOUND:                -0.524
REMARK SMILES Oc1cc(O)cc(CCc2ccccc2O)c1
REMARK SMILES IDX 9 1 10 2 12 3 13 4 11 5 14 6 15 7 16 8 8 10 7 11 6 12 17 13
REMARK SMILES IDX 4 14 2 15 3 16 5 17 1 19
REMARK H PARENT 16 9 5 18 1 20
REMARK Flexibility Score: inf
ROOT
ATOM      1  C   UNL     1      13.556   3.932  20.539  1.00  0.00     0.044 C 
ENDROOT
BRANCH   1   2
ATOM      2  C   UNL     1      13.434   2.768  21.490  1.00  0.00    -0.006 A 
ATOM      3  C   UNL     1      14.243   0.613  22.273  1.00  0.00     0.001 A 
ATOM      4  C   UNL     1      13.283   0.615  23.286  1.00  0.00     0.004 A 
ATOM      5  C   UNL     1      14.324   1.686  21.382  1.00  0.00     0.007 A 
ATOM      6  C   UNL     1      12.401   1.692  23.413  1.00  0.00     0.046 A 
ATOM      7  C   UNL     1      12.475   2.774  22.523  1.00  0.00     0.118 A 
BRANCH   7   8
ATOM      8  O   UNL     1      11.603   3.852  22.666  1.00  0.00    -0.508 OA
ATOM      9  H   UNL     1      10.863   4.028  21.997  1.00  0.00     0.293 HD
ENDBRANCH   7   8
ENDBRANCH   1   2
BRANCH   1  10
ATOM     10  C   UNL     1      13.932   3.445  19.137  1.00  0.00     0.040 C 
BRANCH  10  11
ATOM     11  C   UNL     1      13.664   4.516  18.115  1.00  0.00    -0.040 A 
ATOM     12  C   UNL     1      14.642   5.481  17.825  1.00  0.00     0.050 A 
ATOM     13  C   UNL     1      12.411   4.595  17.484  1.00  0.00     0.050 A 
ATOM     14  C   UNL     1      14.383   6.497  16.900  1.00  0.00     0.119 A 
ATOM     15  C   UNL     1      12.148   5.613  16.557  1.00  0.00     0.119 A 
ATOM     16  C   UNL     1      13.135   6.560  16.265  1.00  0.00     0.092 A 
BRANCH  14  17
ATOM     17  O   UNL     1      15.370   7.441  16.621  1.00  0.00    -0.508 OA
ATOM     18  H   UNL     1      15.814   7.976  17.359  1.00  0.00     0.293 HD
ENDBRANCH  14  17
BRANCH  15  19
ATOM     19  O   UNL     1      10.911   5.693  15.924  1.00  0.00    -0.508 OA
ATOM     20  H   UNL     1      10.107   5.179  16.263  1.00  0.00     0.293 HD
ENDBRANCH  15  19
ENDBRANCH  10  11
ENDBRANCH   1  10
TORSDOF 6
ENDMDL
MODEL 8
REMARK VINA RESULT:    -4.901     12.987     14.208
REMARK INTER + INTRA:          -6.714
REMARK INTER:                  -6.251
REMARK INTRA:                  -0.463
REMARK UNBOUND:                -0.524
REMARK SMILES Oc1cc(O)cc(CCc2ccccc2O)c1
REMARK SMILES IDX 9 1 10 2 12 3 13 4 11 5 14 6 15 7 16 8 8 10 7 11 6 12 17 13
REMARK SMILES IDX 4 14 2 15 3 16 5 17 1 19
REMARK H PARENT 16 9 5 18 1 20
REMARK Flexibility Score: inf
ROOT
ATOM      1  C   UNL     1      24.426   2.632  17.166  1.00  0.00     0.044 C 
ENDROOT
BRANCH   1   2
ATOM      2  C   UNL     1      23.496   1.491  17.497  1.00  0.00    -0.006 A 
ATOM      3  C   UNL     1      23.035  -0.531  18.767  1.00  0.00     0.001 A 
ATOM      4  C   UNL     1      21.765  -0.608  18.192  1.00  0.00     0.004 A 
ATOM      5  C   UNL     1      23.896   0.516  18.427  1.00  0.00     0.007 A 
ATOM      6  C   UNL     1      21.351   0.364  17.277  1.00  0.00     0.046 A 
ATOM      7  C   UNL     1      22.208   1.419  16.930  1.00  0.00     0.118 A 
BRANCH   7   8
ATOM      8  O   UNL     1      21.782   2.393  16.028  1.00  0.00    -0.508 OA
ATOM      9  H   UNL     1      21.016   2.224  15.386  1.00  0.00     0.293 HD
ENDBRANCH   7   8
ENDBRANCH   1   2
BRANCH   1  10
ATOM     10  C   UNL     1      25.303   2.279  15.960  1.00  0.00     0.040 C 
BRANCH  10  11
ATOM     11  C   UNL     1      26.706   2.783  16.161  1.00  0.00    -0.040 A 
ATOM     12  C   UNL     1      27.738   1.891  16.494  1.00  0.00     0.050 A 
ATOM     13  C   UNL     1      26.984   4.157  16.074  1.00  0.00     0.050 A 
ATOM     14  C   UNL     1      29.037   2.362  16.713  1.00  0.00     0.119 A 
ATOM     15  C   UNL     1      28.284   4.632  16.294  1.00  0.00     0.119 A 
ATOM     16  C   UNL     1      29.308   3.733  16.610  1.00  0.00     0.092 A 
BRANCH  14  17
ATOM     17  O   UNL     1      30.050   1.460  17.036  1.00  0.00    -0.508 OA
ATOM     18  H   UNL     1      30.060   0.520  16.658  1.00  0.00     0.293 HD
ENDBRANCH  14  17
BRANCH  15  19
ATOM     19  O   UNL     1      28.568   5.992  16.203  1.00  0.00    -0.508 OA
ATOM     20  H   UNL     1      29.240   6.350  15.535  1.00  0.00     0.293 HD
ENDBRANCH  15  19
ENDBRANCH  10  11
ENDBRANCH   1  10
TORSDOF 6
ENDMDL
MODEL 9
REMARK VINA RESULT:    -4.898     12.944     14.211
REMARK INTER + INTRA:          -6.710
REMARK INTER:                  -6.287
REMARK INTRA:                  -0.423
REMARK UNBOUND:                -0.524
REMARK SMILES Oc1cc(O)cc(CCc2ccccc2O)c1
REMARK SMILES IDX 9 1 10 2 12 3 13 4 11 5 14 6 15 7 16 8 8 10 7 11 6 12 17 13
REMARK SMILES IDX 4 14 2 15 3 16 5 17 1 19
REMARK H PARENT 16 9 5 18 1 20
REMARK Flexibility Score: inf
ROOT
ATOM      1  C   UNL     1      24.409   2.506  17.321  1.00  0.00     0.044 C 
ENDROOT
BRANCH   1   2
ATOM      2  C   UNL     1      23.453   1.372  17.594  1.00  0.00    -0.006 A 
ATOM      3  C   UNL     1      22.921  -0.669  18.805  1.00  0.00     0.001 A 
ATOM      4  C   UNL     1      21.673  -0.718  18.183  1.00  0.00     0.004 A 
ATOM      5  C   UNL     1      23.806   0.373  18.518  1.00  0.00     0.007 A 
ATOM      6  C   UNL     1      21.304   0.277  17.273  1.00  0.00     0.046 A 
ATOM      7  C   UNL     1      22.186   1.327  16.979  1.00  0.00     0.118 A 
BRANCH   7   8
ATOM      8  O   UNL     1      21.805   2.325  16.082  1.00  0.00    -0.508 OA
ATOM      9  H   UNL     1      22.332   2.507  15.236  1.00  0.00     0.293 HD
ENDBRANCH   7   8
ENDBRANCH   1   2
BRANCH   1  10
ATOM     10  C   UNL     1      25.271   2.200  16.092  1.00  0.00     0.040 C 
BRANCH  10  11
ATOM     11  C   UNL     1      26.668   2.726  16.282  1.00  0.00    -0.040 A 
ATOM     12  C   UNL     1      26.942   4.091  16.102  1.00  0.00     0.050 A 
ATOM     13  C   UNL     1      27.721   1.845  16.584  1.00  0.00     0.050 A 
ATOM     14  C   UNL     1      28.246   4.576  16.246  1.00  0.00     0.119 A 
ATOM     15  C   UNL     1      29.028   2.329  16.728  1.00  0.00     0.119 A 
ATOM     16  C   UNL     1      29.288   3.693  16.561  1.00  0.00     0.092 A 
BRANCH  14  17
ATOM     17  O   UNL     1      28.496   5.936  16.070  1.00  0.00    -0.508 OA
ATOM     18  H   UNL     1      29.434   6.284  15.905  1.00  0.00     0.293 HD
ENDBRANCH  14  17
BRANCH  15  19
ATOM     19  O   UNL     1      30.075   1.463  17.034  1.00  0.00    -0.508 OA
ATOM     20  H   UNL     1      30.858   1.759  17.603  1.00  0.00     0.293 HD
ENDBRANCH  15  19
ENDBRANCH  10  11
ENDBRANCH   1  10
TORSDOF 6
ENDMDL
