MODEL 1
REMARK VINA RESULT:    -6.301      0.000      0.000
REMARK INTER + INTRA:          -6.854
REMARK INTER:                  -6.854
REMARK INTRA:                   0.000
REMARK UNBOUND:                 0.000
REMARK SMILES Cc1cc(O)c2c(c1)C(=O)c1cc(O)cc(O)c1C2=O
REMARK SMILES IDX 1 1 2 2 8 3 7 4 6 5 4 6 3 7 19 8 20 9 18 10 11 11 9 12 10 13
REMARK SMILES IDX 12 14 13 15 15 16 16 17 5 18 17 20 14 22
REMARK H PARENT 5 19 17 21 14 23
REMARK Flexibility Score: inf
ROOT
ATOM      1  C   UNL     1      19.900  20.381  18.130  1.00  0.00     0.044 C 
ATOM      2  C   UNL     1      20.341  21.263  19.262  1.00  0.00    -0.047 A 
ATOM      3  C   UNL     1      19.494  22.265  19.745  1.00  0.00     0.016 A 
ATOM      4  C   UNL     1      19.914  23.124  20.775  1.00  0.00     0.038 A 
ATOM      5  C   UNL     1      21.216  22.994  21.312  1.00  0.00     0.076 A 
ATOM      6  C   UNL     1      22.053  21.947  20.849  1.00  0.00     0.127 A 
ATOM      7  C   UNL     1      21.620  21.117  19.811  1.00  0.00     0.050 A 
ATOM      8  C   UNL     1      21.675  24.013  22.292  1.00  0.00     0.201 C 
ATOM      9  O   UNL     1      22.897  24.306  22.364  1.00  0.00    -0.288 OA
ATOM     10  C   UNL     1      20.676  24.813  23.048  1.00  0.00     0.076 A 
ATOM     11  C   UNL     1      19.377  24.940  22.507  1.00  0.00     0.041 A 
ATOM     12  C   UNL     1      18.998  24.163  21.302  1.00  0.00     0.194 C 
ATOM     13  O   UNL     1      17.887  24.369  20.742  1.00  0.00    -0.289 OA
ATOM     14  C   UNL     1      18.446  25.799  23.117  1.00  0.00     0.059 A 
ATOM     15  C   UNL     1      18.792  26.518  24.264  1.00  0.00     0.120 A 
ATOM     16  C   UNL     1      20.060  26.364  24.823  1.00  0.00     0.093 A 
ATOM     17  C   UNL     1      20.997  25.500  24.247  1.00  0.00     0.131 A 
ENDROOT
BRANCH   6  18
ATOM     18  O   UNL     1      23.303  21.675  21.412  1.00  0.00    -0.507 OA
ATOM     19  H   UNL     1      24.048  21.204  20.918  1.00  0.00     0.293 HD
ENDBRANCH   6  18
BRANCH  17  20
ATOM     20  O   UNL     1      22.213  25.329  24.914  1.00  0.00    -0.507 OA
ATOM     21  H   UNL     1      23.107  25.582  24.518  1.00  0.00     0.293 HD
ENDBRANCH  17  20
BRANCH  15  22
ATOM     22  O   UNL     1      17.876  27.379  24.866  1.00  0.00    -0.508 OA
ATOM     23  H   UNL     1      16.879  27.274  24.725  1.00  0.00     0.293 HD
ENDBRANCH  15  22
TORSDOF 3
ENDMDL
MODEL 2
REMARK VINA RESULT:    -5.839     15.795     17.497
REMARK INTER + INTRA:          -6.351
REMARK INTER:                  -6.351
REMARK INTRA:                   0.000
REMARK UNBOUND:                 0.000
REMARK SMILES Cc1cc(O)c2c(c1)C(=O)c1cc(O)cc(O)c1C2=O
REMARK SMILES IDX 1 1 2 2 8 3 7 4 6 5 4 6 3 7 19 8 20 9 18 10 11 11 9 12 10 13
REMARK SMILES IDX 12 14 13 15 15 16 16 17 5 18 17 20 14 22
REMARK H PARENT 5 19 17 21 14 23
REMARK Flexibility Score: inf
ROOT
ATOM      1  C   UNL     1      34.549  23.763  24.561  1.00  0.00     0.044 C 
ATOM      2  C   UNL     1      34.941  23.219  25.904  1.00  0.00    -0.047 A 
ATOM      3  C   UNL     1      35.170  24.087  26.976  1.00  0.00     0.016 A 
ATOM      4  C   UNL     1      35.579  23.590  28.225  1.00  0.00     0.038 A 
ATOM      5  C   UNL     1      35.789  22.203  28.396  1.00  0.00     0.076 A 
ATOM      6  C   UNL     1      35.511  21.323  27.318  1.00  0.00     0.127 A 
ATOM      7  C   UNL     1      35.124  21.843  26.079  1.00  0.00     0.050 A 
ATOM      8  C   UNL     1      36.363  21.734  29.684  1.00  0.00     0.201 C 
ATOM      9  O   UNL     1      37.080  20.699  29.711  1.00  0.00    -0.288 OA
ATOM     10  C   UNL     1      36.248  22.585  30.897  1.00  0.00     0.076 A 
ATOM     11  C   UNL     1      36.039  23.972  30.721  1.00  0.00     0.041 A 
ATOM     12  C   UNL     1      35.789  24.515  29.364  1.00  0.00     0.194 C 
ATOM     13  O   UNL     1      35.730  25.763  29.185  1.00  0.00    -0.289 OA
ATOM     14  C   UNL     1      36.064  24.829  31.834  1.00  0.00     0.059 A 
ATOM     15  C   UNL     1      36.279  24.319  33.118  1.00  0.00     0.120 A 
ATOM     16  C   UNL     1      36.446  22.947  33.299  1.00  0.00     0.093 A 
ATOM     17  C   UNL     1      36.405  22.070  32.210  1.00  0.00     0.131 A 
ENDROOT
BRANCH   6  18
ATOM     18  O   UNL     1      35.575  19.934  27.442  1.00  0.00    -0.507 OA
ATOM     19  H   UNL     1      35.201  19.293  26.756  1.00  0.00     0.293 HD
ENDBRANCH   6  18
BRANCH  17  20
ATOM     20  O   UNL     1      36.490  20.702  32.480  1.00  0.00    -0.507 OA
ATOM     21  H   UNL     1      36.577  20.320  33.411  1.00  0.00     0.293 HD
ENDBRANCH  17  20
BRANCH  15  22
ATOM     22  O   UNL     1      36.315  25.167  34.222  1.00  0.00    -0.508 OA
ATOM     23  H   UNL     1      36.228  26.171  34.122  1.00  0.00     0.293 HD
ENDBRANCH  15  22
TORSDOF 3
ENDMDL
MODEL 3
REMARK VINA RESULT:    -5.644     17.125     19.399
REMARK INTER + INTRA:          -6.139
REMARK INTER:                  -6.139
REMARK INTRA:                   0.000
REMARK UNBOUND:                 0.000
REMARK SMILES Cc1cc(O)c2c(c1)C(=O)c1cc(O)cc(O)c1C2=O
REMARK SMILES IDX 1 1 2 2 8 3 7 4 6 5 4 6 3 7 19 8 20 9 18 10 11 11 9 12 10 13
REMARK SMILES IDX 12 14 13 15 15 16 16 17 5 18 17 20 14 22
REMARK H PARENT 5 19 17 21 14 23
REMARK Flexibility Score: inf
ROOT
ATOM      1  C   UNL     1      36.356  20.510  36.116  1.00  0.00     0.044 C 
ATOM      2  C   UNL     1      36.294  21.693  35.194  1.00  0.00    -0.047 A 
ATOM      3  C   UNL     1      36.375  21.512  33.810  1.00  0.00     0.016 A 
ATOM      4  C   UNL     1      36.362  22.616  32.941  1.00  0.00     0.038 A 
ATOM      5  C   UNL     1      36.293  23.926  33.468  1.00  0.00     0.076 A 
ATOM      6  C   UNL     1      36.164  24.101  34.870  1.00  0.00     0.127 A 
ATOM      7  C   UNL     1      36.199  22.988  35.716  1.00  0.00     0.050 A 
ATOM      8  C   UNL     1      36.430  25.069  32.528  1.00  0.00     0.201 C 
ATOM      9  O   UNL     1      36.938  26.150  32.927  1.00  0.00    -0.288 OA
ATOM     10  C   UNL     1      36.146  24.874  31.083  1.00  0.00     0.076 A 
ATOM     11  C   UNL     1      36.217  23.564  30.560  1.00  0.00     0.041 A 
ATOM     12  C   UNL     1      36.417  22.413  31.474  1.00  0.00     0.194 C 
ATOM     13  O   UNL     1      36.609  21.259  31.002  1.00  0.00    -0.289 OA
ATOM     14  C   UNL     1      36.091  23.355  29.175  1.00  0.00     0.059 A 
ATOM     15  C   UNL     1      35.882  24.434  28.312  1.00  0.00     0.120 A 
ATOM     16  C   UNL     1      35.771  25.725  28.830  1.00  0.00     0.093 A 
ATOM     17  C   UNL     1      35.872  25.956  30.205  1.00  0.00     0.131 A 
ENDROOT
BRANCH   6  18
ATOM     18  O   UNL     1      35.968  25.352  35.460  1.00  0.00    -0.507 OA
ATOM     19  H   UNL     1      36.723  25.967  35.731  1.00  0.00     0.293 HD
ENDBRANCH   6  18
BRANCH  17  20
ATOM     20  O   UNL     1      35.661  27.261  30.658  1.00  0.00    -0.507 OA
ATOM     21  H   UNL     1      34.751  27.697  30.700  1.00  0.00     0.293 HD
ENDBRANCH  17  20
BRANCH  15  22
ATOM     22  O   UNL     1      35.769  24.234  26.938  1.00  0.00    -0.508 OA
ATOM     23  H   UNL     1      36.188  23.431  26.484  1.00  0.00     0.293 HD
ENDBRANCH  15  22
TORSDOF 3
ENDMDL
MODEL 4
REMARK VINA RESULT:    -5.541     13.518     14.776
REMARK INTER + INTRA:          -6.027
REMARK INTER:                  -6.027
REMARK INTRA:                   0.000
REMARK UNBOUND:                 0.000
REMARK SMILES Cc1cc(O)c2c(c1)C(=O)c1cc(O)cc(O)c1C2=O
REMARK SMILES IDX 1 1 2 2 8 3 7 4 6 5 4 6 3 7 19 8 20 9 18 10 11 11 9 12 10 13
REMARK SMILES IDX 12 14 13 15 15 16 16 17 5 18 17 20 14 22
REMARK H PARENT 5 19 17 21 14 23
REMARK Flexibility Score: inf
ROOT
ATOM      1  C   UNL     1      35.464  34.450  17.884  1.00  0.00     0.044 C 
ATOM      2  C   UNL     1      34.198  33.989  18.545  1.00  0.00    -0.047 A 
ATOM      3  C   UNL     1      32.999  34.675  18.325  1.00  0.00     0.016 A 
ATOM      4  C   UNL     1      31.817  34.277  18.973  1.00  0.00     0.038 A 
ATOM      5  C   UNL     1      31.842  33.191  19.878  1.00  0.00     0.076 A 
ATOM      6  C   UNL     1      33.051  32.472  20.061  1.00  0.00     0.127 A 
ATOM      7  C   UNL     1      34.218  32.898  19.420  1.00  0.00     0.050 A 
ATOM      8  C   UNL     1      30.609  32.896  20.653  1.00  0.00     0.201 C 
ATOM      9  O   UNL     1      30.699  32.391  21.803  1.00  0.00    -0.288 OA
ATOM     10  C   UNL     1      29.292  33.368  20.153  1.00  0.00     0.076 A 
ATOM     11  C   UNL     1      29.272  34.454  19.250  1.00  0.00     0.041 A 
ATOM     12  C   UNL     1      30.545  34.990  18.710  1.00  0.00     0.194 C 
ATOM     13  O   UNL     1      30.541  36.037  18.006  1.00  0.00    -0.289 OA
ATOM     14  C   UNL     1      28.045  35.019  18.862  1.00  0.00     0.059 A 
ATOM     15  C   UNL     1      26.841  34.505  19.353  1.00  0.00     0.120 A 
ATOM     16  C   UNL     1      26.856  33.408  20.213  1.00  0.00     0.093 A 
ATOM     17  C   UNL     1      28.062  32.815  20.597  1.00  0.00     0.131 A 
ENDROOT
BRANCH   6  18
ATOM     18  O   UNL     1      33.130  31.315  20.841  1.00  0.00    -0.507 OA
ATOM     19  H   UNL     1      32.843  30.402  20.517  1.00  0.00     0.293 HD
ENDBRANCH   6  18
BRANCH  17  20
ATOM     20  O   UNL     1      27.994  31.665  21.388  1.00  0.00    -0.507 OA
ATOM     21  H   UNL     1      27.192  31.421  21.952  1.00  0.00     0.293 HD
ENDBRANCH  17  20
BRANCH  15  22
ATOM     22  O   UNL     1      25.623  35.069  18.980  1.00  0.00    -0.508 OA
ATOM     23  H   UNL     1      25.017  34.621  18.304  1.00  0.00     0.293 HD
ENDBRANCH  15  22
TORSDOF 3
ENDMDL
MODEL 5
REMARK VINA RESULT:    -5.480      2.331      2.599
REMARK INTER + INTRA:          -5.961
REMARK INTER:                  -5.961
REMARK INTRA:                   0.000
REMARK UNBOUND:                 0.000
REMARK SMILES Cc1cc(O)c2c(c1)C(=O)c1cc(O)cc(O)c1C2=O
REMARK SMILES IDX 1 1 2 2 8 3 7 4 6 5 4 6 3 7 19 8 20 9 18 10 11 11 9 12 10 13
REMARK SMILES IDX 12 14 13 15 15 16 16 17 5 18 17 20 14 22
REMARK H PARENT 5 19 17 21 14 23
REMARK Flexibility Score: inf
ROOT
ATOM      1  C   UNL     1      19.020  17.940  21.604  1.00  0.00     0.044 C 
ATOM      2  C   UNL     1      19.523  19.342  21.417  1.00  0.00    -0.047 A 
ATOM      3  C   UNL     1      19.145  20.351  22.309  1.00  0.00     0.016 A 
ATOM      4  C   UNL     1      19.575  21.675  22.117  1.00  0.00     0.038 A 
ATOM      5  C   UNL     1      20.374  22.000  20.997  1.00  0.00     0.076 A 
ATOM      6  C   UNL     1      20.791  20.965  20.121  1.00  0.00     0.127 A 
ATOM      7  C   UNL     1      20.335  19.658  20.322  1.00  0.00     0.050 A 
ATOM      8  C   UNL     1      20.684  23.432  20.748  1.00  0.00     0.201 C 
ATOM      9  O   UNL     1      20.857  23.839  19.569  1.00  0.00    -0.288 OA
ATOM     10  C   UNL     1      20.601  24.410  21.864  1.00  0.00     0.076 A 
ATOM     11  C   UNL     1      19.801  24.081  22.981  1.00  0.00     0.041 A 
ATOM     12  C   UNL     1      19.196  22.731  23.085  1.00  0.00     0.194 C 
ATOM     13  O   UNL     1      18.379  22.476  24.012  1.00  0.00    -0.289 OA
ATOM     14  C   UNL     1      19.586  25.034  23.992  1.00  0.00     0.059 A 
ATOM     15  C   UNL     1      20.170  26.300  23.908  1.00  0.00     0.120 A 
ATOM     16  C   UNL     1      20.993  26.614  22.827  1.00  0.00     0.093 A 
ATOM     17  C   UNL     1      21.239  25.677  21.819  1.00  0.00     0.131 A 
ENDROOT
BRANCH   6  18
ATOM     18  O   UNL     1      21.678  21.181  19.065  1.00  0.00    -0.507 OA
ATOM     19  H   UNL     1      22.659  20.938  19.099  1.00  0.00     0.293 HD
ENDBRANCH   6  18
BRANCH  17  20
ATOM     20  O   UNL     1      22.145  26.031  20.815  1.00  0.00    -0.507 OA
ATOM     21  H   UNL     1      23.147  26.026  20.940  1.00  0.00     0.293 HD
ENDBRANCH  17  20
BRANCH  15  22
ATOM     22  O   UNL     1      19.950  27.251  24.902  1.00  0.00    -0.508 OA
ATOM     23  H   UNL     1      19.344  27.062  25.692  1.00  0.00     0.293 HD
ENDBRANCH  15  22
TORSDOF 3
ENDMDL
MODEL 6
REMARK VINA RESULT:    -5.442     15.969     18.252
REMARK INTER + INTRA:          -5.920
REMARK INTER:                  -5.920
REMARK INTRA:                   0.000
REMARK UNBOUND:                 0.000
REMARK SMILES Cc1cc(O)c2c(c1)C(=O)c1cc(O)cc(O)c1C2=O
REMARK SMILES IDX 1 1 2 2 8 3 7 4 6 5 4 6 3 7 19 8 20 9 18 10 11 11 9 12 10 13
REMARK SMILES IDX 12 14 13 15 15 16 16 17 5 18 17 20 14 22
REMARK H PARENT 5 19 17 21 14 23
REMARK Flexibility Score: inf
ROOT
ATOM      1  C   UNL     1      36.955  25.000  34.315  1.00  0.00     0.044 C 
ATOM      2  C   UNL     1      36.712  24.122  33.122  1.00  0.00    -0.047 A 
ATOM      3  C   UNL     1      36.428  24.689  31.876  1.00  0.00     0.016 A 
ATOM      4  C   UNL     1      36.157  23.875  30.763  1.00  0.00     0.038 A 
ATOM      5  C   UNL     1      36.143  22.469  30.906  1.00  0.00     0.076 A 
ATOM      6  C   UNL     1      36.477  21.899  32.162  1.00  0.00     0.127 A 
ATOM      7  C   UNL     1      36.725  22.729  33.259  1.00  0.00     0.050 A 
ATOM      8  C   UNL     1      35.708  21.649  29.745  1.00  0.00     0.201 C 
ATOM      9  O   UNL     1      35.138  20.543  29.938  1.00  0.00    -0.288 OA
ATOM     10  C   UNL     1      35.773  22.219  28.374  1.00  0.00     0.076 A 
ATOM     11  C   UNL     1      35.785  23.625  28.236  1.00  0.00     0.041 A 
ATOM     12  C   UNL     1      35.887  24.485  29.439  1.00  0.00     0.194 C 
ATOM     13  O   UNL     1      35.770  25.737  29.332  1.00  0.00    -0.289 OA
ATOM     14  C   UNL     1      35.706  24.202  26.957  1.00  0.00     0.059 A 
ATOM     15  C   UNL     1      35.631  23.396  25.818  1.00  0.00     0.120 A 
ATOM     16  C   UNL     1      35.659  22.007  25.949  1.00  0.00     0.093 A 
ATOM     17  C   UNL     1      35.757  21.408  27.209  1.00  0.00     0.131 A 
ENDROOT
BRANCH   6  18
ATOM     18  O   UNL     1      36.606  20.521  32.355  1.00  0.00    -0.507 OA
ATOM     19  H   UNL     1      36.109  19.831  31.809  1.00  0.00     0.293 HD
ENDBRANCH   6  18
BRANCH  17  20
ATOM     20  O   UNL     1      35.871  20.017  27.255  1.00  0.00    -0.507 OA
ATOM     21  H   UNL     1      35.125  19.386  26.996  1.00  0.00     0.293 HD
ENDBRANCH  17  20
BRANCH  15  22
ATOM     22  O   UNL     1      35.541  23.964  24.549  1.00  0.00    -0.508 OA
ATOM     23  H   UNL     1      36.177  24.693  24.249  1.00  0.00     0.293 HD
ENDBRANCH  15  22
TORSDOF 3
ENDMDL
MODEL 7
REMARK VINA RESULT:    -5.361     14.211     15.387
REMARK INTER + INTRA:          -5.832
REMARK INTER:                  -5.832
REMARK INTRA:                   0.000
REMARK UNBOUND:                 0.000
REMARK SMILES Cc1cc(O)c2c(c1)C(=O)c1cc(O)cc(O)c1C2=O
REMARK SMILES IDX 1 1 2 2 8 3 7 4 6 5 4 6 3 7 19 8 20 9 18 10 11 11 9 12 10 13
REMARK SMILES IDX 12 14 13 15 15 16 16 17 5 18 17 20 14 22
REMARK H PARENT 5 19 17 21 14 23
REMARK Flexibility Score: inf
ROOT
ATOM      1  C   UNL     1      33.216  29.706  17.919  1.00  0.00     0.044 C 
ATOM      2  C   UNL     1      32.983  31.108  18.402  1.00  0.00    -0.047 A 
ATOM      3  C   UNL     1      31.956  31.377  19.312  1.00  0.00     0.016 A 
ATOM      4  C   UNL     1      31.702  32.693  19.738  1.00  0.00     0.038 A 
ATOM      5  C   UNL     1      32.472  33.760  19.222  1.00  0.00     0.076 A 
ATOM      6  C   UNL     1      33.542  33.475  18.334  1.00  0.00     0.127 A 
ATOM      7  C   UNL     1      33.763  32.161  17.911  1.00  0.00     0.050 A 
ATOM      8  C   UNL     1      32.078  35.147  19.580  1.00  0.00     0.201 C 
ATOM      9  O   UNL     1      32.299  36.089  18.775  1.00  0.00    -0.288 OA
ATOM     10  C   UNL     1      31.260  35.390  20.797  1.00  0.00     0.076 A 
ATOM     11  C   UNL     1      30.491  34.321  21.308  1.00  0.00     0.041 A 
ATOM     12  C   UNL     1      30.632  32.965  20.726  1.00  0.00     0.194 C 
ATOM     13  O   UNL     1      29.858  32.037  21.091  1.00  0.00    -0.289 OA
ATOM     14  C   UNL     1      29.599  34.546  22.371  1.00  0.00     0.059 A 
ATOM     15  C   UNL     1      29.477  35.819  22.937  1.00  0.00     0.120 A 
ATOM     16  C   UNL     1      30.264  36.867  22.461  1.00  0.00     0.093 A 
ATOM     17  C   UNL     1      31.173  36.664  21.418  1.00  0.00     0.131 A 
ENDROOT
BRANCH   6  18
ATOM     18  O   UNL     1      34.425  34.456  17.876  1.00  0.00    -0.507 OA
ATOM     19  H   UNL     1      34.126  35.334  17.477  1.00  0.00     0.293 HD
ENDBRANCH   6  18
BRANCH  17  20
ATOM     20  O   UNL     1      31.990  37.738  21.055  1.00  0.00    -0.507 OA
ATOM     21  H   UNL     1      32.190  38.519  21.664  1.00  0.00     0.293 HD
ENDBRANCH  17  20
BRANCH  15  22
ATOM     22  O   UNL     1      28.586  36.049  23.983  1.00  0.00    -0.508 OA
ATOM     23  H   UNL     1      28.872  35.962  24.951  1.00  0.00     0.293 HD
ENDBRANCH  15  22
TORSDOF 3
ENDMDL
MODEL 8
REMARK VINA RESULT:    -5.127     12.656     14.251
REMARK INTER + INTRA:          -5.577
REMARK INTER:                  -5.577
REMARK INTRA:                   0.000
REMARK UNBOUND:                 0.000
REMARK SMILES Cc1cc(O)c2c(c1)C(=O)c1cc(O)cc(O)c1C2=O
REMARK SMILES IDX 1 1 2 2 8 3 7 4 6 5 4 6 3 7 19 8 20 9 18 10 11 11 9 12 10 13
REMARK SMILES IDX 12 14 13 15 15 16 16 17 5 18 17 20 14 22
REMARK H PARENT 5 19 17 21 14 23
REMARK Flexibility Score: inf
ROOT
ATOM      1  C   UNL     1      23.993  33.611  19.117  1.00  0.00     0.044 C 
ATOM      2  C   UNL     1      25.446  33.979  19.198  1.00  0.00    -0.047 A 
ATOM      3  C   UNL     1      26.326  33.206  19.962  1.00  0.00     0.016 A 
ATOM      4  C   UNL     1      27.679  33.567  20.079  1.00  0.00     0.038 A 
ATOM      5  C   UNL     1      28.153  34.737  19.443  1.00  0.00     0.076 A 
ATOM      6  C   UNL     1      27.266  35.492  18.633  1.00  0.00     0.127 A 
ATOM      7  C   UNL     1      25.920  35.123  18.547  1.00  0.00     0.050 A 
ATOM      8  C   UNL     1      29.551  35.165  19.712  1.00  0.00     0.201 C 
ATOM      9  O   UNL     1      29.848  36.388  19.682  1.00  0.00    -0.288 OA
ATOM     10  C   UNL     1      30.546  34.173  20.198  1.00  0.00     0.076 A 
ATOM     11  C   UNL     1      30.067  33.005  20.833  1.00  0.00     0.041 A 
ATOM     12  C   UNL     1      28.612  32.725  20.865  1.00  0.00     0.194 C 
ATOM     13  O   UNL     1      28.171  31.753  21.539  1.00  0.00    -0.289 OA
ATOM     14  C   UNL     1      30.974  32.112  21.429  1.00  0.00     0.059 A 
ATOM     15  C   UNL     1      32.349  32.362  21.384  1.00  0.00     0.120 A 
ATOM     16  C   UNL     1      32.826  33.493  20.723  1.00  0.00     0.093 A 
ATOM     17  C   UNL     1      31.946  34.387  20.105  1.00  0.00     0.131 A 
ENDROOT
BRANCH   6  18
ATOM     18  O   UNL     1      27.683  36.588  17.875  1.00  0.00    -0.507 OA
ATOM     19  H   UNL     1      27.374  37.535  18.045  1.00  0.00     0.293 HD
ENDBRANCH   6  18
BRANCH  17  20
ATOM     20  O   UNL     1      32.502  35.447  19.385  1.00  0.00    -0.507 OA
ATOM     21  H   UNL     1      32.335  35.603  18.401  1.00  0.00     0.293 HD
ENDBRANCH  17  20
BRANCH  15  22
ATOM     22  O   UNL     1      33.250  31.485  21.983  1.00  0.00    -0.508 OA
ATOM     23  H   UNL     1      33.340  31.423  22.990  1.00  0.00     0.293 HD
ENDBRANCH  15  22
TORSDOF 3
ENDMDL
MODEL 9
REMARK VINA RESULT:    -5.044      2.415      5.734
REMARK INTER + INTRA:          -5.486
REMARK INTER:                  -5.486
REMARK INTRA:                   0.000
REMARK UNBOUND:                 0.000
REMARK SMILES Cc1cc(O)c2c(c1)C(=O)c1cc(O)cc(O)c1C2=O
REMARK SMILES IDX 1 1 2 2 8 3 7 4 6 5 4 6 3 7 19 8 20 9 18 10 11 11 9 12 10 13
REMARK SMILES IDX 12 14 13 15 15 16 16 17 5 18 17 20 14 22
REMARK H PARENT 5 19 17 21 14 23
REMARK Flexibility Score: inf
ROOT
ATOM      1  C   UNL     1      19.363  26.855  25.397  1.00  0.00     0.044 C 
ATOM      2  C   UNL     1      19.818  25.858  24.371  1.00  0.00    -0.047 A 
ATOM      3  C   UNL     1      19.221  24.595  24.303  1.00  0.00     0.016 A 
ATOM      4  C   UNL     1      19.669  23.639  23.375  1.00  0.00     0.038 A 
ATOM      5  C   UNL     1      20.751  23.944  22.518  1.00  0.00     0.076 A 
ATOM      6  C   UNL     1      21.322  25.242  22.560  1.00  0.00     0.127 A 
ATOM      7  C   UNL     1      20.872  26.169  23.505  1.00  0.00     0.050 A 
ATOM      8  C   UNL     1      21.291  22.860  21.656  1.00  0.00     0.201 C 
ATOM      9  O   UNL     1      22.509  22.861  21.338  1.00  0.00    -0.288 OA
ATOM     10  C   UNL     1      20.441  21.684  21.331  1.00  0.00     0.076 A 
ATOM     11  C   UNL     1      19.361  21.384  22.191  1.00  0.00     0.041 A 
ATOM     12  C   UNL     1      19.010  22.315  23.290  1.00  0.00     0.194 C 
ATOM     13  O   UNL     1      18.132  21.989  24.136  1.00  0.00    -0.289 OA
ATOM     14  C   UNL     1      18.621  20.204  21.997  1.00  0.00     0.059 A 
ATOM     15  C   UNL     1      18.936  19.334  20.950  1.00  0.00     0.120 A 
ATOM     16  C   UNL     1      19.976  19.648  20.076  1.00  0.00     0.093 A 
ATOM     17  C   UNL     1      20.714  20.825  20.235  1.00  0.00     0.131 A 
ENDROOT
BRANCH   6  18
ATOM     18  O   UNL     1      22.309  25.662  21.666  1.00  0.00    -0.507 OA
ATOM     19  H   UNL     1      22.154  26.355  20.947  1.00  0.00     0.293 HD
ENDBRANCH   6  18
BRANCH  17  20
ATOM     20  O   UNL     1      21.680  21.117  19.268  1.00  0.00    -0.507 OA
ATOM     21  H   UNL     1      22.670  20.972  19.406  1.00  0.00     0.293 HD
ENDBRANCH  17  20
BRANCH  15  22
ATOM     22  O   UNL     1      18.212  18.158  20.762  1.00  0.00    -0.508 OA
ATOM     23  H   UNL     1      18.464  17.299  21.236  1.00  0.00     0.293 HD
ENDBRANCH  15  22
TORSDOF 3
ENDMDL
