MODEL 1
REMARK VINA RESULT:    -3.031      0.000      0.000
REMARK INTER + INTRA:          -3.947
REMARK INTER:                  -3.740
REMARK INTRA:                  -0.206
REMARK UNBOUND:                -0.206
REMARK SMILES C=CC[C@H](C)C(=O)CC
REMARK SMILES IDX 4 1 5 2 6 3 7 4 8 5 9 6 3 7 2 8 1 9
REMARK H PARENT
REMARK Flexibility Score: inf
ROOT
ATOM      1  C   UNL     1     -33.212   1.040  59.061  1.00  0.00     0.057 C 
ATOM      2  C   UNL     1     -33.256   2.348  59.863  1.00  0.00     0.016 C 
ENDROOT
BRANCH   1   3
ATOM      3  C   UNL     1     -33.035  -0.149  59.984  1.00  0.00     0.135 C 
ATOM      4  O   UNL     1     -33.767  -0.260  60.955  1.00  0.00    -0.299 OA
BRANCH   3   5
ATOM      5  C   UNL     1     -31.998  -1.215  59.726  1.00  0.00     0.072 C 
ATOM      6  C   UNL     1     -32.478  -2.573  60.227  1.00  0.00     0.012 C 
ENDBRANCH   3   5
ENDBRANCH   1   3
BRANCH   1   7
ATOM      7  C   UNL     1     -32.109   1.060  57.981  1.00  0.00     0.038 C 
BRANCH   7   8
ATOM      8  C   UNL     1     -32.296   2.183  56.994  1.00  0.00    -0.034 C 
ATOM      9  C   UNL     1     -33.263   2.156  56.073  1.00  0.00     0.004 C 
ENDBRANCH   7   8
ENDBRANCH   1   7
TORSDOF 4
ENDMDL
MODEL 2
REMARK VINA RESULT:    -2.996      2.647      4.550
REMARK INTER + INTRA:          -3.903
REMARK INTER:                  -3.492
REMARK INTRA:                  -0.411
REMARK UNBOUND:                -0.206
REMARK SMILES C=CC[C@H](C)C(=O)CC
REMARK SMILES IDX 4 1 5 2 6 3 7 4 8 5 9 6 3 7 2 8 1 9
REMARK H PARENT
REMARK Flexibility Score: inf
ROOT
ATOM      1  C   UNL     1     -33.445   2.508  56.843  1.00  0.00     0.057 C 
ATOM      2  C   UNL     1     -33.777   2.444  55.346  1.00  0.00     0.016 C 
ENDROOT
BRANCH   1   3
ATOM      3  C   UNL     1     -33.734   3.889  57.397  1.00  0.00     0.135 C 
ATOM      4  O   UNL     1     -34.485   4.630  56.782  1.00  0.00    -0.299 OA
BRANCH   3   5
ATOM      5  C   UNL     1     -33.143   4.368  58.700  1.00  0.00     0.072 C 
ATOM      6  C   UNL     1     -33.901   3.786  59.888  1.00  0.00     0.012 C 
ENDBRANCH   3   5
ENDBRANCH   1   3
BRANCH   1   7
ATOM      7  C   UNL     1     -31.983   2.102  57.129  1.00  0.00     0.038 C 
BRANCH   7   8
ATOM      8  C   UNL     1     -31.876   0.704  57.680  1.00  0.00    -0.034 C 
ATOM      9  C   UNL     1     -32.190   0.421  58.947  1.00  0.00     0.004 C 
ENDBRANCH   7   8
ENDBRANCH   1   7
TORSDOF 4
ENDMDL
MODEL 3
REMARK VINA RESULT:    -2.995     15.097     16.110
REMARK INTER + INTRA:          -3.901
REMARK INTER:                  -3.736
REMARK INTRA:                  -0.166
REMARK UNBOUND:                -0.206
REMARK SMILES C=CC[C@H](C)C(=O)CC
REMARK SMILES IDX 4 1 5 2 6 3 7 4 8 5 9 6 3 7 2 8 1 9
REMARK H PARENT
REMARK Flexibility Score: inf
ROOT
ATOM      1  C   UNL     1     -35.648  -7.188  45.147  1.00  0.00     0.057 C 
ATOM      2  C   UNL     1     -35.260  -5.803  45.682  1.00  0.00     0.016 C 
ENDROOT
BRANCH   1   3
ATOM      3  C   UNL     1     -36.151  -8.074  46.269  1.00  0.00     0.135 C 
ATOM      4  O   UNL     1     -35.343  -8.579  47.033  1.00  0.00    -0.299 OA
BRANCH   3   5
ATOM      5  C   UNL     1     -37.621  -8.332  46.488  1.00  0.00     0.072 C 
ATOM      6  C   UNL     1     -37.834  -9.551  47.378  1.00  0.00     0.012 C 
ENDBRANCH   3   5
ENDBRANCH   1   3
BRANCH   1   7
ATOM      7  C   UNL     1     -34.480  -7.867  44.399  1.00  0.00     0.038 C 
BRANCH   7   8
ATOM      8  C   UNL     1     -33.321  -6.929  44.179  1.00  0.00    -0.034 C 
ATOM      9  C   UNL     1     -32.612  -6.941  43.047  1.00  0.00     0.004 C 
ENDBRANCH   7   8
ENDBRANCH   1   7
TORSDOF 4
ENDMDL
MODEL 4
REMARK VINA RESULT:    -2.989      2.051      2.736
REMARK INTER + INTRA:          -3.894
REMARK INTER:                  -3.413
REMARK INTRA:                  -0.481
REMARK UNBOUND:                -0.206
REMARK SMILES C=CC[C@H](C)C(=O)CC
REMARK SMILES IDX 4 1 5 2 6 3 7 4 8 5 9 6 3 7 2 8 1 9
REMARK H PARENT
REMARK Flexibility Score: inf
ROOT
ATOM      1  C   UNL     1     -32.855   2.500  58.216  1.00  0.00     0.057 C 
ATOM      2  C   UNL     1     -31.877   3.395  58.990  1.00  0.00     0.016 C 
ENDROOT
BRANCH   1   3
ATOM      3  C   UNL     1     -33.250   1.295  59.046  1.00  0.00     0.135 C 
ATOM      4  O   UNL     1     -32.451   0.381  59.182  1.00  0.00    -0.299 OA
BRANCH   3   5
ATOM      5  C   UNL     1     -34.590   1.200  59.733  1.00  0.00     0.072 C 
ATOM      6  C   UNL     1     -35.618   2.094  59.047  1.00  0.00     0.012 C 
ENDBRANCH   3   5
ENDBRANCH   1   3
BRANCH   1   7
ATOM      7  C   UNL     1     -32.280   2.057  56.853  1.00  0.00     0.038 C 
BRANCH   7   8
ATOM      8  C   UNL     1     -33.322   2.060  55.766  1.00  0.00    -0.034 C 
ATOM      9  C   UNL     1     -34.235   3.032  55.669  1.00  0.00     0.004 C 
ENDBRANCH   7   8
ENDBRANCH   1   7
TORSDOF 4
ENDMDL
MODEL 5
REMARK VINA RESULT:    -2.965     20.935     22.737
REMARK INTER + INTRA:          -3.864
REMARK INTER:                  -3.529
REMARK INTRA:                  -0.336
REMARK UNBOUND:                -0.206
REMARK SMILES C=CC[C@H](C)C(=O)CC
REMARK SMILES IDX 4 1 5 2 6 3 7 4 8 5 9 6 3 7 2 8 1 9
REMARK H PARENT
REMARK Flexibility Score: inf
ROOT
ATOM      1  C   UNL     1     -49.741  -0.086  44.180  1.00  0.00     0.057 C 
ATOM      2  C   UNL     1     -49.986   1.427  44.092  1.00  0.00     0.016 C 
ENDROOT
BRANCH   1   3
ATOM      3  C   UNL     1     -51.054  -0.837  44.276  1.00  0.00     0.135 C 
ATOM      4  O   UNL     1     -51.651  -0.853  45.341  1.00  0.00    -0.299 OA
BRANCH   3   5
ATOM      5  C   UNL     1     -51.660  -1.543  43.089  1.00  0.00     0.072 C 
ATOM      6  C   UNL     1     -50.597  -1.865  42.044  1.00  0.00     0.012 C 
ENDBRANCH   3   5
ENDBRANCH   1   3
BRANCH   1   7
ATOM      7  C   UNL     1     -48.815  -0.454  45.360  1.00  0.00     0.038 C 
BRANCH   7   8
ATOM      8  C   UNL     1     -48.295  -1.865  45.259  1.00  0.00    -0.034 C 
ATOM      9  C   UNL     1     -47.067  -2.193  45.669  1.00  0.00     0.004 C 
ENDBRANCH   7   8
ENDBRANCH   1   7
TORSDOF 4
ENDMDL
MODEL 6
REMARK VINA RESULT:    -2.950      1.863      4.169
REMARK INTER + INTRA:          -3.846
REMARK INTER:                  -3.602
REMARK INTRA:                  -0.244
REMARK UNBOUND:                -0.206
REMARK SMILES C=CC[C@H](C)C(=O)CC
REMARK SMILES IDX 4 1 5 2 6 3 7 4 8 5 9 6 3 7 2 8 1 9
REMARK H PARENT
REMARK Flexibility Score: inf
ROOT
ATOM      1  C   UNL     1     -32.847   1.623  59.151  1.00  0.00     0.057 C 
ATOM      2  C   UNL     1     -34.247   1.320  59.703  1.00  0.00     0.016 C 
ENDROOT
BRANCH   1   3
ATOM      3  C   UNL     1     -32.938   2.453  57.887  1.00  0.00     0.135 C 
ATOM      4  O   UNL     1     -33.209   3.641  57.975  1.00  0.00    -0.299 OA
BRANCH   3   5
ATOM      5  C   UNL     1     -32.677   1.865  56.523  1.00  0.00     0.072 C 
ATOM      6  C   UNL     1     -33.784   2.246  55.545  1.00  0.00     0.012 C 
ENDBRANCH   3   5
ENDBRANCH   1   3
BRANCH   1   7
ATOM      7  C   UNL     1     -32.034   0.334  58.899  1.00  0.00     0.038 C 
BRANCH   7   8
ATOM      8  C   UNL     1     -32.052  -0.593  60.086  1.00  0.00    -0.034 C 
ATOM      9  C   UNL     1     -32.252  -1.907  59.949  1.00  0.00     0.004 C 
ENDBRANCH   7   8
ENDBRANCH   1   7
TORSDOF 4
ENDMDL
MODEL 7
REMARK VINA RESULT:    -2.909      1.313      3.996
REMARK INTER + INTRA:          -3.796
REMARK INTER:                  -3.560
REMARK INTRA:                  -0.237
REMARK UNBOUND:                -0.206
REMARK SMILES C=CC[C@H](C)C(=O)CC
REMARK SMILES IDX 4 1 5 2 6 3 7 4 8 5 9 6 3 7 2 8 1 9
REMARK H PARENT
REMARK Flexibility Score: inf
ROOT
ATOM      1  C   UNL     1     -32.688   0.264  60.439  1.00  0.00     0.057 C 
ATOM      2  C   UNL     1     -32.410   1.346  61.491  1.00  0.00     0.016 C 
ENDROOT
BRANCH   1   3
ATOM      3  C   UNL     1     -32.960   0.891  59.086  1.00  0.00     0.135 C 
ATOM      4  O   UNL     1     -34.057   1.382  58.869  1.00  0.00    -0.299 OA
BRANCH   3   5
ATOM      5  C   UNL     1     -31.909   0.950  58.006  1.00  0.00     0.072 C 
ATOM      6  C   UNL     1     -32.337   1.885  56.879  1.00  0.00     0.012 C 
ENDBRANCH   3   5
ENDBRANCH   1   3
BRANCH   1   7
ATOM      7  C   UNL     1     -33.853  -0.661  60.854  1.00  0.00     0.038 C 
BRANCH   7   8
ATOM      8  C   UNL     1     -33.450  -2.112  60.873  1.00  0.00    -0.034 C 
ATOM      9  C   UNL     1     -32.411  -2.563  60.164  1.00  0.00     0.004 C 
ENDBRANCH   7   8
ENDBRANCH   1   7
TORSDOF 4
ENDMDL
MODEL 8
REMARK VINA RESULT:    -2.902     21.279     22.983
REMARK INTER + INTRA:          -3.787
REMARK INTER:                  -3.316
REMARK INTRA:                  -0.471
REMARK UNBOUND:                -0.206
REMARK SMILES C=CC[C@H](C)C(=O)CC
REMARK SMILES IDX 4 1 5 2 6 3 7 4 8 5 9 6 3 7 2 8 1 9
REMARK H PARENT
REMARK Flexibility Score: inf
ROOT
ATOM      1  C   UNL     1     -51.126   0.345  45.354  1.00  0.00     0.057 C 
ATOM      2  C   UNL     1     -51.750   1.283  46.396  1.00  0.00     0.016 C 
ENDROOT
BRANCH   1   3
ATOM      3  C   UNL     1     -49.854   0.945  44.788  1.00  0.00     0.135 C 
ATOM      4  O   UNL     1     -49.846   2.123  44.465  1.00  0.00    -0.299 OA
BRANCH   3   5
ATOM      5  C   UNL     1     -48.589   0.138  44.634  1.00  0.00     0.072 C 
ATOM      6  C   UNL     1     -48.649  -1.134  45.473  1.00  0.00     0.012 C 
ENDBRANCH   3   5
ENDBRANCH   1   3
BRANCH   1   7
ATOM      7  C   UNL     1     -52.116   0.000  44.220  1.00  0.00     0.038 C 
BRANCH   7   8
ATOM      8  C   UNL     1     -51.984  -1.429  43.763  1.00  0.00    -0.034 C 
ATOM      9  C   UNL     1     -51.227  -1.765  42.714  1.00  0.00     0.004 C 
ENDBRANCH   7   8
ENDBRANCH   1   7
TORSDOF 4
ENDMDL
