MODEL 1
REMARK VINA RESULT:    -3.531      0.000      0.000
REMARK INTER + INTRA:          -8.818
REMARK INTER:                  -6.524
REMARK INTRA:                  -2.294
REMARK UNBOUND:                -2.294
REMARK SMILES CCCCCCCCCCCCCCCCO
REMARK SMILES IDX 9 1 8 2 7 3 6 4 5 5 4 6 3 7 2 8 1 9 10 10 11 11 12 12 13 13
REMARK SMILES IDX 14 14 15 15 16 16 17 17
REMARK H PARENT 17 18
REMARK Flexibility Score: inf
ROOT
ATOM      1  C   UNL     1       1.138   8.327  40.913  1.00  0.00     0.000 C 
ENDROOT
BRANCH   1   2
ATOM      2  C   UNL     1      -0.294   7.964  41.325  1.00  0.00    -0.000 C 
BRANCH   2   3
ATOM      3  C   UNL     1      -1.295   8.331  40.223  1.00  0.00    -0.000 C 
BRANCH   3   4
ATOM      4  C   UNL     1      -2.644   7.634  40.450  1.00  0.00    -0.000 C 
BRANCH   4   5
ATOM      5  C   UNL     1      -2.827   6.382  39.571  1.00  0.00    -0.000 C 
BRANCH   5   6
ATOM      6  C   UNL     1      -2.662   5.040  40.308  1.00  0.00    -0.000 C 
BRANCH   6   7
ATOM      7  C   UNL     1      -1.337   4.304  40.035  1.00  0.00    -0.000 C 
BRANCH   7   8
ATOM      8  C   UNL     1      -0.493   4.937  38.909  1.00  0.00    -0.003 C 
ATOM      9  C   UNL     1       1.001   4.956  39.232  1.00  0.00     0.004 C 
ENDBRANCH   7   8
ENDBRANCH   6   7
ENDBRANCH   5   6
ENDBRANCH   4   5
ENDBRANCH   3   4
ENDBRANCH   2   3
ENDBRANCH   1   2
BRANCH   1  10
ATOM     10  C   UNL     1       1.188   9.720  40.270  1.00  0.00     0.000 C 
BRANCH  10  11
ATOM     11  C   UNL     1       2.043   9.754  38.993  1.00  0.00     0.000 C 
BRANCH  11  12
ATOM     12  C   UNL     1       2.193   8.370  38.344  1.00  0.00     0.000 C 
BRANCH  12  13
ATOM     13  C   UNL     1       2.032   8.459  36.820  1.00  0.00     0.000 C 
BRANCH  13  14
ATOM     14  C   UNL     1       0.827   7.656  36.296  1.00  0.00     0.002 C 
BRANCH  14  15
ATOM     15  C   UNL     1      -0.540   8.100  36.848  1.00  0.00     0.028 C 
BRANCH  15  16
ATOM     16  C   UNL     1      -0.962   9.508  36.406  1.00  0.00     0.156 C 
BRANCH  16  17
ATOM     17  O   UNL     1      -1.807   9.456  35.289  1.00  0.00    -0.396 OA
ATOM     18  H   UNL     1      -2.332   8.617  35.369  1.00  0.00     0.210 HD
ENDBRANCH  16  17
ENDBRANCH  15  16
ENDBRANCH  14  15
ENDBRANCH  13  14
ENDBRANCH  12  13
ENDBRANCH  11  12
ENDBRANCH  10  11
ENDBRANCH   1  10
TORSDOF 15
ENDMDL
MODEL 2
REMARK VINA RESULT:    -3.425      1.611      4.752
REMARK INTER + INTRA:          -8.622
REMARK INTER:                  -5.987
REMARK INTRA:                  -2.635
REMARK UNBOUND:                -2.294
REMARK SMILES CCCCCCCCCCCCCCCCO
REMARK SMILES IDX 9 1 8 2 7 3 6 4 5 5 4 6 3 7 2 8 1 9 10 10 11 11 12 12 13 13
REMARK SMILES IDX 14 14 15 15 16 16 17 17
REMARK H PARENT 17 18
REMARK Flexibility Score: inf
ROOT
ATOM      1  C   UNL     1      -1.838   9.620  38.250  1.00  0.00     0.000 C 
ENDROOT
BRANCH   1   2
ATOM      2  C   UNL     1      -1.021   8.973  37.125  1.00  0.00    -0.000 C 
BRANCH   2   3
ATOM      3  C   UNL     1       0.469   9.308  37.262  1.00  0.00    -0.000 C 
BRANCH   3   4
ATOM      4  C   UNL     1       1.288   8.050  37.586  1.00  0.00    -0.000 C 
BRANCH   4   5
ATOM      5  C   UNL     1       1.868   8.064  39.013  1.00  0.00    -0.000 C 
BRANCH   5   6
ATOM      6  C   UNL     1       1.488   9.295  39.858  1.00  0.00    -0.000 C 
BRANCH   6   7
ATOM      7  C   UNL     1       1.146   8.998  41.329  1.00  0.00    -0.000 C 
BRANCH   7   8
ATOM      8  C   UNL     1       0.598   7.574  41.567  1.00  0.00    -0.003 C 
ATOM      9  C   UNL     1      -0.529   7.540  42.597  1.00  0.00     0.004 C 
ENDBRANCH   7   8
ENDBRANCH   6   7
ENDBRANCH   5   6
ENDBRANCH   4   5
ENDBRANCH   3   4
ENDBRANCH   2   3
ENDBRANCH   1   2
BRANCH   1  10
ATOM     10  C   UNL     1      -2.170   8.597  39.346  1.00  0.00     0.000 C 
BRANCH  10  11
ATOM     11  C   UNL     1      -1.991   7.145  38.876  1.00  0.00     0.000 C 
BRANCH  11  12
ATOM     12  C   UNL     1      -2.544   6.124  39.882  1.00  0.00     0.000 C 
BRANCH  12  13
ATOM     13  C   UNL     1      -1.659   4.871  39.934  1.00  0.00     0.000 C 
BRANCH  13  14
ATOM     14  C   UNL     1      -0.396   4.992  39.061  1.00  0.00     0.002 C 
BRANCH  14  15
ATOM     15  C   UNL     1      -0.266   3.928  37.955  1.00  0.00     0.028 C 
BRANCH  15  16
ATOM     16  C   UNL     1      -1.102   4.225  36.703  1.00  0.00     0.156 C 
BRANCH  16  17
ATOM     17  O   UNL     1      -0.618   5.355  36.028  1.00  0.00    -0.396 OA
ATOM     18  H   UNL     1       0.054   5.029  35.375  1.00  0.00     0.210 HD
ENDBRANCH  16  17
ENDBRANCH  15  16
ENDBRANCH  14  15
ENDBRANCH  13  14
ENDBRANCH  12  13
ENDBRANCH  11  12
ENDBRANCH  10  11
ENDBRANCH   1  10
TORSDOF 15
ENDMDL
MODEL 3
REMARK VINA RESULT:    -3.399      1.590      2.324
REMARK INTER + INTRA:          -8.574
REMARK INTER:                  -6.547
REMARK INTRA:                  -2.028
REMARK UNBOUND:                -2.294
REMARK SMILES CCCCCCCCCCCCCCCCO
REMARK SMILES IDX 9 1 8 2 7 3 6 4 5 5 4 6 3 7 2 8 1 9 10 10 11 11 12 12 13 13
REMARK SMILES IDX 14 14 15 15 16 16 17 17
REMARK H PARENT 17 18
REMARK Flexibility Score: inf
ROOT
ATOM      1  C   UNL     1       1.454   9.019  40.427  1.00  0.00     0.000 C 
ENDROOT
BRANCH   1   2
ATOM      2  C   UNL     1      -0.055   8.771  40.534  1.00  0.00    -0.000 C 
BRANCH   2   3
ATOM      3  C   UNL     1      -0.802   9.387  39.344  1.00  0.00    -0.000 C 
BRANCH   3   4
ATOM      4  C   UNL     1      -1.842   8.408  38.781  1.00  0.00    -0.000 C 
BRANCH   4   5
ATOM      5  C   UNL     1      -2.598   7.639  39.881  1.00  0.00    -0.000 C 
BRANCH   5   6
ATOM      6  C   UNL     1      -2.706   6.119  39.654  1.00  0.00    -0.000 C 
BRANCH   6   7
ATOM      7  C   UNL     1      -1.536   5.289  40.213  1.00  0.00    -0.000 C 
BRANCH   7   8
ATOM      8  C   UNL     1      -1.915   3.833  40.560  1.00  0.00    -0.003 C 
ATOM      9  C   UNL     1      -3.136   3.744  41.474  1.00  0.00     0.004 C 
ENDBRANCH   7   8
ENDBRANCH   6   7
ENDBRANCH   5   6
ENDBRANCH   4   5
ENDBRANCH   3   4
ENDBRANCH   2   3
ENDBRANCH   1   2
BRANCH   1  10
ATOM     10  C   UNL     1       1.761  10.093  39.373  1.00  0.00     0.000 C 
BRANCH  10  11
ATOM     11  C   UNL     1       2.689   9.582  38.259  1.00  0.00     0.000 C 
BRANCH  11  12
ATOM     12  C   UNL     1       2.026   9.619  36.873  1.00  0.00     0.000 C 
BRANCH  12  13
ATOM     13  C   UNL     1       1.348   8.278  36.555  1.00  0.00     0.000 C 
BRANCH  13  14
ATOM     14  C   UNL     1       1.941   7.102  37.352  1.00  0.00     0.002 C 
BRANCH  14  15
ATOM     15  C   UNL     1       0.973   5.929  37.598  1.00  0.00     0.028 C 
BRANCH  15  16
ATOM     16  C   UNL     1       0.187   5.500  36.352  1.00  0.00     0.156 C 
BRANCH  16  17
ATOM     17  O   UNL     1      -1.180   5.780  36.494  1.00  0.00    -0.396 OA
ATOM     18  H   UNL     1      -1.281   6.266  37.354  1.00  0.00     0.210 HD
ENDBRANCH  16  17
ENDBRANCH  15  16
ENDBRANCH  14  15
ENDBRANCH  13  14
ENDBRANCH  12  13
ENDBRANCH  11  12
ENDBRANCH  10  11
ENDBRANCH   1  10
TORSDOF 15
ENDMDL
MODEL 4
REMARK VINA RESULT:    -3.396      1.736      3.424
REMARK INTER + INTRA:          -8.569
REMARK INTER:                  -6.468
REMARK INTRA:                  -2.101
REMARK UNBOUND:                -2.294
REMARK SMILES CCCCCCCCCCCCCCCCO
REMARK SMILES IDX 9 1 8 2 7 3 6 4 5 5 4 6 3 7 2 8 1 9 10 10 11 11 12 12 13 13
REMARK SMILES IDX 14 14 15 15 16 16 17 17
REMARK H PARENT 17 18
REMARK Flexibility Score: inf
ROOT
ATOM      1  C   UNL     1      -0.135   9.125  36.482  1.00  0.00     0.000 C 
ENDROOT
BRANCH   1   2
ATOM      2  C   UNL     1      -1.415   9.947  36.678  1.00  0.00    -0.000 C 
BRANCH   2   3
ATOM      3  C   UNL     1      -1.920   9.844  38.123  1.00  0.00    -0.000 C 
BRANCH   3   4
ATOM      4  C   UNL     1      -1.472   8.526  38.770  1.00  0.00    -0.000 C 
BRANCH   4   5
ATOM      5  C   UNL     1      -2.536   7.926  39.708  1.00  0.00    -0.000 C 
BRANCH   5   6
ATOM      6  C   UNL     1      -1.988   6.983  40.795  1.00  0.00    -0.000 C 
BRANCH   6   7
ATOM      7  C   UNL     1      -1.328   7.685  41.997  1.00  0.00    -0.000 C 
BRANCH   7   8
ATOM      8  C   UNL     1       0.211   7.571  42.018  1.00  0.00    -0.003 C 
ATOM      9  C   UNL     1       0.905   8.918  41.822  1.00  0.00     0.004 C 
ENDBRANCH   7   8
ENDBRANCH   6   7
ENDBRANCH   5   6
ENDBRANCH   4   5
ENDBRANCH   3   4
ENDBRANCH   2   3
ENDBRANCH   1   2
BRANCH   1  10
ATOM     10  C   UNL     1       1.052  10.033  36.131  1.00  0.00     0.000 C 
BRANCH  10  11
ATOM     11  C   UNL     1       2.307   9.715  36.960  1.00  0.00     0.000 C 
BRANCH  11  12
ATOM     12  C   UNL     1       1.976   9.060  38.310  1.00  0.00     0.000 C 
BRANCH  12  13
ATOM     13  C   UNL     1       2.586   7.654  38.401  1.00  0.00     0.000 C 
BRANCH  13  14
ATOM     14  C   UNL     1       1.540   6.565  38.704  1.00  0.00     0.002 C 
BRANCH  14  15
ATOM     15  C   UNL     1       1.070   5.757  37.480  1.00  0.00     0.028 C 
BRANCH  15  16
ATOM     16  C   UNL     1      -0.374   5.248  37.588  1.00  0.00     0.156 C 
BRANCH  16  17
ATOM     17  O   UNL     1      -1.179   5.792  36.577  1.00  0.00    -0.396 OA
ATOM     18  H   UNL     1      -0.814   5.461  35.715  1.00  0.00     0.210 HD
ENDBRANCH  16  17
ENDBRANCH  15  16
ENDBRANCH  14  15
ENDBRANCH  13  14
ENDBRANCH  12  13
ENDBRANCH  11  12
ENDBRANCH  10  11
ENDBRANCH   1  10
TORSDOF 15
ENDMDL
MODEL 5
REMARK VINA RESULT:    -3.375      1.467      2.828
REMARK INTER + INTRA:          -8.530
REMARK INTER:                  -6.302
REMARK INTRA:                  -2.227
REMARK UNBOUND:                -2.294
REMARK SMILES CCCCCCCCCCCCCCCCO
REMARK SMILES IDX 9 1 8 2 7 3 6 4 5 5 4 6 3 7 2 8 1 9 10 10 11 11 12 12 13 13
REMARK SMILES IDX 14 14 15 15 16 16 17 17
REMARK H PARENT 17 18
REMARK Flexibility Score: inf
ROOT
ATOM      1  C   UNL     1      -2.104   7.300  41.616  1.00  0.00     0.000 C 
ENDROOT
BRANCH   1   2
ATOM      2  C   UNL     1      -2.558   7.491  40.164  1.00  0.00    -0.000 C 
BRANCH   2   3
ATOM      3  C   UNL     1      -3.106   6.182  39.581  1.00  0.00    -0.000 C 
BRANCH   3   4
ATOM      4  C   UNL     1      -2.217   5.677  38.435  1.00  0.00    -0.000 C 
BRANCH   4   5
ATOM      5  C   UNL     1      -0.815   5.249  38.908  1.00  0.00    -0.000 C 
BRANCH   5   6
ATOM      6  C   UNL     1      -0.712   3.796  39.407  1.00  0.00    -0.000 C 
BRANCH   6   7
ATOM      7  C   UNL     1      -0.891   3.612  40.926  1.00  0.00    -0.000 C 
BRANCH   7   8
ATOM      8  C   UNL     1      -2.244   2.982  41.321  1.00  0.00    -0.003 C 
ATOM      9  C   UNL     1      -2.959   3.764  42.421  1.00  0.00     0.004 C 
ENDBRANCH   7   8
ENDBRANCH   6   7
ENDBRANCH   5   6
ENDBRANCH   4   5
ENDBRANCH   3   4
ENDBRANCH   2   3
ENDBRANCH   1   2
BRANCH   1  10
ATOM     10  C   UNL     1      -0.575   7.380  41.729  1.00  0.00     0.000 C 
BRANCH  10  11
ATOM     11  C   UNL     1       0.008   8.616  41.026  1.00  0.00     0.000 C 
BRANCH  11  12
ATOM     12  C   UNL     1       1.060   8.255  39.967  1.00  0.00     0.000 C 
BRANCH  12  13
ATOM     13  C   UNL     1       0.615   8.721  38.573  1.00  0.00     0.000 C 
BRANCH  13  14
ATOM     14  C   UNL     1      -0.364   9.908  38.620  1.00  0.00     0.002 C 
BRANCH  14  15
ATOM     15  C   UNL     1      -1.668   9.708  37.825  1.00  0.00     0.028 C 
BRANCH  15  16
ATOM     16  C   UNL     1      -1.548  10.055  36.335  1.00  0.00     0.156 C 
BRANCH  16  17
ATOM     17  O   UNL     1      -1.172   8.932  35.583  1.00  0.00    -0.396 OA
ATOM     18  H   UNL     1      -1.559   8.141  36.041  1.00  0.00     0.210 HD
ENDBRANCH  16  17
ENDBRANCH  15  16
ENDBRANCH  14  15
ENDBRANCH  13  14
ENDBRANCH  12  13
ENDBRANCH  11  12
ENDBRANCH  10  11
ENDBRANCH   1  10
TORSDOF 15
ENDMDL
MODEL 6
REMARK VINA RESULT:    -3.317      2.479      4.419
REMARK INTER + INTRA:          -8.423
REMARK INTER:                  -6.031
REMARK INTRA:                  -2.391
REMARK UNBOUND:                -2.294
REMARK SMILES CCCCCCCCCCCCCCCCO
REMARK SMILES IDX 9 1 8 2 7 3 6 4 5 5 4 6 3 7 2 8 1 9 10 10 11 11 12 12 13 13
REMARK SMILES IDX 14 14 15 15 16 16 17 17
REMARK H PARENT 17 18
REMARK Flexibility Score: inf
ROOT
ATOM      1  C   UNL     1       1.850   7.413  38.953  1.00  0.00     0.000 C 
ENDROOT
BRANCH   1   2
ATOM      2  C   UNL     1       2.482   8.793  38.732  1.00  0.00    -0.000 C 
BRANCH   2   3
ATOM      3  C   UNL     1       2.248   9.284  37.298  1.00  0.00    -0.000 C 
BRANCH   3   4
ATOM      4  C   UNL     1       0.967  10.125  37.207  1.00  0.00    -0.000 C 
BRANCH   4   5
ATOM      5  C   UNL     1      -0.144   9.439  36.389  1.00  0.00    -0.000 C 
BRANCH   5   6
ATOM      6  C   UNL     1      -1.155   8.626  37.218  1.00  0.00    -0.000 C 
BRANCH   6   7
ATOM      7  C   UNL     1      -1.451   9.186  38.622  1.00  0.00    -0.000 C 
BRANCH   7   8
ATOM      8  C   UNL     1      -2.249   8.220  39.523  1.00  0.00    -0.003 C 
ATOM      9  C   UNL     1      -1.894   6.755  39.276  1.00  0.00     0.004 C 
ENDBRANCH   7   8
ENDBRANCH   6   7
ENDBRANCH   5   6
ENDBRANCH   4   5
ENDBRANCH   3   4
ENDBRANCH   2   3
ENDBRANCH   1   2
BRANCH   1  10
ATOM     10  C   UNL     1       2.247   6.441  37.832  1.00  0.00     0.000 C 
BRANCH  10  11
ATOM     11  C   UNL     1       1.074   5.565  37.364  1.00  0.00     0.000 C 
BRANCH  11  12
ATOM     12  C   UNL     1       0.769   5.734  35.868  1.00  0.00     0.000 C 
BRANCH  12  13
ATOM     13  C   UNL     1       1.980   6.314  35.124  1.00  0.00     0.000 C 
BRANCH  13  14
ATOM     14  C   UNL     1       1.582   7.255  33.972  1.00  0.00     0.002 C 
BRANCH  14  15
ATOM     15  C   UNL     1       2.016   6.786  32.570  1.00  0.00     0.028 C 
BRANCH  15  16
ATOM     16  C   UNL     1       1.807   7.836  31.471  1.00  0.00     0.156 C 
BRANCH  16  17
ATOM     17  O   UNL     1       2.208   9.109  31.904  1.00  0.00    -0.396 OA
ATOM     18  H   UNL     1       3.149   9.022  32.206  1.00  0.00     0.210 HD
ENDBRANCH  16  17
ENDBRANCH  15  16
ENDBRANCH  14  15
ENDBRANCH  13  14
ENDBRANCH  12  13
ENDBRANCH  11  12
ENDBRANCH  10  11
ENDBRANCH   1  10
TORSDOF 15
ENDMDL
MODEL 7
REMARK VINA RESULT:    -3.308      2.196      4.576
REMARK INTER + INTRA:          -8.407
REMARK INTER:                  -5.898
REMARK INTRA:                  -2.508
REMARK UNBOUND:                -2.294
REMARK SMILES CCCCCCCCCCCCCCCCO
REMARK SMILES IDX 9 1 8 2 7 3 6 4 5 5 4 6 3 7 2 8 1 9 10 10 11 11 12 12 13 13
REMARK SMILES IDX 14 14 15 15 16 16 17 17
REMARK H PARENT 17 18
REMARK Flexibility Score: inf
ROOT
ATOM      1  C   UNL     1       1.159  10.003  39.383  1.00  0.00     0.000 C 
ENDROOT
BRANCH   1   2
ATOM      2  C   UNL     1       2.460   9.728  38.618  1.00  0.00    -0.000 C 
BRANCH   2   3
ATOM      3  C   UNL     1       2.246   9.851  37.104  1.00  0.00    -0.000 C 
BRANCH   3   4
ATOM      4  C   UNL     1       0.884   9.275  36.692  1.00  0.00    -0.000 C 
BRANCH   4   5
ATOM      5  C   UNL     1       0.982   7.839  36.143  1.00  0.00    -0.000 C 
BRANCH   5   6
ATOM      6  C   UNL     1       0.029   6.824  36.801  1.00  0.00    -0.000 C 
BRANCH   6   7
ATOM      7  C   UNL     1       0.720   5.659  37.534  1.00  0.00    -0.000 C 
BRANCH   7   8
ATOM      8  C   UNL     1       1.768   6.111  38.574  1.00  0.00    -0.003 C 
ATOM      9  C   UNL     1       3.188   5.687  38.201  1.00  0.00     0.004 C 
ENDBRANCH   7   8
ENDBRANCH   6   7
ENDBRANCH   5   6
ENDBRANCH   4   5
ENDBRANCH   3   4
ENDBRANCH   2   3
ENDBRANCH   1   2
BRANCH   1  10
ATOM     10  C   UNL     1       1.080   9.148  40.656  1.00  0.00     0.000 C 
BRANCH  10  11
ATOM     11  C   UNL     1      -0.247   8.382  40.775  1.00  0.00     0.000 C 
BRANCH  11  12
ATOM     12  C   UNL     1      -1.216   8.692  39.623  1.00  0.00     0.000 C 
BRANCH  12  13
ATOM     13  C   UNL     1      -2.537   7.929  39.798  1.00  0.00     0.000 C 
BRANCH  13  14
ATOM     14  C   UNL     1      -2.358   6.575  40.510  1.00  0.00     0.002 C 
BRANCH  14  15
ATOM     15  C   UNL     1      -2.399   5.344  39.585  1.00  0.00     0.028 C 
BRANCH  15  16
ATOM     16  C   UNL     1      -1.494   4.193  40.042  1.00  0.00     0.156 C 
BRANCH  16  17
ATOM     17  O   UNL     1      -0.688   4.581  41.122  1.00  0.00    -0.396 OA
ATOM     18  H   UNL     1      -1.295   4.712  41.897  1.00  0.00     0.210 HD
ENDBRANCH  16  17
ENDBRANCH  15  16
ENDBRANCH  14  15
ENDBRANCH  13  14
ENDBRANCH  12  13
ENDBRANCH  11  12
ENDBRANCH  10  11
ENDBRANCH   1  10
TORSDOF 15
ENDMDL
MODEL 8
REMARK VINA RESULT:    -3.275      1.337      2.624
REMARK INTER + INTRA:          -8.345
REMARK INTER:                  -6.080
REMARK INTRA:                  -2.265
REMARK UNBOUND:                -2.294
REMARK SMILES CCCCCCCCCCCCCCCCO
REMARK SMILES IDX 9 1 8 2 7 3 6 4 5 5 4 6 3 7 2 8 1 9 10 10 11 11 12 12 13 13
REMARK SMILES IDX 14 14 15 15 16 16 17 17
REMARK H PARENT 17 18
REMARK Flexibility Score: inf
ROOT
ATOM      1  C   UNL     1      -1.705   7.150  41.823  1.00  0.00     0.000 C 
ENDROOT
BRANCH   1   2
ATOM      2  C   UNL     1      -2.608   7.522  40.641  1.00  0.00    -0.000 C 
BRANCH   2   3
ATOM      3  C   UNL     1      -2.792   6.331  39.691  1.00  0.00    -0.000 C 
BRANCH   3   4
ATOM      4  C   UNL     1      -1.885   5.160  40.095  1.00  0.00    -0.000 C 
BRANCH   4   5
ATOM      5  C   UNL     1      -0.885   4.768  38.991  1.00  0.00    -0.000 C 
BRANCH   5   6
ATOM      6  C   UNL     1      -1.445   4.825  37.557  1.00  0.00    -0.000 C 
BRANCH   6   7
ATOM      7  C   UNL     1      -0.387   4.966  36.447  1.00  0.00    -0.000 C 
BRANCH   7   8
ATOM      8  C   UNL     1       1.045   4.611  36.903  1.00  0.00    -0.003 C 
ATOM      9  C   UNL     1       2.032   5.759  36.694  1.00  0.00     0.004 C 
ENDBRANCH   7   8
ENDBRANCH   6   7
ENDBRANCH   5   6
ENDBRANCH   4   5
ENDBRANCH   3   4
ENDBRANCH   2   3
ENDBRANCH   1   2
BRANCH   1  10
ATOM     10  C   UNL     1      -0.642   8.232  42.065  1.00  0.00     0.000 C 
BRANCH  10  11
ATOM     11  C   UNL     1       0.650   7.982  41.272  1.00  0.00     0.000 C 
BRANCH  11  12
ATOM     12  C   UNL     1       1.135   9.231  40.521  1.00  0.00     0.000 C 
BRANCH  12  13
ATOM     13  C   UNL     1       0.205   9.559  39.345  1.00  0.00     0.000 C 
BRANCH  13  14
ATOM     14  C   UNL     1       0.088   8.404  38.333  1.00  0.00     0.002 C 
BRANCH  14  15
ATOM     15  C   UNL     1      -1.064   8.541  37.320  1.00  0.00     0.028 C 
BRANCH  15  16
ATOM     16  C   UNL     1      -0.708   9.375  36.082  1.00  0.00     0.156 C 
BRANCH  16  17
ATOM     17  O   UNL     1      -1.844   9.627  35.299  1.00  0.00    -0.396 OA
ATOM     18  H   UNL     1      -1.517   9.843  34.386  1.00  0.00     0.210 HD
ENDBRANCH  16  17
ENDBRANCH  15  16
ENDBRANCH  14  15
ENDBRANCH  13  14
ENDBRANCH  12  13
ENDBRANCH  11  12
ENDBRANCH  10  11
ENDBRANCH   1  10
TORSDOF 15
ENDMDL
MODEL 9
REMARK VINA RESULT:    -3.255      2.082      3.126
REMARK INTER + INTRA:          -8.308
REMARK INTER:                  -6.056
REMARK INTRA:                  -2.253
REMARK UNBOUND:                -2.294
REMARK SMILES CCCCCCCCCCCCCCCCO
REMARK SMILES IDX 9 1 8 2 7 3 6 4 5 5 4 6 3 7 2 8 1 9 10 10 11 11 12 12 13 13
REMARK SMILES IDX 14 14 15 15 16 16 17 17
REMARK H PARENT 17 18
REMARK Flexibility Score: inf
ROOT
ATOM      1  C   UNL     1       1.132   9.753  39.429  1.00  0.00     0.000 C 
ENDROOT
BRANCH   1   2
ATOM      2  C   UNL     1       1.003   9.081  40.801  1.00  0.00    -0.000 C 
BRANCH   2   3
ATOM      3  C   UNL     1       0.099   7.844  40.728  1.00  0.00    -0.000 C 
BRANCH   3   4
ATOM      4  C   UNL     1      -0.800   7.745  41.969  1.00  0.00    -0.000 C 
BRANCH   4   5
ATOM      5  C   UNL     1      -2.280   7.504  41.618  1.00  0.00    -0.000 C 
BRANCH   5   6
ATOM      6  C   UNL     1      -2.580   7.379  40.113  1.00  0.00    -0.000 C 
BRANCH   6   7
ATOM      7  C   UNL     1      -3.060   5.988  39.656  1.00  0.00    -0.000 C 
BRANCH   7   8
ATOM      8  C   UNL     1      -2.776   4.865  40.676  1.00  0.00    -0.003 C 
ATOM      9  C   UNL     1      -1.518   4.066  40.338  1.00  0.00     0.004 C 
ENDBRANCH   7   8
ENDBRANCH   6   7
ENDBRANCH   5   6
ENDBRANCH   4   5
ENDBRANCH   3   4
ENDBRANCH   2   3
ENDBRANCH   1   2
BRANCH   1  10
ATOM     10  C   UNL     1      -0.251  10.042  38.827  1.00  0.00     0.000 C 
BRANCH  10  11
ATOM     11  C   UNL     1      -0.332   9.697  37.332  1.00  0.00     0.000 C 
BRANCH  11  12
ATOM     12  C   UNL     1      -0.864   8.278  37.079  1.00  0.00     0.000 C 
BRANCH  12  13
ATOM     13  C   UNL     1       0.291   7.279  36.925  1.00  0.00     0.000 C 
BRANCH  13  14
ATOM     14  C   UNL     1      -0.028   5.895  37.520  1.00  0.00     0.002 C 
BRANCH  14  15
ATOM     15  C   UNL     1      -1.128   5.108  36.783  1.00  0.00     0.028 C 
BRANCH  15  16
ATOM     16  C   UNL     1      -0.590   4.068  35.792  1.00  0.00     0.156 C 
BRANCH  16  17
ATOM     17  O   UNL     1       0.466   3.333  36.353  1.00  0.00    -0.396 OA
ATOM     18  H   UNL     1       0.194   2.379  36.323  1.00  0.00     0.210 HD
ENDBRANCH  16  17
ENDBRANCH  15  16
ENDBRANCH  14  15
ENDBRANCH  13  14
ENDBRANCH  12  13
ENDBRANCH  11  12
ENDBRANCH  10  11
ENDBRANCH   1  10
TORSDOF 15
ENDMDL
