MODEL 1
REMARK VINA RESULT:    -3.811      0.000      0.000
REMARK INTER + INTRA:          -4.173
REMARK INTER:                  -4.145
REMARK INTRA:                  -0.028
REMARK UNBOUND:                -0.028
REMARK SMILES O=C([O-])c1ccc(O)cc1
REMARK SMILES IDX 7 1 6 2 9 3 5 4 10 5 4 6 8 7 2 9 1 10 3 11
REMARK H PARENT 8 8
REMARK Flexibility Score: inf
ROOT
ATOM      1  C   UNL     1       5.995  37.560   8.567  1.00  0.00     0.115 A 
ATOM      2  C   UNL     1       4.634  37.503   8.253  1.00  0.00     0.047 A 
ATOM      3  C   UNL     1       6.846  38.390   7.827  1.00  0.00     0.047 A 
ATOM      4  C   UNL     1       4.122  38.273   7.204  1.00  0.00     0.014 A 
ATOM      5  C   UNL     1       6.337  39.161   6.777  1.00  0.00     0.014 A 
ATOM      6  C   UNL     1       4.968  39.110   6.455  1.00  0.00    -0.003 A 
ENDROOT
BRANCH   1   7
ATOM      7  O   UNL     1       6.491  36.787   9.615  1.00  0.00    -0.508 OA
ATOM      8  H   UNL     1       7.331  37.053  10.117  1.00  0.00     0.293 HD
ENDBRANCH   1   7
BRANCH   6   9
ATOM      9  C   UNL     1       4.423  39.923   5.346  1.00  0.00     0.071 C 
ATOM     10  O   UNL     1       3.661  40.898   5.580  1.00  0.00    -0.545 OA
ATOM     11  O   UNL     1       4.745  39.623   4.027  1.00  0.00    -0.545 OA
ENDBRANCH   6   9
TORSDOF 2
ENDMDL
MODEL 2
REMARK VINA RESULT:    -3.793      4.641      5.656
REMARK INTER + INTRA:          -4.153
REMARK INTER:                  -4.126
REMARK INTRA:                  -0.027
REMARK UNBOUND:                -0.028
REMARK SMILES O=C([O-])c1ccc(O)cc1
REMARK SMILES IDX 7 1 6 2 9 3 5 4 10 5 4 6 8 7 2 9 1 10 3 11
REMARK H PARENT 8 8
REMARK Flexibility Score: inf
ROOT
ATOM      1  C   UNL     1      -0.574  35.347   6.163  1.00  0.00     0.115 A 
ATOM      2  C   UNL     1      -0.594  36.739   6.278  1.00  0.00     0.047 A 
ATOM      3  C   UNL     1       0.592  34.701   5.732  1.00  0.00     0.047 A 
ATOM      4  C   UNL     1       0.546  37.488   5.964  1.00  0.00     0.014 A 
ATOM      5  C   UNL     1       1.732  35.446   5.417  1.00  0.00     0.014 A 
ATOM      6  C   UNL     1       1.721  36.849   5.530  1.00  0.00    -0.003 A 
ENDROOT
BRANCH   1   7
ATOM      7  O   UNL     1      -1.717  34.614   6.479  1.00  0.00    -0.508 OA
ATOM      8  H   UNL     1      -2.543  34.645   5.893  1.00  0.00     0.293 HD
ENDBRANCH   1   7
BRANCH   6   9
ATOM      9  C   UNL     1       2.924  37.642   5.198  1.00  0.00     0.071 C 
ATOM     10  O   UNL     1       3.171  37.964   4.006  1.00  0.00    -0.545 OA
ATOM     11  O   UNL     1       3.801  38.046   6.199  1.00  0.00    -0.545 OA
ENDBRANCH   6   9
TORSDOF 2
ENDMDL
MODEL 3
REMARK VINA RESULT:    -3.781      4.638      5.692
REMARK INTER + INTRA:          -4.140
REMARK INTER:                  -4.113
REMARK INTRA:                  -0.027
REMARK UNBOUND:                -0.028
REMARK SMILES O=C([O-])c1ccc(O)cc1
REMARK SMILES IDX 7 1 6 2 9 3 5 4 10 5 4 6 8 7 2 9 1 10 3 11
REMARK H PARENT 8 8
REMARK Flexibility Score: inf
ROOT
ATOM      1  C   UNL     1      -0.573  35.376   6.155  1.00  0.00     0.115 A 
ATOM      2  C   UNL     1       0.591  34.715   5.753  1.00  0.00     0.047 A 
ATOM      3  C   UNL     1      -0.593  36.775   6.216  1.00  0.00     0.047 A 
ATOM      4  C   UNL     1       1.734  35.446   5.412  1.00  0.00     0.014 A 
ATOM      5  C   UNL     1       0.548  37.509   5.877  1.00  0.00     0.014 A 
ATOM      6  C   UNL     1       1.724  36.851   5.471  1.00  0.00    -0.003 A 
ENDROOT
BRANCH   1   7
ATOM      7  O   UNL     1      -1.704  34.634   6.492  1.00  0.00    -0.508 OA
ATOM      8  H   UNL     1      -2.587  34.771   6.014  1.00  0.00     0.293 HD
ENDBRANCH   1   7
BRANCH   6   9
ATOM      9  C   UNL     1       2.934  37.623   5.110  1.00  0.00     0.071 C 
ATOM     10  O   UNL     1       3.182  37.899   3.906  1.00  0.00    -0.545 OA
ATOM     11  O   UNL     1       3.815  38.054   6.095  1.00  0.00    -0.545 OA
ENDBRANCH   6   9
TORSDOF 2
ENDMDL
MODEL 4
REMARK VINA RESULT:    -3.743      1.904      2.315
REMARK INTER + INTRA:          -4.099
REMARK INTER:                  -4.072
REMARK INTRA:                  -0.027
REMARK UNBOUND:                -0.028
REMARK SMILES O=C([O-])c1ccc(O)cc1
REMARK SMILES IDX 7 1 6 2 9 3 5 4 10 5 4 6 8 7 2 9 1 10 3 11
REMARK H PARENT 8 8
REMARK Flexibility Score: inf
ROOT
ATOM      1  C   UNL     1       6.829  38.544   8.129  1.00  0.00     0.115 A 
ATOM      2  C   UNL     1       6.009  37.596   8.746  1.00  0.00     0.047 A 
ATOM      3  C   UNL     1       6.342  39.285   7.045  1.00  0.00     0.047 A 
ATOM      4  C   UNL     1       4.705  37.385   8.284  1.00  0.00     0.014 A 
ATOM      5  C   UNL     1       5.039  39.077   6.580  1.00  0.00     0.014 A 
ATOM      6  C   UNL     1       4.207  38.123   7.196  1.00  0.00    -0.003 A 
ENDROOT
BRANCH   1   7
ATOM      7  O   UNL     1       8.125  38.743   8.600  1.00  0.00    -0.508 OA
ATOM      8  H   UNL     1       8.792  37.981   8.649  1.00  0.00     0.293 HD
ENDBRANCH   1   7
BRANCH   6   9
ATOM      9  C   UNL     1       2.828  37.899   6.709  1.00  0.00     0.071 C 
ATOM     10  O   UNL     1       1.848  38.435   7.291  1.00  0.00    -0.545 OA
ATOM     11  O   UNL     1       2.594  37.092   5.602  1.00  0.00    -0.545 OA
ENDBRANCH   6   9
TORSDOF 2
ENDMDL
MODEL 5
REMARK VINA RESULT:    -3.646      3.814      5.060
REMARK INTER + INTRA:          -3.994
REMARK INTER:                  -3.958
REMARK INTRA:                  -0.036
REMARK UNBOUND:                -0.028
REMARK SMILES O=C([O-])c1ccc(O)cc1
REMARK SMILES IDX 7 1 6 2 9 3 5 4 10 5 4 6 8 7 2 9 1 10 3 11
REMARK H PARENT 8 8
REMARK Flexibility Score: inf
ROOT
ATOM      1  C   UNL     1       0.845  35.695   5.658  1.00  0.00     0.115 A 
ATOM      2  C   UNL     1       2.140  36.130   5.367  1.00  0.00     0.047 A 
ATOM      3  C   UNL     1      -0.068  36.576   6.251  1.00  0.00     0.047 A 
ATOM      4  C   UNL     1       2.527  37.441   5.666  1.00  0.00     0.014 A 
ATOM      5  C   UNL     1       0.314  37.887   6.552  1.00  0.00     0.014 A 
ATOM      6  C   UNL     1       1.617  38.333   6.262  1.00  0.00    -0.003 A 
ENDROOT
BRANCH   1   7
ATOM      7  O   UNL     1       0.475  34.386   5.354  1.00  0.00    -0.508 OA
ATOM      8  H   UNL     1       0.249  33.718   6.083  1.00  0.00     0.293 HD
ENDBRANCH   1   7
BRANCH   6   9
ATOM      9  C   UNL     1       2.028  39.719   6.577  1.00  0.00     0.071 C 
ATOM     10  O   UNL     1       3.241  40.054   6.529  1.00  0.00    -0.545 OA
ATOM     11  O   UNL     1       1.080  40.672   6.932  1.00  0.00    -0.545 OA
ENDBRANCH   6   9
TORSDOF 2
ENDMDL
MODEL 6
REMARK VINA RESULT:    -3.495      5.583      6.649
REMARK INTER + INTRA:          -3.830
REMARK INTER:                  -3.802
REMARK INTRA:                  -0.028
REMARK UNBOUND:                -0.028
REMARK SMILES O=C([O-])c1ccc(O)cc1
REMARK SMILES IDX 7 1 6 2 9 3 5 4 10 5 4 6 8 7 2 9 1 10 3 11
REMARK H PARENT 8 8
REMARK Flexibility Score: inf
ROOT
ATOM      1  C   UNL     1       1.991  37.011   5.616  1.00  0.00     0.115 A 
ATOM      2  C   UNL     1       0.987  37.794   6.194  1.00  0.00     0.047 A 
ATOM      3  C   UNL     1       1.743  35.663   5.330  1.00  0.00     0.047 A 
ATOM      4  C   UNL     1      -0.261  37.234   6.486  1.00  0.00     0.014 A 
ATOM      5  C   UNL     1       0.497  35.100   5.621  1.00  0.00     0.014 A 
ATOM      6  C   UNL     1      -0.519  35.881   6.203  1.00  0.00    -0.003 A 
ENDROOT
BRANCH   1   7
ATOM      7  O   UNL     1       3.229  37.583   5.331  1.00  0.00    -0.508 OA
ATOM      8  H   UNL     1       3.331  38.582   5.193  1.00  0.00     0.293 HD
ENDBRANCH   1   7
BRANCH   6   9
ATOM      9  C   UNL     1      -1.840  35.292   6.513  1.00  0.00     0.071 C 
ATOM     10  O   UNL     1      -1.972  34.480   7.467  1.00  0.00    -0.545 OA
ATOM     11  O   UNL     1      -2.957  35.626   5.755  1.00  0.00    -0.545 OA
ENDBRANCH   6   9
TORSDOF 2
ENDMDL
MODEL 7
REMARK VINA RESULT:    -3.449      3.298      4.917
REMARK INTER + INTRA:          -3.779
REMARK INTER:                  -3.752
REMARK INTRA:                  -0.027
REMARK UNBOUND:                -0.028
REMARK SMILES O=C([O-])c1ccc(O)cc1
REMARK SMILES IDX 7 1 6 2 9 3 5 4 10 5 4 6 8 7 2 9 1 10 3 11
REMARK H PARENT 8 8
REMARK Flexibility Score: inf
ROOT
ATOM      1  C   UNL     1       0.272  37.210   5.834  1.00  0.00     0.115 A 
ATOM      2  C   UNL     1       0.450  38.161   6.842  1.00  0.00     0.047 A 
ATOM      3  C   UNL     1       1.386  36.568   5.279  1.00  0.00     0.047 A 
ATOM      4  C   UNL     1       1.735  38.473   7.297  1.00  0.00     0.014 A 
ATOM      5  C   UNL     1       2.672  36.877   5.731  1.00  0.00     0.014 A 
ATOM      6  C   UNL     1       2.860  37.834   6.747  1.00  0.00    -0.003 A 
ENDROOT
BRANCH   1   7
ATOM      7  O   UNL     1      -1.015  36.911   5.391  1.00  0.00    -0.508 OA
ATOM      8  H   UNL     1      -1.795  36.849   6.036  1.00  0.00     0.293 HD
ENDBRANCH   1   7
BRANCH   6   9
ATOM      9  C   UNL     1       4.219  38.165   7.230  1.00  0.00     0.071 C 
ATOM     10  O   UNL     1       4.924  39.016   6.626  1.00  0.00    -0.545 OA
ATOM     11  O   UNL     1       4.738  37.540   8.358  1.00  0.00    -0.545 OA
ENDBRANCH   6   9
TORSDOF 2
ENDMDL
MODEL 8
REMARK VINA RESULT:    -3.441      1.538      4.042
REMARK INTER + INTRA:          -3.771
REMARK INTER:                  -3.741
REMARK INTRA:                  -0.030
REMARK UNBOUND:                -0.028
REMARK SMILES O=C([O-])c1ccc(O)cc1
REMARK SMILES IDX 7 1 6 2 9 3 5 4 10 5 4 6 8 7 2 9 1 10 3 11
REMARK H PARENT 8 8
REMARK Flexibility Score: inf
ROOT
ATOM      1  C   UNL     1       3.642  38.433   5.862  1.00  0.00     0.115 A 
ATOM      2  C   UNL     1       3.499  37.640   7.004  1.00  0.00     0.047 A 
ATOM      3  C   UNL     1       4.756  39.271   5.733  1.00  0.00     0.047 A 
ATOM      4  C   UNL     1       4.463  37.683   8.016  1.00  0.00     0.014 A 
ATOM      5  C   UNL     1       5.722  39.317   6.742  1.00  0.00     0.014 A 
ATOM      6  C   UNL     1       5.585  38.522   7.896  1.00  0.00    -0.003 A 
ENDROOT
BRANCH   1   7
ATOM      7  O   UNL     1       2.673  38.379   4.862  1.00  0.00    -0.508 OA
ATOM      8  H   UNL     1       2.807  37.824   4.024  1.00  0.00     0.293 HD
ENDBRANCH   1   7
BRANCH   6   9
ATOM      9  C   UNL     1       6.604  38.566   8.968  1.00  0.00     0.071 C 
ATOM     10  O   UNL     1       7.169  37.510   9.358  1.00  0.00    -0.545 OA
ATOM     11  O   UNL     1       6.952  39.774   9.561  1.00  0.00    -0.545 OA
ENDBRANCH   6   9
TORSDOF 2
ENDMDL
MODEL 9
REMARK VINA RESULT:    -3.326      4.844      5.859
REMARK INTER + INTRA:          -3.645
REMARK INTER:                  -3.618
REMARK INTRA:                  -0.027
REMARK UNBOUND:                -0.028
REMARK SMILES O=C([O-])c1ccc(O)cc1
REMARK SMILES IDX 7 1 6 2 9 3 5 4 10 5 4 6 8 7 2 9 1 10 3 11
REMARK H PARENT 8 8
REMARK Flexibility Score: inf
ROOT
ATOM      1  C   UNL     1       2.658  37.784   5.964  1.00  0.00     0.115 A 
ATOM      2  C   UNL     1       2.484  36.607   5.230  1.00  0.00     0.047 A 
ATOM      3  C   UNL     1       1.591  38.305   6.705  1.00  0.00     0.047 A 
ATOM      4  C   UNL     1       1.249  35.951   5.235  1.00  0.00     0.014 A 
ATOM      5  C   UNL     1       0.354  37.652   6.712  1.00  0.00     0.014 A 
ATOM      6  C   UNL     1       0.171  36.466   5.976  1.00  0.00    -0.003 A 
ENDROOT
BRANCH   1   7
ATOM      7  O   UNL     1       3.894  38.427   5.949  1.00  0.00    -0.508 OA
ATOM      8  H   UNL     1       4.354  38.709   6.808  1.00  0.00     0.293 HD
ENDBRANCH   1   7
BRANCH   6   9
ATOM      9  C   UNL     1      -1.134  35.770   5.980  1.00  0.00     0.071 C 
ATOM     10  O   UNL     1      -2.076  36.171   5.246  1.00  0.00    -0.545 OA
ATOM     11  O   UNL     1      -1.339  34.661   6.793  1.00  0.00    -0.545 OA
ENDBRANCH   6   9
TORSDOF 2
ENDMDL
