MODEL 1
REMARK VINA RESULT:    -3.998      0.000      0.000
REMARK INTER + INTRA:          -5.861
REMARK INTER:                  -5.400
REMARK INTRA:                  -0.461
REMARK UNBOUND:                -0.461
REMARK SMILES CCCCCCCC(=O)[O-]
REMARK SMILES IDX 5 1 6 2 7 3 8 4 9 5 10 6 4 7 3 8 2 9 1 10
REMARK H PARENT
REMARK Flexibility Score: inf
ROOT
ATOM      1  C   UNL     1      40.537 -10.262 -41.996  1.00  0.00     0.000 C 
ENDROOT
BRANCH   1   2
ATOM      2  C   UNL     1      41.683 -10.142 -40.973  1.00  0.00     0.006 C 
BRANCH   2   3
ATOM      3  C   UNL     1      43.061 -10.011 -41.632  1.00  0.00     0.053 C 
BRANCH   3   4
ATOM      4  C   UNL     1      43.627 -11.362 -41.936  1.00  0.00     0.041 C 
ATOM      5  O   UNL     1      43.602 -11.810 -43.112  1.00  0.00    -0.550 OA
ATOM      6  O   UNL     1      44.229 -12.106 -40.928  1.00  0.00    -0.550 OA
ENDBRANCH   3   4
ENDBRANCH   2   3
ENDBRANCH   1   2
BRANCH   1   7
ATOM      7  C   UNL     1      40.661  -9.337 -43.220  1.00  0.00     0.000 C 
BRANCH   7   8
ATOM      8  C   UNL     1      40.130  -9.977 -44.512  1.00  0.00    -0.000 C 
BRANCH   8   9
ATOM      9  C   UNL     1      40.348 -11.493 -44.502  1.00  0.00    -0.003 C 
ATOM     10  C   UNL     1      39.119 -12.231 -45.026  1.00  0.00     0.004 C 
ENDBRANCH   8   9
ENDBRANCH   7   8
ENDBRANCH   1   7
TORSDOF 6
ENDMDL
MODEL 2
REMARK VINA RESULT:    -3.973      1.569      3.933
REMARK INTER + INTRA:          -5.827
REMARK INTER:                  -5.303
REMARK INTRA:                  -0.524
REMARK UNBOUND:                -0.461
REMARK SMILES CCCCCCCC(=O)[O-]
REMARK SMILES IDX 5 1 6 2 7 3 8 4 9 5 10 6 4 7 3 8 2 9 1 10
REMARK H PARENT
REMARK Flexibility Score: inf
ROOT
ATOM      1  C   UNL     1      41.429  -9.565 -43.032  1.00  0.00     0.000 C 
ENDROOT
BRANCH   1   2
ATOM      2  C   UNL     1      41.068 -10.260 -44.359  1.00  0.00     0.006 C 
BRANCH   2   3
ATOM      3  C   UNL     1      41.395 -11.759 -44.356  1.00  0.00     0.053 C 
BRANCH   3   4
ATOM      4  C   UNL     1      42.709 -12.008 -45.026  1.00  0.00     0.041 C 
ATOM      5  O   UNL     1      43.731 -12.272 -44.338  1.00  0.00    -0.550 OA
ATOM      6  O   UNL     1      42.796 -12.000 -46.412  1.00  0.00    -0.550 OA
ENDBRANCH   3   4
ENDBRANCH   2   3
ENDBRANCH   1   2
BRANCH   1   7
ATOM      7  C   UNL     1      40.814 -10.206 -41.775  1.00  0.00     0.000 C 
BRANCH   7   8
ATOM      8  C   UNL     1      41.857 -10.525 -40.693  1.00  0.00    -0.000 C 
BRANCH   8   9
ATOM      9  C   UNL     1      43.272 -10.528 -41.279  1.00  0.00    -0.003 C 
ATOM     10  C   UNL     1      44.045 -11.772 -40.849  1.00  0.00     0.004 C 
ENDBRANCH   8   9
ENDBRANCH   7   8
ENDBRANCH   1   7
TORSDOF 6
ENDMDL
MODEL 3
REMARK VINA RESULT:    -3.921      3.176      4.242
REMARK INTER + INTRA:          -5.757
REMARK INTER:                  -5.193
REMARK INTRA:                  -0.564
REMARK UNBOUND:                -0.461
REMARK SMILES CCCCCCCC(=O)[O-]
REMARK SMILES IDX 5 1 6 2 7 3 8 4 9 5 10 6 4 7 3 8 2 9 1 10
REMARK H PARENT
REMARK Flexibility Score: inf
ROOT
ATOM      1  C   UNL     1      40.987 -10.270 -41.165  1.00  0.00     0.000 C 
ENDROOT
BRANCH   1   2
ATOM      2  C   UNL     1      40.716  -9.840 -39.711  1.00  0.00     0.006 C 
BRANCH   2   3
ATOM      3  C   UNL     1      41.457 -10.705 -38.683  1.00  0.00     0.053 C 
BRANCH   3   4
ATOM      4  C   UNL     1      42.462  -9.886 -37.938  1.00  0.00     0.041 C 
ATOM      5  O   UNL     1      42.244  -8.666 -37.711  1.00  0.00    -0.550 OA
ATOM      6  O   UNL     1      43.619 -10.480 -37.449  1.00  0.00    -0.550 OA
ENDBRANCH   3   4
ENDBRANCH   2   3
ENDBRANCH   1   2
BRANCH   1   7
ATOM      7  C   UNL     1      42.097  -9.479 -41.880  1.00  0.00     0.000 C 
BRANCH   7   8
ATOM      8  C   UNL     1      43.506 -10.002 -41.564  1.00  0.00    -0.000 C 
BRANCH   8   9
ATOM      9  C   UNL     1      43.581 -11.522 -41.742  1.00  0.00    -0.003 C 
ATOM     10  C   UNL     1      44.373 -12.172 -40.612  1.00  0.00     0.004 C 
ENDBRANCH   8   9
ENDBRANCH   7   8
ENDBRANCH   1   7
TORSDOF 6
ENDMDL
MODEL 4
REMARK VINA RESULT:    -3.875      2.660      3.776
REMARK INTER + INTRA:          -5.695
REMARK INTER:                  -5.417
REMARK INTRA:                  -0.278
REMARK UNBOUND:                -0.461
REMARK SMILES CCCCCCCC(=O)[O-]
REMARK SMILES IDX 5 1 6 2 7 3 8 4 9 5 10 6 4 7 3 8 2 9 1 10
REMARK H PARENT
REMARK Flexibility Score: inf
ROOT
ATOM      1  C   UNL     1      43.931 -12.042 -40.974  1.00  0.00     0.000 C 
ENDROOT
BRANCH   1   2
ATOM      2  C   UNL     1      43.672 -11.228 -39.692  1.00  0.00     0.006 C 
BRANCH   2   3
ATOM      3  C   UNL     1      42.186 -10.918 -39.471  1.00  0.00     0.053 C 
BRANCH   3   4
ATOM      4  C   UNL     1      42.000  -9.477 -39.114  1.00  0.00     0.041 C 
ATOM      5  O   UNL     1      42.223  -9.081 -37.939  1.00  0.00    -0.550 OA
ATOM      6  O   UNL     1      41.631  -8.560 -40.091  1.00  0.00    -0.550 OA
ENDBRANCH   3   4
ENDBRANCH   2   3
ENDBRANCH   1   2
BRANCH   1   7
ATOM      7  C   UNL     1      43.478 -11.361 -42.278  1.00  0.00     0.000 C 
BRANCH   7   8
ATOM      8  C   UNL     1      43.517 -12.303 -43.491  1.00  0.00    -0.000 C 
BRANCH   8   9
ATOM      9  C   UNL     1      42.441 -11.923 -44.515  1.00  0.00    -0.003 C 
ATOM     10  C   UNL     1      41.411 -10.975 -43.907  1.00  0.00     0.004 C 
ENDBRANCH   8   9
ENDBRANCH   7   8
ENDBRANCH   1   7
TORSDOF 6
ENDMDL
MODEL 5
REMARK VINA RESULT:    -3.855      3.085      4.291
REMARK INTER + INTRA:          -5.668
REMARK INTER:                  -5.080
REMARK INTRA:                  -0.587
REMARK UNBOUND:                -0.461
REMARK SMILES CCCCCCCC(=O)[O-]
REMARK SMILES IDX 5 1 6 2 7 3 8 4 9 5 10 6 4 7 3 8 2 9 1 10
REMARK H PARENT
REMARK Flexibility Score: inf
ROOT
ATOM      1  C   UNL     1      44.124 -11.655 -40.325  1.00  0.00     0.000 C 
ENDROOT
BRANCH   1   2
ATOM      2  C   UNL     1      44.408 -10.463 -39.392  1.00  0.00     0.006 C 
BRANCH   2   3
ATOM      3  C   UNL     1      43.833 -10.656 -37.983  1.00  0.00     0.053 C 
BRANCH   3   4
ATOM      4  C   UNL     1      42.446 -10.101 -37.904  1.00  0.00     0.041 C 
ATOM      5  O   UNL     1      42.262  -8.856 -37.881  1.00  0.00    -0.550 OA
ATOM      6  O   UNL     1      41.352 -10.959 -37.906  1.00  0.00    -0.550 OA
ENDBRANCH   3   4
ENDBRANCH   2   3
ENDBRANCH   1   2
BRANCH   1   7
ATOM      7  C   UNL     1      43.527 -11.281 -41.694  1.00  0.00     0.000 C 
BRANCH   7   8
ATOM      8  C   UNL     1      42.690  -9.993 -41.651  1.00  0.00    -0.000 C 
BRANCH   8   9
ATOM      9  C   UNL     1      41.191 -10.312 -41.683  1.00  0.00    -0.003 C 
ATOM     10  C   UNL     1      40.386  -9.254 -40.936  1.00  0.00     0.004 C 
ENDBRANCH   8   9
ENDBRANCH   7   8
ENDBRANCH   1   7
TORSDOF 6
ENDMDL
MODEL 6
REMARK VINA RESULT:    -3.845      2.779      4.771
REMARK INTER + INTRA:          -5.655
REMARK INTER:                  -5.411
REMARK INTRA:                  -0.244
REMARK UNBOUND:                -0.461
REMARK SMILES CCCCCCCC(=O)[O-]
REMARK SMILES IDX 5 1 6 2 7 3 8 4 9 5 10 6 4 7 3 8 2 9 1 10
REMARK H PARENT
REMARK Flexibility Score: inf
ROOT
ATOM      1  C   UNL     1      43.960 -11.883 -41.009  1.00  0.00     0.000 C 
ENDROOT
BRANCH   1   2
ATOM      2  C   UNL     1      43.440 -11.308 -42.340  1.00  0.00     0.006 C 
BRANCH   2   3
ATOM      3  C   UNL     1      43.461 -12.331 -43.482  1.00  0.00     0.053 C 
BRANCH   3   4
ATOM      4  C   UNL     1      42.471 -11.955 -44.538  1.00  0.00     0.041 C 
ATOM      5  O   UNL     1      41.303 -11.608 -44.218  1.00  0.00    -0.550 OA
ATOM      6  O   UNL     1      42.851 -11.939 -45.875  1.00  0.00    -0.550 OA
ENDBRANCH   3   4
ENDBRANCH   2   3
ENDBRANCH   1   2
BRANCH   1   7
ATOM      7  C   UNL     1      43.544 -11.094 -39.754  1.00  0.00     0.000 C 
BRANCH   7   8
ATOM      8  C   UNL     1      42.021 -10.955 -39.610  1.00  0.00    -0.000 C 
BRANCH   8   9
ATOM      9  C   UNL     1      41.639  -9.535 -39.179  1.00  0.00    -0.003 C 
ATOM     10  C   UNL     1      42.660  -8.962 -38.201  1.00  0.00     0.004 C 
ENDBRANCH   8   9
ENDBRANCH   7   8
ENDBRANCH   1   7
TORSDOF 6
ENDMDL
MODEL 7
REMARK VINA RESULT:    -3.810      3.583      5.152
REMARK INTER + INTRA:          -5.607
REMARK INTER:                  -4.984
REMARK INTRA:                  -0.624
REMARK UNBOUND:                -0.461
REMARK SMILES CCCCCCCC(=O)[O-]
REMARK SMILES IDX 5 1 6 2 7 3 8 4 9 5 10 6 4 7 3 8 2 9 1 10
REMARK H PARENT
REMARK Flexibility Score: inf
ROOT
ATOM      1  C   UNL     1      42.082 -10.826 -40.035  1.00  0.00     0.000 C 
ENDROOT
BRANCH   1   2
ATOM      2  C   UNL     1      43.320 -10.694 -40.942  1.00  0.00     0.006 C 
BRANCH   2   3
ATOM      3  C   UNL     1      44.072 -12.018 -41.124  1.00  0.00     0.053 C 
BRANCH   3   4
ATOM      4  C   UNL     1      45.067 -12.210 -40.024  1.00  0.00     0.041 C 
ATOM      5  O   UNL     1      45.504 -11.217 -39.384  1.00  0.00    -0.550 OA
ATOM      6  O   UNL     1      45.474 -13.490 -39.669  1.00  0.00    -0.550 OA
ENDBRANCH   3   4
ENDBRANCH   2   3
ENDBRANCH   1   2
BRANCH   1   7
ATOM      7  C   UNL     1      41.932  -9.719 -38.976  1.00  0.00     0.000 C 
BRANCH   7   8
ATOM      8  C   UNL     1      42.562 -10.091 -37.625  1.00  0.00    -0.000 C 
BRANCH   8   9
ATOM      9  C   UNL     1      42.440 -11.595 -37.358  1.00  0.00    -0.003 C 
ATOM     10  C   UNL     1      43.604 -12.102 -36.512  1.00  0.00     0.004 C 
ENDBRANCH   8   9
ENDBRANCH   7   8
ENDBRANCH   1   7
TORSDOF 6
ENDMDL
MODEL 8
REMARK VINA RESULT:    -3.775     10.158     12.011
REMARK INTER + INTRA:          -5.560
REMARK INTER:                  -5.030
REMARK INTRA:                  -0.531
REMARK UNBOUND:                -0.461
REMARK SMILES CCCCCCCC(=O)[O-]
REMARK SMILES IDX 5 1 6 2 7 3 8 4 9 5 10 6 4 7 3 8 2 9 1 10
REMARK H PARENT
REMARK Flexibility Score: inf
ROOT
ATOM      1  C   UNL     1      46.779 -14.261 -34.679  1.00  0.00     0.000 C 
ENDROOT
BRANCH   1   2
ATOM      2  C   UNL     1      45.275 -14.114 -34.379  1.00  0.00     0.006 C 
BRANCH   2   3
ATOM      3  C   UNL     1      44.924 -14.424 -32.919  1.00  0.00     0.053 C 
BRANCH   3   4
ATOM      4  C   UNL     1      44.207 -13.268 -32.297  1.00  0.00     0.041 C 
ATOM      5  O   UNL     1      43.544 -12.472 -33.014  1.00  0.00    -0.550 OA
ATOM      6  O   UNL     1      44.229 -13.096 -30.918  1.00  0.00    -0.550 OA
ENDBRANCH   3   4
ENDBRANCH   2   3
ENDBRANCH   1   2
BRANCH   1   7
ATOM      7  C   UNL     1      47.663 -13.121 -34.141  1.00  0.00     0.000 C 
BRANCH   7   8
ATOM      8  C   UNL     1      48.921 -13.627 -33.418  1.00  0.00    -0.000 C 
BRANCH   8   9
ATOM      9  C   UNL     1      48.569 -14.203 -32.042  1.00  0.00    -0.003 C 
ATOM     10  C   UNL     1      47.996 -13.127 -31.124  1.00  0.00     0.004 C 
ENDBRANCH   8   9
ENDBRANCH   7   8
ENDBRANCH   1   7
TORSDOF 6
ENDMDL
MODEL 9
REMARK VINA RESULT:    -3.220      1.177      1.803
REMARK INTER + INTRA:          -4.810
REMARK INTER:                  -4.372
REMARK INTRA:                  -0.438
REMARK UNBOUND:                -0.461
REMARK SMILES CCCCCCCC(=O)[O-]
REMARK SMILES IDX 5 1 6 2 7 3 8 4 9 5 10 6 4 7 3 8 2 9 1 10
REMARK H PARENT
REMARK Flexibility Score: inf
ROOT
ATOM      1  C   UNL     1      40.622  -9.771 -41.806  1.00  0.00     0.000 C 
ENDROOT
BRANCH   1   2
ATOM      2  C   UNL     1      41.672 -10.451 -40.907  1.00  0.00     0.006 C 
BRANCH   2   3
ATOM      3  C   UNL     1      43.111 -10.197 -41.371  1.00  0.00     0.053 C 
BRANCH   3   4
ATOM      4  C   UNL     1      43.769 -11.483 -41.759  1.00  0.00     0.041 C 
ATOM      5  O   UNL     1      43.591 -11.966 -42.909  1.00  0.00    -0.550 OA
ATOM      6  O   UNL     1      44.622 -12.124 -40.869  1.00  0.00    -0.550 OA
ENDBRANCH   3   4
ENDBRANCH   2   3
ENDBRANCH   1   2
BRANCH   1   7
ATOM      7  C   UNL     1      40.327 -10.502 -43.127  1.00  0.00     0.000 C 
BRANCH   7   8
ATOM      8  C   UNL     1      40.906  -9.782 -44.354  1.00  0.00    -0.000 C 
BRANCH   8   9
ATOM      9  C   UNL     1      40.665  -8.272 -44.269  1.00  0.00    -0.003 C 
ATOM     10  C   UNL     1      39.386  -7.875 -45.001  1.00  0.00     0.004 C 
ENDBRANCH   8   9
ENDBRANCH   7   8
ENDBRANCH   1   7
TORSDOF 6
ENDMDL
