MODEL 1
REMARK VINA RESULT:    -3.657      0.000      0.000
REMARK INTER + INTRA:          -8.484
REMARK INTER:                  -6.437
REMARK INTRA:                  -2.047
REMARK UNBOUND:                -2.047
REMARK SMILES CCCCCCCCCCCCCCC(=O)[O-]
REMARK SMILES IDX 9 1 10 2 11 3 12 4 13 5 14 6 15 7 16 8 17 9 8 10 7 11 6 12
REMARK SMILES IDX 5 13 4 14 3 15 2 16 1 17
REMARK H PARENT
REMARK Flexibility Score: inf
ROOT
ATOM      1  C   UNL     1     181.222 185.119 201.188  1.00  0.00     0.000 C 
ENDROOT
BRANCH   1   2
ATOM      2  C   UNL     1     182.638 185.251 201.770  1.00  0.00     0.000 C 
BRANCH   2   3
ATOM      3  C   UNL     1     183.696 185.534 200.689  1.00  0.00     0.000 C 
BRANCH   3   4
ATOM      4  C   UNL     1     184.665 184.358 200.486  1.00  0.00     0.000 C 
BRANCH   4   5
ATOM      5  C   UNL     1     184.567 183.749 199.076  1.00  0.00     0.006 C 
BRANCH   5   6
ATOM      6  C   UNL     1     185.856 183.949 198.268  1.00  0.00     0.053 C 
BRANCH   6   7
ATOM      7  C   UNL     1     185.954 185.335 197.708  1.00  0.00     0.041 C 
ATOM      8  O   UNL     1     186.844 186.124 198.121  1.00  0.00    -0.550 OA
ATOM      9  O   UNL     1     185.080 185.746 196.709  1.00  0.00    -0.550 OA
ENDBRANCH   6   7
ENDBRANCH   5   6
ENDBRANCH   4   5
ENDBRANCH   3   4
ENDBRANCH   2   3
ENDBRANCH   1   2
BRANCH   1  10
ATOM     10  C   UNL     1     181.041 183.833 200.363  1.00  0.00     0.000 C 
BRANCH  10  11
ATOM     11  C   UNL     1     180.785 182.599 201.243  1.00  0.00    -0.000 C 
BRANCH  11  12
ATOM     12  C   UNL     1     181.815 181.481 201.004  1.00  0.00    -0.000 C 
BRANCH  12  13
ATOM     13  C   UNL     1     182.977 181.524 202.009  1.00  0.00    -0.000 C 
BRANCH  13  14
ATOM     14  C   UNL     1     184.083 180.511 201.678  1.00  0.00    -0.000 C 
BRANCH  14  15
ATOM     15  C   UNL     1     185.461 181.051 202.089  1.00  0.00    -0.000 C 
BRANCH  15  16
ATOM     16  C   UNL     1     186.459 181.074 200.921  1.00  0.00    -0.003 C 
ATOM     17  C   UNL     1     185.962 180.297 199.702  1.00  0.00     0.004 C 
ENDBRANCH  15  16
ENDBRANCH  14  15
ENDBRANCH  13  14
ENDBRANCH  12  13
ENDBRANCH  11  12
ENDBRANCH  10  11
ENDBRANCH   1  10
TORSDOF 13
ENDMDL
MODEL 2
REMARK VINA RESULT:    -3.575     13.518     16.759
REMARK INTER + INTRA:          -8.339
REMARK INTER:                  -6.296
REMARK INTRA:                  -2.043
REMARK UNBOUND:                -2.047
REMARK SMILES CCCCCCCCCCCCCCC(=O)[O-]
REMARK SMILES IDX 9 1 10 2 11 3 12 4 13 5 14 6 15 7 16 8 17 9 8 10 7 11 6 12
REMARK SMILES IDX 5 13 4 14 3 15 2 16 1 17
REMARK H PARENT
REMARK Flexibility Score: inf
ROOT
ATOM      1  C   UNL     1     196.987 194.409 199.300  1.00  0.00     0.000 C 
ENDROOT
BRANCH   1   2
ATOM      2  C   UNL     1     196.245 193.828 200.512  1.00  0.00     0.000 C 
BRANCH   2   3
ATOM      3  C   UNL     1     194.719 194.013 200.415  1.00  0.00     0.000 C 
BRANCH   3   4
ATOM      4  C   UNL     1     194.278 194.588 199.059  1.00  0.00     0.000 C 
BRANCH   4   5
ATOM      5  C   UNL     1     192.765 194.441 198.820  1.00  0.00     0.006 C 
BRANCH   5   6
ATOM      6  C   UNL     1     192.129 193.406 199.759  1.00  0.00     0.053 C 
BRANCH   6   7
ATOM      7  C   UNL     1     191.722 192.165 199.026  1.00  0.00     0.041 C 
ATOM      8  O   UNL     1     190.725 191.499 199.412  1.00  0.00    -0.550 OA
ATOM      9  O   UNL     1     192.426 191.758 197.899  1.00  0.00    -0.550 OA
ENDBRANCH   6   7
ENDBRANCH   5   6
ENDBRANCH   4   5
ENDBRANCH   3   4
ENDBRANCH   2   3
ENDBRANCH   1   2
BRANCH   1  10
ATOM     10  C   UNL     1     198.192 195.276 199.705  1.00  0.00     0.000 C 
BRANCH  10  11
ATOM     11  C   UNL     1     198.106 195.761 201.161  1.00  0.00    -0.000 C 
BRANCH  11  12
ATOM     12  C   UNL     1     197.650 197.227 201.267  1.00  0.00    -0.000 C 
BRANCH  12  13
ATOM     13  C   UNL     1     196.315 197.377 202.016  1.00  0.00    -0.000 C 
BRANCH  13  14
ATOM     14  C   UNL     1     195.130 197.618 201.069  1.00  0.00    -0.000 C 
BRANCH  14  15
ATOM     15  C   UNL     1     193.797 197.338 201.779  1.00  0.00    -0.000 C 
BRANCH  15  16
ATOM     16  C   UNL     1     192.587 197.489 200.844  1.00  0.00    -0.003 C 
ATOM     17  C   UNL     1     192.940 198.176 199.525  1.00  0.00     0.004 C 
ENDBRANCH  15  16
ENDBRANCH  14  15
ENDBRANCH  13  14
ENDBRANCH  12  13
ENDBRANCH  11  12
ENDBRANCH  10  11
ENDBRANCH   1  10
TORSDOF 13
ENDMDL
MODEL 3
REMARK VINA RESULT:    -3.564      1.544      3.038
REMARK INTER + INTRA:          -8.320
REMARK INTER:                  -6.476
REMARK INTRA:                  -1.843
REMARK UNBOUND:                -2.047
REMARK SMILES CCCCCCCCCCCCCCC(=O)[O-]
REMARK SMILES IDX 9 1 10 2 11 3 12 4 13 5 14 6 15 7 16 8 17 9 8 10 7 11 6 12
REMARK SMILES IDX 5 13 4 14 3 15 2 16 1 17
REMARK H PARENT
REMARK Flexibility Score: inf
ROOT
ATOM      1  C   UNL     1     182.449 181.971 201.494  1.00  0.00     0.000 C 
ENDROOT
BRANCH   1   2
ATOM      2  C   UNL     1     182.594 183.467 201.812  1.00  0.00     0.000 C 
BRANCH   2   3
ATOM      3  C   UNL     1     182.720 184.330 200.544  1.00  0.00     0.000 C 
BRANCH   3   4
ATOM      4  C   UNL     1     183.436 185.665 200.804  1.00  0.00     0.000 C 
BRANCH   4   5
ATOM      5  C   UNL     1     184.380 186.062 199.656  1.00  0.00     0.006 C 
BRANCH   5   6
ATOM      6  C   UNL     1     185.473 187.037 200.116  1.00  0.00     0.053 C 
BRANCH   6   7
ATOM      7  C   UNL     1     186.774 186.787 199.417  1.00  0.00     0.041 C 
ATOM      8  O   UNL     1     186.843 186.861 198.161  1.00  0.00    -0.550 OA
ATOM      9  O   UNL     1     187.917 186.499 200.153  1.00  0.00    -0.550 OA
ENDBRANCH   6   7
ENDBRANCH   5   6
ENDBRANCH   4   5
ENDBRANCH   3   4
ENDBRANCH   2   3
ENDBRANCH   1   2
BRANCH   1  10
ATOM     10  C   UNL     1     183.565 181.122 202.125  1.00  0.00     0.000 C 
BRANCH  10  11
ATOM     11  C   UNL     1     184.044 179.993 201.198  1.00  0.00    -0.000 C 
BRANCH  11  12
ATOM     12  C   UNL     1     185.548 179.705 201.349  1.00  0.00    -0.000 C 
BRANCH  12  13
ATOM     13  C   UNL     1     186.294 180.831 202.085  1.00  0.00    -0.000 C 
BRANCH  13  14
ATOM     14  C   UNL     1     187.165 181.676 201.144  1.00  0.00    -0.000 C 
BRANCH  14  15
ATOM     15  C   UNL     1     186.392 182.901 200.634  1.00  0.00    -0.000 C 
BRANCH  15  16
ATOM     16  C   UNL     1     185.962 182.759 199.166  1.00  0.00    -0.003 C 
ATOM     17  C   UNL     1     186.755 181.690 198.417  1.00  0.00     0.004 C 
ENDBRANCH  15  16
ENDBRANCH  14  15
ENDBRANCH  13  14
ENDBRANCH  12  13
ENDBRANCH  11  12
ENDBRANCH  10  11
ENDBRANCH   1  10
TORSDOF 13
ENDMDL
MODEL 4
REMARK VINA RESULT:    -3.551      1.655      4.502
REMARK INTER + INTRA:          -8.296
REMARK INTER:                  -6.598
REMARK INTRA:                  -1.698
REMARK UNBOUND:                -2.047
REMARK SMILES CCCCCCCCCCCCCCC(=O)[O-]
REMARK SMILES IDX 9 1 10 2 11 3 12 4 13 5 14 6 15 7 16 8 17 9 8 10 7 11 6 12
REMARK SMILES IDX 5 13 4 14 3 15 2 16 1 17
REMARK H PARENT
REMARK Flexibility Score: inf
ROOT
ATOM      1  C   UNL     1     185.629 180.134 199.833  1.00  0.00     0.000 C 
ENDROOT
BRANCH   1   2
ATOM      2  C   UNL     1     186.460 181.164 199.053  1.00  0.00     0.000 C 
BRANCH   2   3
ATOM      3  C   UNL     1     186.390 182.571 199.675  1.00  0.00     0.000 C 
BRANCH   3   4
ATOM      4  C   UNL     1     185.638 183.575 198.787  1.00  0.00     0.000 C 
BRANCH   4   5
ATOM      5  C   UNL     1     184.182 183.789 199.240  1.00  0.00     0.006 C 
BRANCH   5   6
ATOM      6  C   UNL     1     183.526 184.983 198.532  1.00  0.00     0.053 C 
BRANCH   6   7
ATOM      7  C   UNL     1     183.552 186.217 199.382  1.00  0.00     0.041 C 
ATOM      8  O   UNL     1     183.766 186.129 200.619  1.00  0.00    -0.550 OA
ATOM      9  O   UNL     1     183.368 187.466 198.801  1.00  0.00    -0.550 OA
ENDBRANCH   6   7
ENDBRANCH   5   6
ENDBRANCH   4   5
ENDBRANCH   3   4
ENDBRANCH   2   3
ENDBRANCH   1   2
BRANCH   1  10
ATOM     10  C   UNL     1     185.807 180.262 201.355  1.00  0.00     0.000 C 
BRANCH  10  11
ATOM     11  C   UNL     1     184.466 180.334 202.102  1.00  0.00    -0.000 C 
BRANCH  11  12
ATOM     12  C   UNL     1     183.341 180.930 201.237  1.00  0.00    -0.000 C 
BRANCH  12  13
ATOM     13  C   UNL     1     182.426 181.878 202.028  1.00  0.00    -0.000 C 
BRANCH  13  14
ATOM     14  C   UNL     1     181.231 182.374 201.201  1.00  0.00    -0.000 C 
BRANCH  14  15
ATOM     15  C   UNL     1     180.911 183.841 201.526  1.00  0.00    -0.000 C 
BRANCH  15  16
ATOM     16  C   UNL     1     180.413 184.622 200.300  1.00  0.00    -0.003 C 
ATOM     17  C   UNL     1     180.046 183.714 199.128  1.00  0.00     0.004 C 
ENDBRANCH  15  16
ENDBRANCH  14  15
ENDBRANCH  13  14
ENDBRANCH  12  13
ENDBRANCH  11  12
ENDBRANCH  10  11
ENDBRANCH   1  10
TORSDOF 13
ENDMDL
MODEL 5
REMARK VINA RESULT:    -3.527      1.151      4.078
REMARK INTER + INTRA:          -8.255
REMARK INTER:                  -6.459
REMARK INTRA:                  -1.796
REMARK UNBOUND:                -2.047
REMARK SMILES CCCCCCCCCCCCCCC(=O)[O-]
REMARK SMILES IDX 9 1 10 2 11 3 12 4 13 5 14 6 15 7 16 8 17 9 8 10 7 11 6 12
REMARK SMILES IDX 5 13 4 14 3 15 2 16 1 17
REMARK H PARENT
REMARK Flexibility Score: inf
ROOT
ATOM      1  C   UNL     1     185.619 180.043 199.824  1.00  0.00     0.000 C 
ENDROOT
BRANCH   1   2
ATOM      2  C   UNL     1     186.562 181.133 199.292  1.00  0.00     0.000 C 
BRANCH   2   3
ATOM      3  C   UNL     1     187.010 182.113 200.392  1.00  0.00     0.000 C 
BRANCH   3   4
ATOM      4  C   UNL     1     186.649 183.572 200.067  1.00  0.00     0.000 C 
BRANCH   4   5
ATOM      5  C   UNL     1     185.545 183.684 199.001  1.00  0.00     0.006 C 
BRANCH   5   6
ATOM      6  C   UNL     1     186.019 184.445 197.755  1.00  0.00     0.053 C 
BRANCH   6   7
ATOM      7  C   UNL     1     186.090 185.922 197.999  1.00  0.00     0.041 C 
ATOM      8  O   UNL     1     187.065 186.414 198.625  1.00  0.00    -0.550 OA
ATOM      9  O   UNL     1     185.094 186.758 197.508  1.00  0.00    -0.550 OA
ENDBRANCH   6   7
ENDBRANCH   5   6
ENDBRANCH   4   5
ENDBRANCH   3   4
ENDBRANCH   2   3
ENDBRANCH   1   2
BRANCH   1  10
ATOM     10  C   UNL     1     185.669 179.914 201.356  1.00  0.00     0.000 C 
BRANCH  10  11
ATOM     11  C   UNL     1     184.277 179.997 202.001  1.00  0.00    -0.000 C 
BRANCH  11  12
ATOM     12  C   UNL     1     183.771 181.446 202.125  1.00  0.00    -0.000 C 
BRANCH  12  13
ATOM     13  C   UNL     1     182.540 181.717 201.245  1.00  0.00    -0.000 C 
BRANCH  13  14
ATOM     14  C   UNL     1     182.362 183.208 200.922  1.00  0.00    -0.000 C 
BRANCH  14  15
ATOM     15  C   UNL     1     183.244 184.075 201.833  1.00  0.00    -0.000 C 
BRANCH  15  16
ATOM     16  C   UNL     1     182.848 185.560 201.799  1.00  0.00    -0.003 C 
ATOM     17  C   UNL     1     183.827 186.415 200.996  1.00  0.00     0.004 C 
ENDBRANCH  15  16
ENDBRANCH  14  15
ENDBRANCH  13  14
ENDBRANCH  12  13
ENDBRANCH  11  12
ENDBRANCH  10  11
ENDBRANCH   1  10
TORSDOF 13
ENDMDL
MODEL 6
REMARK VINA RESULT:    -3.508      2.234      5.163
REMARK INTER + INTRA:          -8.222
REMARK INTER:                  -6.185
REMARK INTRA:                  -2.037
REMARK UNBOUND:                -2.047
REMARK SMILES CCCCCCCCCCCCCCC(=O)[O-]
REMARK SMILES IDX 9 1 10 2 11 3 12 4 13 5 14 6 15 7 16 8 17 9 8 10 7 11 6 12
REMARK SMILES IDX 5 13 4 14 3 15 2 16 1 17
REMARK H PARENT
REMARK Flexibility Score: inf
ROOT
ATOM      1  C   UNL     1     182.428 182.991 201.518  1.00  0.00     0.000 C 
ENDROOT
BRANCH   1   2
ATOM      2  C   UNL     1     182.323 181.516 201.935  1.00  0.00     0.000 C 
BRANCH   2   3
ATOM      3  C   UNL     1     183.701 180.851 202.102  1.00  0.00     0.000 C 
BRANCH   3   4
ATOM      4  C   UNL     1     184.085 179.975 200.898  1.00  0.00     0.000 C 
BRANCH   4   5
ATOM      5  C   UNL     1     185.589 180.042 200.576  1.00  0.00     0.006 C 
BRANCH   5   6
ATOM      6  C   UNL     1     186.381 180.783 201.662  1.00  0.00     0.053 C 
BRANCH   6   7
ATOM      7  C   UNL     1     187.367 181.745 201.073  1.00  0.00     0.041 C 
ATOM      8  O   UNL     1     187.503 181.828 199.824  1.00  0.00    -0.550 OA
ATOM      9  O   UNL     1     188.117 182.570 201.903  1.00  0.00    -0.550 OA
ENDBRANCH   6   7
ENDBRANCH   5   6
ENDBRANCH   4   5
ENDBRANCH   3   4
ENDBRANCH   2   3
ENDBRANCH   1   2
BRANCH   1  10
ATOM     10  C   UNL     1     183.745 183.641 201.975  1.00  0.00     0.000 C 
BRANCH  10  11
ATOM     11  C   UNL     1     184.577 184.177 200.800  1.00  0.00    -0.000 C 
BRANCH  11  12
ATOM     12  C   UNL     1     184.118 183.607 199.445  1.00  0.00    -0.000 C 
BRANCH  12  13
ATOM     13  C   UNL     1     183.885 184.703 198.393  1.00  0.00    -0.000 C 
BRANCH  13  14
ATOM     14  C   UNL     1     182.863 185.754 198.850  1.00  0.00    -0.000 C 
BRANCH  14  15
ATOM     15  C   UNL     1     181.500 185.520 198.180  1.00  0.00    -0.000 C 
BRANCH  15  16
ATOM     16  C   UNL     1     180.405 185.135 199.187  1.00  0.00    -0.003 C 
ATOM     17  C   UNL     1     179.901 183.705 198.995  1.00  0.00     0.004 C 
ENDBRANCH  15  16
ENDBRANCH  14  15
ENDBRANCH  13  14
ENDBRANCH  12  13
ENDBRANCH  11  12
ENDBRANCH  10  11
ENDBRANCH   1  10
TORSDOF 13
ENDMDL
MODEL 7
REMARK VINA RESULT:    -3.506      1.354      2.111
REMARK INTER + INTRA:          -8.217
REMARK INTER:                  -6.486
REMARK INTRA:                  -1.731
REMARK UNBOUND:                -2.047
REMARK SMILES CCCCCCCCCCCCCCC(=O)[O-]
REMARK SMILES IDX 9 1 10 2 11 3 12 4 13 5 14 6 15 7 16 8 17 9 8 10 7 11 6 12
REMARK SMILES IDX 5 13 4 14 3 15 2 16 1 17
REMARK H PARENT
REMARK Flexibility Score: inf
ROOT
ATOM      1  C   UNL     1     182.035 183.786 200.073  1.00  0.00     0.000 C 
ENDROOT
BRANCH   1   2
ATOM      2  C   UNL     1     183.230 184.239 199.221  1.00  0.00     0.000 C 
BRANCH   2   3
ATOM      3  C   UNL     1     184.441 184.655 200.076  1.00  0.00     0.000 C 
BRANCH   3   4
ATOM      4  C   UNL     1     184.558 186.179 200.236  1.00  0.00     0.000 C 
BRANCH   4   5
ATOM      5  C   UNL     1     185.963 186.703 199.886  1.00  0.00     0.006 C 
BRANCH   5   6
ATOM      6  C   UNL     1     186.552 186.002 198.655  1.00  0.00     0.053 C 
BRANCH   6   7
ATOM      7  C   UNL     1     185.986 186.548 197.379  1.00  0.00     0.041 C 
ATOM      8  O   UNL     1     185.623 185.766 196.461  1.00  0.00    -0.550 OA
ATOM      9  O   UNL     1     185.833 187.919 197.216  1.00  0.00    -0.550 OA
ENDBRANCH   6   7
ENDBRANCH   5   6
ENDBRANCH   4   5
ENDBRANCH   3   4
ENDBRANCH   2   3
ENDBRANCH   1   2
BRANCH   1  10
ATOM     10  C   UNL     1     182.415 183.555 201.546  1.00  0.00     0.000 C 
BRANCH  10  11
ATOM     11  C   UNL     1     182.229 182.092 201.981  1.00  0.00    -0.000 C 
BRANCH  11  12
ATOM     12  C   UNL     1     183.363 181.180 201.479  1.00  0.00    -0.000 C 
BRANCH  12  13
ATOM     13  C   UNL     1     184.717 181.513 202.125  1.00  0.00    -0.000 C 
BRANCH  13  14
ATOM     14  C   UNL     1     185.900 180.881 201.376  1.00  0.00    -0.000 C 
BRANCH  14  15
ATOM     15  C   UNL     1     185.596 180.759 199.876  1.00  0.00    -0.000 C 
BRANCH  15  16
ATOM     16  C   UNL     1     186.782 181.183 198.996  1.00  0.00    -0.003 C 
ATOM     17  C   UNL     1     186.435 182.329 198.046  1.00  0.00     0.004 C 
ENDBRANCH  15  16
ENDBRANCH  14  15
ENDBRANCH  13  14
ENDBRANCH  12  13
ENDBRANCH  11  12
ENDBRANCH  10  11
ENDBRANCH   1  10
TORSDOF 13
ENDMDL
MODEL 8
REMARK VINA RESULT:    -3.475      1.732      3.987
REMARK INTER + INTRA:          -8.163
REMARK INTER:                  -6.237
REMARK INTRA:                  -1.926
REMARK UNBOUND:                -2.047
REMARK SMILES CCCCCCCCCCCCCCC(=O)[O-]
REMARK SMILES IDX 9 1 10 2 11 3 12 4 13 5 14 6 15 7 16 8 17 9 8 10 7 11 6 12
REMARK SMILES IDX 5 13 4 14 3 15 2 16 1 17
REMARK H PARENT
REMARK Flexibility Score: inf
ROOT
ATOM      1  C   UNL     1     186.400 182.169 198.352  1.00  0.00     0.000 C 
ENDROOT
BRANCH   1   2
ATOM      2  C   UNL     1     185.262 183.130 198.728  1.00  0.00     0.000 C 
BRANCH   2   3
ATOM      3  C   UNL     1     185.641 184.068 199.888  1.00  0.00     0.000 C 
BRANCH   3   4
ATOM      4  C   UNL     1     184.948 185.437 199.795  1.00  0.00     0.000 C 
BRANCH   4   5
ATOM      5  C   UNL     1     183.886 185.485 198.682  1.00  0.00     0.006 C 
BRANCH   5   6
ATOM      6  C   UNL     1     183.675 186.908 198.145  1.00  0.00     0.053 C 
BRANCH   6   7
ATOM      7  C   UNL     1     184.943 187.706 198.171  1.00  0.00     0.041 C 
ATOM      8  O   UNL     1     185.898 187.402 197.409  1.00  0.00    -0.550 OA
ATOM      9  O   UNL     1     185.058 188.803 199.016  1.00  0.00    -0.550 OA
ENDBRANCH   6   7
ENDBRANCH   5   6
ENDBRANCH   4   5
ENDBRANCH   3   4
ENDBRANCH   2   3
ENDBRANCH   1   2
BRANCH   1  10
ATOM     10  C   UNL     1     186.742 181.187 199.486  1.00  0.00     0.000 C 
BRANCH  10  11
ATOM     11  C   UNL     1     185.978 179.859 199.366  1.00  0.00    -0.000 C 
BRANCH  11  12
ATOM     12  C   UNL     1     184.764 179.790 200.310  1.00  0.00    -0.000 C 
BRANCH  12  13
ATOM     13  C   UNL     1     185.037 180.450 201.671  1.00  0.00    -0.000 C 
BRANCH  13  14
ATOM     14  C   UNL     1     183.894 181.372 202.122  1.00  0.00    -0.000 C 
BRANCH  14  15
ATOM     15  C   UNL     1     182.805 181.462 201.042  1.00  0.00    -0.000 C 
BRANCH  15  16
ATOM     16  C   UNL     1     182.217 182.875 200.912  1.00  0.00    -0.003 C 
ATOM     17  C   UNL     1     182.517 183.755 202.125  1.00  0.00     0.004 C 
ENDBRANCH  15  16
ENDBRANCH  14  15
ENDBRANCH  13  14
ENDBRANCH  12  13
ENDBRANCH  11  12
ENDBRANCH  10  11
ENDBRANCH   1  10
TORSDOF 13
ENDMDL
