MODEL 1
REMARK VINA RESULT:    -5.422      0.000      0.000
REMARK INTER + INTRA:          -7.296
REMARK INTER:                  -6.848
REMARK INTRA:                  -0.448
REMARK UNBOUND:                -0.448
REMARK SMILES Oc1cc(O)cc(CCc2ccccc2O)c1
REMARK SMILES IDX 9 1 10 2 12 3 13 4 11 5 14 6 15 7 16 8 8 10 7 11 6 12 17 13
REMARK SMILES IDX 4 14 2 15 3 16 5 17 1 19
REMARK H PARENT 16 9 5 18 1 20
REMARK Flexibility Score: inf
ROOT
ATOM      1  C   UNL     1     175.500 176.471 186.867  1.00  0.00     0.044 C 
ENDROOT
BRANCH   1   2
ATOM      2  C   UNL     1     174.578 177.542 187.391  1.00  0.00    -0.006 A 
ATOM      3  C   UNL     1     172.328 178.274 187.954  1.00  0.00     0.001 A 
ATOM      4  C   UNL     1     172.819 179.536 188.295  1.00  0.00     0.004 A 
ATOM      5  C   UNL     1     173.200 177.282 187.499  1.00  0.00     0.007 A 
ATOM      6  C   UNL     1     174.183 179.811 188.177  1.00  0.00     0.046 A 
ATOM      7  C   UNL     1     175.067 178.822 187.721  1.00  0.00     0.118 A 
BRANCH   7   8
ATOM      8  O   UNL     1     176.426 179.109 187.592  1.00  0.00    -0.508 OA
ATOM      9  H   UNL     1     177.063 179.032 188.377  1.00  0.00     0.293 HD
ENDBRANCH   7   8
ENDBRANCH   1   2
BRANCH   1  10
ATOM     10  C   UNL     1     175.500 175.257 187.801  1.00  0.00     0.040 C 
BRANCH  10  11
ATOM     11  C   UNL     1     176.909 174.854 188.147  1.00  0.00    -0.040 A 
ATOM     12  C   UNL     1     177.690 174.147 187.219  1.00  0.00     0.050 A 
ATOM     13  C   UNL     1     177.472 175.233 189.376  1.00  0.00     0.050 A 
ATOM     14  C   UNL     1     179.011 173.801 187.523  1.00  0.00     0.119 A 
ATOM     15  C   UNL     1     178.795 174.887 189.684  1.00  0.00     0.119 A 
ATOM     16  C   UNL     1     179.560 174.170 188.758  1.00  0.00     0.092 A 
BRANCH  14  17
ATOM     17  O   UNL     1     179.769 173.094 186.593  1.00  0.00    -0.508 OA
ATOM     18  H   UNL     1     180.334 173.569 185.899  1.00  0.00     0.293 HD
ENDBRANCH  14  17
BRANCH  15  19
ATOM     19  O   UNL     1     179.359 175.253 190.904  1.00  0.00    -0.508 OA
ATOM     20  H   UNL     1     179.819 174.574 191.500  1.00  0.00     0.293 HD
ENDBRANCH  15  19
ENDBRANCH  10  11
ENDBRANCH   1  10
TORSDOF 6
ENDMDL
MODEL 2
REMARK VINA RESULT:    -5.389     10.211     13.755
REMARK INTER + INTRA:          -7.255
REMARK INTER:                  -6.589
REMARK INTRA:                  -0.666
REMARK UNBOUND:                -0.448
REMARK SMILES Oc1cc(O)cc(CCc2ccccc2O)c1
REMARK SMILES IDX 9 1 10 2 12 3 13 4 11 5 14 6 15 7 16 8 8 10 7 11 6 12 17 13
REMARK SMILES IDX 4 14 2 15 3 16 5 17 1 19
REMARK H PARENT 16 9 5 18 1 20
REMARK Flexibility Score: inf
ROOT
ATOM      1  C   UNL     1     165.340 175.644 186.869  1.00  0.00     0.044 C 
ENDROOT
BRANCH   1   2
ATOM      2  C   UNL     1     166.036 176.403 187.969  1.00  0.00    -0.006 A 
ATOM      3  C   UNL     1     167.560 176.412 189.864  1.00  0.00     0.001 A 
ATOM      4  C   UNL     1     167.299 177.768 190.074  1.00  0.00     0.004 A 
ATOM      5  C   UNL     1     166.929 175.730 188.821  1.00  0.00     0.007 A 
ATOM      6  C   UNL     1     166.402 178.443 189.244  1.00  0.00     0.046 A 
ATOM      7  C   UNL     1     165.763 177.767 188.194  1.00  0.00     0.118 A 
BRANCH   7   8
ATOM      8  O   UNL     1     164.857 178.446 187.378  1.00  0.00    -0.508 OA
ATOM      9  H   UNL     1     163.947 178.059 187.157  1.00  0.00     0.293 HD
ENDBRANCH   7   8
ENDBRANCH   1   2
BRANCH   1  10
ATOM     10  C   UNL     1     164.138 174.873 187.423  1.00  0.00     0.040 C 
BRANCH  10  11
ATOM     11  C   UNL     1     162.865 175.645 187.201  1.00  0.00    -0.040 A 
ATOM     12  C   UNL     1     161.987 175.883 188.270  1.00  0.00     0.050 A 
ATOM     13  C   UNL     1     162.574 176.183 185.937  1.00  0.00     0.050 A 
ATOM     14  C   UNL     1     160.820 176.630 188.076  1.00  0.00     0.119 A 
ATOM     15  C   UNL     1     161.405 176.931 185.739  1.00  0.00     0.119 A 
ATOM     16  C   UNL     1     160.530 177.150 186.807  1.00  0.00     0.092 A 
BRANCH  14  17
ATOM     17  O   UNL     1     159.958 176.850 189.147  1.00  0.00    -0.508 OA
ATOM     18  H   UNL     1     158.994 176.539 189.124  1.00  0.00     0.293 HD
ENDBRANCH  14  17
BRANCH  15  19
ATOM     19  O   UNL     1     161.106 177.461 184.486  1.00  0.00    -0.508 OA
ATOM     20  H   UNL     1     161.068 178.462 184.330  1.00  0.00     0.293 HD
ENDBRANCH  15  19
ENDBRANCH  10  11
ENDBRANCH   1  10
TORSDOF 6
ENDMDL
MODEL 3
REMARK VINA RESULT:    -5.378      0.106      2.037
REMARK INTER + INTRA:          -7.241
REMARK INTER:                  -6.796
REMARK INTRA:                  -0.446
REMARK UNBOUND:                -0.448
REMARK SMILES Oc1cc(O)cc(CCc2ccccc2O)c1
REMARK SMILES IDX 9 1 10 2 12 3 13 4 11 5 14 6 15 7 16 8 8 10 7 11 6 12 17 13
REMARK SMILES IDX 4 14 2 15 3 16 5 17 1 19
REMARK H PARENT 16 9 5 18 1 20
REMARK Flexibility Score: inf
ROOT
ATOM      1  C   UNL     1     175.426 176.489 186.910  1.00  0.00     0.044 C 
ENDROOT
BRANCH   1   2
ATOM      2  C   UNL     1     174.552 177.585 187.463  1.00  0.00    -0.006 A 
ATOM      3  C   UNL     1     172.350 178.365 188.138  1.00  0.00     0.001 A 
ATOM      4  C   UNL     1     172.879 179.625 188.425  1.00  0.00     0.004 A 
ATOM      5  C   UNL     1     173.179 177.351 187.654  1.00  0.00     0.007 A 
ATOM      6  C   UNL     1     174.238 179.875 188.225  1.00  0.00     0.046 A 
ATOM      7  C   UNL     1     175.079 178.863 187.739  1.00  0.00     0.118 A 
BRANCH   7   8
ATOM      8  O   UNL     1     176.433 179.125 187.528  1.00  0.00    -0.508 OA
ATOM      9  H   UNL     1     176.746 179.979 187.082  1.00  0.00     0.293 HD
ENDBRANCH   7   8
ENDBRANCH   1   2
BRANCH   1  10
ATOM     10  C   UNL     1     175.469 175.297 187.871  1.00  0.00     0.040 C 
BRANCH  10  11
ATOM     11  C   UNL     1     176.893 174.905 188.165  1.00  0.00    -0.040 A 
ATOM     12  C   UNL     1     177.486 175.260 189.388  1.00  0.00     0.050 A 
ATOM     13  C   UNL     1     177.619 174.132 187.245  1.00  0.00     0.050 A 
ATOM     14  C   UNL     1     178.797 174.869 189.679  1.00  0.00     0.119 A 
ATOM     15  C   UNL     1     178.933 173.738 187.534  1.00  0.00     0.119 A 
ATOM     16  C   UNL     1     179.520 174.110 188.748  1.00  0.00     0.092 A 
BRANCH  14  17
ATOM     17  O   UNL     1     179.371 175.236 190.893  1.00  0.00    -0.508 OA
ATOM     18  H   UNL     1     180.039 175.995 190.956  1.00  0.00     0.293 HD
ENDBRANCH  14  17
BRANCH  15  19
ATOM     19  O   UNL     1     179.662 172.977 186.623  1.00  0.00    -0.508 OA
ATOM     20  H   UNL     1     180.299 173.409 185.963  1.00  0.00     0.293 HD
ENDBRANCH  15  19
ENDBRANCH  10  11
ENDBRANCH   1  10
TORSDOF 6
ENDMDL
MODEL 4
REMARK VINA RESULT:    -5.358     10.005     12.742
REMARK INTER + INTRA:          -7.216
REMARK INTER:                  -6.658
REMARK INTRA:                  -0.558
REMARK UNBOUND:                -0.448
REMARK SMILES Oc1cc(O)cc(CCc2ccccc2O)c1
REMARK SMILES IDX 9 1 10 2 12 3 13 4 11 5 14 6 15 7 16 8 8 10 7 11 6 12 17 13
REMARK SMILES IDX 4 14 2 15 3 16 5 17 1 19
REMARK H PARENT 16 9 5 18 1 20
REMARK Flexibility Score: inf
ROOT
ATOM      1  C   UNL     1     163.767 177.077 186.090  1.00  0.00     0.044 C 
ENDROOT
BRANCH   1   2
ATOM      2  C   UNL     1     162.401 176.921 186.709  1.00  0.00    -0.006 A 
ATOM      3  C   UNL     1     161.031 176.361 188.639  1.00  0.00     0.001 A 
ATOM      4  C   UNL     1     159.875 176.551 187.879  1.00  0.00     0.004 A 
ATOM      5  C   UNL     1     162.289 176.539 188.058  1.00  0.00     0.007 A 
ATOM      6  C   UNL     1     159.974 176.915 186.534  1.00  0.00     0.046 A 
ATOM      7  C   UNL     1     161.233 177.096 185.941  1.00  0.00     0.118 A 
BRANCH   7   8
ATOM      8  O   UNL     1     161.323 177.445 184.593  1.00  0.00    -0.508 OA
ATOM      9  H   UNL     1     161.188 176.762 183.857  1.00  0.00     0.293 HD
ENDBRANCH   7   8
ENDBRANCH   1   2
BRANCH   1  10
ATOM     10  C   UNL     1     164.851 176.558 187.038  1.00  0.00     0.040 C 
BRANCH  10  11
ATOM     11  C   UNL     1     165.809 177.661 187.403  1.00  0.00    -0.040 A 
ATOM     12  C   UNL     1     166.519 178.340 186.400  1.00  0.00     0.050 A 
ATOM     13  C   UNL     1     165.954 178.058 188.741  1.00  0.00     0.050 A 
ATOM     14  C   UNL     1     167.385 179.389 186.732  1.00  0.00     0.119 A 
ATOM     15  C   UNL     1     166.821 179.109 189.076  1.00  0.00     0.119 A 
ATOM     16  C   UNL     1     167.535 179.769 188.072  1.00  0.00     0.092 A 
BRANCH  14  17
ATOM     17  O   UNL     1     168.086 180.046 185.725  1.00  0.00    -0.508 OA
ATOM     18  H   UNL     1     168.751 179.559 185.136  1.00  0.00     0.293 HD
ENDBRANCH  14  17
BRANCH  15  19
ATOM     19  O   UNL     1     166.976 179.504 190.403  1.00  0.00    -0.508 OA
ATOM     20  H   UNL     1     166.254 180.022 190.890  1.00  0.00     0.293 HD
ENDBRANCH  15  19
ENDBRANCH  10  11
ENDBRANCH   1  10
TORSDOF 6
ENDMDL
MODEL 5
REMARK VINA RESULT:    -5.331      9.502     12.073
REMARK INTER + INTRA:          -7.181
REMARK INTER:                  -6.545
REMARK INTRA:                  -0.636
REMARK UNBOUND:                -0.448
REMARK SMILES Oc1cc(O)cc(CCc2ccccc2O)c1
REMARK SMILES IDX 9 1 10 2 12 3 13 4 11 5 14 6 15 7 16 8 8 10 7 11 6 12 17 13
REMARK SMILES IDX 4 14 2 15 3 16 5 17 1 19
REMARK H PARENT 16 9 5 18 1 20
REMARK Flexibility Score: inf
ROOT
ATOM      1  C   UNL     1     176.348 166.114 187.192  1.00  0.00     0.044 C 
ENDROOT
BRANCH   1   2
ATOM      2  C   UNL     1     177.577 166.972 187.353  1.00  0.00    -0.006 A 
ATOM      3  C   UNL     1     178.567 169.133 187.870  1.00  0.00     0.001 A 
ATOM      4  C   UNL     1     179.837 168.622 187.595  1.00  0.00     0.004 A 
ATOM      5  C   UNL     1     177.441 168.316 187.744  1.00  0.00     0.007 A 
ATOM      6  C   UNL     1     179.984 167.293 187.191  1.00  0.00     0.046 A 
ATOM      7  C   UNL     1     178.859 166.464 187.061  1.00  0.00     0.118 A 
BRANCH   7   8
ATOM      8  O   UNL     1     179.013 165.143 186.642  1.00  0.00    -0.508 OA
ATOM      9  H   UNL     1     178.461 164.758 185.885  1.00  0.00     0.293 HD
ENDBRANCH   7   8
ENDBRANCH   1   2
BRANCH   1  10
ATOM     10  C   UNL     1     175.943 165.495 188.533  1.00  0.00     0.040 C 
BRANCH  10  11
ATOM     11  C   UNL     1     176.349 164.047 188.593  1.00  0.00    -0.040 A 
ATOM     12  C   UNL     1     176.042 163.183 187.529  1.00  0.00     0.050 A 
ATOM     13  C   UNL     1     177.088 163.563 189.684  1.00  0.00     0.050 A 
ATOM     14  C   UNL     1     176.446 161.844 187.566  1.00  0.00     0.119 A 
ATOM     15  C   UNL     1     177.494 162.222 189.723  1.00  0.00     0.119 A 
ATOM     16  C   UNL     1     177.170 161.365 188.666  1.00  0.00     0.092 A 
BRANCH  14  17
ATOM     17  O   UNL     1     176.127 161.000 186.506  1.00  0.00    -0.508 OA
ATOM     18  H   UNL     1     175.575 161.322 185.719  1.00  0.00     0.293 HD
ENDBRANCH  14  17
BRANCH  15  19
ATOM     19  O   UNL     1     178.221 161.732 190.806  1.00  0.00    -0.508 OA
ATOM     20  H   UNL     1     178.861 162.322 191.325  1.00  0.00     0.293 HD
ENDBRANCH  15  19
ENDBRANCH  10  11
ENDBRANCH   1  10
TORSDOF 6
ENDMDL
MODEL 6
REMARK VINA RESULT:    -5.310     10.246     13.548
REMARK INTER + INTRA:          -7.155
REMARK INTER:                  -6.465
REMARK INTRA:                  -0.690
REMARK UNBOUND:                -0.448
REMARK SMILES Oc1cc(O)cc(CCc2ccccc2O)c1
REMARK SMILES IDX 9 1 10 2 12 3 13 4 11 5 14 6 15 7 16 8 8 10 7 11 6 12 17 13
REMARK SMILES IDX 4 14 2 15 3 16 5 17 1 19
REMARK H PARENT 16 9 5 18 1 20
REMARK Flexibility Score: inf
ROOT
ATOM      1  C   UNL     1     165.474 175.718 186.785  1.00  0.00     0.044 C 
ENDROOT
BRANCH   1   2
ATOM      2  C   UNL     1     166.104 176.489 187.916  1.00  0.00    -0.006 A 
ATOM      3  C   UNL     1     167.464 176.511 189.932  1.00  0.00     0.001 A 
ATOM      4  C   UNL     1     167.236 177.881 190.077  1.00  0.00     0.004 A 
ATOM      5  C   UNL     1     166.897 175.816 188.862  1.00  0.00     0.007 A 
ATOM      6  C   UNL     1     166.438 178.558 189.152  1.00  0.00     0.046 A 
ATOM      7  C   UNL     1     165.864 177.869 188.074  1.00  0.00     0.118 A 
BRANCH   7   8
ATOM      8  O   UNL     1     165.056 178.551 187.164  1.00  0.00    -0.508 OA
ATOM      9  H   UNL     1     164.806 179.524 187.299  1.00  0.00     0.293 HD
ENDBRANCH   7   8
ENDBRANCH   1   2
BRANCH   1  10
ATOM     10  C   UNL     1     164.264 174.921 187.284  1.00  0.00     0.040 C 
BRANCH  10  11
ATOM     11  C   UNL     1     163.002 175.728 187.136  1.00  0.00    -0.040 A 
ATOM     12  C   UNL     1     162.638 176.249 185.884  1.00  0.00     0.050 A 
ATOM     13  C   UNL     1     162.148 175.915 188.236  1.00  0.00     0.050 A 
ATOM     14  C   UNL     1     161.448 176.971 185.736  1.00  0.00     0.119 A 
ATOM     15  C   UNL     1     160.956 176.637 188.090  1.00  0.00     0.119 A 
ATOM     16  C   UNL     1     160.610 177.165 186.842  1.00  0.00     0.092 A 
BRANCH  14  17
ATOM     17  O   UNL     1     161.108 177.486 184.489  1.00  0.00    -0.508 OA
ATOM     18  H   UNL     1     161.200 178.473 184.279  1.00  0.00     0.293 HD
ENDBRANCH  14  17
BRANCH  15  19
ATOM     19  O   UNL     1     160.108 176.833 189.177  1.00  0.00    -0.508 OA
ATOM     20  H   UNL     1     159.316 177.464 189.125  1.00  0.00     0.293 HD
ENDBRANCH  15  19
ENDBRANCH  10  11
ENDBRANCH   1  10
TORSDOF 6
ENDMDL
MODEL 7
REMARK VINA RESULT:    -5.301      9.478     12.204
REMARK INTER + INTRA:          -7.144
REMARK INTER:                  -6.528
REMARK INTRA:                  -0.616
REMARK UNBOUND:                -0.448
REMARK SMILES Oc1cc(O)cc(CCc2ccccc2O)c1
REMARK SMILES IDX 9 1 10 2 12 3 13 4 11 5 14 6 15 7 16 8 8 10 7 11 6 12 17 13
REMARK SMILES IDX 4 14 2 15 3 16 5 17 1 19
REMARK H PARENT 16 9 5 18 1 20
REMARK Flexibility Score: inf
ROOT
ATOM      1  C   UNL     1     176.373 166.183 187.194  1.00  0.00     0.044 C 
ENDROOT
BRANCH   1   2
ATOM      2  C   UNL     1     177.622 167.010 187.366  1.00  0.00    -0.006 A 
ATOM      3  C   UNL     1     178.663 169.139 187.907  1.00  0.00     0.001 A 
ATOM      4  C   UNL     1     179.921 168.600 187.629  1.00  0.00     0.004 A 
ATOM      5  C   UNL     1     177.518 168.352 187.771  1.00  0.00     0.007 A 
ATOM      6  C   UNL     1     180.036 167.272 187.211  1.00  0.00     0.046 A 
ATOM      7  C   UNL     1     178.892 166.473 187.071  1.00  0.00     0.118 A 
BRANCH   7   8
ATOM      8  O   UNL     1     179.014 165.153 186.639  1.00  0.00    -0.508 OA
ATOM      9  H   UNL     1     179.616 164.491 187.114  1.00  0.00     0.293 HD
ENDBRANCH   7   8
ENDBRANCH   1   2
BRANCH   1  10
ATOM     10  C   UNL     1     175.971 165.531 188.520  1.00  0.00     0.040 C 
BRANCH  10  11
ATOM     11  C   UNL     1     176.405 164.090 188.554  1.00  0.00    -0.040 A 
ATOM     12  C   UNL     1     177.115 163.592 189.659  1.00  0.00     0.050 A 
ATOM     13  C   UNL     1     176.054 163.219 187.511  1.00  0.00     0.050 A 
ATOM     14  C   UNL     1     177.491 162.245 189.710  1.00  0.00     0.119 A 
ATOM     15  C   UNL     1     176.429 161.869 187.559  1.00  0.00     0.119 A 
ATOM     16  C   UNL     1     177.149 161.386 188.657  1.00  0.00     0.092 A 
BRANCH  14  17
ATOM     17  O   UNL     1     178.200 161.770 190.810  1.00  0.00    -0.508 OA
ATOM     18  H   UNL     1     177.732 161.510 191.671  1.00  0.00     0.293 HD
ENDBRANCH  14  17
BRANCH  15  19
ATOM     19  O   UNL     1     176.090 161.001 186.524  1.00  0.00    -0.508 OA
ATOM     20  H   UNL     1     175.251 161.137 185.972  1.00  0.00     0.293 HD
ENDBRANCH  15  19
ENDBRANCH  10  11
ENDBRANCH   1  10
TORSDOF 6
ENDMDL
MODEL 8
REMARK VINA RESULT:    -5.260      9.970     12.877
REMARK INTER + INTRA:          -7.091
REMARK INTER:                  -6.553
REMARK INTRA:                  -0.538
REMARK UNBOUND:                -0.448
REMARK SMILES Oc1cc(O)cc(CCc2ccccc2O)c1
REMARK SMILES IDX 9 1 10 2 12 3 13 4 11 5 14 6 15 7 16 8 8 10 7 11 6 12 17 13
REMARK SMILES IDX 4 14 2 15 3 16 5 17 1 19
REMARK H PARENT 16 9 5 18 1 20
REMARK Flexibility Score: inf
ROOT
ATOM      1  C   UNL     1     163.765 176.940 186.081  1.00  0.00     0.044 C 
ENDROOT
BRANCH   1   2
ATOM      2  C   UNL     1     162.401 176.728 186.687  1.00  0.00    -0.006 A 
ATOM      3  C   UNL     1     161.035 175.987 188.558  1.00  0.00     0.001 A 
ATOM      4  C   UNL     1     159.877 176.253 187.824  1.00  0.00     0.004 A 
ATOM      5  C   UNL     1     162.291 176.217 187.992  1.00  0.00     0.007 A 
ATOM      6  C   UNL     1     159.973 176.747 186.521  1.00  0.00     0.046 A 
ATOM      7  C   UNL     1     161.230 176.981 185.944  1.00  0.00     0.118 A 
BRANCH   7   8
ATOM      8  O   UNL     1     161.318 177.460 184.637  1.00  0.00    -0.508 OA
ATOM      9  H   UNL     1     162.196 177.779 184.245  1.00  0.00     0.293 HD
ENDBRANCH   7   8
ENDBRANCH   1   2
BRANCH   1  10
ATOM     10  C   UNL     1     164.861 176.482 187.047  1.00  0.00     0.040 C 
BRANCH  10  11
ATOM     11  C   UNL     1     165.778 177.626 187.390  1.00  0.00    -0.040 A 
ATOM     12  C   UNL     1     165.942 178.024 188.726  1.00  0.00     0.050 A 
ATOM     13  C   UNL     1     166.520 178.264 186.383  1.00  0.00     0.050 A 
ATOM     14  C   UNL     1     166.819 179.064 189.052  1.00  0.00     0.119 A 
ATOM     15  C   UNL     1     167.399 179.307 186.707  1.00  0.00     0.119 A 
ATOM     16  C   UNL     1     167.545 179.706 188.039  1.00  0.00     0.092 A 
BRANCH  14  17
ATOM     17  O   UNL     1     166.965 179.450 190.382  1.00  0.00    -0.508 OA
ATOM     18  H   UNL     1     166.231 179.294 191.063  1.00  0.00     0.293 HD
ENDBRANCH  14  17
BRANCH  15  19
ATOM     19  O   UNL     1     168.133 179.951 185.713  1.00  0.00    -0.508 OA
ATOM     20  H   UNL     1     167.677 180.427 184.943  1.00  0.00     0.293 HD
ENDBRANCH  15  19
ENDBRANCH  10  11
ENDBRANCH   1  10
TORSDOF 6
ENDMDL
