MODEL 1
REMARK VINA RESULT:    -4.053      0.000      0.000
REMARK INTER + INTRA:         -15.147
REMARK INTER:                 -10.215
REMARK INTRA:                  -4.932
REMARK UNBOUND:                -4.932
REMARK SMILES CCCCCCCCCCCCCCCCCCCCCCCCCCCC(=O)[O-]
REMARK SMILES IDX 15 1 16 2 17 3 18 4 19 5 20 6 21 7 22 8 23 9 24 10 25 11
REMARK SMILES IDX 26 12 27 13 28 14 29 15 30 16 14 17 13 18 12 19 11 20 10 21
REMARK SMILES IDX 9 22 8 23 7 24 6 25 5 26 4 27 3 28 2 29 1 30
REMARK H PARENT
REMARK Flexibility Score: inf
ROOT
ATOM      1  C   UNL     1     -39.939 -48.376  36.205  1.00  0.00     0.000 C 
ENDROOT
BRANCH   1   2
ATOM      2  C   UNL     1     -40.056 -49.773  36.842  1.00  0.00     0.000 C 
BRANCH   2   3
ATOM      3  C   UNL     1     -40.132 -50.893  35.793  1.00  0.00     0.000 C 
BRANCH   3   4
ATOM      4  C   UNL     1     -41.479 -51.632  35.808  1.00  0.00     0.000 C 
BRANCH   4   5
ATOM      5  C   UNL     1     -42.047 -51.707  37.233  1.00  0.00     0.000 C 
BRANCH   5   6
ATOM      6  C   UNL     1     -43.398 -52.442  37.305  1.00  0.00     0.000 C 
BRANCH   6   7
ATOM      7  C   UNL     1     -43.813 -52.918  38.712  1.00  0.00     0.000 C 
BRANCH   7   8
ATOM      8  C   UNL     1     -43.235 -52.093  39.877  1.00  0.00     0.000 C 
BRANCH   8   9
ATOM      9  C   UNL     1     -44.305 -51.350  40.707  1.00  0.00     0.000 C 
BRANCH   9  10
ATOM     10  C   UNL     1     -44.396 -49.857  40.347  1.00  0.00     0.000 C 
BRANCH  10  11
ATOM     11  C   UNL     1     -43.148 -49.065  40.768  1.00  0.00     0.000 C 
BRANCH  11  12
ATOM     12  C   UNL     1     -42.421 -48.421  39.578  1.00  0.00     0.006 C 
BRANCH  12  13
ATOM     13  C   UNL     1     -43.069 -47.086  39.194  1.00  0.00     0.053 C 
BRANCH  13  14
ATOM     14  C   UNL     1     -42.510 -45.970  40.021  1.00  0.00     0.041 C 
ATOM     15  O   UNL     1     -43.267 -45.068  40.468  1.00  0.00    -0.550 OA
ATOM     16  O   UNL     1     -41.144 -45.915  40.282  1.00  0.00    -0.550 OA
ENDBRANCH  13  14
ENDBRANCH  12  13
ENDBRANCH  11  12
ENDBRANCH  10  11
ENDBRANCH   9  10
ENDBRANCH   8   9
ENDBRANCH   7   8
ENDBRANCH   6   7
ENDBRANCH   5   6
ENDBRANCH   4   5
ENDBRANCH   3   4
ENDBRANCH   2   3
ENDBRANCH   1   2
BRANCH   1  17
ATOM     17  C   UNL     1     -40.182 -48.398  34.687  1.00  0.00     0.000 C 
BRANCH  17  18
ATOM     18  C   UNL     1     -41.419 -47.585  34.274  1.00  0.00     0.000 C 
BRANCH  18  19
ATOM     19  C   UNL     1     -42.697 -48.423  34.427  1.00  0.00     0.000 C 
BRANCH  19  20
ATOM     20  C   UNL     1     -43.321 -48.315  35.828  1.00  0.00     0.000 C 
BRANCH  20  21
ATOM     21  C   UNL     1     -44.485 -49.301  36.033  1.00  0.00     0.000 C 
BRANCH  21  22
ATOM     22  C   UNL     1     -45.607 -48.728  36.919  1.00  0.00    -0.000 C 
BRANCH  22  23
ATOM     23  C   UNL     1     -46.891 -49.574  36.984  1.00  0.00    -0.000 C 
BRANCH  23  24
ATOM     24  C   UNL     1     -46.812 -50.827  37.878  1.00  0.00    -0.000 C 
BRANCH  24  25
ATOM     25  C   UNL     1     -47.168 -52.140  37.147  1.00  0.00    -0.000 C 
BRANCH  25  26
ATOM     26  C   UNL     1     -47.781 -53.192  38.089  1.00  0.00    -0.000 C 
BRANCH  26  27
ATOM     27  C   UNL     1     -47.387 -52.959  39.562  1.00  0.00    -0.000 C 
BRANCH  27  28
ATOM     28  C   UNL     1     -48.591 -52.822  40.511  1.00  0.00    -0.000 C 
BRANCH  28  29
ATOM     29  C   UNL     1     -48.277 -51.992  41.761  1.00  0.00    -0.003 C 
ATOM     30  C   UNL     1     -47.517 -52.819  42.793  1.00  0.00     0.004 C 
ENDBRANCH  28  29
ENDBRANCH  27  28
ENDBRANCH  26  27
ENDBRANCH  25  26
ENDBRANCH  24  25
ENDBRANCH  23  24
ENDBRANCH  22  23
ENDBRANCH  21  22
ENDBRANCH  20  21
ENDBRANCH  19  20
ENDBRANCH  18  19
ENDBRANCH  17  18
ENDBRANCH   1  17
TORSDOF 26
ENDMDL
MODEL 2
REMARK VINA RESULT:    -3.969      2.712      5.306
REMARK INTER + INTRA:         -14.934
REMARK INTER:                  -9.648
REMARK INTRA:                  -5.285
REMARK UNBOUND:                -4.932
REMARK SMILES CCCCCCCCCCCCCCCCCCCCCCCCCCCC(=O)[O-]
REMARK SMILES IDX 15 1 16 2 17 3 18 4 19 5 20 6 21 7 22 8 23 9 24 10 25 11
REMARK SMILES IDX 26 12 27 13 28 14 29 15 30 16 14 17 13 18 12 19 11 20 10 21
REMARK SMILES IDX 9 22 8 23 7 24 6 25 5 26 4 27 3 28 2 29 1 30
REMARK H PARENT
REMARK Flexibility Score: inf
ROOT
ATOM      1  C   UNL     1     -39.295 -49.135  35.570  1.00  0.00     0.000 C 
ENDROOT
BRANCH   1   2
ATOM      2  C   UNL     1     -39.845 -48.374  36.790  1.00  0.00     0.000 C 
BRANCH   2   3
ATOM      3  C   UNL     1     -40.355 -49.317  37.891  1.00  0.00     0.000 C 
BRANCH   3   4
ATOM      4  C   UNL     1     -40.942 -50.622  37.332  1.00  0.00     0.000 C 
BRANCH   4   5
ATOM      5  C   UNL     1     -41.382 -51.556  38.470  1.00  0.00     0.000 C 
BRANCH   5   6
ATOM      6  C   UNL     1     -42.687 -52.312  38.157  1.00  0.00     0.000 C 
BRANCH   6   7
ATOM      7  C   UNL     1     -42.724 -53.022  36.790  1.00  0.00     0.000 C 
BRANCH   7   8
ATOM      8  C   UNL     1     -44.135 -53.307  36.240  1.00  0.00     0.000 C 
BRANCH   8   9
ATOM      9  C   UNL     1     -45.229 -53.373  37.329  1.00  0.00     0.000 C 
BRANCH   9  10
ATOM     10  C   UNL     1     -46.525 -52.662  36.903  1.00  0.00     0.000 C 
BRANCH  10  11
ATOM     11  C   UNL     1     -47.273 -52.028  38.086  1.00  0.00     0.000 C 
BRANCH  11  12
ATOM     12  C   UNL     1     -46.640 -52.371  39.444  1.00  0.00     0.006 C 
BRANCH  12  13
ATOM     13  C   UNL     1     -47.262 -51.536  40.568  1.00  0.00     0.053 C 
BRANCH  13  14
ATOM     14  C   UNL     1     -48.205 -52.366  41.384  1.00  0.00     0.041 C 
ATOM     15  O   UNL     1     -49.233 -52.866  40.855  1.00  0.00    -0.550 OA
ATOM     16  O   UNL     1     -47.956 -52.574  42.737  1.00  0.00    -0.550 OA
ENDBRANCH  13  14
ENDBRANCH  12  13
ENDBRANCH  11  12
ENDBRANCH  10  11
ENDBRANCH   9  10
ENDBRANCH   8   9
ENDBRANCH   7   8
ENDBRANCH   6   7
ENDBRANCH   5   6
ENDBRANCH   4   5
ENDBRANCH   3   4
ENDBRANCH   2   3
ENDBRANCH   1   2
BRANCH   1  17
ATOM     17  C   UNL     1     -39.985 -48.724  34.259  1.00  0.00     0.000 C 
BRANCH  17  18
ATOM     18  C   UNL     1     -40.955 -47.547  34.445  1.00  0.00     0.000 C 
BRANCH  18  19
ATOM     19  C   UNL     1     -42.371 -47.931  33.991  1.00  0.00     0.000 C 
BRANCH  19  20
ATOM     20  C   UNL     1     -42.594 -49.452  33.943  1.00  0.00     0.000 C 
BRANCH  20  21
ATOM     21  C   UNL     1     -43.681 -49.920  34.927  1.00  0.00     0.000 C 
BRANCH  21  22
ATOM     22  C   UNL     1     -43.946 -48.906  36.055  1.00  0.00    -0.000 C 
BRANCH  22  23
ATOM     23  C   UNL     1     -45.169 -49.208  36.939  1.00  0.00    -0.000 C 
BRANCH  23  24
ATOM     24  C   UNL     1     -45.147 -48.563  38.338  1.00  0.00    -0.000 C 
BRANCH  24  25
ATOM     25  C   UNL     1     -44.372 -49.382  39.393  1.00  0.00    -0.000 C 
BRANCH  25  26
ATOM     26  C   UNL     1     -43.258 -48.566  40.073  1.00  0.00    -0.000 C 
BRANCH  26  27
ATOM     27  C   UNL     1     -42.924 -47.274  39.298  1.00  0.00    -0.000 C 
BRANCH  27  28
ATOM     28  C   UNL     1     -41.913 -46.365  40.019  1.00  0.00    -0.000 C 
BRANCH  28  29
ATOM     29  C   UNL     1     -42.537 -45.058  40.523  1.00  0.00    -0.003 C 
ATOM     30  C   UNL     1     -44.013 -44.972  40.146  1.00  0.00     0.004 C 
ENDBRANCH  28  29
ENDBRANCH  27  28
ENDBRANCH  26  27
ENDBRANCH  25  26
ENDBRANCH  24  25
ENDBRANCH  23  24
ENDBRANCH  22  23
ENDBRANCH  21  22
ENDBRANCH  20  21
ENDBRANCH  19  20
ENDBRANCH  18  19
ENDBRANCH  17  18
ENDBRANCH   1  17
TORSDOF 26
ENDMDL
MODEL 3
REMARK VINA RESULT:    -3.810      3.350      6.713
REMARK INTER + INTRA:         -14.533
REMARK INTER:                  -9.800
REMARK INTRA:                  -4.733
REMARK UNBOUND:                -4.932
REMARK SMILES CCCCCCCCCCCCCCCCCCCCCCCCCCCC(=O)[O-]
REMARK SMILES IDX 15 1 16 2 17 3 18 4 19 5 20 6 21 7 22 8 23 9 24 10 25 11
REMARK SMILES IDX 26 12 27 13 28 14 29 15 30 16 14 17 13 18 12 19 11 20 10 21
REMARK SMILES IDX 9 22 8 23 7 24 6 25 5 26 4 27 3 28 2 29 1 30
REMARK H PARENT
REMARK Flexibility Score: inf
ROOT
ATOM      1  C   UNL     1     -46.685 -53.490  42.311  1.00  0.00     0.000 C 
ENDROOT
BRANCH   1   2
ATOM      2  C   UNL     1     -48.012 -53.677  41.551  1.00  0.00     0.000 C 
BRANCH   2   3
ATOM      3  C   UNL     1     -48.390 -52.445  40.714  1.00  0.00     0.000 C 
BRANCH   3   4
ATOM      4  C   UNL     1     -47.469 -51.244  40.973  1.00  0.00     0.000 C 
BRANCH   4   5
ATOM      5  C   UNL     1     -46.526 -51.009  39.783  1.00  0.00     0.000 C 
BRANCH   5   6
ATOM      6  C   UNL     1     -47.035 -51.646  38.477  1.00  0.00     0.000 C 
BRANCH   6   7
ATOM      7  C   UNL     1     -46.094 -51.501  37.265  1.00  0.00     0.000 C 
BRANCH   7   8
ATOM      8  C   UNL     1     -45.968 -50.072  36.702  1.00  0.00     0.000 C 
BRANCH   8   9
ATOM      9  C   UNL     1     -44.564 -49.738  36.153  1.00  0.00     0.000 C 
BRANCH   9  10
ATOM     10  C   UNL     1     -44.042 -48.382  36.660  1.00  0.00     0.000 C 
BRANCH  10  11
ATOM     11  C   UNL     1     -44.753 -47.911  37.938  1.00  0.00     0.000 C 
BRANCH  11  12
ATOM     12  C   UNL     1     -43.920 -48.151  39.207  1.00  0.00     0.006 C 
BRANCH  12  13
ATOM     13  C   UNL     1     -42.691 -47.235  39.240  1.00  0.00     0.053 C 
BRANCH  13  14
ATOM     14  C   UNL     1     -42.865 -46.155  40.262  1.00  0.00     0.041 C 
ATOM     15  O   UNL     1     -43.933 -45.488  40.308  1.00  0.00    -0.550 OA
ATOM     16  O   UNL     1     -41.838 -45.870  41.156  1.00  0.00    -0.550 OA
ENDBRANCH  13  14
ENDBRANCH  12  13
ENDBRANCH  11  12
ENDBRANCH  10  11
ENDBRANCH   9  10
ENDBRANCH   8   9
ENDBRANCH   7   8
ENDBRANCH   6   7
ENDBRANCH   5   6
ENDBRANCH   4   5
ENDBRANCH   3   4
ENDBRANCH   2   3
ENDBRANCH   1   2
BRANCH   1  17
ATOM     17  C   UNL     1     -45.634 -54.545  41.931  1.00  0.00     0.000 C 
BRANCH  17  18
ATOM     18  C   UNL     1     -44.924 -54.223  40.607  1.00  0.00     0.000 C 
BRANCH  18  19
ATOM     19  C   UNL     1     -45.019 -55.408  39.634  1.00  0.00     0.000 C 
BRANCH  19  20
ATOM     20  C   UNL     1     -45.702 -55.041  38.307  1.00  0.00     0.000 C 
BRANCH  20  21
ATOM     21  C   UNL     1     -47.229 -55.226  38.358  1.00  0.00     0.000 C 
BRANCH  21  22
ATOM     22  C   UNL     1     -47.652 -56.510  39.096  1.00  0.00    -0.000 C 
BRANCH  22  23
ATOM     23  C   UNL     1     -48.059 -57.687  38.191  1.00  0.00    -0.000 C 
BRANCH  23  24
ATOM     24  C   UNL     1     -47.165 -58.938  38.293  1.00  0.00    -0.000 C 
BRANCH  24  25
ATOM     25  C   UNL     1     -45.682 -58.676  37.952  1.00  0.00    -0.000 C 
BRANCH  25  26
ATOM     26  C   UNL     1     -44.736 -59.044  39.109  1.00  0.00    -0.000 C 
BRANCH  26  27
ATOM     27  C   UNL     1     -45.499 -59.567  40.344  1.00  0.00    -0.000 C 
BRANCH  27  28
ATOM     28  C   UNL     1     -45.392 -58.646  41.573  1.00  0.00    -0.000 C 
BRANCH  28  29
ATOM     29  C   UNL     1     -46.757 -58.167  42.082  1.00  0.00    -0.003 C 
ATOM     30  C   UNL     1     -46.664 -57.677  43.524  1.00  0.00     0.004 C 
ENDBRANCH  28  29
ENDBRANCH  27  28
ENDBRANCH  26  27
ENDBRANCH  25  26
ENDBRANCH  24  25
ENDBRANCH  23  24
ENDBRANCH  22  23
ENDBRANCH  21  22
ENDBRANCH  20  21
ENDBRANCH  19  20
ENDBRANCH  18  19
ENDBRANCH  17  18
ENDBRANCH   1  17
TORSDOF 26
ENDMDL
MODEL 4
REMARK VINA RESULT:    -3.795      4.016      7.758
REMARK INTER + INTRA:         -14.496
REMARK INTER:                  -9.423
REMARK INTRA:                  -5.073
REMARK UNBOUND:                -4.932
REMARK SMILES CCCCCCCCCCCCCCCCCCCCCCCCCCCC(=O)[O-]
REMARK SMILES IDX 15 1 16 2 17 3 18 4 19 5 20 6 21 7 22 8 23 9 24 10 25 11
REMARK SMILES IDX 26 12 27 13 28 14 29 15 30 16 14 17 13 18 12 19 11 20 10 21
REMARK SMILES IDX 9 22 8 23 7 24 6 25 5 26 4 27 3 28 2 29 1 30
REMARK H PARENT
REMARK Flexibility Score: inf
ROOT
ATOM      1  C   UNL     1     -43.821 -51.244  40.384  1.00  0.00     0.000 C 
ENDROOT
BRANCH   1   2
ATOM      2  C   UNL     1     -43.756 -52.356  41.447  1.00  0.00     0.000 C 
BRANCH   2   3
ATOM      3  C   UNL     1     -45.138 -52.948  41.764  1.00  0.00     0.000 C 
BRANCH   3   4
ATOM      4  C   UNL     1     -46.291 -52.110  41.191  1.00  0.00     0.000 C 
BRANCH   4   5
ATOM      5  C   UNL     1     -47.492 -53.001  40.837  1.00  0.00     0.000 C 
BRANCH   5   6
ATOM      6  C   UNL     1     -47.932 -52.864  39.368  1.00  0.00     0.000 C 
BRANCH   6   7
ATOM      7  C   UNL     1     -47.051 -51.941  38.502  1.00  0.00     0.000 C 
BRANCH   7   8
ATOM      8  C   UNL     1     -46.789 -52.445  37.069  1.00  0.00     0.000 C 
BRANCH   8   9
ATOM      9  C   UNL     1     -45.342 -52.931  36.833  1.00  0.00     0.000 C 
BRANCH   9  10
ATOM     10  C   UNL     1     -44.802 -53.763  38.009  1.00  0.00     0.000 C 
BRANCH  10  11
ATOM     11  C   UNL     1     -45.084 -55.265  37.854  1.00  0.00     0.000 C 
BRANCH  11  12
ATOM     12  C   UNL     1     -45.777 -55.871  39.084  1.00  0.00     0.006 C 
BRANCH  12  13
ATOM     13  C   UNL     1     -47.148 -56.448  38.715  1.00  0.00     0.053 C 
BRANCH  13  14
ATOM     14  C   UNL     1     -47.395 -57.733  39.446  1.00  0.00     0.041 C 
ATOM     15  O   UNL     1     -47.110 -57.834  40.669  1.00  0.00    -0.550 OA
ATOM     16  O   UNL     1     -47.923 -58.827  38.769  1.00  0.00    -0.550 OA
ENDBRANCH  13  14
ENDBRANCH  12  13
ENDBRANCH  11  12
ENDBRANCH  10  11
ENDBRANCH   9  10
ENDBRANCH   8   9
ENDBRANCH   7   8
ENDBRANCH   6   7
ENDBRANCH   5   6
ENDBRANCH   4   5
ENDBRANCH   3   4
ENDBRANCH   2   3
ENDBRANCH   1   2
BRANCH   1  17
ATOM     17  C   UNL     1     -43.554 -49.849  40.973  1.00  0.00     0.000 C 
BRANCH  17  18
ATOM     18  C   UNL     1     -43.866 -48.718  39.980  1.00  0.00     0.000 C 
BRANCH  18  19
ATOM     19  C   UNL     1     -44.613 -49.261  38.752  1.00  0.00     0.000 C 
BRANCH  19  20
ATOM     20  C   UNL     1     -44.211 -48.558  37.446  1.00  0.00     0.000 C 
BRANCH  20  21
ATOM     21  C   UNL     1     -44.715 -49.302  36.196  1.00  0.00     0.000 C 
BRANCH  21  22
ATOM     22  C   UNL     1     -43.582 -49.986  35.409  1.00  0.00    -0.000 C 
BRANCH  22  23
ATOM     23  C   UNL     1     -43.091 -49.224  34.164  1.00  0.00    -0.000 C 
BRANCH  23  24
ATOM     24  C   UNL     1     -42.425 -47.863  34.445  1.00  0.00    -0.000 C 
BRANCH  24  25
ATOM     25  C   UNL     1     -40.886 -47.882  34.318  1.00  0.00    -0.000 C 
BRANCH  25  26
ATOM     26  C   UNL     1     -40.316 -49.310  34.251  1.00  0.00    -0.000 C 
BRANCH  26  27
ATOM     27  C   UNL     1     -39.828 -49.810  35.627  1.00  0.00    -0.000 C 
BRANCH  27  28
ATOM     28  C   UNL     1     -39.720 -48.699  36.686  1.00  0.00    -0.000 C 
BRANCH  28  29
ATOM     29  C   UNL     1     -40.669 -48.908  37.872  1.00  0.00    -0.003 C 
ATOM     30  C   UNL     1     -40.938 -50.391  38.106  1.00  0.00     0.004 C 
ENDBRANCH  28  29
ENDBRANCH  27  28
ENDBRANCH  26  27
ENDBRANCH  25  26
ENDBRANCH  24  25
ENDBRANCH  23  24
ENDBRANCH  22  23
ENDBRANCH  21  22
ENDBRANCH  20  21
ENDBRANCH  19  20
ENDBRANCH  18  19
ENDBRANCH  17  18
ENDBRANCH   1  17
TORSDOF 26
ENDMDL
MODEL 5
REMARK VINA RESULT:    -3.762      2.902      5.883
REMARK INTER + INTRA:         -14.413
REMARK INTER:                  -8.962
REMARK INTRA:                  -5.451
REMARK UNBOUND:                -4.932
REMARK SMILES CCCCCCCCCCCCCCCCCCCCCCCCCCCC(=O)[O-]
REMARK SMILES IDX 15 1 16 2 17 3 18 4 19 5 20 6 21 7 22 8 23 9 24 10 25 11
REMARK SMILES IDX 26 12 27 13 28 14 29 15 30 16 14 17 13 18 12 19 11 20 10 21
REMARK SMILES IDX 9 22 8 23 7 24 6 25 5 26 4 27 3 28 2 29 1 30
REMARK H PARENT
REMARK Flexibility Score: inf
ROOT
ATOM      1  C   UNL     1     -43.327 -49.010  37.649  1.00  0.00     0.000 C 
ENDROOT
BRANCH   1   2
ATOM      2  C   UNL     1     -43.591 -48.337  36.290  1.00  0.00     0.000 C 
BRANCH   2   3
ATOM      3  C   UNL     1     -43.533 -49.331  35.119  1.00  0.00     0.000 C 
BRANCH   3   4
ATOM      4  C   UNL     1     -42.802 -48.765  33.893  1.00  0.00     0.000 C 
BRANCH   4   5
ATOM      5  C   UNL     1     -41.784 -47.692  34.308  1.00  0.00     0.000 C 
BRANCH   5   6
ATOM      6  C   UNL     1     -40.332 -48.205  34.303  1.00  0.00     0.000 C 
BRANCH   6   7
ATOM      7  C   UNL     1     -39.578 -48.056  35.639  1.00  0.00     0.000 C 
BRANCH   7   8
ATOM      8  C   UNL     1     -39.911 -49.123  36.700  1.00  0.00     0.000 C 
BRANCH   8   9
ATOM      9  C   UNL     1     -39.423 -50.541  36.334  1.00  0.00     0.000 C 
BRANCH   9  10
ATOM     10  C   UNL     1     -40.587 -51.509  36.056  1.00  0.00     0.000 C 
BRANCH  10  11
ATOM     11  C   UNL     1     -41.502 -51.707  37.274  1.00  0.00     0.000 C 
BRANCH  11  12
ATOM     12  C   UNL     1     -41.421 -53.126  37.857  1.00  0.00     0.006 C 
BRANCH  12  13
ATOM     13  C   UNL     1     -42.817 -53.736  38.019  1.00  0.00     0.053 C 
BRANCH  13  14
ATOM     14  C   UNL     1     -43.023 -54.852  37.042  1.00  0.00     0.041 C 
ATOM     15  O   UNL     1     -42.691 -54.710  35.835  1.00  0.00    -0.550 OA
ATOM     16  O   UNL     1     -43.599 -56.047  37.462  1.00  0.00    -0.550 OA
ENDBRANCH  13  14
ENDBRANCH  12  13
ENDBRANCH  11  12
ENDBRANCH  10  11
ENDBRANCH   9  10
ENDBRANCH   8   9
ENDBRANCH   7   8
ENDBRANCH   6   7
ENDBRANCH   5   6
ENDBRANCH   4   5
ENDBRANCH   3   4
ENDBRANCH   2   3
ENDBRANCH   1   2
BRANCH   1  17
ATOM     17  C   UNL     1     -43.504 -48.042  38.830  1.00  0.00     0.000 C 
BRANCH  17  18
ATOM     18  C   UNL     1     -43.510 -48.761  40.188  1.00  0.00     0.000 C 
BRANCH  18  19
ATOM     19  C   UNL     1     -44.678 -49.755  40.274  1.00  0.00     0.000 C 
BRANCH  19  20
ATOM     20  C   UNL     1     -44.220 -51.199  40.531  1.00  0.00     0.000 C 
BRANCH  20  21
ATOM     21  C   UNL     1     -45.391 -52.137  40.877  1.00  0.00     0.000 C 
BRANCH  21  22
ATOM     22  C   UNL     1     -46.766 -51.465  40.708  1.00  0.00    -0.000 C 
BRANCH  22  23
ATOM     23  C   UNL     1     -47.944 -52.428  40.473  1.00  0.00    -0.000 C 
BRANCH  23  24
ATOM     24  C   UNL     1     -47.688 -53.544  39.441  1.00  0.00    -0.000 C 
BRANCH  24  25
ATOM     25  C   UNL     1     -47.703 -53.057  37.976  1.00  0.00    -0.000 C 
BRANCH  25  26
ATOM     26  C   UNL     1     -46.298 -53.028  37.348  1.00  0.00    -0.000 C 
BRANCH  26  27
ATOM     27  C   UNL     1     -45.797 -51.590  37.102  1.00  0.00    -0.000 C 
BRANCH  27  28
ATOM     28  C   UNL     1     -46.923 -50.588  36.789  1.00  0.00    -0.000 C 
BRANCH  28  29
ATOM     29  C   UNL     1     -46.893 -49.352  37.696  1.00  0.00    -0.003 C 
ATOM     30  C   UNL     1     -47.256 -48.090  36.917  1.00  0.00     0.004 C 
ENDBRANCH  28  29
ENDBRANCH  27  28
ENDBRANCH  26  27
ENDBRANCH  25  26
ENDBRANCH  24  25
ENDBRANCH  23  24
ENDBRANCH  22  23
ENDBRANCH  21  22
ENDBRANCH  20  21
ENDBRANCH  19  20
ENDBRANCH  18  19
ENDBRANCH  17  18
ENDBRANCH   1  17
TORSDOF 26
ENDMDL
MODEL 6
REMARK VINA RESULT:    -3.745      2.974      6.938
REMARK INTER + INTRA:         -14.370
REMARK INTER:                  -9.279
REMARK INTRA:                  -5.090
REMARK UNBOUND:                -4.932
REMARK SMILES CCCCCCCCCCCCCCCCCCCCCCCCCCCC(=O)[O-]
REMARK SMILES IDX 15 1 16 2 17 3 18 4 19 5 20 6 21 7 22 8 23 9 24 10 25 11
REMARK SMILES IDX 26 12 27 13 28 14 29 15 30 16 14 17 13 18 12 19 11 20 10 21
REMARK SMILES IDX 9 22 8 23 7 24 6 25 5 26 4 27 3 28 2 29 1 30
REMARK H PARENT
REMARK Flexibility Score: inf
ROOT
ATOM      1  C   UNL     1     -43.254 -50.318  39.742  1.00  0.00     0.000 C 
ENDROOT
BRANCH   1   2
ATOM      2  C   UNL     1     -44.386 -51.335  39.980  1.00  0.00     0.000 C 
BRANCH   2   3
ATOM      3  C   UNL     1     -45.720 -50.659  40.334  1.00  0.00     0.000 C 
BRANCH   3   4
ATOM      4  C   UNL     1     -46.929 -51.353  39.687  1.00  0.00     0.000 C 
BRANCH   4   5
ATOM      5  C   UNL     1     -46.907 -51.181  38.161  1.00  0.00     0.000 C 
BRANCH   5   6
ATOM      6  C   UNL     1     -46.976 -52.519  37.403  1.00  0.00     0.000 C 
BRANCH   6   7
ATOM      7  C   UNL     1     -45.613 -53.167  37.089  1.00  0.00     0.000 C 
BRANCH   7   8
ATOM      8  C   UNL     1     -45.321 -54.475  37.852  1.00  0.00     0.000 C 
BRANCH   8   9
ATOM      9  C   UNL     1     -46.588 -55.206  38.346  1.00  0.00     0.000 C 
BRANCH   9  10
ATOM     10  C   UNL     1     -46.350 -55.969  39.661  1.00  0.00     0.000 C 
BRANCH  10  11
ATOM     11  C   UNL     1     -46.824 -55.188  40.897  1.00  0.00     0.000 C 
BRANCH  11  12
ATOM     12  C   UNL     1     -45.692 -54.918  41.901  1.00  0.00     0.006 C 
BRANCH  12  13
ATOM     13  C   UNL     1     -45.813 -53.513  42.501  1.00  0.00     0.053 C 
BRANCH  13  14
ATOM     14  C   UNL     1     -47.080 -53.381  43.288  1.00  0.00     0.041 C 
ATOM     15  O   UNL     1     -47.945 -52.525  42.962  1.00  0.00    -0.550 OA
ATOM     16  O   UNL     1     -47.299 -54.194  44.396  1.00  0.00    -0.550 OA
ENDBRANCH  13  14
ENDBRANCH  12  13
ENDBRANCH  11  12
ENDBRANCH  10  11
ENDBRANCH   9  10
ENDBRANCH   8   9
ENDBRANCH   7   8
ENDBRANCH   6   7
ENDBRANCH   5   6
ENDBRANCH   4   5
ENDBRANCH   3   4
ENDBRANCH   2   3
ENDBRANCH   1   2
BRANCH   1  17
ATOM     17  C   UNL     1     -43.508 -48.978  40.451  1.00  0.00     0.000 C 
BRANCH  17  18
ATOM     18  C   UNL     1     -43.718 -47.817  39.466  1.00  0.00     0.000 C 
BRANCH  18  19
ATOM     19  C   UNL     1     -43.531 -48.292  38.017  1.00  0.00     0.000 C 
BRANCH  19  20
ATOM     20  C   UNL     1     -44.835 -48.265  37.204  1.00  0.00     0.000 C 
BRANCH  20  21
ATOM     21  C   UNL     1     -44.860 -49.332  36.094  1.00  0.00     0.000 C 
BRANCH  21  22
ATOM     22  C   UNL     1     -43.547 -50.130  36.001  1.00  0.00    -0.000 C 
BRANCH  22  23
ATOM     23  C   UNL     1     -42.699 -49.859  34.745  1.00  0.00    -0.000 C 
BRANCH  23  24
ATOM     24  C   UNL     1     -42.827 -48.440  34.157  1.00  0.00    -0.000 C 
BRANCH  24  25
ATOM     25  C   UNL     1     -41.525 -47.613  34.232  1.00  0.00    -0.000 C 
BRANCH  25  26
ATOM     26  C   UNL     1     -40.281 -48.488  34.468  1.00  0.00    -0.000 C 
BRANCH  26  27
ATOM     27  C   UNL     1     -39.450 -48.009  35.677  1.00  0.00    -0.000 C 
BRANCH  27  28
ATOM     28  C   UNL     1     -40.251 -47.940  36.990  1.00  0.00    -0.000 C 
BRANCH  28  29
ATOM     29  C   UNL     1     -39.769 -48.951  38.038  1.00  0.00    -0.003 C 
ATOM     30  C   UNL     1     -40.229 -50.364  37.690  1.00  0.00     0.004 C 
ENDBRANCH  28  29
ENDBRANCH  27  28
ENDBRANCH  26  27
ENDBRANCH  25  26
ENDBRANCH  24  25
ENDBRANCH  23  24
ENDBRANCH  22  23
ENDBRANCH  21  22
ENDBRANCH  20  21
ENDBRANCH  19  20
ENDBRANCH  18  19
ENDBRANCH  17  18
ENDBRANCH   1  17
TORSDOF 26
ENDMDL
MODEL 7
REMARK VINA RESULT:    -3.743      1.114      5.598
REMARK INTER + INTRA:         -14.364
REMARK INTER:                  -9.222
REMARK INTRA:                  -5.142
REMARK UNBOUND:                -4.932
REMARK SMILES CCCCCCCCCCCCCCCCCCCCCCCCCCCC(=O)[O-]
REMARK SMILES IDX 15 1 16 2 17 3 18 4 19 5 20 6 21 7 22 8 23 9 24 10 25 11
REMARK SMILES IDX 26 12 27 13 28 14 29 15 30 16 14 17 13 18 12 19 11 20 10 21
REMARK SMILES IDX 9 22 8 23 7 24 6 25 5 26 4 27 3 28 2 29 1 30
REMARK H PARENT
REMARK Flexibility Score: inf
ROOT
ATOM      1  C   UNL     1     -45.054 -53.812  37.406  1.00  0.00     0.000 C 
ENDROOT
BRANCH   1   2
ATOM      2  C   UNL     1     -46.453 -53.279  37.766  1.00  0.00     0.000 C 
BRANCH   2   3
ATOM      3  C   UNL     1     -47.317 -54.329  38.482  1.00  0.00     0.000 C 
BRANCH   3   4
ATOM      4  C   UNL     1     -47.141 -54.305  40.007  1.00  0.00     0.000 C 
BRANCH   4   5
ATOM      5  C   UNL     1     -48.180 -53.383  40.664  1.00  0.00     0.000 C 
BRANCH   5   6
ATOM      6  C   UNL     1     -47.546 -52.174  41.378  1.00  0.00     0.000 C 
BRANCH   6   7
ATOM      7  C   UNL     1     -47.216 -50.974  40.470  1.00  0.00     0.000 C 
BRANCH   7   8
ATOM      8  C   UNL     1     -45.713 -50.667  40.313  1.00  0.00     0.000 C 
BRANCH   8   9
ATOM      9  C   UNL     1     -44.789 -51.735  40.938  1.00  0.00     0.000 C 
BRANCH   9  10
ATOM     10  C   UNL     1     -43.299 -51.423  40.719  1.00  0.00     0.000 C 
BRANCH  10  11
ATOM     11  C   UNL     1     -42.716 -50.509  41.808  1.00  0.00     0.000 C 
BRANCH  11  12
ATOM     12  C   UNL     1     -42.749 -49.023  41.421  1.00  0.00     0.006 C 
BRANCH  12  13
ATOM     13  C   UNL     1     -42.433 -48.833  39.934  1.00  0.00     0.053 C 
BRANCH  13  14
ATOM     14  C   UNL     1     -42.199 -47.387  39.623  1.00  0.00     0.041 C 
ATOM     15  O   UNL     1     -43.173 -46.595  39.510  1.00  0.00    -0.550 OA
ATOM     16  O   UNL     1     -40.903 -46.915  39.440  1.00  0.00    -0.550 OA
ENDBRANCH  13  14
ENDBRANCH  12  13
ENDBRANCH  11  12
ENDBRANCH  10  11
ENDBRANCH   9  10
ENDBRANCH   8   9
ENDBRANCH   7   8
ENDBRANCH   6   7
ENDBRANCH   5   6
ENDBRANCH   4   5
ENDBRANCH   3   4
ENDBRANCH   2   3
ENDBRANCH   1   2
BRANCH   1  17
ATOM     17  C   UNL     1     -44.096 -52.698  36.954  1.00  0.00     0.000 C 
BRANCH  17  18
ATOM     18  C   UNL     1     -42.661 -52.909  37.461  1.00  0.00     0.000 C 
BRANCH  18  19
ATOM     19  C   UNL     1     -41.843 -51.615  37.338  1.00  0.00     0.000 C 
BRANCH  19  20
ATOM     20  C   UNL     1     -40.512 -51.815  36.596  1.00  0.00     0.000 C 
BRANCH  20  21
ATOM     21  C   UNL     1     -39.970 -50.507  35.993  1.00  0.00     0.000 C 
BRANCH  21  22
ATOM     22  C   UNL     1     -40.307 -49.269  36.846  1.00  0.00    -0.000 C 
BRANCH  22  23
ATOM     23  C   UNL     1     -40.355 -47.935  36.080  1.00  0.00    -0.000 C 
BRANCH  23  24
ATOM     24  C   UNL     1     -40.782 -48.038  34.603  1.00  0.00    -0.000 C 
BRANCH  24  25
ATOM     25  C   UNL     1     -42.280 -47.747  34.362  1.00  0.00    -0.000 C 
BRANCH  25  26
ATOM     26  C   UNL     1     -43.098 -49.026  34.114  1.00  0.00    -0.000 C 
BRANCH  26  27
ATOM     27  C   UNL     1     -43.838 -49.502  35.381  1.00  0.00    -0.000 C 
BRANCH  27  28
ATOM     28  C   UNL     1     -43.925 -48.433  36.485  1.00  0.00    -0.000 C 
BRANCH  28  29
ATOM     29  C   UNL     1     -45.266 -48.447  37.229  1.00  0.00    -0.003 C 
ATOM     30  C   UNL     1     -46.113 -49.646  36.811  1.00  0.00     0.004 C 
ENDBRANCH  28  29
ENDBRANCH  27  28
ENDBRANCH  26  27
ENDBRANCH  25  26
ENDBRANCH  24  25
ENDBRANCH  23  24
ENDBRANCH  22  23
ENDBRANCH  21  22
ENDBRANCH  20  21
ENDBRANCH  19  20
ENDBRANCH  18  19
ENDBRANCH  17  18
ENDBRANCH   1  17
TORSDOF 26
ENDMDL
MODEL 8
REMARK VINA RESULT:    -3.741      2.889      6.739
REMARK INTER + INTRA:         -14.360
REMARK INTER:                  -9.601
REMARK INTRA:                  -4.758
REMARK UNBOUND:                -4.932
REMARK SMILES CCCCCCCCCCCCCCCCCCCCCCCCCCCC(=O)[O-]
REMARK SMILES IDX 15 1 16 2 17 3 18 4 19 5 20 6 21 7 22 8 23 9 24 10 25 11
REMARK SMILES IDX 26 12 27 13 28 14 29 15 30 16 14 17 13 18 12 19 11 20 10 21
REMARK SMILES IDX 9 22 8 23 7 24 6 25 5 26 4 27 3 28 2 29 1 30
REMARK H PARENT
REMARK Flexibility Score: inf
ROOT
ATOM      1  C   UNL     1     -43.619 -48.588  39.340  1.00  0.00     0.000 C 
ENDROOT
BRANCH   1   2
ATOM      2  C   UNL     1     -43.923 -50.057  39.689  1.00  0.00     0.000 C 
BRANCH   2   3
ATOM      3  C   UNL     1     -45.318 -50.239  40.306  1.00  0.00     0.000 C 
BRANCH   3   4
ATOM      4  C   UNL     1     -46.372 -50.672  39.276  1.00  0.00     0.000 C 
BRANCH   4   5
ATOM      5  C   UNL     1     -45.784 -51.687  38.283  1.00  0.00     0.000 C 
BRANCH   5   6
ATOM      6  C   UNL     1     -46.832 -52.254  37.308  1.00  0.00     0.000 C 
BRANCH   6   7
ATOM      7  C   UNL     1     -47.892 -53.175  37.945  1.00  0.00     0.000 C 
BRANCH   7   8
ATOM      8  C   UNL     1     -47.327 -54.358  38.754  1.00  0.00     0.000 C 
BRANCH   8   9
ATOM      9  C   UNL     1     -47.638 -54.287  40.265  1.00  0.00     0.000 C 
BRANCH   9  10
ATOM     10  C   UNL     1     -48.613 -53.148  40.611  1.00  0.00     0.000 C 
BRANCH  10  11
ATOM     11  C   UNL     1     -48.273 -52.456  41.941  1.00  0.00     0.000 C 
BRANCH  11  12
ATOM     12  C   UNL     1     -46.921 -52.904  42.517  1.00  0.00     0.006 C 
BRANCH  12  13
ATOM     13  C   UNL     1     -47.114 -53.766  43.769  1.00  0.00     0.053 C 
BRANCH  13  14
ATOM     14  C   UNL     1     -47.161 -52.912  44.998  1.00  0.00     0.041 C 
ATOM     15  O   UNL     1     -48.266 -52.517  45.456  1.00  0.00    -0.550 OA
ATOM     16  O   UNL     1     -45.980 -52.534  45.628  1.00  0.00    -0.550 OA
ENDBRANCH  13  14
ENDBRANCH  12  13
ENDBRANCH  11  12
ENDBRANCH  10  11
ENDBRANCH   9  10
ENDBRANCH   8   9
ENDBRANCH   7   8
ENDBRANCH   6   7
ENDBRANCH   5   6
ENDBRANCH   4   5
ENDBRANCH   3   4
ENDBRANCH   2   3
ENDBRANCH   1   2
BRANCH   1  17
ATOM     17  C   UNL     1     -43.390 -48.376  37.834  1.00  0.00     0.000 C 
BRANCH  17  18
ATOM     18  C   UNL     1     -44.703 -48.305  37.040  1.00  0.00     0.000 C 
BRANCH  18  19
ATOM     19  C   UNL     1     -44.702 -49.326  35.893  1.00  0.00     0.000 C 
BRANCH  19  20
ATOM     20  C   UNL     1     -43.450 -50.218  35.884  1.00  0.00     0.000 C 
BRANCH  20  21
ATOM     21  C   UNL     1     -42.693 -50.159  34.546  1.00  0.00     0.000 C 
BRANCH  21  22
ATOM     22  C   UNL     1     -42.888 -48.824  33.805  1.00  0.00    -0.000 C 
BRANCH  22  23
ATOM     23  C   UNL     1     -41.908 -47.703  34.197  1.00  0.00    -0.000 C 
BRANCH  23  24
ATOM     24  C   UNL     1     -40.535 -48.179  34.711  1.00  0.00    -0.000 C 
BRANCH  24  25
ATOM     25  C   UNL     1     -40.180 -47.657  36.121  1.00  0.00    -0.000 C 
BRANCH  25  26
ATOM     26  C   UNL     1     -39.322 -48.653  36.921  1.00  0.00    -0.000 C 
BRANCH  26  27
ATOM     27  C   UNL     1     -39.799 -48.793  38.382  1.00  0.00    -0.000 C 
BRANCH  27  28
ATOM     28  C   UNL     1     -39.932 -50.252  38.852  1.00  0.00    -0.000 C 
BRANCH  28  29
ATOM     29  C   UNL     1     -40.796 -51.106  37.916  1.00  0.00    -0.003 C 
ATOM     30  C   UNL     1     -39.963 -52.183  37.228  1.00  0.00     0.004 C 
ENDBRANCH  28  29
ENDBRANCH  27  28
ENDBRANCH  26  27
ENDBRANCH  25  26
ENDBRANCH  24  25
ENDBRANCH  23  24
ENDBRANCH  22  23
ENDBRANCH  21  22
ENDBRANCH  20  21
ENDBRANCH  19  20
ENDBRANCH  18  19
ENDBRANCH  17  18
ENDBRANCH   1  17
TORSDOF 26
ENDMDL
MODEL 9
REMARK VINA RESULT:    -3.717      3.392      8.082
REMARK INTER + INTRA:         -14.300
REMARK INTER:                  -9.860
REMARK INTRA:                  -4.440
REMARK UNBOUND:                -4.932
REMARK SMILES CCCCCCCCCCCCCCCCCCCCCCCCCCCC(=O)[O-]
REMARK SMILES IDX 15 1 16 2 17 3 18 4 19 5 20 6 21 7 22 8 23 9 24 10 25 11
REMARK SMILES IDX 26 12 27 13 28 14 29 15 30 16 14 17 13 18 12 19 11 20 10 21
REMARK SMILES IDX 9 22 8 23 7 24 6 25 5 26 4 27 3 28 2 29 1 30
REMARK H PARENT
REMARK Flexibility Score: inf
ROOT
ATOM      1  C   UNL     1     -41.129 -48.941  38.489  1.00  0.00     0.000 C 
ENDROOT
BRANCH   1   2
ATOM      2  C   UNL     1     -39.915 -48.870  37.545  1.00  0.00     0.000 C 
BRANCH   2   3
ATOM      3  C   UNL     1     -40.068 -47.783  36.470  1.00  0.00     0.000 C 
BRANCH   3   4
ATOM      4  C   UNL     1     -40.205 -48.360  35.053  1.00  0.00     0.000 C 
BRANCH   4   5
ATOM      5  C   UNL     1     -41.287 -47.614  34.259  1.00  0.00     0.000 C 
BRANCH   5   6
ATOM      6  C   UNL     1     -42.717 -48.016  34.664  1.00  0.00     0.000 C 
BRANCH   6   7
ATOM      7  C   UNL     1     -42.955 -49.531  34.820  1.00  0.00     0.000 C 
BRANCH   7   8
ATOM      8  C   UNL     1     -43.932 -49.926  35.944  1.00  0.00     0.000 C 
BRANCH   8   9
ATOM      9  C   UNL     1     -44.612 -48.724  36.634  1.00  0.00     0.000 C 
BRANCH   9  10
ATOM     10  C   UNL     1     -45.390 -49.133  37.896  1.00  0.00     0.000 C 
BRANCH  10  11
ATOM     11  C   UNL     1     -44.677 -50.225  38.708  1.00  0.00     0.000 C 
BRANCH  11  12
ATOM     12  C   UNL     1     -45.074 -50.221  40.192  1.00  0.00     0.006 C 
BRANCH  12  13
ATOM     13  C   UNL     1     -45.297 -51.647  40.707  1.00  0.00     0.053 C 
BRANCH  13  14
ATOM     14  C   UNL     1     -46.212 -52.402  39.792  1.00  0.00     0.041 C 
ATOM     15  O   UNL     1     -47.408 -52.035  39.643  1.00  0.00    -0.550 OA
ATOM     16  O   UNL     1     -45.748 -53.526  39.116  1.00  0.00    -0.550 OA
ENDBRANCH  13  14
ENDBRANCH  12  13
ENDBRANCH  11  12
ENDBRANCH  10  11
ENDBRANCH   9  10
ENDBRANCH   8   9
ENDBRANCH   7   8
ENDBRANCH   6   7
ENDBRANCH   5   6
ENDBRANCH   4   5
ENDBRANCH   3   4
ENDBRANCH   2   3
ENDBRANCH   1   2
BRANCH   1  17
ATOM     17  C   UNL     1     -41.825 -47.581  38.657  1.00  0.00     0.000 C 
BRANCH  17  18
ATOM     18  C   UNL     1     -42.590 -47.468  39.985  1.00  0.00     0.000 C 
BRANCH  18  19
ATOM     19  C   UNL     1     -43.706 -46.418  39.884  1.00  0.00     0.000 C 
BRANCH  19  20
ATOM     20  C   UNL     1     -43.237 -45.006  40.270  1.00  0.00     0.000 C 
BRANCH  20  21
ATOM     21  C   UNL     1     -42.166 -45.021  41.376  1.00  0.00     0.000 C 
BRANCH  21  22
ATOM     22  C   UNL     1     -41.149 -43.872  41.241  1.00  0.00    -0.000 C 
BRANCH  22  23
ATOM     23  C   UNL     1     -39.684 -44.307  41.064  1.00  0.00    -0.000 C 
BRANCH  23  24
ATOM     24  C   UNL     1     -39.461 -45.824  40.906  1.00  0.00    -0.000 C 
BRANCH  24  25
ATOM     25  C   UNL     1     -38.377 -46.193  39.869  1.00  0.00    -0.000 C 
BRANCH  25  26
ATOM     26  C   UNL     1     -37.475 -44.999  39.508  1.00  0.00    -0.000 C 
BRANCH  26  27
ATOM     27  C   UNL     1     -36.047 -45.441  39.126  1.00  0.00    -0.000 C 
BRANCH  27  28
ATOM     28  C   UNL     1     -35.685 -45.164  37.656  1.00  0.00    -0.000 C 
BRANCH  28  29
ATOM     29  C   UNL     1     -35.295 -46.432  36.886  1.00  0.00    -0.003 C 
ATOM     30  C   UNL     1     -36.532 -47.208  36.444  1.00  0.00     0.004 C 
ENDBRANCH  28  29
ENDBRANCH  27  28
ENDBRANCH  26  27
ENDBRANCH  25  26
ENDBRANCH  24  25
ENDBRANCH  23  24
ENDBRANCH  22  23
ENDBRANCH  21  22
ENDBRANCH  20  21
ENDBRANCH  19  20
ENDBRANCH  18  19
ENDBRANCH  17  18
ENDBRANCH   1  17
TORSDOF 26
ENDMDL
