MODEL 1
REMARK VINA RESULT:    -3.849      0.000      0.000
REMARK INTER + INTRA:          -6.042
REMARK INTER:                  -5.424
REMARK INTRA:                  -0.618
REMARK UNBOUND:                -0.618
REMARK SMILES CCCCCCCCC(=O)[O-]
REMARK SMILES IDX 6 1 7 2 8 3 9 4 10 5 11 6 5 7 4 8 3 9 2 10 1 11
REMARK H PARENT
REMARK Flexibility Score: inf
ROOT
ATOM      1  C   UNL     1     -36.416  82.175 -17.880  1.00  0.00     0.000 C 
ENDROOT
BRANCH   1   2
ATOM      2  C   UNL     1     -36.994  83.600 -17.974  1.00  0.00     0.006 C 
BRANCH   2   3
ATOM      3  C   UNL     1     -36.085  84.692 -17.389  1.00  0.00     0.053 C 
BRANCH   3   4
ATOM      4  C   UNL     1     -34.944  85.021 -18.303  1.00  0.00     0.041 C 
ATOM      5  O   UNL     1     -33.853  85.438 -17.830  1.00  0.00    -0.550 OA
ATOM      6  O   UNL     1     -35.096  84.896 -19.678  1.00  0.00    -0.550 OA
ENDBRANCH   3   4
ENDBRANCH   2   3
ENDBRANCH   1   2
BRANCH   1   7
ATOM      7  C   UNL     1     -36.498  81.411 -19.212  1.00  0.00     0.000 C 
BRANCH   7   8
ATOM      8  C   UNL     1     -35.128  80.891 -19.678  1.00  0.00    -0.000 C 
BRANCH   8   9
ATOM      9  C   UNL     1     -33.994  81.245 -18.700  1.00  0.00    -0.000 C 
BRANCH   9  10
ATOM     10  C   UNL     1     -32.921  82.137 -19.344  1.00  0.00    -0.003 C 
ATOM     11  C   UNL     1     -31.501  81.649 -19.061  1.00  0.00     0.004 C 
ENDBRANCH   9  10
ENDBRANCH   8   9
ENDBRANCH   7   8
ENDBRANCH   1   7
TORSDOF 7
ENDMDL
MODEL 2
REMARK VINA RESULT:    -3.794     17.492     18.741
REMARK INTER + INTRA:          -5.966
REMARK INTER:                  -5.592
REMARK INTRA:                  -0.374
REMARK UNBOUND:                -0.618
REMARK SMILES CCCCCCCCC(=O)[O-]
REMARK SMILES IDX 6 1 7 2 8 3 9 4 10 5 11 6 5 7 4 8 3 9 2 10 1 11
REMARK H PARENT
REMARK Flexibility Score: inf
ROOT
ATOM      1  C   UNL     1     -24.464  96.383 -29.586  1.00  0.00     0.000 C 
ENDROOT
BRANCH   1   2
ATOM      2  C   UNL     1     -25.129  96.241 -28.204  1.00  0.00     0.006 C 
BRANCH   2   3
ATOM      3  C   UNL     1     -25.540  94.806 -27.841  1.00  0.00     0.053 C 
BRANCH   3   4
ATOM      4  C   UNL     1     -26.576  94.775 -26.759  1.00  0.00     0.041 C 
ATOM      5  O   UNL     1     -26.353  95.330 -25.651  1.00  0.00    -0.550 OA
ATOM      6  O   UNL     1     -27.777  94.106 -26.966  1.00  0.00    -0.550 OA
ENDBRANCH   3   4
ENDBRANCH   2   3
ENDBRANCH   1   2
BRANCH   1   7
ATOM      7  C   UNL     1     -24.570  95.101 -30.430  1.00  0.00     0.000 C 
BRANCH   7   8
ATOM      8  C   UNL     1     -23.518  95.045 -31.550  1.00  0.00    -0.000 C 
BRANCH   8   9
ATOM      9  C   UNL     1     -23.175  93.604 -31.971  1.00  0.00    -0.000 C 
BRANCH   9  10
ATOM     10  C   UNL     1     -23.843  92.555 -31.068  1.00  0.00    -0.003 C 
ATOM     11  C   UNL     1     -22.900  91.413 -30.693  1.00  0.00     0.004 C 
ENDBRANCH   9  10
ENDBRANCH   8   9
ENDBRANCH   7   8
ENDBRANCH   1   7
TORSDOF 7
ENDMDL
MODEL 3
REMARK VINA RESULT:    -3.723      1.392      2.734
REMARK INTER + INTRA:          -5.865
REMARK INTER:                  -5.261
REMARK INTRA:                  -0.604
REMARK UNBOUND:                -0.618
REMARK SMILES CCCCCCCCC(=O)[O-]
REMARK SMILES IDX 6 1 7 2 8 3 9 4 10 5 11 6 5 7 4 8 3 9 2 10 1 11
REMARK H PARENT
REMARK Flexibility Score: inf
ROOT
ATOM      1  C   UNL     1     -36.100  82.089 -17.456  1.00  0.00     0.000 C 
ENDROOT
BRANCH   1   2
ATOM      2  C   UNL     1     -36.757  83.389 -17.958  1.00  0.00     0.006 C 
BRANCH   2   3
ATOM      3  C   UNL     1     -36.093  84.676 -17.442  1.00  0.00     0.053 C 
BRANCH   3   4
ATOM      4  C   UNL     1     -34.936  85.092 -18.298  1.00  0.00     0.041 C 
ATOM      5  O   UNL     1     -33.891  85.556 -17.770  1.00  0.00    -0.550 OA
ATOM      6  O   UNL     1     -35.025  84.995 -19.682  1.00  0.00    -0.550 OA
ENDBRANCH   3   4
ENDBRANCH   2   3
ENDBRANCH   1   2
BRANCH   1   7
ATOM      7  C   UNL     1     -34.964  81.604 -18.373  1.00  0.00     0.000 C 
BRANCH   7   8
ATOM      8  C   UNL     1     -35.434  81.368 -19.818  1.00  0.00    -0.000 C 
BRANCH   8   9
ATOM      9  C   UNL     1     -36.576  80.339 -19.910  1.00  0.00    -0.000 C 
BRANCH   9  10
ATOM     10  C   UNL     1     -37.834  80.917 -20.577  1.00  0.00    -0.003 C 
ATOM     11  C   UNL     1     -37.541  82.168 -21.405  1.00  0.00     0.004 C 
ENDBRANCH   9  10
ENDBRANCH   8   9
ENDBRANCH   7   8
ENDBRANCH   1   7
TORSDOF 7
ENDMDL
MODEL 4
REMARK VINA RESULT:    -3.703      1.945      3.944
REMARK INTER + INTRA:          -5.836
REMARK INTER:                  -5.292
REMARK INTRA:                  -0.544
REMARK UNBOUND:                -0.618
REMARK SMILES CCCCCCCCC(=O)[O-]
REMARK SMILES IDX 6 1 7 2 8 3 9 4 10 5 11 6 5 7 4 8 3 9 2 10 1 11
REMARK H PARENT
REMARK Flexibility Score: inf
ROOT
ATOM      1  C   UNL     1     -35.504  81.202 -19.264  1.00  0.00     0.000 C 
ENDROOT
BRANCH   1   2
ATOM      2  C   UNL     1     -34.073  81.230 -19.835  1.00  0.00     0.006 C 
BRANCH   2   3
ATOM      3  C   UNL     1     -32.964  81.176 -18.772  1.00  0.00     0.053 C 
BRANCH   3   4
ATOM      4  C   UNL     1     -31.832  82.102 -19.096  1.00  0.00     0.041 C 
ATOM      5  O   UNL     1     -30.724  81.640 -19.478  1.00  0.00    -0.550 OA
ATOM      6  O   UNL     1     -31.991  83.474 -18.946  1.00  0.00    -0.550 OA
ENDBRANCH   3   4
ENDBRANCH   2   3
ENDBRANCH   1   2
BRANCH   1   7
ATOM      7  C   UNL     1     -36.446  82.189 -19.973  1.00  0.00     0.000 C 
BRANCH   7   8
ATOM      8  C   UNL     1     -37.252  83.047 -18.984  1.00  0.00    -0.000 C 
BRANCH   8   9
ATOM      9  C   UNL     1     -36.519  83.259 -17.647  1.00  0.00    -0.000 C 
BRANCH   9  10
ATOM     10  C   UNL     1     -36.132  84.729 -17.417  1.00  0.00    -0.003 C 
ATOM     11  C   UNL     1     -34.928  85.160 -18.255  1.00  0.00     0.004 C 
ENDBRANCH   9  10
ENDBRANCH   8   9
ENDBRANCH   7   8
ENDBRANCH   1   7
TORSDOF 7
ENDMDL
MODEL 5
REMARK VINA RESULT:    -3.658      2.663      4.576
REMARK INTER + INTRA:          -5.773
REMARK INTER:                  -5.188
REMARK INTRA:                  -0.585
REMARK UNBOUND:                -0.618
REMARK SMILES CCCCCCCCC(=O)[O-]
REMARK SMILES IDX 6 1 7 2 8 3 9 4 10 5 11 6 5 7 4 8 3 9 2 10 1 11
REMARK H PARENT
REMARK Flexibility Score: inf
ROOT
ATOM      1  C   UNL     1     -33.612  82.360 -19.890  1.00  0.00     0.000 C 
ENDROOT
BRANCH   1   2
ATOM      2  C   UNL     1     -32.549  83.306 -19.298  1.00  0.00     0.006 C 
BRANCH   2   3
ATOM      3  C   UNL     1     -31.273  82.601 -18.813  1.00  0.00     0.053 C 
BRANCH   3   4
ATOM      4  C   UNL     1     -30.460  82.066 -19.952  1.00  0.00     0.041 C 
ATOM      5  O   UNL     1     -30.081  82.834 -20.876  1.00  0.00    -0.550 OA
ATOM      6  O   UNL     1     -30.148  80.713 -20.008  1.00  0.00    -0.550 OA
ENDBRANCH   3   4
ENDBRANCH   2   3
ENDBRANCH   1   2
BRANCH   1   7
ATOM      7  C   UNL     1     -34.245  81.441 -18.832  1.00  0.00     0.000 C 
BRANCH   7   8
ATOM      8  C   UNL     1     -35.774  81.587 -18.765  1.00  0.00    -0.000 C 
BRANCH   8   9
ATOM      9  C   UNL     1     -36.241  82.385 -17.534  1.00  0.00    -0.000 C 
BRANCH   9  10
ATOM     10  C   UNL     1     -36.717  83.800 -17.898  1.00  0.00    -0.003 C 
ATOM     11  C   UNL     1     -35.639  84.860 -17.677  1.00  0.00     0.004 C 
ENDBRANCH   9  10
ENDBRANCH   8   9
ENDBRANCH   7   8
ENDBRANCH   1   7
TORSDOF 7
ENDMDL
MODEL 6
REMARK VINA RESULT:    -3.651     11.842     13.388
REMARK INTER + INTRA:          -5.763
REMARK INTER:                  -4.957
REMARK INTRA:                  -0.806
REMARK UNBOUND:                -0.618
REMARK SMILES CCCCCCCCC(=O)[O-]
REMARK SMILES IDX 6 1 7 2 8 3 9 4 10 5 11 6 5 7 4 8 3 9 2 10 1 11
REMARK H PARENT
REMARK Flexibility Score: inf
ROOT
ATOM      1  C   UNL     1     -21.524  81.275 -23.224  1.00  0.00     0.000 C 
ENDROOT
BRANCH   1   2
ATOM      2  C   UNL     1     -21.874  82.614 -23.901  1.00  0.00     0.006 C 
BRANCH   2   3
ATOM      3  C   UNL     1     -21.294  83.851 -23.197  1.00  0.00     0.053 C 
BRANCH   3   4
ATOM      4  C   UNL     1     -22.269  84.988 -23.167  1.00  0.00     0.041 C 
ATOM      5  O   UNL     1     -21.858  86.178 -23.193  1.00  0.00    -0.550 OA
ATOM      6  O   UNL     1     -23.633  84.733 -23.079  1.00  0.00    -0.550 OA
ENDBRANCH   3   4
ENDBRANCH   2   3
ENDBRANCH   1   2
BRANCH   1   7
ATOM      7  C   UNL     1     -21.753  81.299 -21.704  1.00  0.00     0.000 C 
BRANCH   7   8
ATOM      8  C   UNL     1     -23.231  81.503 -21.334  1.00  0.00    -0.000 C 
BRANCH   8   9
ATOM      9  C   UNL     1     -23.427  82.551 -20.224  1.00  0.00    -0.000 C 
BRANCH   9  10
ATOM     10  C   UNL     1     -22.097  82.997 -19.597  1.00  0.00    -0.003 C 
ATOM     11  C   UNL     1     -21.925  84.515 -19.595  1.00  0.00     0.004 C 
ENDBRANCH   9  10
ENDBRANCH   8   9
ENDBRANCH   7   8
ENDBRANCH   1   7
TORSDOF 7
ENDMDL
MODEL 7
REMARK VINA RESULT:    -3.627      2.264      4.328
REMARK INTER + INTRA:          -5.729
REMARK INTER:                  -4.817
REMARK INTRA:                  -0.912
REMARK UNBOUND:                -0.618
REMARK SMILES CCCCCCCCC(=O)[O-]
REMARK SMILES IDX 6 1 7 2 8 3 9 4 10 5 11 6 5 7 4 8 3 9 2 10 1 11
REMARK H PARENT
REMARK Flexibility Score: inf
ROOT
ATOM      1  C   UNL     1     -34.970  84.589 -19.067  1.00  0.00     0.000 C 
ENDROOT
BRANCH   1   2
ATOM      2  C   UNL     1     -33.677  83.752 -19.104  1.00  0.00     0.006 C 
BRANCH   2   3
ATOM      3  C   UNL     1     -33.641  82.690 -20.214  1.00  0.00     0.053 C 
BRANCH   3   4
ATOM      4  C   UNL     1     -33.931  81.318 -19.688  1.00  0.00     0.041 C 
ATOM      5  O   UNL     1     -33.998  80.337 -20.475  1.00  0.00    -0.550 OA
ATOM      6  O   UNL     1     -34.158  81.128 -18.330  1.00  0.00    -0.550 OA
ENDBRANCH   3   4
ENDBRANCH   2   3
ENDBRANCH   1   2
BRANCH   1   7
ATOM      7  C   UNL     1     -35.927  84.155 -17.944  1.00  0.00     0.000 C 
BRANCH   7   8
ATOM      8  C   UNL     1     -37.153  83.395 -18.476  1.00  0.00    -0.000 C 
BRANCH   8   9
ATOM      9  C   UNL     1     -37.266  83.449 -20.010  1.00  0.00    -0.000 C 
BRANCH   9  10
ATOM     10  C   UNL     1     -37.487  82.061 -20.631  1.00  0.00    -0.003 C 
ATOM     11  C   UNL     1     -37.672  80.967 -19.580  1.00  0.00     0.004 C 
ENDBRANCH   9  10
ENDBRANCH   8   9
ENDBRANCH   7   8
ENDBRANCH   1   7
TORSDOF 7
ENDMDL
MODEL 8
REMARK VINA RESULT:    -3.610     12.725     13.700
REMARK INTER + INTRA:          -5.706
REMARK INTER:                  -5.148
REMARK INTRA:                  -0.558
REMARK UNBOUND:                -0.618
REMARK SMILES CCCCCCCCC(=O)[O-]
REMARK SMILES IDX 6 1 7 2 8 3 9 4 10 5 11 6 5 7 4 8 3 9 2 10 1 11
REMARK H PARENT
REMARK Flexibility Score: inf
ROOT
ATOM      1  C   UNL     1     -21.611  84.105 -23.266  1.00  0.00     0.000 C 
ENDROOT
BRANCH   1   2
ATOM      2  C   UNL     1     -21.745  85.638 -23.188  1.00  0.00     0.006 C 
BRANCH   2   3
ATOM      3  C   UNL     1     -22.935  86.211 -23.975  1.00  0.00     0.053 C 
BRANCH   3   4
ATOM      4  C   UNL     1     -22.546  87.408 -24.787  1.00  0.00     0.041 C 
ATOM      5  O   UNL     1     -21.869  88.334 -24.268  1.00  0.00    -0.550 OA
ATOM      6  O   UNL     1     -22.958  87.514 -26.110  1.00  0.00    -0.550 OA
ENDBRANCH   3   4
ENDBRANCH   2   3
ENDBRANCH   1   2
BRANCH   1   7
ATOM      7  C   UNL     1     -22.956  83.381 -23.089  1.00  0.00     0.000 C 
BRANCH   7   8
ATOM      8  C   UNL     1     -23.118  82.773 -21.687  1.00  0.00    -0.000 C 
BRANCH   8   9
ATOM      9  C   UNL     1     -21.771  82.401 -21.041  1.00  0.00    -0.000 C 
BRANCH   9  10
ATOM     10  C   UNL     1     -21.601  83.014 -19.643  1.00  0.00    -0.003 C 
ATOM     11  C   UNL     1     -21.922  84.508 -19.610  1.00  0.00     0.004 C 
ENDBRANCH   9  10
ENDBRANCH   8   9
ENDBRANCH   7   8
ENDBRANCH   1   7
TORSDOF 7
ENDMDL
MODEL 9
REMARK VINA RESULT:    -3.594     12.668     13.985
REMARK INTER + INTRA:          -5.684
REMARK INTER:                  -5.000
REMARK INTRA:                  -0.684
REMARK UNBOUND:                -0.618
REMARK SMILES CCCCCCCCC(=O)[O-]
REMARK SMILES IDX 6 1 7 2 8 3 9 4 10 5 11 6 5 7 4 8 3 9 2 10 1 11
REMARK H PARENT
REMARK Flexibility Score: inf
ROOT
ATOM      1  C   UNL     1     -21.106  81.229 -23.634  1.00  0.00     0.000 C 
ENDROOT
BRANCH   1   2
ATOM      2  C   UNL     1     -21.399  80.476 -22.322  1.00  0.00     0.006 C 
BRANCH   2   3
ATOM      3  C   UNL     1     -22.880  80.125 -22.110  1.00  0.00     0.053 C 
BRANCH   3   4
ATOM      4  C   UNL     1     -23.160  78.681 -22.393  1.00  0.00     0.041 C 
ATOM      5  O   UNL     1     -24.228  78.151 -21.987  1.00  0.00    -0.550 OA
ATOM      6  O   UNL     1     -22.228  77.914 -23.081  1.00  0.00    -0.550 OA
ENDBRANCH   3   4
ENDBRANCH   2   3
ENDBRANCH   1   2
BRANCH   1   7
ATOM      7  C   UNL     1     -21.678  82.657 -23.641  1.00  0.00     0.000 C 
BRANCH   7   8
ATOM      8  C   UNL     1     -21.283  83.455 -22.388  1.00  0.00    -0.000 C 
BRANCH   8   9
ATOM      9  C   UNL     1     -22.482  84.170 -21.738  1.00  0.00    -0.000 C 
BRANCH   9  10
ATOM     10  C   UNL     1     -22.667  83.780 -20.263  1.00  0.00    -0.003 C 
ATOM     11  C   UNL     1     -21.448  83.062 -19.685  1.00  0.00     0.004 C 
ENDBRANCH   9  10
ENDBRANCH   8   9
ENDBRANCH   7   8
ENDBRANCH   1   7
TORSDOF 7
ENDMDL
