MODEL 1
REMARK VINA RESULT:    -3.983      0.000      0.000
REMARK INTER + INTRA:          -4.626
REMARK INTER:                  -4.565
REMARK INTRA:                  -0.061
REMARK UNBOUND:                -0.061
REMARK SMILES CC(C)[C@H]([NH3+])C(=O)[O-]
REMARK SMILES IDX 4 1 5 2 6 6 7 7 8 8 2 9 1 10 3 11
REMARK H PARENT 5 3 5 4 5 5
REMARK Flexibility Score: inf
ROOT
ATOM      1  C   UNL     1      85.394 175.802 198.810  1.00  0.00     0.230 C 
ENDROOT
BRANCH   1   2
ATOM      2  N   UNL     1      84.048 176.379 198.952  1.00  0.00    -0.350 N 
ATOM      3  H   UNL     1      84.036 177.374 198.629  1.00  0.00     0.345 HD
ATOM      4  H   UNL     1      83.745 176.343 199.954  1.00  0.00     0.345 HD
ATOM      5  H   UNL     1      83.356 175.822 198.402  1.00  0.00     0.345 HD
ENDBRANCH   1   2
BRANCH   1   6
ATOM      6  C   UNL     1      85.738 175.684 197.346  1.00  0.00     0.099 C 
ATOM      7  O   UNL     1      86.157 174.595 196.874  1.00  0.00    -0.544 OA
ATOM      8  O   UNL     1      85.600 176.785 196.510  1.00  0.00    -0.544 OA
ENDBRANCH   1   6
BRANCH   1   9
ATOM      9  C   UNL     1      85.511 174.418 199.521  1.00  0.00     0.047 C 
ATOM     10  C   UNL     1      86.229 174.548 200.877  1.00  0.00     0.014 C 
ATOM     11  C   UNL     1      84.135 173.768 199.740  1.00  0.00     0.014 C 
ENDBRANCH   1   9
TORSDOF 3
ENDMDL
MODEL 2
REMARK VINA RESULT:    -3.946      2.024      3.470
REMARK INTER + INTRA:          -4.583
REMARK INTER:                  -4.535
REMARK INTRA:                  -0.048
REMARK UNBOUND:                -0.061
REMARK SMILES CC(C)[C@H]([NH3+])C(=O)[O-]
REMARK SMILES IDX 4 1 5 2 6 6 7 7 8 8 2 9 1 10 3 11
REMARK H PARENT 5 3 5 4 5 5
REMARK Flexibility Score: inf
ROOT
ATOM      1  C   UNL     1      84.871 175.127 198.182  1.00  0.00     0.230 C 
ENDROOT
BRANCH   1   2
ATOM      2  N   UNL     1      84.264 176.324 198.784  1.00  0.00    -0.350 N 
ATOM      3  H   UNL     1      84.749 177.191 198.456  1.00  0.00     0.345 HD
ATOM      4  H   UNL     1      84.327 176.273 199.828  1.00  0.00     0.345 HD
ATOM      5  H   UNL     1      83.249 176.376 198.539  1.00  0.00     0.345 HD
ENDBRANCH   1   2
BRANCH   1   6
ATOM      6  C   UNL     1      85.603 174.346 199.245  1.00  0.00     0.099 C 
ATOM      7  O   UNL     1      85.856 174.870 200.362  1.00  0.00    -0.544 OA
ATOM      8  O   UNL     1      86.009 173.041 198.992  1.00  0.00    -0.544 OA
ENDBRANCH   1   6
BRANCH   1   9
ATOM      9  C   UNL     1      85.826 175.491 197.003  1.00  0.00     0.047 C 
ATOM     10  C   UNL     1      85.494 174.671 195.743  1.00  0.00     0.014 C 
ATOM     11  C   UNL     1      85.768 176.988 196.659  1.00  0.00     0.014 C 
ENDBRANCH   1   9
TORSDOF 3
ENDMDL
MODEL 3
REMARK VINA RESULT:    -3.943      2.051      3.337
REMARK INTER + INTRA:          -4.580
REMARK INTER:                  -4.533
REMARK INTRA:                  -0.047
REMARK UNBOUND:                -0.061
REMARK SMILES CC(C)[C@H]([NH3+])C(=O)[O-]
REMARK SMILES IDX 4 1 5 2 6 6 7 7 8 8 2 9 1 10 3 11
REMARK H PARENT 5 3 5 4 5 5
REMARK Flexibility Score: inf
ROOT
ATOM      1  C   UNL     1      84.859 175.117 198.239  1.00  0.00     0.230 C 
ENDROOT
BRANCH   1   2
ATOM      2  N   UNL     1      84.268 176.325 198.834  1.00  0.00    -0.350 N 
ATOM      3  H   UNL     1      85.011 177.020 199.080  1.00  0.00     0.345 HD
ATOM      4  H   UNL     1      83.735 176.076 199.701  1.00  0.00     0.345 HD
ATOM      5  H   UNL     1      83.587 176.760 198.170  1.00  0.00     0.345 HD
ENDBRANCH   1   2
BRANCH   1   6
ATOM      6  C   UNL     1      85.574 174.328 199.309  1.00  0.00     0.099 C 
ATOM      7  O   UNL     1      85.805 173.101 199.149  1.00  0.00    -0.544 OA
ATOM      8  O   UNL     1      85.974 174.955 200.483  1.00  0.00    -0.544 OA
ENDBRANCH   1   6
BRANCH   1   9
ATOM      9  C   UNL     1      85.825 175.462 197.064  1.00  0.00     0.047 C 
ATOM     10  C   UNL     1      85.511 174.615 195.818  1.00  0.00     0.014 C 
ATOM     11  C   UNL     1      85.763 176.952 196.689  1.00  0.00     0.014 C 
ENDBRANCH   1   9
TORSDOF 3
ENDMDL
MODEL 4
REMARK VINA RESULT:    -3.885     13.630     14.443
REMARK INTER + INTRA:          -4.514
REMARK INTER:                  -4.450
REMARK INTRA:                  -0.064
REMARK UNBOUND:                -0.061
REMARK SMILES CC(C)[C@H]([NH3+])C(=O)[O-]
REMARK SMILES IDX 4 1 5 2 6 6 7 7 8 8 2 9 1 10 3 11
REMARK H PARENT 5 3 5 4 5 5
REMARK Flexibility Score: inf
ROOT
ATOM      1  C   UNL     1      80.928 185.783 190.414  1.00  0.00     0.230 C 
ENDROOT
BRANCH   1   2
ATOM      2  N   UNL     1      79.882 186.808 190.556  1.00  0.00    -0.350 N 
ATOM      3  H   UNL     1      78.933 186.391 190.416  1.00  0.00     0.345 HD
ATOM      4  H   UNL     1      80.027 187.570 189.853  1.00  0.00     0.345 HD
ATOM      5  H   UNL     1      79.935 187.249 191.503  1.00  0.00     0.345 HD
ENDBRANCH   1   2
BRANCH   1   6
ATOM      6  C   UNL     1      82.262 186.453 190.198  1.00  0.00     0.099 C 
ATOM      7  O   UNL     1      82.863 186.339 189.097  1.00  0.00    -0.544 OA
ATOM      8  O   UNL     1      82.840 187.197 191.220  1.00  0.00    -0.544 OA
ENDBRANCH   1   6
BRANCH   1   9
ATOM      9  C   UNL     1      80.612 184.787 189.256  1.00  0.00     0.047 C 
ATOM     10  C   UNL     1      80.482 183.346 189.781  1.00  0.00     0.014 C 
ATOM     11  C   UNL     1      79.324 185.168 188.508  1.00  0.00     0.014 C 
ENDBRANCH   1   9
TORSDOF 3
ENDMDL
MODEL 5
REMARK VINA RESULT:    -3.807     13.568     14.164
REMARK INTER + INTRA:          -4.424
REMARK INTER:                  -4.395
REMARK INTRA:                  -0.029
REMARK UNBOUND:                -0.061
REMARK SMILES CC(C)[C@H]([NH3+])C(=O)[O-]
REMARK SMILES IDX 4 1 5 2 6 6 7 7 8 8 2 9 1 10 3 11
REMARK H PARENT 5 3 5 4 5 5
REMARK Flexibility Score: inf
ROOT
ATOM      1  C   UNL     1      80.385 185.574 189.974  1.00  0.00     0.230 C 
ENDROOT
BRANCH   1   2
ATOM      2  N   UNL     1      80.241 186.831 190.724  1.00  0.00    -0.350 N 
ATOM      3  H   UNL     1      80.704 187.620 190.216  1.00  0.00     0.345 HD
ATOM      4  H   UNL     1      80.673 186.736 191.672  1.00  0.00     0.345 HD
ATOM      5  H   UNL     1      79.229 187.052 190.868  1.00  0.00     0.345 HD
ENDBRANCH   1   2
BRANCH   1   6
ATOM      6  C   UNL     1      79.734 184.452 190.745  1.00  0.00     0.099 C 
ATOM      7  O   UNL     1      79.419 184.606 191.955  1.00  0.00    -0.544 OA
ATOM      8  O   UNL     1      79.484 183.235 190.122  1.00  0.00    -0.544 OA
ENDBRANCH   1   6
BRANCH   1   9
ATOM      9  C   UNL     1      81.879 185.245 189.671  1.00  0.00     0.047 C 
ATOM     10  C   UNL     1      82.044 184.655 188.259  1.00  0.00     0.014 C 
ATOM     11  C   UNL     1      82.777 186.486 189.806  1.00  0.00     0.014 C 
ENDBRANCH   1   9
TORSDOF 3
ENDMDL
MODEL 6
REMARK VINA RESULT:    -3.776      2.354      3.779
REMARK INTER + INTRA:          -4.389
REMARK INTER:                  -4.329
REMARK INTRA:                  -0.060
REMARK UNBOUND:                -0.061
REMARK SMILES CC(C)[C@H]([NH3+])C(=O)[O-]
REMARK SMILES IDX 4 1 5 2 6 6 7 7 8 8 2 9 1 10 3 11
REMARK H PARENT 5 3 5 4 5 5
REMARK Flexibility Score: inf
ROOT
ATOM      1  C   UNL     1      86.137 175.290 197.451  1.00  0.00     0.230 C 
ENDROOT
BRANCH   1   2
ATOM      2  N   UNL     1      85.938 173.884 197.069  1.00  0.00    -0.350 N 
ATOM      3  H   UNL     1      84.991 173.745 196.646  1.00  0.00     0.345 HD
ATOM      4  H   UNL     1      86.030 173.266 197.909  1.00  0.00     0.345 HD
ATOM      5  H   UNL     1      86.673 173.587 196.387  1.00  0.00     0.345 HD
ENDBRANCH   1   2
BRANCH   1   6
ATOM      6  C   UNL     1      85.374 175.578 198.720  1.00  0.00     0.099 C 
ATOM      7  O   UNL     1      84.205 176.045 198.671  1.00  0.00    -0.544 OA
ATOM      8  O   UNL     1      85.963 175.335 199.955  1.00  0.00    -0.544 OA
ENDBRANCH   1   6
BRANCH   1   9
ATOM      9  C   UNL     1      85.711 176.268 196.313  1.00  0.00     0.047 C 
ATOM     10  C   UNL     1      86.557 177.553 196.337  1.00  0.00     0.014 C 
ATOM     11  C   UNL     1      85.825 175.616 194.925  1.00  0.00     0.014 C 
ENDBRANCH   1   9
TORSDOF 3
ENDMDL
MODEL 7
REMARK VINA RESULT:    -3.761     14.694     15.377
REMARK INTER + INTRA:          -4.372
REMARK INTER:                  -4.334
REMARK INTRA:                  -0.038
REMARK UNBOUND:                -0.061
REMARK SMILES CC(C)[C@H]([NH3+])C(=O)[O-]
REMARK SMILES IDX 4 1 5 2 6 6 7 7 8 8 2 9 1 10 3 11
REMARK H PARENT 5 3 5 4 5 5
REMARK Flexibility Score: inf
ROOT
ATOM      1  C   UNL     1      78.322 185.907 189.753  1.00  0.00     0.230 C 
ENDROOT
BRANCH   1   2
ATOM      2  N   UNL     1      78.451 187.329 189.401  1.00  0.00    -0.350 N 
ATOM      3  H   UNL     1      77.631 187.874 189.754  1.00  0.00     0.345 HD
ATOM      4  H   UNL     1      78.511 187.438 188.362  1.00  0.00     0.345 HD
ATOM      5  H   UNL     1      79.333 187.721 189.802  1.00  0.00     0.345 HD
ENDBRANCH   1   2
BRANCH   1   6
ATOM      6  C   UNL     1      78.325 185.758 191.255  1.00  0.00     0.099 C 
ATOM      7  O   UNL     1      77.678 186.562 191.977  1.00  0.00    -0.544 OA
ATOM      8  O   UNL     1      79.052 184.734 191.849  1.00  0.00    -0.544 OA
ENDBRANCH   1   6
BRANCH   1   9
ATOM      9  C   UNL     1      79.448 185.043 189.107  1.00  0.00     0.047 C 
ATOM     10  C   UNL     1      79.057 184.587 187.689  1.00  0.00     0.014 C 
ATOM     11  C   UNL     1      80.785 185.800 189.042  1.00  0.00     0.014 C 
ENDBRANCH   1   9
TORSDOF 3
ENDMDL
MODEL 8
REMARK VINA RESULT:    -3.687     13.850     14.457
REMARK INTER + INTRA:          -4.287
REMARK INTER:                  -4.232
REMARK INTRA:                  -0.055
REMARK UNBOUND:                -0.061
REMARK SMILES CC(C)[C@H]([NH3+])C(=O)[O-]
REMARK SMILES IDX 4 1 5 2 6 6 7 7 8 8 2 9 1 10 3 11
REMARK H PARENT 5 3 5 4 5 5
REMARK Flexibility Score: inf
ROOT
ATOM      1  C   UNL     1      80.852 185.018 190.130  1.00  0.00     0.230 C 
ENDROOT
BRANCH   1   2
ATOM      2  N   UNL     1      80.537 183.597 190.342  1.00  0.00    -0.350 N 
ATOM      3  H   UNL     1      79.677 183.492 190.929  1.00  0.00     0.345 HD
ATOM      4  H   UNL     1      81.336 183.119 190.820  1.00  0.00     0.345 HD
ATOM      5  H   UNL     1      80.396 183.117 189.424  1.00  0.00     0.345 HD
ENDBRANCH   1   2
BRANCH   1   6
ATOM      6  C   UNL     1      79.615 185.743 189.661  1.00  0.00     0.099 C 
ATOM      7  O   UNL     1      79.090 185.458 188.552  1.00  0.00    -0.544 OA
ATOM      8  O   UNL     1      79.050 186.737 190.452  1.00  0.00    -0.544 OA
ENDBRANCH   1   6
BRANCH   1   9
ATOM      9  C   UNL     1      82.024 185.209 189.119  1.00  0.00     0.047 C 
ATOM     10  C   UNL     1      82.880 186.436 189.483  1.00  0.00     0.014 C 
ATOM     11  C   UNL     1      82.928 183.967 189.049  1.00  0.00     0.014 C 
ENDBRANCH   1   9
TORSDOF 3
ENDMDL
MODEL 9
REMARK VINA RESULT:    -3.685     13.728     14.637
REMARK INTER + INTRA:          -4.284
REMARK INTER:                  -4.225
REMARK INTRA:                  -0.059
REMARK UNBOUND:                -0.061
REMARK SMILES CC(C)[C@H]([NH3+])C(=O)[O-]
REMARK SMILES IDX 4 1 5 2 6 6 7 7 8 8 2 9 1 10 3 11
REMARK H PARENT 5 3 5 4 5 5
REMARK Flexibility Score: inf
ROOT
ATOM      1  C   UNL     1      80.853 186.120 189.531  1.00  0.00     0.230 C 
ENDROOT
BRANCH   1   2
ATOM      2  N   UNL     1      81.407 186.539 190.827  1.00  0.00    -0.350 N 
ATOM      3  H   UNL     1      80.760 187.206 191.309  1.00  0.00     0.345 HD
ATOM      4  H   UNL     1      82.334 187.006 190.688  1.00  0.00     0.345 HD
ATOM      5  H   UNL     1      81.571 185.706 191.437  1.00  0.00     0.345 HD
ENDBRANCH   1   2
BRANCH   1   6
ATOM      6  C   UNL     1      79.346 186.161 189.592  1.00  0.00     0.099 C 
ATOM      7  O   UNL     1      78.656 185.790 188.605  1.00  0.00    -0.544 OA
ATOM      8  O   UNL     1      78.709 186.617 190.740  1.00  0.00    -0.544 OA
ENDBRANCH   1   6
BRANCH   1   9
ATOM      9  C   UNL     1      81.354 184.702 189.116  1.00  0.00     0.047 C 
ATOM     10  C   UNL     1      82.887 184.669 188.985  1.00  0.00     0.014 C 
ATOM     11  C   UNL     1      80.910 183.622 190.116  1.00  0.00     0.014 C 
ENDBRANCH   1   9
TORSDOF 3
ENDMDL
