MODEL 1
REMARK VINA RESULT:    -5.292      0.000      0.000
REMARK INTER + INTRA:          -5.447
REMARK INTER:                  -5.447
REMARK INTRA:                   0.000
REMARK UNBOUND:                 0.000
REMARK SMILES CC1(C)CC[C@@]2(C)CC[C@]3(C)C(=CC[C@@H]4[C@]5(C)CC[C@@H](O)C(C)(C)[C@@H]5CC[C@@]43C)[C@H]2C1
REMARK SMILES IDX 1 1 2 2 4 3 5 4 6 5 8 6 9 7 10 8 12 9 13 10 14 11 15 12
REMARK SMILES IDX 28 13 27 14 26 15 25 16 16 17 18 18 19 19 20 20 22 21 23 22
REMARK SMILES IDX 24 23 17 24 29 25 30 26 31 27 11 28 7 29 3 30 21 31
REMARK H PARENT 21 32
REMARK Flexibility Score: inf
ROOT
ATOM      1  C   UNL     1      14.120  46.014   5.974  1.00  0.00     0.011 C 
ATOM      2  C   UNL     1      12.976  45.801   6.990  1.00  0.00    -0.035 C 
ATOM      3  C   UNL     1      12.765  47.107   7.787  1.00  0.00     0.007 C 
ATOM      4  C   UNL     1      11.955  48.150   7.006  1.00  0.00     0.008 C 
ATOM      5  C   UNL     1      10.539  47.653   6.603  1.00  0.00    -0.026 C 
ATOM      6  C   UNL     1       9.795  48.845   5.897  1.00  0.00     0.008 C 
ATOM      7  C   UNL     1      10.007  48.984   4.371  1.00  0.00     0.012 C 
ATOM      8  C   UNL     1       9.821  47.657   3.579  1.00  0.00    -0.006 C 
ATOM      9  C   UNL     1      10.832  46.709   4.227  1.00  0.00    -0.064 C 
ATOM     10  C   UNL     1      12.010  46.516   3.625  1.00  0.00    -0.027 C 
ATOM     11  C   UNL     1      12.536  47.506   2.638  1.00  0.00     0.032 C 
ATOM     12  C   UNL     1      11.571  47.657   1.461  1.00  0.00     0.006 C 
ATOM     13  C   UNL     1      10.044  47.770   1.945  1.00  0.00    -0.020 C 
ATOM     14  C   UNL     1       9.386  49.063   1.371  1.00  0.00     0.008 C 
ATOM     15  C   UNL     1      10.316  50.276   1.372  1.00  0.00     0.005 C 
ATOM     16  C   UNL     1      11.510  50.142   0.392  1.00  0.00     0.003 C 
ATOM     17  C   UNL     1      12.053  48.646   0.282  1.00  0.00    -0.025 C 
ATOM     18  C   UNL     1      13.609  48.645   0.158  1.00  0.00     0.010 C 
ATOM     19  C   UNL     1      14.122  49.674  -0.841  1.00  0.00     0.033 C 
ATOM     20  C   UNL     1      13.901  51.102  -0.313  1.00  0.00     0.120 C 
ATOM     21  C   UNL     1      12.588  51.319   0.567  1.00  0.00    -0.006 C 
ATOM     22  C   UNL     1      13.033  51.492   2.055  1.00  0.00     0.014 C 
ATOM     23  C   UNL     1      11.926  52.672   0.160  1.00  0.00     0.014 C 
ATOM     24  C   UNL     1      11.517  48.035  -1.060  1.00  0.00     0.012 C 
ATOM     25  C   UNL     1       9.297  46.570   1.263  1.00  0.00     0.012 C 
ATOM     26  C   UNL     1      10.651  46.357   5.715  1.00  0.00     0.022 C 
ATOM     27  C   UNL     1      11.637  45.296   6.325  1.00  0.00     0.015 C 
ATOM     28  C   UNL     1       8.364  47.144   3.870  1.00  0.00     0.017 C 
ATOM     29  C   UNL     1       9.718  47.329   7.881  1.00  0.00     0.012 C 
ATOM     30  C   UNL     1      13.468  44.703   7.962  1.00  0.00     0.011 C 
ENDROOT
BRANCH  20  31
ATOM     31  O   UNL     1      14.028  52.039  -1.368  1.00  0.00    -0.393 OA
ATOM     32  H   UNL     1      14.994  52.266  -1.465  1.00  0.00     0.210 HD
ENDBRANCH  20  31
TORSDOF 1
ENDMDL
MODEL 2
REMARK VINA RESULT:    -4.956      1.326      2.418
REMARK INTER + INTRA:          -5.101
REMARK INTER:                  -5.101
REMARK INTRA:                   0.000
REMARK UNBOUND:                 0.000
REMARK SMILES CC1(C)CC[C@@]2(C)CC[C@]3(C)C(=CC[C@@H]4[C@]5(C)CC[C@@H](O)C(C)(C)[C@@H]5CC[C@@]43C)[C@H]2C1
REMARK SMILES IDX 1 1 2 2 4 3 5 4 6 5 8 6 9 7 10 8 12 9 13 10 14 11 15 12
REMARK SMILES IDX 28 13 27 14 26 15 25 16 16 17 18 18 19 19 20 20 22 21 23 22
REMARK SMILES IDX 24 23 17 24 29 25 30 26 31 27 11 28 7 29 3 30 21 31
REMARK H PARENT 21 32
REMARK Flexibility Score: inf
ROOT
ATOM      1  C   UNL     1      13.436  43.364   5.642  1.00  0.00     0.011 C 
ATOM      2  C   UNL     1      13.110  43.634   7.128  1.00  0.00    -0.035 C 
ATOM      3  C   UNL     1      14.125  44.654   7.687  1.00  0.00     0.007 C 
ATOM      4  C   UNL     1      13.787  46.098   7.292  1.00  0.00     0.008 C 
ATOM      5  C   UNL     1      12.388  46.559   7.788  1.00  0.00    -0.026 C 
ATOM      6  C   UNL     1      12.215  48.072   7.396  1.00  0.00     0.008 C 
ATOM      7  C   UNL     1      11.636  48.359   5.991  1.00  0.00     0.012 C 
ATOM      8  C   UNL     1      10.356  47.540   5.651  1.00  0.00    -0.006 C 
ATOM      9  C   UNL     1      10.808  46.088   5.812  1.00  0.00    -0.064 C 
ATOM     10  C   UNL     1      11.143  45.393   4.720  1.00  0.00    -0.027 C 
ATOM     11  C   UNL     1      11.525  46.091   3.456  1.00  0.00     0.032 C 
ATOM     12  C   UNL     1      10.378  46.975   2.962  1.00  0.00     0.006 C 
ATOM     13  C   UNL     1       9.714  47.821   4.153  1.00  0.00    -0.020 C 
ATOM     14  C   UNL     1       9.721  49.343   3.809  1.00  0.00     0.008 C 
ATOM     15  C   UNL     1      11.002  49.808   3.117  1.00  0.00     0.005 C 
ATOM     16  C   UNL     1      11.183  49.224   1.692  1.00  0.00     0.003 C 
ATOM     17  C   UNL     1      10.632  47.733   1.561  1.00  0.00    -0.025 C 
ATOM     18  C   UNL     1      11.566  46.893   0.635  1.00  0.00     0.010 C 
ATOM     19  C   UNL     1      11.955  47.632  -0.638  1.00  0.00     0.033 C 
ATOM     20  C   UNL     1      12.893  48.808  -0.319  1.00  0.00     0.120 C 
ATOM     21  C   UNL     1      12.630  49.545   1.072  1.00  0.00    -0.006 C 
ATOM     22  C   UNL     1      13.787  49.153   2.047  1.00  0.00     0.014 C 
ATOM     23  C   UNL     1      12.755  51.086   0.859  1.00  0.00     0.014 C 
ATOM     24  C   UNL     1       9.245  47.793   0.829  1.00  0.00     0.012 C 
ATOM     25  C   UNL     1       8.204  47.395   4.179  1.00  0.00     0.012 C 
ATOM     26  C   UNL     1      11.268  45.618   7.205  1.00  0.00     0.022 C 
ATOM     27  C   UNL     1      11.620  44.095   7.366  1.00  0.00     0.015 C 
ATOM     28  C   UNL     1       9.283  47.878   6.748  1.00  0.00     0.017 C 
ATOM     29  C   UNL     1      12.342  46.508   9.340  1.00  0.00     0.012 C 
ATOM     30  C   UNL     1      13.312  42.284   7.859  1.00  0.00     0.011 C 
ENDROOT
BRANCH  20  31
ATOM     31  O   UNL     1      12.953  49.699  -1.419  1.00  0.00    -0.393 OA
ATOM     32  H   UNL     1      12.941  50.630  -1.062  1.00  0.00     0.210 HD
ENDBRANCH  20  31
TORSDOF 1
ENDMDL
MODEL 3
REMARK VINA RESULT:    -4.291      3.142      6.360
REMARK INTER + INTRA:          -4.416
REMARK INTER:                  -4.416
REMARK INTRA:                   0.000
REMARK UNBOUND:                 0.000
REMARK SMILES CC1(C)CC[C@@]2(C)CC[C@]3(C)C(=CC[C@@H]4[C@]5(C)CC[C@@H](O)C(C)(C)[C@@H]5CC[C@@]43C)[C@H]2C1
REMARK SMILES IDX 1 1 2 2 4 3 5 4 6 5 8 6 9 7 10 8 12 9 13 10 14 11 15 12
REMARK SMILES IDX 28 13 27 14 26 15 25 16 16 17 18 18 19 19 20 20 22 21 23 22
REMARK SMILES IDX 24 23 17 24 29 25 30 26 31 27 11 28 7 29 3 30 21 31
REMARK H PARENT 21 32
REMARK Flexibility Score: inf
ROOT
ATOM      1  C   UNL     1       8.219  45.693  10.886  1.00  0.00     0.011 C 
ATOM      2  C   UNL     1       9.146  44.744  11.679  1.00  0.00    -0.035 C 
ATOM      3  C   UNL     1       9.040  43.325  11.080  1.00  0.00     0.007 C 
ATOM      4  C   UNL     1       9.874  43.162   9.802  1.00  0.00     0.008 C 
ATOM      5  C   UNL     1      11.389  43.432  10.017  1.00  0.00    -0.026 C 
ATOM      6  C   UNL     1      12.126  43.142   8.659  1.00  0.00     0.008 C 
ATOM      7  C   UNL     1      12.219  44.318   7.658  1.00  0.00     0.012 C 
ATOM      8  C   UNL     1      12.712  45.653   8.290  1.00  0.00    -0.006 C 
ATOM      9  C   UNL     1      11.700  45.914   9.407  1.00  0.00    -0.064 C 
ATOM     10  C   UNL     1      10.700  46.773   9.183  1.00  0.00    -0.027 C 
ATOM     11  C   UNL     1      10.283  47.114   7.790  1.00  0.00     0.032 C 
ATOM     12  C   UNL     1      11.448  47.734   7.016  1.00  0.00     0.006 C 
ATOM     13  C   UNL     1      12.819  46.932   7.249  1.00  0.00    -0.020 C 
ATOM     14  C   UNL     1      13.435  46.500   5.881  1.00  0.00     0.008 C 
ATOM     15  C   UNL     1      12.396  46.027   4.864  1.00  0.00     0.005 C 
ATOM     16  C   UNL     1      11.453  47.155   4.373  1.00  0.00     0.003 C 
ATOM     17  C   UNL     1      11.113  48.216   5.514  1.00  0.00    -0.025 C 
ATOM     18  C   UNL     1       9.626  48.677   5.397  1.00  0.00     0.010 C 
ATOM     19  C   UNL     1       9.220  49.002   3.966  1.00  0.00     0.033 C 
ATOM     20  C   UNL     1       9.167  47.724   3.112  1.00  0.00     0.120 C 
ATOM     21  C   UNL     1      10.238  46.600   3.481  1.00  0.00    -0.006 C 
ATOM     22  C   UNL     1       9.479  45.430   4.185  1.00  0.00     0.014 C 
ATOM     23  C   UNL     1      10.816  46.001   2.161  1.00  0.00     0.014 C 
ATOM     24  C   UNL     1      11.980  49.499   5.254  1.00  0.00     0.012 C 
ATOM     25  C   UNL     1      13.819  47.977   7.856  1.00  0.00     0.012 C 
ATOM     26  C   UNL     1      11.607  44.895  10.559  1.00  0.00     0.022 C 
ATOM     27  C   UNL     1      10.640  45.245  11.747  1.00  0.00     0.015 C 
ATOM     28  C   UNL     1      14.125  45.375   8.920  1.00  0.00     0.017 C 
ATOM     29  C   UNL     1      11.959  42.416  11.043  1.00  0.00     0.012 C 
ATOM     30  C   UNL     1       8.587  44.713  13.123  1.00  0.00     0.011 C 
ENDROOT
BRANCH  20  31
ATOM     31  O   UNL     1       9.158  48.055   1.735  1.00  0.00    -0.393 OA
ATOM     32  H   UNL     1       9.713  48.876   1.612  1.00  0.00     0.210 HD
ENDBRANCH  20  31
TORSDOF 1
ENDMDL
MODEL 4
REMARK VINA RESULT:    -4.029      2.925      6.101
REMARK INTER + INTRA:          -4.146
REMARK INTER:                  -4.146
REMARK INTRA:                   0.000
REMARK UNBOUND:                 0.000
REMARK SMILES CC1(C)CC[C@@]2(C)CC[C@]3(C)C(=CC[C@@H]4[C@]5(C)CC[C@@H](O)C(C)(C)[C@@H]5CC[C@@]43C)[C@H]2C1
REMARK SMILES IDX 1 1 2 2 4 3 5 4 6 5 8 6 9 7 10 8 12 9 13 10 14 11 15 12
REMARK SMILES IDX 28 13 27 14 26 15 25 16 16 17 18 18 19 19 20 20 22 21 23 22
REMARK SMILES IDX 24 23 17 24 29 25 30 26 31 27 11 28 7 29 3 30 21 31
REMARK H PARENT 21 32
REMARK Flexibility Score: inf
ROOT
ATOM      1  C   UNL     1       8.795  43.696   9.981  1.00  0.00     0.011 C 
ATOM      2  C   UNL     1       9.922  43.520  11.023  1.00  0.00    -0.035 C 
ATOM      3  C   UNL     1      10.954  42.509  10.479  1.00  0.00     0.007 C 
ATOM      4  C   UNL     1      11.915  43.138   9.461  1.00  0.00     0.008 C 
ATOM      5  C   UNL     1      12.733  44.325  10.041  1.00  0.00    -0.026 C 
ATOM      6  C   UNL     1      13.732  44.809   8.927  1.00  0.00     0.008 C 
ATOM      7  C   UNL     1      13.199  45.867   7.933  1.00  0.00     0.012 C 
ATOM      8  C   UNL     1      12.486  47.074   8.612  1.00  0.00    -0.006 C 
ATOM      9  C   UNL     1      11.368  46.419   9.424  1.00  0.00    -0.064 C 
ATOM     10  C   UNL     1      10.131  46.398   8.917  1.00  0.00    -0.027 C 
ATOM     11  C   UNL     1       9.903  46.565   7.450  1.00  0.00     0.032 C 
ATOM     12  C   UNL     1      10.448  47.912   6.971  1.00  0.00     0.006 C 
ATOM     13  C   UNL     1      11.901  48.223   7.577  1.00  0.00    -0.020 C 
ATOM     14  C   UNL     1      12.915  48.523   6.429  1.00  0.00     0.008 C 
ATOM     15  C   UNL     1      12.737  47.628   5.204  1.00  0.00     0.005 C 
ATOM     16  C   UNL     1      11.410  47.878   4.442  1.00  0.00     0.003 C 
ATOM     17  C   UNL     1      10.201  48.252   5.413  1.00  0.00    -0.025 C 
ATOM     18  C   UNL     1       8.879  47.599   4.904  1.00  0.00     0.010 C 
ATOM     19  C   UNL     1       8.677  47.767   3.404  1.00  0.00     0.033 C 
ATOM     20  C   UNL     1       9.702  46.929   2.620  1.00  0.00     0.120 C 
ATOM     21  C   UNL     1      11.140  46.785   3.297  1.00  0.00    -0.006 C 
ATOM     22  C   UNL     1      11.271  45.324   3.835  1.00  0.00     0.014 C 
ATOM     23  C   UNL     1      12.234  46.933   2.193  1.00  0.00     0.014 C 
ATOM     24  C   UNL     1       9.974  49.803   5.327  1.00  0.00     0.012 C 
ATOM     25  C   UNL     1      11.745  49.567   8.372  1.00  0.00     0.012 C 
ATOM     26  C   UNL     1      11.762  45.453  10.557  1.00  0.00     0.022 C 
ATOM     27  C   UNL     1      10.598  44.881  11.446  1.00  0.00     0.015 C 
ATOM     28  C   UNL     1      13.524  47.736   9.590  1.00  0.00     0.017 C 
ATOM     29  C   UNL     1      13.611  43.827  11.221  1.00  0.00     0.012 C 
ATOM     30  C   UNL     1       9.250  42.913  12.278  1.00  0.00     0.011 C 
ENDROOT
BRANCH  20  31
ATOM     31  O   UNL     1       9.759  47.362   1.273  1.00  0.00    -0.393 OA
ATOM     32  H   UNL     1      10.497  48.030   1.195  1.00  0.00     0.210 HD
ENDBRANCH  20  31
TORSDOF 1
ENDMDL
MODEL 5
REMARK VINA RESULT:    -3.841      2.550      7.208
REMARK INTER + INTRA:          -3.954
REMARK INTER:                  -3.954
REMARK INTRA:                   0.000
REMARK UNBOUND:                 0.000
REMARK SMILES CC1(C)CC[C@@]2(C)CC[C@]3(C)C(=CC[C@@H]4[C@]5(C)CC[C@@H](O)C(C)(C)[C@@H]5CC[C@@]43C)[C@H]2C1
REMARK SMILES IDX 1 1 2 2 4 3 5 4 6 5 8 6 9 7 10 8 12 9 13 10 14 11 15 12
REMARK SMILES IDX 28 13 27 14 26 15 25 16 16 17 18 18 19 19 20 20 22 21 23 22
REMARK SMILES IDX 24 23 17 24 29 25 30 26 31 27 11 28 7 29 3 30 21 31
REMARK H PARENT 21 32
REMARK Flexibility Score: inf
ROOT
ATOM      1  C   UNL     1      13.382  51.963   2.855  1.00  0.00     0.011 C 
ATOM      2  C   UNL     1      13.068  51.727   1.361  1.00  0.00    -0.035 C 
ATOM      3  C   UNL     1      14.125  50.767   0.773  1.00  0.00     0.007 C 
ATOM      4  C   UNL     1      13.847  49.299   1.122  1.00  0.00     0.008 C 
ATOM      5  C   UNL     1      12.469  48.795   0.610  1.00  0.00    -0.026 C 
ATOM      6  C   UNL     1      12.359  47.265   0.955  1.00  0.00     0.008 C 
ATOM      7  C   UNL     1      11.793  46.910   2.349  1.00  0.00     0.012 C 
ATOM      8  C   UNL     1      10.480  47.665   2.713  1.00  0.00    -0.006 C 
ATOM      9  C   UNL     1      10.871  49.139   2.597  1.00  0.00    -0.064 C 
ATOM     10  C   UNL     1      11.175  49.813   3.711  1.00  0.00    -0.027 C 
ATOM     11  C   UNL     1      11.586  49.093   4.953  1.00  0.00     0.032 C 
ATOM     12  C   UNL     1      10.477  48.147   5.418  1.00  0.00     0.006 C 
ATOM     13  C   UNL     1       9.849  47.311   4.200  1.00  0.00    -0.020 C 
ATOM     14  C   UNL     1       9.920  45.781   4.497  1.00  0.00     0.008 C 
ATOM     15  C   UNL     1      11.219  45.348   5.176  1.00  0.00     0.005 C 
ATOM     16  C   UNL     1      11.375  45.895   6.619  1.00  0.00     0.003 C 
ATOM     17  C   UNL     1      10.762  47.357   6.795  1.00  0.00    -0.025 C 
ATOM     18  C   UNL     1      11.660  48.207   7.748  1.00  0.00     0.010 C 
ATOM     19  C   UNL     1      12.079  47.446   8.998  1.00  0.00     0.033 C 
ATOM     20  C   UNL     1      13.065  46.320   8.644  1.00  0.00     0.120 C 
ATOM     21  C   UNL     1      12.834  45.616   7.231  1.00  0.00    -0.006 C 
ATOM     22  C   UNL     1      13.973  46.086   6.270  1.00  0.00     0.014 C 
ATOM     23  C   UNL     1      13.023  44.076   7.396  1.00  0.00     0.014 C 
ATOM     24  C   UNL     1       9.378  47.216   7.523  1.00  0.00     0.012 C 
ATOM     25  C   UNL     1       8.322  47.674   4.184  1.00  0.00     0.012 C 
ATOM     26  C   UNL     1      11.310  49.670   1.220  1.00  0.00     0.022 C 
ATOM     27  C   UNL     1      11.598  51.211   1.106  1.00  0.00     0.015 C 
ATOM     28  C   UNL     1       9.422  47.316   1.604  1.00  0.00     0.017 C 
ATOM     29  C   UNL     1      12.422  48.892  -0.939  1.00  0.00     0.012 C 
ATOM     30  C   UNL     1      13.214  53.105   0.672  1.00  0.00     0.011 C 
ENDROOT
BRANCH  20  31
ATOM     31  O   UNL     1      13.163  45.399   9.716  1.00  0.00    -0.393 OA
ATOM     32  H   UNL     1      12.238  45.173  10.013  1.00  0.00     0.210 HD
ENDBRANCH  20  31
TORSDOF 1
ENDMDL
MODEL 6
REMARK VINA RESULT:    -3.819      1.931      4.279
REMARK INTER + INTRA:          -3.931
REMARK INTER:                  -3.931
REMARK INTRA:                   0.000
REMARK UNBOUND:                 0.000
REMARK SMILES CC1(C)CC[C@@]2(C)CC[C@]3(C)C(=CC[C@@H]4[C@]5(C)CC[C@@H](O)C(C)(C)[C@@H]5CC[C@@]43C)[C@H]2C1
REMARK SMILES IDX 1 1 2 2 4 3 5 4 6 5 8 6 9 7 10 8 12 9 13 10 14 11 15 12
REMARK SMILES IDX 28 13 27 14 26 15 25 16 16 17 18 18 19 19 20 20 22 21 23 22
REMARK SMILES IDX 24 23 17 24 29 25 30 26 31 27 11 28 7 29 3 30 21 31
REMARK H PARENT 21 32
REMARK Flexibility Score: inf
ROOT
ATOM      1  C   UNL     1       8.729  47.088   6.731  1.00  0.00     0.011 C 
ATOM      2  C   UNL     1      10.004  46.713   7.518  1.00  0.00    -0.035 C 
ATOM      3  C   UNL     1      10.466  45.306   7.080  1.00  0.00     0.007 C 
ATOM      4  C   UNL     1      11.225  45.323   5.747  1.00  0.00     0.008 C 
ATOM      5  C   UNL     1      12.501  46.210   5.777  1.00  0.00    -0.026 C 
ATOM      6  C   UNL     1      13.221  46.063   4.387  1.00  0.00     0.008 C 
ATOM      7  C   UNL     1      12.767  47.029   3.268  1.00  0.00     0.012 C 
ATOM      8  C   UNL     1      12.693  48.521   3.707  1.00  0.00    -0.006 C 
ATOM      9  C   UNL     1      11.723  48.498   4.889  1.00  0.00    -0.064 C 
ATOM     10  C   UNL     1      10.447  48.840   4.682  1.00  0.00    -0.027 C 
ATOM     11  C   UNL     1       9.855  48.791   3.311  1.00  0.00     0.032 C 
ATOM     12  C   UNL     1      10.617  49.719   2.363  1.00  0.00     0.006 C 
ATOM     13  C   UNL     1      12.207  49.580   2.534  1.00  0.00    -0.020 C 
ATOM     14  C   UNL     1      12.876  49.254   1.162  1.00  0.00     0.008 C 
ATOM     15  C   UNL     1      12.076  48.269   0.310  1.00  0.00     0.005 C 
ATOM     16  C   UNL     1      10.726  48.841  -0.194  1.00  0.00     0.003 C 
ATOM     17  C   UNL     1      10.036  49.817   0.862  1.00  0.00    -0.025 C 
ATOM     18  C   UNL     1       8.488  49.615   0.852  1.00  0.00     0.010 C 
ATOM     19  C   UNL     1       7.911  49.551  -0.556  1.00  0.00     0.033 C 
ATOM     20  C   UNL     1       8.349  48.259  -1.266  1.00  0.00     0.120 C 
ATOM     21  C   UNL     1       9.806  47.726  -0.895  1.00  0.00    -0.006 C 
ATOM     22  C   UNL     1       9.638  46.455  -0.002  1.00  0.00     0.014 C 
ATOM     23  C   UNL     1      10.513  47.240  -2.199  1.00  0.00     0.014 C 
ATOM     24  C   UNL     1      10.278  51.293   0.386  1.00  0.00     0.012 C 
ATOM     25  C   UNL     1      12.714  51.013   2.927  1.00  0.00     0.012 C 
ATOM     26  C   UNL     1      12.121  47.695   6.142  1.00  0.00     0.022 C 
ATOM     27  C   UNL     1      11.158  47.780   7.381  1.00  0.00     0.015 C 
ATOM     28  C   UNL     1      14.125  48.928   4.213  1.00  0.00     0.017 C 
ATOM     29  C   UNL     1      13.493  45.661   6.837  1.00  0.00     0.012 C 
ATOM     30  C   UNL     1       9.584  46.654   9.006  1.00  0.00     0.011 C 
ENDROOT
BRANCH  20  31
ATOM     31  O   UNL     1       8.133  48.369  -2.661  1.00  0.00    -0.393 OA
ATOM     32  H   UNL     1       8.841  47.841  -3.125  1.00  0.00     0.210 HD
ENDBRANCH  20  31
TORSDOF 1
ENDMDL
MODEL 7
REMARK VINA RESULT:    -3.638      5.946     10.244
REMARK INTER + INTRA:          -3.745
REMARK INTER:                  -3.745
REMARK INTRA:                   0.000
REMARK UNBOUND:                 0.000
REMARK SMILES CC1(C)CC[C@@]2(C)CC[C@]3(C)C(=CC[C@@H]4[C@]5(C)CC[C@@H](O)C(C)(C)[C@@H]5CC[C@@]43C)[C@H]2C1
REMARK SMILES IDX 1 1 2 2 4 3 5 4 6 5 8 6 9 7 10 8 12 9 13 10 14 11 15 12
REMARK SMILES IDX 28 13 27 14 26 15 25 16 16 17 18 18 19 19 20 20 22 21 23 22
REMARK SMILES IDX 24 23 17 24 29 25 30 26 31 27 11 28 7 29 3 30 21 31
REMARK H PARENT 21 32
REMARK Flexibility Score: inf
ROOT
ATOM      1  C   UNL     1       6.576  41.484  10.550  1.00  0.00     0.011 C 
ATOM      2  C   UNL     1       6.852  40.053  11.063  1.00  0.00    -0.035 C 
ATOM      3  C   UNL     1       7.269  39.166   9.871  1.00  0.00     0.007 C 
ATOM      4  C   UNL     1       8.737  39.366   9.473  1.00  0.00     0.008 C 
ATOM      5  C   UNL     1       9.735  39.049  10.621  1.00  0.00    -0.026 C 
ATOM      6  C   UNL     1      11.191  39.207  10.050  1.00  0.00     0.008 C 
ATOM      7  C   UNL     1      11.809  40.624  10.117  1.00  0.00     0.012 C 
ATOM      8  C   UNL     1      11.673  41.312  11.508  1.00  0.00    -0.006 C 
ATOM      9  C   UNL     1      10.163  41.319  11.756  1.00  0.00    -0.064 C 
ATOM     10  C   UNL     1       9.475  42.437  11.504  1.00  0.00    -0.027 C 
ATOM     11  C   UNL     1      10.022  43.482  10.587  1.00  0.00     0.032 C 
ATOM     12  C   UNL     1      11.358  44.012  11.112  1.00  0.00     0.006 C 
ATOM     13  C   UNL     1      12.320  42.829  11.613  1.00  0.00    -0.020 C 
ATOM     14  C   UNL     1      13.701  42.909  10.890  1.00  0.00     0.008 C 
ATOM     15  C   UNL     1      13.598  43.281   9.411  1.00  0.00     0.005 C 
ATOM     16  C   UNL     1      13.101  44.731   9.172  1.00  0.00     0.003 C 
ATOM     17  C   UNL     1      12.025  45.201  10.251  1.00  0.00    -0.025 C 
ATOM     18  C   UNL     1      10.928  46.079   9.571  1.00  0.00     0.010 C 
ATOM     19  C   UNL     1      11.509  47.125   8.629  1.00  0.00     0.033 C 
ATOM     20  C   UNL     1      12.118  46.457   7.385  1.00  0.00     0.120 C 
ATOM     21  C   UNL     1      12.789  45.029   7.624  1.00  0.00    -0.006 C 
ATOM     22  C   UNL     1      11.853  43.948   6.994  1.00  0.00     0.014 C 
ATOM     23  C   UNL     1      14.125  44.957   6.820  1.00  0.00     0.014 C 
ATOM     24  C   UNL     1      12.751  46.142  11.277  1.00  0.00     0.012 C 
ATOM     25  C   UNL     1      12.611  43.136  13.124  1.00  0.00     0.012 C 
ATOM     26  C   UNL     1       9.437  39.966  11.867  1.00  0.00     0.022 C 
ATOM     27  C   UNL     1       7.909  40.002  12.233  1.00  0.00     0.015 C 
ATOM     28  C   UNL     1      12.371  40.375  12.560  1.00  0.00     0.017 C 
ATOM     29  C   UNL     1       9.595  37.560  11.037  1.00  0.00     0.012 C 
ATOM     30  C   UNL     1       5.503  39.533  11.617  1.00  0.00     0.011 C 
ENDROOT
BRANCH  20  31
ATOM     31  O   UNL     1      12.968  47.366   6.707  1.00  0.00    -0.393 OA
ATOM     32  H   UNL     1      12.495  48.242   6.645  1.00  0.00     0.210 HD
ENDBRANCH  20  31
TORSDOF 1
ENDMDL
MODEL 8
REMARK VINA RESULT:    -3.536      4.073      8.275
REMARK INTER + INTRA:          -3.640
REMARK INTER:                  -3.640
REMARK INTRA:                   0.000
REMARK UNBOUND:                 0.000
REMARK SMILES CC1(C)CC[C@@]2(C)CC[C@]3(C)C(=CC[C@@H]4[C@]5(C)CC[C@@H](O)C(C)(C)[C@@H]5CC[C@@]43C)[C@H]2C1
REMARK SMILES IDX 1 1 2 2 4 3 5 4 6 5 8 6 9 7 10 8 12 9 13 10 14 11 15 12
REMARK SMILES IDX 28 13 27 14 26 15 25 16 16 17 18 18 19 19 20 20 22 21 23 22
REMARK SMILES IDX 24 23 17 24 29 25 30 26 31 27 11 28 7 29 3 30 21 31
REMARK H PARENT 21 32
REMARK Flexibility Score: inf
ROOT
ATOM      1  C   UNL     1       8.551  41.938  10.736  1.00  0.00     0.011 C 
ATOM      2  C   UNL     1       9.467  41.123  11.676  1.00  0.00    -0.035 C 
ATOM      3  C   UNL     1      10.283  40.120  10.833  1.00  0.00     0.007 C 
ATOM      4  C   UNL     1      11.484  40.774  10.138  1.00  0.00     0.008 C 
ATOM      5  C   UNL     1      12.487  41.428  11.129  1.00  0.00    -0.026 C 
ATOM      6  C   UNL     1      13.701  41.974  10.292  1.00  0.00     0.008 C 
ATOM      7  C   UNL     1      13.565  43.408   9.731  1.00  0.00     0.012 C 
ATOM      8  C   UNL     1      13.086  44.457  10.777  1.00  0.00    -0.006 C 
ATOM      9  C   UNL     1      11.752  43.891  11.268  1.00  0.00    -0.064 C 
ATOM     10  C   UNL     1      10.618  44.377  10.752  1.00  0.00    -0.027 C 
ATOM     11  C   UNL     1      10.617  45.086   9.438  1.00  0.00     0.032 C 
ATOM     12  C   UNL     1      11.525  46.317   9.490  1.00  0.00     0.006 C 
ATOM     13  C   UNL     1      12.925  46.001  10.209  1.00  0.00    -0.020 C 
ATOM     14  C   UNL     1      14.114  46.389   9.275  1.00  0.00     0.008 C 
ATOM     15  C   UNL     1      13.876  46.046   7.805  1.00  0.00     0.005 C 
ATOM     16  C   UNL     1      12.752  46.886   7.148  1.00  0.00     0.003 C 
ATOM     17  C   UNL     1      11.560  47.218   8.153  1.00  0.00    -0.025 C 
ATOM     18  C   UNL     1      10.191  47.157   7.406  1.00  0.00     0.010 C 
ATOM     19  C   UNL     1      10.220  47.872   6.062  1.00  0.00     0.033 C 
ATOM     20  C   UNL     1      11.101  47.108   5.059  1.00  0.00     0.120 C 
ATOM     21  C   UNL     1      12.368  46.363   5.678  1.00  0.00    -0.006 C 
ATOM     22  C   UNL     1      12.077  44.828   5.659  1.00  0.00     0.014 C 
ATOM     23  C   UNL     1      13.591  46.577   4.733  1.00  0.00     0.014 C 
ATOM     24  C   UNL     1      11.724  48.707   8.624  1.00  0.00     0.012 C 
ATOM     25  C   UNL     1      13.002  46.985  11.429  1.00  0.00     0.012 C 
ATOM     26  C   UNL     1      11.761  42.530  11.988  1.00  0.00     0.022 C 
ATOM     27  C   UNL     1      10.394  42.025  12.579  1.00  0.00     0.015 C 
ATOM     28  C   UNL     1      14.125  44.444  11.957  1.00  0.00     0.017 C 
ATOM     29  C   UNL     1      13.068  40.342  12.074  1.00  0.00     0.012 C 
ATOM     30  C   UNL     1       8.520  40.330  12.609  1.00  0.00     0.011 C 
ENDROOT
BRANCH  20  31
ATOM     31  O   UNL     1      11.425  47.941   3.959  1.00  0.00    -0.393 OA
ATOM     32  H   UNL     1      11.635  47.354   3.180  1.00  0.00     0.210 HD
ENDBRANCH  20  31
TORSDOF 1
ENDMDL
MODEL 9
REMARK VINA RESULT:    -3.504      5.704     11.025
REMARK INTER + INTRA:          -3.606
REMARK INTER:                  -3.606
REMARK INTRA:                   0.000
REMARK UNBOUND:                 0.000
REMARK SMILES CC1(C)CC[C@@]2(C)CC[C@]3(C)C(=CC[C@@H]4[C@]5(C)CC[C@@H](O)C(C)(C)[C@@H]5CC[C@@]43C)[C@H]2C1
REMARK SMILES IDX 1 1 2 2 4 3 5 4 6 5 8 6 9 7 10 8 12 9 13 10 14 11 15 12
REMARK SMILES IDX 28 13 27 14 26 15 25 16 16 17 18 18 19 19 20 20 22 21 23 22
REMARK SMILES IDX 24 23 17 24 29 25 30 26 31 27 11 28 7 29 3 30 21 31
REMARK H PARENT 21 32
REMARK Flexibility Score: inf
ROOT
ATOM      1  C   UNL     1      12.442  44.360   5.565  1.00  0.00     0.011 C 
ATOM      2  C   UNL     1      12.040  45.784   6.010  1.00  0.00    -0.035 C 
ATOM      3  C   UNL     1      10.499  45.874   6.067  1.00  0.00     0.007 C 
ATOM      4  C   UNL     1       9.920  45.250   7.344  1.00  0.00     0.008 C 
ATOM      5  C   UNL     1      10.444  45.917   8.646  1.00  0.00    -0.026 C 
ATOM      6  C   UNL     1       9.704  45.245   9.860  1.00  0.00     0.008 C 
ATOM      7  C   UNL     1      10.351  43.966  10.441  1.00  0.00     0.012 C 
ATOM      8  C   UNL     1      11.879  44.094  10.715  1.00  0.00    -0.006 C 
ATOM      9  C   UNL     1      12.456  44.474   9.351  1.00  0.00    -0.064 C 
ATOM     10  C   UNL     1      13.008  43.518   8.597  1.00  0.00    -0.027 C 
ATOM     11  C   UNL     1      12.675  42.079   8.821  1.00  0.00     0.032 C 
ATOM     12  C   UNL     1      13.053  41.656  10.242  1.00  0.00     0.006 C 
ATOM     13  C   UNL     1      12.603  42.743  11.334  1.00  0.00    -0.020 C 
ATOM     14  C   UNL     1      11.716  42.076  12.432  1.00  0.00     0.008 C 
ATOM     15  C   UNL     1      10.734  41.043  11.882  1.00  0.00     0.005 C 
ATOM     16  C   UNL     1      11.422  39.778  11.307  1.00  0.00     0.003 C 
ATOM     17  C   UNL     1      12.813  40.101  10.596  1.00  0.00    -0.025 C 
ATOM     18  C   UNL     1      12.990  39.208   9.329  1.00  0.00     0.010 C 
ATOM     19  C   UNL     1      12.630  37.750   9.578  1.00  0.00     0.033 C 
ATOM     20  C   UNL     1      11.115  37.595   9.799  1.00  0.00     0.120 C 
ATOM     21  C   UNL     1      10.395  38.811  10.539  1.00  0.00    -0.006 C 
ATOM     22  C   UNL     1       9.545  39.581   9.478  1.00  0.00     0.014 C 
ATOM     23  C   UNL     1       9.374  38.240  11.572  1.00  0.00     0.014 C 
ATOM     24  C   UNL     1      13.965  39.684  11.578  1.00  0.00     0.012 C 
ATOM     25  C   UNL     1      13.924  43.182  12.059  1.00  0.00     0.012 C 
ATOM     26  C   UNL     1      12.013  45.807   8.718  1.00  0.00     0.022 C 
ATOM     27  C   UNL     1      12.706  46.224   7.371  1.00  0.00     0.015 C 
ATOM     28  C   UNL     1      12.072  45.291  11.716  1.00  0.00     0.017 C 
ATOM     29  C   UNL     1      10.034  47.414   8.667  1.00  0.00     0.012 C 
ATOM     30  C   UNL     1      12.549  46.736   4.901  1.00  0.00     0.011 C 
ENDROOT
BRANCH  20  31
ATOM     31  O   UNL     1      10.833  36.337  10.387  1.00  0.00    -0.393 OA
ATOM     32  H   UNL     1      11.344  36.274  11.241  1.00  0.00     0.210 HD
ENDBRANCH  20  31
TORSDOF 1
ENDMDL
