MODEL 1
REMARK VINA RESULT:    -3.549      0.000      0.000
REMARK INTER + INTRA:          -5.401
REMARK INTER:                  -5.104
REMARK INTRA:                  -0.296
REMARK UNBOUND:                -0.296
REMARK SMILES CCCCCCCCCO
REMARK SMILES IDX 6 1 5 2 4 3 3 4 2 5 1 6 7 7 8 8 9 9 10 10
REMARK H PARENT 10 11
REMARK Flexibility Score: inf
ROOT
ATOM      1  C   UNL     1     -10.390  28.040 -37.514  1.00  0.00     0.000 C 
ENDROOT
BRANCH   1   2
ATOM      2  C   UNL     1     -10.219  29.439 -36.897  1.00  0.00     0.000 C 
BRANCH   2   3
ATOM      3  C   UNL     1     -11.217  30.461 -37.466  1.00  0.00    -0.000 C 
BRANCH   3   4
ATOM      4  C   UNL     1     -11.033  31.866 -36.867  1.00  0.00    -0.000 C 
BRANCH   4   5
ATOM      5  C   UNL     1      -9.657  32.049 -36.208  1.00  0.00    -0.003 C 
ATOM      6  C   UNL     1      -8.704  32.890 -37.057  1.00  0.00     0.004 C 
ENDBRANCH   4   5
ENDBRANCH   3   4
ENDBRANCH   2   3
ENDBRANCH   1   2
BRANCH   1   7
ATOM      7  C   UNL     1     -10.694  26.963 -36.460  1.00  0.00     0.002 C 
BRANCH   7   8
ATOM      8  C   UNL     1      -9.989  27.229 -35.119  1.00  0.00     0.028 C 
BRANCH   8   9
ATOM      9  C   UNL     1      -9.268  25.983 -34.603  1.00  0.00     0.156 C 
BRANCH   9  10
ATOM     10  O   UNL     1      -9.842  25.557 -33.399  1.00  0.00    -0.396 OA
ATOM     11  H   UNL     1     -10.808  25.430 -33.584  1.00  0.00     0.210 HD
ENDBRANCH   9  10
ENDBRANCH   8   9
ENDBRANCH   7   8
ENDBRANCH   1   7
TORSDOF 8
ENDMDL
MODEL 2
REMARK VINA RESULT:    -3.472     11.300     12.612
REMARK INTER + INTRA:          -5.291
REMARK INTER:                  -4.581
REMARK INTRA:                  -0.709
REMARK UNBOUND:                -0.296
REMARK SMILES CCCCCCCCCO
REMARK SMILES IDX 6 1 5 2 4 3 3 4 2 5 1 6 7 7 8 8 9 9 10 10
REMARK H PARENT 10 11
REMARK Flexibility Score: inf
ROOT
ATOM      1  C   UNL     1      -1.419  31.362 -45.764  1.00  0.00     0.000 C 
ENDROOT
BRANCH   1   2
ATOM      2  C   UNL     1      -0.080  31.979 -45.325  1.00  0.00     0.000 C 
BRANCH   2   3
ATOM      3  C   UNL     1       0.121  31.928 -43.802  1.00  0.00    -0.000 C 
BRANCH   3   4
ATOM      4  C   UNL     1      -1.198  32.067 -43.023  1.00  0.00    -0.000 C 
BRANCH   4   5
ATOM      5  C   UNL     1      -1.489  30.846 -42.137  1.00  0.00    -0.003 C 
ATOM      6  C   UNL     1      -0.455  29.734 -42.308  1.00  0.00     0.004 C 
ENDBRANCH   4   5
ENDBRANCH   3   4
ENDBRANCH   2   3
ENDBRANCH   1   2
BRANCH   1   7
ATOM      7  C   UNL     1      -1.323  29.844 -45.992  1.00  0.00     0.002 C 
BRANCH   7   8
ATOM      8  C   UNL     1      -2.473  29.070 -45.326  1.00  0.00     0.028 C 
BRANCH   8   9
ATOM      9  C   UNL     1      -3.634  28.840 -46.295  1.00  0.00     0.156 C 
BRANCH   9  10
ATOM     10  O   UNL     1      -4.587  29.857 -46.156  1.00  0.00    -0.396 OA
ATOM     11  H   UNL     1      -5.119  29.627 -45.351  1.00  0.00     0.210 HD
ENDBRANCH   9  10
ENDBRANCH   8   9
ENDBRANCH   7   8
ENDBRANCH   1   7
TORSDOF 8
ENDMDL
MODEL 3
REMARK VINA RESULT:    -3.421     11.261     12.747
REMARK INTER + INTRA:          -5.217
REMARK INTER:                  -4.715
REMARK INTRA:                  -0.502
REMARK UNBOUND:                -0.296
REMARK SMILES CCCCCCCCCO
REMARK SMILES IDX 6 1 5 2 4 3 3 4 2 5 1 6 7 7 8 8 9 9 10 10
REMARK H PARENT 10 11
REMARK Flexibility Score: inf
ROOT
ATOM      1  C   UNL     1      -1.706  30.478 -42.669  1.00  0.00     0.000 C 
ENDROOT
BRANCH   1   2
ATOM      2  C   UNL     1      -0.368  29.843 -42.256  1.00  0.00     0.000 C 
BRANCH   2   3
ATOM      3  C   UNL     1      -0.246  28.378 -42.707  1.00  0.00    -0.000 C 
BRANCH   3   4
ATOM      4  C   UNL     1      -1.607  27.746 -43.046  1.00  0.00    -0.000 C 
BRANCH   4   5
ATOM      5  C   UNL     1      -1.561  26.907 -44.333  1.00  0.00    -0.003 C 
ATOM      6  C   UNL     1      -0.147  26.774 -44.900  1.00  0.00     0.004 C 
ENDBRANCH   4   5
ENDBRANCH   3   4
ENDBRANCH   2   3
ENDBRANCH   1   2
BRANCH   1   7
ATOM      7  C   UNL     1      -1.528  31.858 -43.324  1.00  0.00     0.002 C 
BRANCH   7   8
ATOM      8  C   UNL     1      -1.246  31.767 -44.833  1.00  0.00     0.028 C 
BRANCH   8   9
ATOM      9  C   UNL     1      -1.855  30.505 -45.446  1.00  0.00     0.156 C 
BRANCH   9  10
ATOM     10  O   UNL     1      -3.186  30.742 -45.814  1.00  0.00    -0.396 OA
ATOM     11  H   UNL     1      -3.157  31.084 -46.745  1.00  0.00     0.210 HD
ENDBRANCH   9  10
ENDBRANCH   8   9
ENDBRANCH   7   8
ENDBRANCH   1   7
TORSDOF 8
ENDMDL
MODEL 4
REMARK VINA RESULT:    -3.395     11.472     12.453
REMARK INTER + INTRA:          -5.180
REMARK INTER:                  -4.505
REMARK INTRA:                  -0.675
REMARK UNBOUND:                -0.296
REMARK SMILES CCCCCCCCCO
REMARK SMILES IDX 6 1 5 2 4 3 3 4 2 5 1 6 7 7 8 8 9 9 10 10
REMARK H PARENT 10 11
REMARK Flexibility Score: inf
ROOT
ATOM      1  C   UNL     1      -1.746  27.617 -43.943  1.00  0.00     0.000 C 
ENDROOT
BRANCH   1   2
ATOM      2  C   UNL     1      -0.286  27.972 -43.614  1.00  0.00     0.000 C 
BRANCH   2   3
ATOM      3  C   UNL     1      -0.164  28.881 -42.380  1.00  0.00    -0.000 C 
BRANCH   3   4
ATOM      4  C   UNL     1      -0.078  30.373 -42.747  1.00  0.00    -0.000 C 
BRANCH   4   5
ATOM      5  C   UNL     1      -1.361  31.140 -42.392  1.00  0.00    -0.003 C 
ATOM      6  C   UNL     1      -1.305  32.609 -42.813  1.00  0.00     0.004 C 
ENDBRANCH   4   5
ENDBRANCH   3   4
ENDBRANCH   2   3
ENDBRANCH   1   2
BRANCH   1   7
ATOM      7  C   UNL     1      -2.193  28.163 -45.309  1.00  0.00     0.002 C 
BRANCH   7   8
ATOM      8  C   UNL     1      -1.125  29.048 -45.973  1.00  0.00     0.028 C 
BRANCH   8   9
ATOM      9  C   UNL     1      -1.583  30.503 -46.078  1.00  0.00     0.156 C 
BRANCH   9  10
ATOM     10  O   UNL     1      -2.919  30.619 -45.675  1.00  0.00    -0.396 OA
ATOM     11  H   UNL     1      -3.254  29.692 -45.563  1.00  0.00     0.210 HD
ENDBRANCH   9  10
ENDBRANCH   8   9
ENDBRANCH   7   8
ENDBRANCH   1   7
TORSDOF 8
ENDMDL
MODEL 5
REMARK VINA RESULT:    -3.372      1.004      1.346
REMARK INTER + INTRA:          -5.146
REMARK INTER:                  -4.934
REMARK INTRA:                  -0.212
REMARK UNBOUND:                -0.296
REMARK SMILES CCCCCCCCCO
REMARK SMILES IDX 6 1 5 2 4 3 3 4 2 5 1 6 7 7 8 8 9 9 10 10
REMARK H PARENT 10 11
REMARK Flexibility Score: inf
ROOT
ATOM      1  C   UNL     1     -10.656  29.152 -37.612  1.00  0.00     0.000 C 
ENDROOT
BRANCH   1   2
ATOM      2  C   UNL     1     -10.168  30.207 -36.604  1.00  0.00     0.000 C 
BRANCH   2   3
ATOM      3  C   UNL     1     -10.545  31.639 -37.020  1.00  0.00    -0.000 C 
BRANCH   3   4
ATOM      4  C   UNL     1      -9.613  32.699 -36.408  1.00  0.00    -0.000 C 
BRANCH   4   5
ATOM      5  C   UNL     1      -8.182  32.612 -36.960  1.00  0.00    -0.003 C 
ATOM      6  C   UNL     1      -7.762  33.874 -37.714  1.00  0.00     0.004 C 
ENDBRANCH   4   5
ENDBRANCH   3   4
ENDBRANCH   2   3
ENDBRANCH   1   2
BRANCH   1   7
ATOM      7  C   UNL     1     -11.100  27.847 -36.932  1.00  0.00     0.002 C 
BRANCH   7   8
ATOM      8  C   UNL     1     -10.068  27.323 -35.920  1.00  0.00     0.028 C 
BRANCH   8   9
ATOM      9  C   UNL     1     -10.667  27.194 -34.518  1.00  0.00     0.156 C 
BRANCH   9  10
ATOM     10  O   UNL     1     -10.134  26.073 -33.868  1.00  0.00    -0.396 OA
ATOM     11  H   UNL     1     -10.719  25.906 -33.084  1.00  0.00     0.210 HD
ENDBRANCH   9  10
ENDBRANCH   8   9
ENDBRANCH   7   8
ENDBRANCH   1   7
TORSDOF 8
ENDMDL
MODEL 6
REMARK VINA RESULT:    -3.370     11.565     13.074
REMARK INTER + INTRA:          -5.144
REMARK INTER:                  -4.582
REMARK INTRA:                  -0.562
REMARK UNBOUND:                -0.296
REMARK SMILES CCCCCCCCCO
REMARK SMILES IDX 6 1 5 2 4 3 3 4 2 5 1 6 7 7 8 8 9 9 10 10
REMARK H PARENT 10 11
REMARK Flexibility Score: inf
ROOT
ATOM      1  C   UNL     1      -1.708  31.003 -42.121  1.00  0.00     0.000 C 
ENDROOT
BRANCH   1   2
ATOM      2  C   UNL     1      -0.829  29.787 -42.460  1.00  0.00     0.000 C 
BRANCH   2   3
ATOM      3  C   UNL     1      -1.614  28.669 -43.166  1.00  0.00    -0.000 C 
BRANCH   3   4
ATOM      4  C   UNL     1      -2.151  29.100 -44.543  1.00  0.00    -0.000 C 
BRANCH   4   5
ATOM      5  C   UNL     1      -1.060  29.101 -45.624  1.00  0.00    -0.003 C 
ATOM      6  C   UNL     1      -1.626  28.927 -47.034  1.00  0.00     0.004 C 
ENDBRANCH   4   5
ENDBRANCH   3   4
ENDBRANCH   2   3
ENDBRANCH   1   2
BRANCH   1   7
ATOM      7  C   UNL     1      -1.095  32.327 -42.603  1.00  0.00     0.002 C 
BRANCH   7   8
ATOM      8  C   UNL     1       0.006  32.123 -43.657  1.00  0.00     0.028 C 
BRANCH   8   9
ATOM      9  C   UNL     1      -0.385  32.730 -45.006  1.00  0.00     0.156 C 
BRANCH   9  10
ATOM     10  O   UNL     1      -0.728  34.079 -44.847  1.00  0.00    -0.396 OA
ATOM     11  H   UNL     1      -1.236  34.331 -45.661  1.00  0.00     0.210 HD
ENDBRANCH   9  10
ENDBRANCH   8   9
ENDBRANCH   7   8
ENDBRANCH   1   7
TORSDOF 8
ENDMDL
MODEL 7
REMARK VINA RESULT:    -3.367      3.774      5.957
REMARK INTER + INTRA:          -5.140
REMARK INTER:                  -4.719
REMARK INTRA:                  -0.420
REMARK UNBOUND:                -0.296
REMARK SMILES CCCCCCCCCO
REMARK SMILES IDX 6 1 5 2 4 3 3 4 2 5 1 6 7 7 8 8 9 9 10 10
REMARK H PARENT 10 11
REMARK Flexibility Score: inf
ROOT
ATOM      1  C   UNL     1      -9.746  21.507 -35.405  1.00  0.00     0.000 C 
ENDROOT
BRANCH   1   2
ATOM      2  C   UNL     1     -10.248  22.419 -36.538  1.00  0.00     0.000 C 
BRANCH   2   3
ATOM      3  C   UNL     1      -9.224  23.500 -36.921  1.00  0.00    -0.000 C 
BRANCH   3   4
ATOM      4  C   UNL     1      -9.761  24.476 -37.984  1.00  0.00    -0.000 C 
BRANCH   4   5
ATOM      5  C   UNL     1      -9.326  25.926 -37.723  1.00  0.00    -0.003 C 
ATOM      6  C   UNL     1      -9.932  26.503 -36.444  1.00  0.00     0.004 C 
ENDBRANCH   4   5
ENDBRANCH   3   4
ENDBRANCH   2   3
ENDBRANCH   1   2
BRANCH   1   7
ATOM      7  C   UNL     1      -8.478  22.050 -34.727  1.00  0.00     0.002 C 
BRANCH   7   8
ATOM      8  C   UNL     1      -8.751  22.613 -33.322  1.00  0.00     0.028 C 
BRANCH   8   9
ATOM      9  C   UNL     1      -8.344  24.083 -33.213  1.00  0.00     0.156 C 
BRANCH   9  10
ATOM     10  O   UNL     1      -9.471  24.906 -33.332  1.00  0.00    -0.396 OA
ATOM     11  H   UNL     1      -9.876  24.692 -34.212  1.00  0.00     0.210 HD
ENDBRANCH   9  10
ENDBRANCH   8   9
ENDBRANCH   7   8
ENDBRANCH   1   7
TORSDOF 8
ENDMDL
MODEL 8
REMARK VINA RESULT:    -3.355      1.494      2.638
REMARK INTER + INTRA:          -5.121
REMARK INTER:                  -4.378
REMARK INTRA:                  -0.744
REMARK UNBOUND:                -0.296
REMARK SMILES CCCCCCCCCO
REMARK SMILES IDX 6 1 5 2 4 3 3 4 2 5 1 6 7 7 8 8 9 9 10 10
REMARK H PARENT 10 11
REMARK Flexibility Score: inf
ROOT
ATOM      1  C   UNL     1     -11.974  26.312 -35.852  1.00  0.00     0.000 C 
ENDROOT
BRANCH   1   2
ATOM      2  C   UNL     1     -12.507  27.175 -37.008  1.00  0.00     0.000 C 
BRANCH   2   3
ATOM      3  C   UNL     1     -11.616  27.102 -38.259  1.00  0.00    -0.000 C 
BRANCH   3   4
ATOM      4  C   UNL     1     -10.749  28.359 -38.444  1.00  0.00    -0.000 C 
BRANCH   4   5
ATOM      5  C   UNL     1     -11.313  29.577 -37.696  1.00  0.00    -0.003 C 
ATOM      6  C   UNL     1     -10.270  30.263 -36.814  1.00  0.00     0.004 C 
ENDBRANCH   4   5
ENDBRANCH   3   4
ENDBRANCH   2   3
ENDBRANCH   1   2
BRANCH   1   7
ATOM      7  C   UNL     1     -11.127  27.119 -34.855  1.00  0.00     0.002 C 
BRANCH   7   8
ATOM      8  C   UNL     1      -9.617  26.890 -35.036  1.00  0.00     0.028 C 
BRANCH   8   9
ATOM      9  C   UNL     1      -9.210  25.470 -34.641  1.00  0.00     0.156 C 
BRANCH   9  10
ATOM     10  O   UNL     1      -9.493  25.245 -33.287  1.00  0.00    -0.396 OA
ATOM     11  H   UNL     1      -9.345  26.112 -32.828  1.00  0.00     0.210 HD
ENDBRANCH   9  10
ENDBRANCH   8   9
ENDBRANCH   7   8
ENDBRANCH   1   7
TORSDOF 8
ENDMDL
MODEL 9
REMARK VINA RESULT:    -3.299      2.387      4.994
REMARK INTER + INTRA:          -5.041
REMARK INTER:                  -4.534
REMARK INTRA:                  -0.507
REMARK UNBOUND:                -0.296
REMARK SMILES CCCCCCCCCO
REMARK SMILES IDX 6 1 5 2 4 3 3 4 2 5 1 6 7 7 8 8 9 9 10 10
REMARK H PARENT 10 11
REMARK Flexibility Score: inf
ROOT
ATOM      1  C   UNL     1     -11.502  30.105 -37.809  1.00  0.00     0.000 C 
ENDROOT
BRANCH   1   2
ATOM      2  C   UNL     1     -11.388  28.684 -38.388  1.00  0.00     0.000 C 
BRANCH   2   3
ATOM      3  C   UNL     1     -10.349  27.827 -37.647  1.00  0.00    -0.000 C 
BRANCH   3   4
ATOM      4  C   UNL     1     -10.959  26.554 -37.035  1.00  0.00    -0.000 C 
BRANCH   4   5
ATOM      5  C   UNL     1     -11.419  26.762 -35.584  1.00  0.00    -0.003 C 
ATOM      6  C   UNL     1     -10.353  27.432 -34.717  1.00  0.00     0.004 C 
ENDBRANCH   4   5
ENDBRANCH   3   4
ENDBRANCH   2   3
ENDBRANCH   1   2
BRANCH   1   7
ATOM      7  C   UNL     1     -10.300  30.482 -36.929  1.00  0.00     0.002 C 
BRANCH   7   8
ATOM      8  C   UNL     1     -10.315  31.960 -36.505  1.00  0.00     0.028 C 
BRANCH   8   9
ATOM      9  C   UNL     1      -8.915  32.575 -36.550  1.00  0.00     0.156 C 
BRANCH   9  10
ATOM     10  O   UNL     1      -7.945  31.566 -36.563  1.00  0.00    -0.396 OA
ATOM     11  H   UNL     1      -7.263  31.848 -37.227  1.00  0.00     0.210 HD
ENDBRANCH   9  10
ENDBRANCH   8   9
ENDBRANCH   7   8
ENDBRANCH   1   7
TORSDOF 8
ENDMDL
