MODEL 1
REMARK VINA RESULT:    -4.545      0.000      0.000
REMARK INTER + INTRA:          -9.838
REMARK INTER:                  -8.531
REMARK INTRA:                  -1.307
REMARK UNBOUND:                -1.307
REMARK SMILES O=C([O-])CCCCCCCCCCCCCCC(=O)[O-]
REMARK SMILES IDX 10 1 9 2 8 3 7 4 6 5 5 6 4 7 2 8 1 9 3 10 11 11 12 12 13 13
REMARK SMILES IDX 14 14 15 15 16 16 17 17 18 18 19 19 20 20
REMARK H PARENT
REMARK Flexibility Score: inf
ROOT
ATOM      1  C   UNL     1      32.465   9.868  47.786  1.00  0.00     0.000 C 
ENDROOT
BRANCH   1   2
ATOM      2  C   UNL     1      33.944   9.614  47.459  1.00  0.00     0.000 C 
BRANCH   2   3
ATOM      3  C   UNL     1      34.140   9.370  45.958  1.00  0.00     0.000 C 
BRANCH   3   4
ATOM      4  C   UNL     1      35.095  10.406  45.351  1.00  0.00     0.000 C 
BRANCH   4   5
ATOM      5  C   UNL     1      35.639  11.352  46.430  1.00  0.00     0.000 C 
BRANCH   5   6
ATOM      6  C   UNL     1      35.906  12.775  45.906  1.00  0.00     0.006 C 
BRANCH   6   7
ATOM      7  C   UNL     1      35.917  13.853  47.004  1.00  0.00     0.053 C 
BRANCH   7   8
ATOM      8  C   UNL     1      35.598  15.217  46.474  1.00  0.00     0.041 C 
ATOM      9  O   UNL     1      34.797  15.966  47.093  1.00  0.00    -0.550 OA
ATOM     10  O   UNL     1      36.212  15.679  45.315  1.00  0.00    -0.550 OA
ENDBRANCH   7   8
ENDBRANCH   6   7
ENDBRANCH   5   6
ENDBRANCH   4   5
ENDBRANCH   3   4
ENDBRANCH   2   3
ENDBRANCH   1   2
BRANCH   1  11
ATOM     11  C   UNL     1      31.958   9.015  48.963  1.00  0.00     0.000 C 
BRANCH  11  12
ATOM     12  C   UNL     1      30.531   8.454  48.799  1.00  0.00     0.000 C 
BRANCH  12  13
ATOM     13  C   UNL     1      30.434   6.920  48.718  1.00  0.00     0.000 C 
BRANCH  13  14
ATOM     14  C   UNL     1      31.120   6.344  47.468  1.00  0.00     0.000 C 
BRANCH  14  15
ATOM     15  C   UNL     1      32.179   5.284  47.812  1.00  0.00     0.000 C 
BRANCH  15  16
ATOM     16  C   UNL     1      33.606   5.860  47.839  1.00  0.00     0.006 C 
BRANCH  16  17
ATOM     17  C   UNL     1      34.638   4.875  47.271  1.00  0.00     0.053 C 
BRANCH  17  18
ATOM     18  C   UNL     1      34.721   4.955  45.778  1.00  0.00     0.041 C 
ATOM     19  O   UNL     1      34.322   5.986  45.175  1.00  0.00    -0.550 OA
ATOM     20  O   UNL     1      35.212   3.880  45.049  1.00  0.00    -0.550 OA
ENDBRANCH  17  18
ENDBRANCH  16  17
ENDBRANCH  15  16
ENDBRANCH  14  15
ENDBRANCH  13  14
ENDBRANCH  12  13
ENDBRANCH  11  12
ENDBRANCH   1  11
TORSDOF 15
ENDMDL
MODEL 2
REMARK VINA RESULT:    -4.446      2.497      6.837
REMARK INTER + INTRA:          -9.651
REMARK INTER:                  -7.860
REMARK INTRA:                  -1.791
REMARK UNBOUND:                -1.307
REMARK SMILES O=C([O-])CCCCCCCCCCCCCCC(=O)[O-]
REMARK SMILES IDX 10 1 9 2 8 3 7 4 6 5 5 6 4 7 2 8 1 9 3 10 11 11 12 12 13 13
REMARK SMILES IDX 14 14 15 15 16 16 17 17 18 18 19 19 20 20
REMARK H PARENT
REMARK Flexibility Score: inf
ROOT
ATOM      1  C   UNL     1      32.690  10.189  48.630  1.00  0.00     0.000 C 
ENDROOT
BRANCH   1   2
ATOM      2  C   UNL     1      31.417   9.339  48.752  1.00  0.00     0.000 C 
BRANCH   2   3
ATOM      3  C   UNL     1      31.761   7.852  48.895  1.00  0.00     0.000 C 
BRANCH   3   4
ATOM      4  C   UNL     1      30.905   6.995  47.953  1.00  0.00     0.000 C 
BRANCH   4   5
ATOM      5  C   UNL     1      31.786   6.187  46.990  1.00  0.00     0.000 C 
BRANCH   5   6
ATOM      6  C   UNL     1      33.189   6.791  46.804  1.00  0.00     0.006 C 
BRANCH   6   7
ATOM      7  C   UNL     1      34.023   6.108  45.706  1.00  0.00     0.053 C 
BRANCH   7   8
ATOM      8  C   UNL     1      34.768   4.910  46.210  1.00  0.00     0.041 C 
ATOM      9  O   UNL     1      35.431   4.195  45.413  1.00  0.00    -0.550 OA
ATOM     10  O   UNL     1      34.761   4.601  47.565  1.00  0.00    -0.550 OA
ENDBRANCH   7   8
ENDBRANCH   6   7
ENDBRANCH   5   6
ENDBRANCH   4   5
ENDBRANCH   3   4
ENDBRANCH   2   3
ENDBRANCH   1   2
BRANCH   1  11
ATOM     11  C   UNL     1      33.962   9.423  49.035  1.00  0.00     0.000 C 
BRANCH  11  12
ATOM     12  C   UNL     1      35.242  10.278  49.124  1.00  0.00     0.000 C 
BRANCH  12  13
ATOM     13  C   UNL     1      35.055  11.774  48.809  1.00  0.00     0.000 C 
BRANCH  13  14
ATOM     14  C   UNL     1      36.142  12.325  47.869  1.00  0.00     0.000 C 
BRANCH  14  15
ATOM     15  C   UNL     1      36.395  11.411  46.659  1.00  0.00     0.000 C 
BRANCH  15  16
ATOM     16  C   UNL     1      35.224  11.412  45.660  1.00  0.00     0.006 C 
BRANCH  16  17
ATOM     17  C   UNL     1      34.631  10.010  45.462  1.00  0.00     0.053 C 
BRANCH  17  18
ATOM     18  C   UNL     1      34.553   9.637  44.014  1.00  0.00     0.041 C 
ATOM     19  O   UNL     1      35.343   8.780  43.537  1.00  0.00    -0.550 OA
ATOM     20  O   UNL     1      33.628  10.257  43.184  1.00  0.00    -0.550 OA
ENDBRANCH  17  18
ENDBRANCH  16  17
ENDBRANCH  15  16
ENDBRANCH  14  15
ENDBRANCH  13  14
ENDBRANCH  12  13
ENDBRANCH  11  12
ENDBRANCH   1  11
TORSDOF 15
ENDMDL
MODEL 3
REMARK VINA RESULT:    -4.326      1.221      2.041
REMARK INTER + INTRA:          -9.427
REMARK INTER:                  -8.286
REMARK INTRA:                  -1.141
REMARK UNBOUND:                -1.307
REMARK SMILES O=C([O-])CCCCCCCCCCCCCCC(=O)[O-]
REMARK SMILES IDX 10 1 9 2 8 3 7 4 6 5 5 6 4 7 2 8 1 9 3 10 11 11 12 12 13 13
REMARK SMILES IDX 14 14 15 15 16 16 17 17 18 18 19 19 20 20
REMARK H PARENT
REMARK Flexibility Score: inf
ROOT
ATOM      1  C   UNL     1      34.063   9.513  46.069  1.00  0.00     0.000 C 
ENDROOT
BRANCH   1   2
ATOM      2  C   UNL     1      35.098  10.424  45.392  1.00  0.00     0.000 C 
BRANCH   2   3
ATOM      3  C   UNL     1      35.430  11.630  46.278  1.00  0.00     0.000 C 
BRANCH   3   4
ATOM      4  C   UNL     1      36.917  11.995  46.178  1.00  0.00     0.000 C 
BRANCH   4   5
ATOM      5  C   UNL     1      37.124  13.509  46.320  1.00  0.00     0.000 C 
BRANCH   5   6
ATOM      6  C   UNL     1      35.935  14.333  45.794  1.00  0.00     0.006 C 
BRANCH   6   7
ATOM      7  C   UNL     1      36.315  15.744  45.315  1.00  0.00     0.053 C 
BRANCH   7   8
ATOM      8  C   UNL     1      35.703  16.822  46.158  1.00  0.00     0.041 C 
ATOM      9  O   UNL     1      34.749  16.553  46.933  1.00  0.00    -0.550 OA
ATOM     10  O   UNL     1      36.210  18.115  46.116  1.00  0.00    -0.550 OA
ENDBRANCH   7   8
ENDBRANCH   6   7
ENDBRANCH   5   6
ENDBRANCH   4   5
ENDBRANCH   3   4
ENDBRANCH   2   3
ENDBRANCH   1   2
BRANCH   1  11
ATOM     11  C   UNL     1      33.916   9.791  47.576  1.00  0.00     0.000 C 
BRANCH  11  12
ATOM     12  C   UNL     1      32.491   9.612  48.139  1.00  0.00     0.000 C 
BRANCH  12  13
ATOM     13  C   UNL     1      32.188   8.221  48.726  1.00  0.00     0.000 C 
BRANCH  13  14
ATOM     14  C   UNL     1      31.044   7.502  47.992  1.00  0.00     0.000 C 
BRANCH  14  15
ATOM     15  C   UNL     1      31.500   6.194  47.326  1.00  0.00     0.000 C 
BRANCH  15  16
ATOM     16  C   UNL     1      32.951   5.822  47.683  1.00  0.00     0.006 C 
BRANCH  16  17
ATOM     17  C   UNL     1      33.880   5.882  46.463  1.00  0.00     0.053 C 
BRANCH  17  18
ATOM     18  C   UNL     1      34.943   4.829  46.519  1.00  0.00     0.041 C 
ATOM     19  O   UNL     1      35.622   4.670  47.567  1.00  0.00    -0.550 OA
ATOM     20  O   UNL     1      35.206   4.044  45.404  1.00  0.00    -0.550 OA
ENDBRANCH  17  18
ENDBRANCH  16  17
ENDBRANCH  15  16
ENDBRANCH  14  15
ENDBRANCH  13  14
ENDBRANCH  12  13
ENDBRANCH  11  12
ENDBRANCH   1  11
TORSDOF 15
ENDMDL
MODEL 4
REMARK VINA RESULT:    -4.324     18.057     20.241
REMARK INTER + INTRA:          -9.422
REMARK INTER:                  -7.995
REMARK INTRA:                  -1.427
REMARK UNBOUND:                -1.307
REMARK SMILES O=C([O-])CCCCCCCCCCCCCCC(=O)[O-]
REMARK SMILES IDX 10 1 9 2 8 3 7 4 6 5 5 6 4 7 2 8 1 9 3 10 11 11 12 12 13 13
REMARK SMILES IDX 14 14 15 15 16 16 17 17 18 18 19 19 20 20
REMARK H PARENT
REMARK Flexibility Score: inf
ROOT
ATOM      1  C   UNL     1      21.429  10.465  35.723  1.00  0.00     0.000 C 
ENDROOT
BRANCH   1   2
ATOM      2  C   UNL     1      19.899  10.504  35.595  1.00  0.00     0.000 C 
BRANCH   2   3
ATOM      3  C   UNL     1      19.448   9.967  34.233  1.00  0.00     0.000 C 
BRANCH   3   4
ATOM      4  C   UNL     1      20.457   8.954  33.678  1.00  0.00     0.000 C 
BRANCH   4   5
ATOM      5  C   UNL     1      19.743   7.730  33.088  1.00  0.00     0.000 C 
BRANCH   5   6
ATOM      6  C   UNL     1      19.636   6.557  34.079  1.00  0.00     0.006 C 
BRANCH   6   7
ATOM      7  C   UNL     1      20.315   6.820  35.434  1.00  0.00     0.053 C 
BRANCH   7   8
ATOM      8  C   UNL     1      19.365   6.699  36.587  1.00  0.00     0.041 C 
ATOM      9  O   UNL     1      19.327   7.592  37.473  1.00  0.00    -0.550 OA
ATOM     10  O   UNL     1      18.494   5.618  36.664  1.00  0.00    -0.550 OA
ENDBRANCH   7   8
ENDBRANCH   6   7
ENDBRANCH   5   6
ENDBRANCH   4   5
ENDBRANCH   3   4
ENDBRANCH   2   3
ENDBRANCH   1   2
BRANCH   1  11
ATOM     11  C   UNL     1      22.090  11.822  35.422  1.00  0.00     0.000 C 
BRANCH  11  12
ATOM     12  C   UNL     1      21.113  13.004  35.257  1.00  0.00     0.000 C 
BRANCH  12  13
ATOM     13  C   UNL     1      21.107  13.661  33.864  1.00  0.00     0.000 C 
BRANCH  13  14
ATOM     14  C   UNL     1      21.572  12.705  32.752  1.00  0.00     0.000 C 
BRANCH  14  15
ATOM     15  C   UNL     1      21.641  13.388  31.377  1.00  0.00     0.000 C 
BRANCH  15  16
ATOM     16  C   UNL     1      21.658  14.924  31.479  1.00  0.00     0.006 C 
BRANCH  16  17
ATOM     17  C   UNL     1      22.233  15.581  30.216  1.00  0.00     0.053 C 
BRANCH  17  18
ATOM     18  C   UNL     1      23.229  16.649  30.546  1.00  0.00     0.041 C 
ATOM     19  O   UNL     1      22.862  17.695  31.143  1.00  0.00    -0.550 OA
ATOM     20  O   UNL     1      24.558  16.502  30.169  1.00  0.00    -0.550 OA
ENDBRANCH  17  18
ENDBRANCH  16  17
ENDBRANCH  15  16
ENDBRANCH  14  15
ENDBRANCH  13  14
ENDBRANCH  12  13
ENDBRANCH  11  12
ENDBRANCH   1  11
TORSDOF 15
ENDMDL
MODEL 5
REMARK VINA RESULT:    -4.310     18.478     20.272
REMARK INTER + INTRA:          -9.397
REMARK INTER:                  -6.909
REMARK INTRA:                  -2.488
REMARK UNBOUND:                -1.307
REMARK SMILES O=C([O-])CCCCCCCCCCCCCCC(=O)[O-]
REMARK SMILES IDX 10 1 9 2 8 3 7 4 6 5 5 6 4 7 2 8 1 9 3 10 11 11 12 12 13 13
REMARK SMILES IDX 14 14 15 15 16 16 17 17 18 18 19 19 20 20
REMARK H PARENT
REMARK Flexibility Score: inf
ROOT
ATOM      1  C   UNL     1      21.606  12.588  35.435  1.00  0.00     0.000 C 
ENDROOT
BRANCH   1   2
ATOM      2  C   UNL     1      21.967  11.830  34.150  1.00  0.00     0.000 C 
BRANCH   2   3
ATOM      3  C   UNL     1      21.525  10.365  34.234  1.00  0.00     0.000 C 
BRANCH   3   4
ATOM      4  C   UNL     1      21.465   9.890  35.692  1.00  0.00     0.000 C 
BRANCH   4   5
ATOM      5  C   UNL     1      20.085   9.307  36.025  1.00  0.00     0.000 C 
BRANCH   5   6
ATOM      6  C   UNL     1      19.548   8.365  34.933  1.00  0.00     0.006 C 
BRANCH   6   7
ATOM      7  C   UNL     1      20.278   7.013  34.859  1.00  0.00     0.053 C 
BRANCH   7   8
ATOM      8  C   UNL     1      19.934   6.240  33.623  1.00  0.00     0.041 C 
ATOM      9  O   UNL     1      20.848   5.807  32.872  1.00  0.00    -0.550 OA
ATOM     10  O   UNL     1      18.607   5.965  33.316  1.00  0.00    -0.550 OA
ENDBRANCH   7   8
ENDBRANCH   6   7
ENDBRANCH   5   6
ENDBRANCH   4   5
ENDBRANCH   3   4
ENDBRANCH   2   3
ENDBRANCH   1   2
BRANCH   1  11
ATOM     11  C   UNL     1      20.385  13.510  35.264  1.00  0.00     0.000 C 
BRANCH  11  12
ATOM     12  C   UNL     1      19.093  13.020  35.948  1.00  0.00     0.000 C 
BRANCH  12  13
ATOM     13  C   UNL     1      18.155  12.184  35.058  1.00  0.00     0.000 C 
BRANCH  13  14
ATOM     14  C   UNL     1      18.171  12.633  33.587  1.00  0.00     0.000 C 
BRANCH  14  15
ATOM     15  C   UNL     1      18.466  11.477  32.620  1.00  0.00     0.000 C 
BRANCH  15  16
ATOM     16  C   UNL     1      19.386  11.896  31.459  1.00  0.00     0.006 C 
BRANCH  16  17
ATOM     17  C   UNL     1      19.709  13.396  31.490  1.00  0.00     0.053 C 
BRANCH  17  18
ATOM     18  C   UNL     1      21.158  13.661  31.220  1.00  0.00     0.041 C 
ATOM     19  O   UNL     1      21.871  12.782  30.669  1.00  0.00    -0.550 OA
ATOM     20  O   UNL     1      21.729  14.868  31.603  1.00  0.00    -0.550 OA
ENDBRANCH  17  18
ENDBRANCH  16  17
ENDBRANCH  15  16
ENDBRANCH  14  15
ENDBRANCH  13  14
ENDBRANCH  12  13
ENDBRANCH  11  12
ENDBRANCH   1  11
TORSDOF 15
ENDMDL
MODEL 6
REMARK VINA RESULT:    -4.219      2.653      8.890
REMARK INTER + INTRA:          -9.225
REMARK INTER:                  -8.360
REMARK INTRA:                  -0.866
REMARK UNBOUND:                -1.307
REMARK SMILES O=C([O-])CCCCCCCCCCCCCCC(=O)[O-]
REMARK SMILES IDX 10 1 9 2 8 3 7 4 6 5 5 6 4 7 2 8 1 9 3 10 11 11 12 12 13 13
REMARK SMILES IDX 14 14 15 15 16 16 17 17 18 18 19 19 20 20
REMARK H PARENT
REMARK Flexibility Score: inf
ROOT
ATOM      1  C   UNL     1      34.674   9.191  44.344  1.00  0.00     0.000 C 
ENDROOT
BRANCH   1   2
ATOM      2  C   UNL     1      34.009   8.302  45.405  1.00  0.00     0.000 C 
BRANCH   2   3
ATOM      3  C   UNL     1      34.000   6.834  44.965  1.00  0.00     0.000 C 
BRANCH   3   4
ATOM      4  C   UNL     1      34.090   5.895  46.174  1.00  0.00     0.000 C 
BRANCH   4   5
ATOM      5  C   UNL     1      33.542   6.570  47.439  1.00  0.00     0.000 C 
BRANCH   5   6
ATOM      6  C   UNL     1      32.293   5.869  48.004  1.00  0.00     0.006 C 
BRANCH   6   7
ATOM      7  C   UNL     1      30.985   6.248  47.287  1.00  0.00     0.053 C 
BRANCH   7   8
ATOM      8  C   UNL     1      29.891   6.615  48.243  1.00  0.00     0.041 C 
ATOM      9  O   UNL     1      28.977   5.790  48.505  1.00  0.00    -0.550 OA
ATOM     10  O   UNL     1      29.899   7.854  48.873  1.00  0.00    -0.550 OA
ENDBRANCH   7   8
ENDBRANCH   6   7
ENDBRANCH   5   6
ENDBRANCH   4   5
ENDBRANCH   3   4
ENDBRANCH   2   3
ENDBRANCH   1   2
BRANCH   1  11
ATOM     11  C   UNL     1      34.754  10.669  44.766  1.00  0.00     0.000 C 
BRANCH  11  12
ATOM     12  C   UNL     1      35.149  10.909  46.238  1.00  0.00     0.000 C 
BRANCH  12  13
ATOM     13  C   UNL     1      36.550  11.513  46.450  1.00  0.00     0.000 C 
BRANCH  13  14
ATOM     14  C   UNL     1      36.565  13.045  46.320  1.00  0.00     0.000 C 
BRANCH  14  15
ATOM     15  C   UNL     1      37.880  13.574  45.726  1.00  0.00     0.000 C 
BRANCH  15  16
ATOM     16  C   UNL     1      37.874  15.102  45.539  1.00  0.00     0.006 C 
BRANCH  16  17
ATOM     17  C   UNL     1      36.478  15.635  45.187  1.00  0.00     0.053 C 
BRANCH  17  18
ATOM     18  C   UNL     1      36.050  16.732  46.112  1.00  0.00     0.041 C 
ATOM     19  O   UNL     1      35.849  17.893  45.668  1.00  0.00    -0.550 OA
ATOM     20  O   UNL     1      35.903  16.481  47.470  1.00  0.00    -0.550 OA
ENDBRANCH  17  18
ENDBRANCH  16  17
ENDBRANCH  15  16
ENDBRANCH  14  15
ENDBRANCH  13  14
ENDBRANCH  12  13
ENDBRANCH  11  12
ENDBRANCH   1  11
TORSDOF 15
ENDMDL
MODEL 7
REMARK VINA RESULT:    -4.205     18.269     20.163
REMARK INTER + INTRA:          -9.199
REMARK INTER:                  -7.080
REMARK INTRA:                  -2.119
REMARK UNBOUND:                -1.307
REMARK SMILES O=C([O-])CCCCCCCCCCCCCCC(=O)[O-]
REMARK SMILES IDX 10 1 9 2 8 3 7 4 6 5 5 6 4 7 2 8 1 9 3 10 11 11 12 12 13 13
REMARK SMILES IDX 14 14 15 15 16 16 17 17 18 18 19 19 20 20
REMARK H PARENT
REMARK Flexibility Score: inf
ROOT
ATOM      1  C   UNL     1      21.926  11.459  34.784  1.00  0.00     0.000 C 
ENDROOT
BRANCH   1   2
ATOM      2  C   UNL     1      21.981  10.149  35.584  1.00  0.00     0.000 C 
BRANCH   2   3
ATOM      3  C   UNL     1      20.835   9.213  35.184  1.00  0.00     0.000 C 
BRANCH   3   4
ATOM      4  C   UNL     1      19.771   9.140  36.287  1.00  0.00     0.000 C 
BRANCH   4   5
ATOM      5  C   UNL     1      19.378   7.686  36.579  1.00  0.00     0.000 C 
BRANCH   5   6
ATOM      6  C   UNL     1      19.799   6.711  35.464  1.00  0.00     0.006 C 
BRANCH   6   7
ATOM      7  C   UNL     1      18.690   6.418  34.439  1.00  0.00     0.053 C 
BRANCH   7   8
ATOM      8  C   UNL     1      19.234   6.000  33.107  1.00  0.00     0.041 C 
ATOM      9  O   UNL     1      18.450   5.712  32.165  1.00  0.00    -0.550 OA
ATOM     10  O   UNL     1      20.607   5.963  32.892  1.00  0.00    -0.550 OA
ENDBRANCH   7   8
ENDBRANCH   6   7
ENDBRANCH   5   6
ENDBRANCH   4   5
ENDBRANCH   3   4
ENDBRANCH   2   3
ENDBRANCH   1   2
BRANCH   1  11
ATOM     11  C   UNL     1      21.682  12.692  35.672  1.00  0.00     0.000 C 
BRANCH  11  12
ATOM     12  C   UNL     1      20.353  13.432  35.414  1.00  0.00     0.000 C 
BRANCH  12  13
ATOM     13  C   UNL     1      19.109  12.787  36.052  1.00  0.00     0.000 C 
BRANCH  13  14
ATOM     14  C   UNL     1      18.116  12.246  35.009  1.00  0.00     0.000 C 
BRANCH  14  15
ATOM     15  C   UNL     1      18.517  12.609  33.570  1.00  0.00     0.000 C 
BRANCH  15  16
ATOM     16  C   UNL     1      18.726  11.368  32.683  1.00  0.00     0.006 C 
BRANCH  16  17
ATOM     17  C   UNL     1      19.918  11.534  31.730  1.00  0.00     0.053 C 
BRANCH  17  18
ATOM     18  C   UNL     1      20.243  10.258  31.016  1.00  0.00     0.041 C 
ATOM     19  O   UNL     1      20.410  10.255  29.768  1.00  0.00    -0.550 OA
ATOM     20  O   UNL     1      20.333   9.067  31.725  1.00  0.00    -0.550 OA
ENDBRANCH  17  18
ENDBRANCH  16  17
ENDBRANCH  15  16
ENDBRANCH  14  15
ENDBRANCH  13  14
ENDBRANCH  12  13
ENDBRANCH  11  12
ENDBRANCH   1  11
TORSDOF 15
ENDMDL
MODEL 8
REMARK VINA RESULT:    -4.200     18.455     20.753
REMARK INTER + INTRA:          -9.190
REMARK INTER:                  -8.127
REMARK INTRA:                  -1.064
REMARK UNBOUND:                -1.307
REMARK SMILES O=C([O-])CCCCCCCCCCCCCCC(=O)[O-]
REMARK SMILES IDX 10 1 9 2 8 3 7 4 6 5 5 6 4 7 2 8 1 9 3 10 11 11 12 12 13 13
REMARK SMILES IDX 14 14 15 15 16 16 17 17 18 18 19 19 20 20
REMARK H PARENT
REMARK Flexibility Score: inf
ROOT
ATOM      1  C   UNL     1      21.003  12.730  35.416  1.00  0.00     0.000 C 
ENDROOT
BRANCH   1   2
ATOM      2  C   UNL     1      22.387  12.076  35.544  1.00  0.00     0.000 C 
BRANCH   2   3
ATOM      3  C   UNL     1      22.268  10.550  35.626  1.00  0.00     0.000 C 
BRANCH   3   4
ATOM      4  C   UNL     1      20.798  10.110  35.614  1.00  0.00     0.000 C 
BRANCH   4   5
ATOM      5  C   UNL     1      20.520   9.151  34.449  1.00  0.00     0.000 C 
BRANCH   5   6
ATOM      6  C   UNL     1      19.216   8.351  34.623  1.00  0.00     0.006 C 
BRANCH   6   7
ATOM      7  C   UNL     1      19.434   6.875  34.998  1.00  0.00     0.053 C 
BRANCH   7   8
ATOM      8  C   UNL     1      19.030   6.573  36.409  1.00  0.00     0.041 C 
ATOM      9  O   UNL     1      19.324   7.373  37.336  1.00  0.00    -0.550 OA
ATOM     10  O   UNL     1      18.295   5.429  36.697  1.00  0.00    -0.550 OA
ENDBRANCH   7   8
ENDBRANCH   6   7
ENDBRANCH   5   6
ENDBRANCH   4   5
ENDBRANCH   3   4
ENDBRANCH   2   3
ENDBRANCH   1   2
BRANCH   1  11
ATOM     11  C   UNL     1      20.875  13.620  34.167  1.00  0.00     0.000 C 
BRANCH  11  12
ATOM     12  C   UNL     1      21.424  13.003  32.864  1.00  0.00     0.000 C 
BRANCH  12  13
ATOM     13  C   UNL     1      21.022  13.736  31.570  1.00  0.00     0.000 C 
BRANCH  13  14
ATOM     14  C   UNL     1      22.053  14.792  31.138  1.00  0.00     0.000 C 
BRANCH  14  15
ATOM     15  C   UNL     1      21.547  15.673  29.984  1.00  0.00     0.000 C 
BRANCH  15  16
ATOM     16  C   UNL     1      20.947  17.003  30.474  1.00  0.00     0.006 C 
BRANCH  16  17
ATOM     17  C   UNL     1      21.895  17.751  31.421  1.00  0.00     0.053 C 
BRANCH  17  18
ATOM     18  C   UNL     1      23.086  18.301  30.699  1.00  0.00     0.041 C 
ATOM     19  O   UNL     1      22.933  19.136  29.768  1.00  0.00    -0.550 OA
ATOM     20  O   UNL     1      24.364  17.870  31.032  1.00  0.00    -0.550 OA
ENDBRANCH  17  18
ENDBRANCH  16  17
ENDBRANCH  15  16
ENDBRANCH  14  15
ENDBRANCH  13  14
ENDBRANCH  12  13
ENDBRANCH  11  12
ENDBRANCH   1  11
TORSDOF 15
ENDMDL
MODEL 9
REMARK VINA RESULT:    -4.175     18.052     18.776
REMARK INTER + INTRA:          -9.143
REMARK INTER:                  -7.639
REMARK INTRA:                  -1.504
REMARK UNBOUND:                -1.307
REMARK SMILES O=C([O-])CCCCCCCCCCCCCCC(=O)[O-]
REMARK SMILES IDX 10 1 9 2 8 3 7 4 6 5 5 6 4 7 2 8 1 9 3 10 11 11 12 12 13 13
REMARK SMILES IDX 14 14 15 15 16 16 17 17 18 18 19 19 20 20
REMARK H PARENT
REMARK Flexibility Score: inf
ROOT
ATOM      1  C   UNL     1      22.771  11.229  34.277  1.00  0.00     0.000 C 
ENDROOT
BRANCH   1   2
ATOM      2  C   UNL     1      21.985  11.851  33.114  1.00  0.00     0.000 C 
BRANCH   2   3
ATOM      3  C   UNL     1      21.227  13.103  33.571  1.00  0.00     0.000 C 
BRANCH   3   4
ATOM      4  C   UNL     1      20.881  14.004  32.379  1.00  0.00     0.000 C 
BRANCH   4   5
ATOM      5  C   UNL     1      21.980  13.949  31.309  1.00  0.00     0.000 C 
BRANCH   5   6
ATOM      6  C   UNL     1      21.950  15.152  30.349  1.00  0.00     0.006 C 
BRANCH   6   7
ATOM      7  C   UNL     1      22.167  16.509  31.041  1.00  0.00     0.053 C 
BRANCH   7   8
ATOM      8  C   UNL     1      23.446  17.169  30.626  1.00  0.00     0.041 C 
ATOM      9  O   UNL     1      23.698  18.347  30.993  1.00  0.00    -0.550 OA
ATOM     10  O   UNL     1      24.378  16.472  29.866  1.00  0.00    -0.550 OA
ENDBRANCH   7   8
ENDBRANCH   6   7
ENDBRANCH   5   6
ENDBRANCH   4   5
ENDBRANCH   3   4
ENDBRANCH   2   3
ENDBRANCH   1   2
BRANCH   1  11
ATOM     11  C   UNL     1      22.017  11.304  35.617  1.00  0.00     0.000 C 
BRANCH  11  12
ATOM     12  C   UNL     1      21.032  10.147  35.880  1.00  0.00     0.000 C 
BRANCH  12  13
ATOM     13  C   UNL     1      19.568  10.431  35.496  1.00  0.00     0.000 C 
BRANCH  13  14
ATOM     14  C   UNL     1      19.049   9.495  34.391  1.00  0.00     0.000 C 
BRANCH  14  15
ATOM     15  C   UNL     1      20.130   8.528  33.881  1.00  0.00     0.000 C 
BRANCH  15  16
ATOM     16  C   UNL     1      19.806   7.057  34.198  1.00  0.00     0.006 C 
BRANCH  16  17
ATOM     17  C   UNL     1      20.383   6.618  35.551  1.00  0.00     0.053 C 
BRANCH  17  18
ATOM     18  C   UNL     1      19.334   6.586  36.620  1.00  0.00     0.041 C 
ATOM     19  O   UNL     1      18.467   5.672  36.631  1.00  0.00    -0.550 OA
ATOM     20  O   UNL     1      19.295   7.582  37.588  1.00  0.00    -0.550 OA
ENDBRANCH  17  18
ENDBRANCH  16  17
ENDBRANCH  15  16
ENDBRANCH  14  15
ENDBRANCH  13  14
ENDBRANCH  12  13
ENDBRANCH  11  12
ENDBRANCH   1  11
TORSDOF 15
ENDMDL
