MODEL 1
REMARK VINA RESULT:    -3.134      0.000      0.000
REMARK INTER + INTRA:          -5.897
REMARK INTER:                  -4.967
REMARK INTRA:                  -0.930
REMARK UNBOUND:                -0.930
REMARK SMILES CCCCCCCCCCCC(=O)[O-]
REMARK SMILES IDX 7 1 8 2 9 3 10 4 11 5 12 6 13 7 14 8 6 9 5 10 4 11 3 12 2 13
REMARK SMILES IDX 1 14
REMARK H PARENT
REMARK Flexibility Score: inf
ROOT
ATOM      1  C   UNL     1     -13.801  13.609   7.869  1.00  0.00     0.000 C 
ENDROOT
BRANCH   1   2
ATOM      2  C   UNL     1     -14.721  12.955   6.820  1.00  0.00     0.000 C 
BRANCH   2   3
ATOM      3  C   UNL     1     -16.212  12.912   7.198  1.00  0.00     0.000 C 
BRANCH   3   4
ATOM      4  C   UNL     1     -16.773  11.480   7.253  1.00  0.00     0.006 C 
BRANCH   4   5
ATOM      5  C   UNL     1     -16.957  10.985   8.694  1.00  0.00     0.053 C 
BRANCH   5   6
ATOM      6  C   UNL     1     -16.077   9.812   8.998  1.00  0.00     0.041 C 
ATOM      7  O   UNL     1     -15.172   9.473   8.190  1.00  0.00    -0.550 OA
ATOM      8  O   UNL     1     -16.274   9.076  10.159  1.00  0.00    -0.550 OA
ENDBRANCH   5   6
ENDBRANCH   4   5
ENDBRANCH   3   4
ENDBRANCH   2   3
ENDBRANCH   1   2
BRANCH   1   9
ATOM      9  C   UNL     1     -14.177  13.332   9.338  1.00  0.00     0.000 C 
BRANCH   9  10
ATOM     10  C   UNL     1     -13.873  14.481  10.318  1.00  0.00    -0.000 C 
BRANCH  10  11
ATOM     11  C   UNL     1     -13.386  13.983  11.688  1.00  0.00    -0.000 C 
BRANCH  11  12
ATOM     12  C   UNL     1     -14.533  13.830  12.701  1.00  0.00    -0.000 C 
BRANCH  12  13
ATOM     13  C   UNL     1     -14.996  12.374  12.856  1.00  0.00    -0.003 C 
ATOM     14  C   UNL     1     -16.385  12.174  12.255  1.00  0.00     0.004 C 
ENDBRANCH  12  13
ENDBRANCH  11  12
ENDBRANCH  10  11
ENDBRANCH   9  10
ENDBRANCH   1   9
TORSDOF 10
ENDMDL
MODEL 2
REMARK VINA RESULT:    -3.108      2.185      4.944
REMARK INTER + INTRA:          -5.854
REMARK INTER:                  -4.919
REMARK INTRA:                  -0.935
REMARK UNBOUND:                -0.930
REMARK SMILES CCCCCCCCCCCC(=O)[O-]
REMARK SMILES IDX 7 1 8 2 9 3 10 4 11 5 12 6 13 7 14 8 6 9 5 10 4 11 3 12 2 13
REMARK SMILES IDX 1 14
REMARK H PARENT
REMARK Flexibility Score: inf
ROOT
ATOM      1  C   UNL     1     -13.810  13.676   7.885  1.00  0.00     0.000 C 
ENDROOT
BRANCH   1   2
ATOM      2  C   UNL     1     -14.234  13.363   9.334  1.00  0.00     0.000 C 
BRANCH   2   3
ATOM      3  C   UNL     1     -13.881  14.450  10.365  1.00  0.00     0.000 C 
BRANCH   3   4
ATOM      4  C   UNL     1     -13.425  13.866  11.714  1.00  0.00     0.006 C 
BRANCH   4   5
ATOM      5  C   UNL     1     -14.297  14.354  12.880  1.00  0.00     0.053 C 
BRANCH   5   6
ATOM      6  C   UNL     1     -15.754  14.132  12.617  1.00  0.00     0.041 C 
ATOM      7  O   UNL     1     -16.548  15.110  12.584  1.00  0.00    -0.550 OA
ATOM      8  O   UNL     1     -16.242  12.844  12.436  1.00  0.00    -0.550 OA
ENDBRANCH   5   6
ENDBRANCH   4   5
ENDBRANCH   3   4
ENDBRANCH   2   3
ENDBRANCH   1   2
BRANCH   1   9
ATOM      9  C   UNL     1     -14.625  12.957   6.792  1.00  0.00     0.000 C 
BRANCH   9  10
ATOM     10  C   UNL     1     -16.154  13.089   6.924  1.00  0.00    -0.000 C 
BRANCH  10  11
ATOM     11  C   UNL     1     -16.831  11.776   7.350  1.00  0.00    -0.000 C 
BRANCH  11  12
ATOM     12  C   UNL     1     -15.872  10.575   7.298  1.00  0.00    -0.000 C 
BRANCH  12  13
ATOM     13  C   UNL     1     -16.099   9.585   8.449  1.00  0.00    -0.003 C 
ATOM     14  C   UNL     1     -16.399  10.319   9.754  1.00  0.00     0.004 C 
ENDBRANCH  12  13
ENDBRANCH  11  12
ENDBRANCH  10  11
ENDBRANCH   9  10
ENDBRANCH   1   9
TORSDOF 10
ENDMDL
MODEL 3
REMARK VINA RESULT:    -3.105      3.412      5.626
REMARK INTER + INTRA:          -5.850
REMARK INTER:                  -5.135
REMARK INTRA:                  -0.716
REMARK UNBOUND:                -0.930
REMARK SMILES CCCCCCCCCCCC(=O)[O-]
REMARK SMILES IDX 7 1 8 2 9 3 10 4 11 5 12 6 13 7 14 8 6 9 5 10 4 11 3 12 2 13
REMARK SMILES IDX 1 14
REMARK H PARENT
REMARK Flexibility Score: inf
ROOT
ATOM      1  C   UNL     1     -15.560   8.744   8.725  1.00  0.00     0.000 C 
ENDROOT
BRANCH   1   2
ATOM      2  C   UNL     1     -16.137  10.153   8.485  1.00  0.00     0.000 C 
BRANCH   2   3
ATOM      3  C   UNL     1     -16.148  11.071   9.720  1.00  0.00     0.000 C 
BRANCH   3   4
ATOM      4  C   UNL     1     -15.945  12.554   9.362  1.00  0.00     0.006 C 
BRANCH   4   5
ATOM      5  C   UNL     1     -14.481  12.877   9.036  1.00  0.00     0.053 C 
BRANCH   5   6
ATOM      6  C   UNL     1     -14.301  13.256   7.598  1.00  0.00     0.041 C 
ATOM      7  O   UNL     1     -13.181  13.659   7.184  1.00  0.00    -0.550 OA
ATOM      8  O   UNL     1     -15.376  13.192   6.721  1.00  0.00    -0.550 OA
ENDBRANCH   5   6
ENDBRANCH   4   5
ENDBRANCH   3   4
ENDBRANCH   2   3
ENDBRANCH   1   2
BRANCH   1   9
ATOM      9  C   UNL     1     -16.600   7.654   9.050  1.00  0.00     0.000 C 
BRANCH   9  10
ATOM     10  C   UNL     1     -16.270   6.781  10.276  1.00  0.00    -0.000 C 
BRANCH  10  11
ATOM     11  C   UNL     1     -15.734   7.599  11.463  1.00  0.00    -0.000 C 
BRANCH  11  12
ATOM     12  C   UNL     1     -14.742   6.804  12.327  1.00  0.00    -0.000 C 
BRANCH  12  13
ATOM     13  C   UNL     1     -13.700   6.048  11.490  1.00  0.00    -0.003 C 
ATOM     14  C   UNL     1     -13.670   4.567  11.858  1.00  0.00     0.004 C 
ENDBRANCH  12  13
ENDBRANCH  11  12
ENDBRANCH  10  11
ENDBRANCH   9  10
ENDBRANCH   1   9
TORSDOF 10
ENDMDL
MODEL 4
REMARK VINA RESULT:    -3.054      2.328      4.802
REMARK INTER + INTRA:          -5.769
REMARK INTER:                  -5.070
REMARK INTRA:                  -0.699
REMARK UNBOUND:                -0.930
REMARK SMILES CCCCCCCCCCCC(=O)[O-]
REMARK SMILES IDX 7 1 8 2 9 3 10 4 11 5 12 6 13 7 14 8 6 9 5 10 4 11 3 12 2 13
REMARK SMILES IDX 1 14
REMARK H PARENT
REMARK Flexibility Score: inf
ROOT
ATOM      1  C   UNL     1     -14.688  13.166   6.904  1.00  0.00     0.000 C 
ENDROOT
BRANCH   1   2
ATOM      2  C   UNL     1     -13.747  13.493   8.081  1.00  0.00     0.000 C 
BRANCH   2   3
ATOM      3  C   UNL     1     -14.384  13.374   9.476  1.00  0.00     0.000 C 
BRANCH   3   4
ATOM      4  C   UNL     1     -13.949  14.501  10.429  1.00  0.00     0.006 C 
BRANCH   4   5
ATOM      5  C   UNL     1     -14.556  14.342  11.830  1.00  0.00     0.053 C 
BRANCH   5   6
ATOM      6  C   UNL     1     -13.805  13.341  12.652  1.00  0.00     0.041 C 
ATOM      7  O   UNL     1     -12.581  13.512  12.897  1.00  0.00    -0.550 OA
ATOM      8  O   UNL     1     -14.448  12.204  13.124  1.00  0.00    -0.550 OA
ENDBRANCH   5   6
ENDBRANCH   4   5
ENDBRANCH   3   4
ENDBRANCH   2   3
ENDBRANCH   1   2
BRANCH   1   9
ATOM      9  C   UNL     1     -15.939  12.344   7.272  1.00  0.00     0.000 C 
BRANCH   9  10
ATOM     10  C   UNL     1     -15.775  10.817   7.152  1.00  0.00    -0.000 C 
BRANCH  10  11
ATOM     11  C   UNL     1     -16.782  10.040   8.015  1.00  0.00    -0.000 C 
BRANCH  11  12
ATOM     12  C   UNL     1     -16.440  10.093   9.513  1.00  0.00    -0.000 C 
BRANCH  12  13
ATOM     13  C   UNL     1     -16.216   8.700  10.120  1.00  0.00    -0.003 C 
ATOM     14  C   UNL     1     -16.340   7.612   9.057  1.00  0.00     0.004 C 
ENDBRANCH  12  13
ENDBRANCH  11  12
ENDBRANCH  10  11
ENDBRANCH   9  10
ENDBRANCH   1   9
TORSDOF 10
ENDMDL
MODEL 5
REMARK VINA RESULT:    -3.051      2.723      4.804
REMARK INTER + INTRA:          -5.764
REMARK INTER:                  -5.122
REMARK INTRA:                  -0.642
REMARK UNBOUND:                -0.930
REMARK SMILES CCCCCCCCCCCC(=O)[O-]
REMARK SMILES IDX 7 1 8 2 9 3 10 4 11 5 12 6 13 7 14 8 6 9 5 10 4 11 3 12 2 13
REMARK SMILES IDX 1 14
REMARK H PARENT
REMARK Flexibility Score: inf
ROOT
ATOM      1  C   UNL     1     -15.340   9.583   8.215  1.00  0.00     0.000 C 
ENDROOT
BRANCH   1   2
ATOM      2  C   UNL     1     -16.064   8.448   8.966  1.00  0.00     0.000 C 
BRANCH   2   3
ATOM      3  C   UNL     1     -16.451   8.773  10.420  1.00  0.00     0.000 C 
BRANCH   3   4
ATOM      4  C   UNL     1     -15.851   7.781  11.432  1.00  0.00     0.006 C 
BRANCH   4   5
ATOM      5  C   UNL     1     -15.009   6.694  10.749  1.00  0.00     0.053 C 
BRANCH   5   6
ATOM      6  C   UNL     1     -13.939   6.166  11.655  1.00  0.00     0.041 C 
ATOM      7  O   UNL     1     -13.391   6.925  12.498  1.00  0.00    -0.550 OA
ATOM      8  O   UNL     1     -13.528   4.844  11.550  1.00  0.00    -0.550 OA
ENDBRANCH   5   6
ENDBRANCH   4   5
ENDBRANCH   3   4
ENDBRANCH   2   3
ENDBRANCH   1   2
BRANCH   1   9
ATOM      9  C   UNL     1     -16.247  10.487   7.357  1.00  0.00     0.000 C 
BRANCH   9  10
ATOM     10  C   UNL     1     -16.287  11.966   7.785  1.00  0.00    -0.000 C 
BRANCH  10  11
ATOM     11  C   UNL     1     -15.243  12.827   7.053  1.00  0.00    -0.000 C 
BRANCH  11  12
ATOM     12  C   UNL     1     -14.088  13.258   7.970  1.00  0.00    -0.000 C 
BRANCH  12  13
ATOM     13  C   UNL     1     -14.435  13.133   9.461  1.00  0.00    -0.003 C 
ATOM     14  C   UNL     1     -14.001  14.376  10.232  1.00  0.00     0.004 C 
ENDBRANCH  12  13
ENDBRANCH  11  12
ENDBRANCH  10  11
ENDBRANCH   9  10
ENDBRANCH   1   9
TORSDOF 10
ENDMDL
MODEL 6
REMARK VINA RESULT:    -3.009      2.960      4.970
REMARK INTER + INTRA:          -5.698
REMARK INTER:                  -5.033
REMARK INTRA:                  -0.666
REMARK UNBOUND:                -0.930
REMARK SMILES CCCCCCCCCCCC(=O)[O-]
REMARK SMILES IDX 7 1 8 2 9 3 10 4 11 5 12 6 13 7 14 8 6 9 5 10 4 11 3 12 2 13
REMARK SMILES IDX 1 14
REMARK H PARENT
REMARK Flexibility Score: inf
ROOT
ATOM      1  C   UNL     1     -15.782  10.315   7.133  1.00  0.00     0.000 C 
ENDROOT
BRANCH   1   2
ATOM      2  C   UNL     1     -16.122  11.765   7.534  1.00  0.00     0.000 C 
BRANCH   2   3
ATOM      3  C   UNL     1     -15.103  12.823   7.076  1.00  0.00     0.000 C 
BRANCH   3   4
ATOM      4  C   UNL     1     -14.160  13.272   8.206  1.00  0.00     0.006 C 
BRANCH   4   5
ATOM      5  C   UNL     1     -14.741  12.977   9.596  1.00  0.00     0.053 C 
BRANCH   5   6
ATOM      6  C   UNL     1     -14.020  13.729  10.672  1.00  0.00     0.041 C 
ATOM      7  O   UNL     1     -13.520  14.859  10.429  1.00  0.00    -0.550 OA
ATOM      8  O   UNL     1     -13.875  13.171  11.935  1.00  0.00    -0.550 OA
ENDBRANCH   5   6
ENDBRANCH   4   5
ENDBRANCH   3   4
ENDBRANCH   2   3
ENDBRANCH   1   2
BRANCH   1   9
ATOM      9  C   UNL     1     -16.204   9.235   8.149  1.00  0.00     0.000 C 
BRANCH   9  10
ATOM     10  C   UNL     1     -16.353   9.728   9.600  1.00  0.00    -0.000 C 
BRANCH  10  11
ATOM     11  C   UNL     1     -16.349   8.580  10.623  1.00  0.00    -0.000 C 
BRANCH  11  12
ATOM     12  C   UNL     1     -15.522   7.374  10.151  1.00  0.00    -0.000 C 
BRANCH  12  13
ATOM     13  C   UNL     1     -15.249   6.365  11.277  1.00  0.00    -0.003 C 
ATOM     14  C   UNL     1     -13.766   6.332  11.636  1.00  0.00     0.004 C 
ENDBRANCH  12  13
ENDBRANCH  11  12
ENDBRANCH  10  11
ENDBRANCH   9  10
ENDBRANCH   1   9
TORSDOF 10
ENDMDL
MODEL 7
REMARK VINA RESULT:    -2.991      1.122      1.745
REMARK INTER + INTRA:          -5.670
REMARK INTER:                  -4.616
REMARK INTRA:                  -1.054
REMARK UNBOUND:                -0.930
REMARK SMILES CCCCCCCCCCCC(=O)[O-]
REMARK SMILES IDX 7 1 8 2 9 3 10 4 11 5 12 6 13 7 14 8 6 9 5 10 4 11 3 12 2 13
REMARK SMILES IDX 1 14
REMARK H PARENT
REMARK Flexibility Score: inf
ROOT
ATOM      1  C   UNL     1     -14.168  13.307   9.378  1.00  0.00     0.000 C 
ENDROOT
BRANCH   1   2
ATOM      2  C   UNL     1     -13.752  13.612   7.925  1.00  0.00     0.000 C 
BRANCH   2   3
ATOM      3  C   UNL     1     -14.732  13.114   6.849  1.00  0.00     0.000 C 
BRANCH   3   4
ATOM      4  C   UNL     1     -15.882  12.274   7.433  1.00  0.00     0.006 C 
BRANCH   4   5
ATOM      5  C   UNL     1     -15.691  10.773   7.177  1.00  0.00     0.053 C 
BRANCH   5   6
ATOM      6  C   UNL     1     -15.723   9.982   8.448  1.00  0.00     0.041 C 
ATOM      7  O   UNL     1     -15.278   8.804   8.473  1.00  0.00    -0.550 OA
ATOM      8  O   UNL     1     -16.269  10.535   9.598  1.00  0.00    -0.550 OA
ENDBRANCH   5   6
ENDBRANCH   4   5
ENDBRANCH   3   4
ENDBRANCH   2   3
ENDBRANCH   1   2
BRANCH   1   9
ATOM      9  C   UNL     1     -13.999  14.475  10.370  1.00  0.00     0.000 C 
BRANCH   9  10
ATOM     10  C   UNL     1     -15.177  14.683  11.339  1.00  0.00    -0.000 C 
BRANCH  10  11
ATOM     11  C   UNL     1     -16.465  13.985  10.871  1.00  0.00    -0.000 C 
BRANCH  11  12
ATOM     12  C   UNL     1     -17.063  13.068  11.950  1.00  0.00    -0.000 C 
BRANCH  12  13
ATOM     13  C   UNL     1     -16.093  12.806  13.111  1.00  0.00    -0.003 C 
ATOM     14  C   UNL     1     -15.544  11.383  13.057  1.00  0.00     0.004 C 
ENDBRANCH  12  13
ENDBRANCH  11  12
ENDBRANCH  10  11
ENDBRANCH   9  10
ENDBRANCH   1   9
TORSDOF 10
ENDMDL
MODEL 8
REMARK VINA RESULT:    -2.901      3.162      5.530
REMARK INTER + INTRA:          -5.526
REMARK INTER:                  -4.890
REMARK INTRA:                  -0.636
REMARK UNBOUND:                -0.930
REMARK SMILES CCCCCCCCCCCC(=O)[O-]
REMARK SMILES IDX 7 1 8 2 9 3 10 4 11 5 12 6 13 7 14 8 6 9 5 10 4 11 3 12 2 13
REMARK SMILES IDX 1 14
REMARK H PARENT
REMARK Flexibility Score: inf
ROOT
ATOM      1  C   UNL     1     -16.407  10.610  11.915  1.00  0.00     0.000 C 
ENDROOT
BRANCH   1   2
ATOM      2  C   UNL     1     -16.283  11.648  10.781  1.00  0.00     0.000 C 
BRANCH   2   3
ATOM      3  C   UNL     1     -15.250  12.761  11.029  1.00  0.00     0.000 C 
BRANCH   3   4
ATOM      4  C   UNL     1     -14.564  13.237   9.736  1.00  0.00     0.006 C 
BRANCH   4   5
ATOM      5  C   UNL     1     -14.753  12.244   8.581  1.00  0.00     0.053 C 
BRANCH   5   6
ATOM      6  C   UNL     1     -14.986  12.943   7.277  1.00  0.00     0.041 C 
ATOM      7  O   UNL     1     -16.160  13.134   6.863  1.00  0.00    -0.550 OA
ATOM      8  O   UNL     1     -13.908  13.357   6.506  1.00  0.00    -0.550 OA
ENDBRANCH   5   6
ENDBRANCH   4   5
ENDBRANCH   3   4
ENDBRANCH   2   3
ENDBRANCH   1   2
BRANCH   1   9
ATOM      9  C   UNL     1     -16.693   9.166  11.455  1.00  0.00     0.000 C 
BRANCH   9  10
ATOM     10  C   UNL     1     -16.092   8.785  10.090  1.00  0.00    -0.000 C 
BRANCH  10  11
ATOM     11  C   UNL     1     -15.729   7.293   9.993  1.00  0.00    -0.000 C 
BRANCH  11  12
ATOM     12  C   UNL     1     -15.365   6.687  11.358  1.00  0.00    -0.000 C 
BRANCH  12  13
ATOM     13  C   UNL     1     -13.872   6.350  11.478  1.00  0.00    -0.003 C 
ATOM     14  C   UNL     1     -13.666   4.873  11.801  1.00  0.00     0.004 C 
ENDBRANCH  12  13
ENDBRANCH  11  12
ENDBRANCH  10  11
ENDBRANCH   9  10
ENDBRANCH   1   9
TORSDOF 10
ENDMDL
MODEL 9
REMARK VINA RESULT:    -2.857      1.495      2.555
REMARK INTER + INTRA:          -5.457
REMARK INTER:                  -4.651
REMARK INTRA:                  -0.806
REMARK UNBOUND:                -0.930
REMARK SMILES CCCCCCCCCCCC(=O)[O-]
REMARK SMILES IDX 7 1 8 2 9 3 10 4 11 5 12 6 13 7 14 8 6 9 5 10 4 11 3 12 2 13
REMARK SMILES IDX 1 14
REMARK H PARENT
REMARK Flexibility Score: inf
ROOT
ATOM      1  C   UNL     1     -15.711  12.650   7.466  1.00  0.00     0.000 C 
ENDROOT
BRANCH   1   2
ATOM      2  C   UNL     1     -15.861  11.124   7.306  1.00  0.00     0.000 C 
BRANCH   2   3
ATOM      3  C   UNL     1     -16.923  10.476   8.211  1.00  0.00     0.000 C 
BRANCH   3   4
ATOM      4  C   UNL     1     -16.308   9.691   9.384  1.00  0.00     0.006 C 
BRANCH   4   5
ATOM      5  C   UNL     1     -15.643   8.387   8.922  1.00  0.00     0.053 C 
BRANCH   5   6
ATOM      6  C   UNL     1     -15.764   7.305   9.951  1.00  0.00     0.041 C 
ATOM      7  O   UNL     1     -14.845   7.128  10.794  1.00  0.00    -0.550 OA
ATOM      8  O   UNL     1     -16.877   6.475   9.962  1.00  0.00    -0.550 OA
ENDBRANCH   5   6
ENDBRANCH   4   5
ENDBRANCH   3   4
ENDBRANCH   2   3
ENDBRANCH   1   2
BRANCH   1   9
ATOM      9  C   UNL     1     -14.289  13.139   7.805  1.00  0.00     0.000 C 
BRANCH   9  10
ATOM     10  C   UNL     1     -14.098  13.640   9.249  1.00  0.00    -0.000 C 
BRANCH  10  11
ATOM     11  C   UNL     1     -15.340  13.414  10.127  1.00  0.00    -0.000 C 
BRANCH  11  12
ATOM     12  C   UNL     1     -14.983  12.922  11.538  1.00  0.00    -0.000 C 
BRANCH  12  13
ATOM     13  C   UNL     1     -14.390  14.030  12.421  1.00  0.00    -0.003 C 
ATOM     14  C   UNL     1     -12.955  13.701  12.824  1.00  0.00     0.004 C 
ENDBRANCH  12  13
ENDBRANCH  11  12
ENDBRANCH  10  11
ENDBRANCH   9  10
ENDBRANCH   1   9
TORSDOF 10
ENDMDL
