MODEL 1
REMARK VINA RESULT:    -2.666      0.000      0.000
REMARK INTER + INTRA:          -2.666
REMARK INTER:                  -2.666
REMARK INTRA:                   0.000
REMARK UNBOUND:                 0.000
REMARK SMILES CC(=O)[O-]
REMARK SMILES IDX 1 1 2 2 3 3 4 4
REMARK H PARENT
REMARK Flexibility Score: inf
ROOT
ATOM      1  C   UNL     1     -10.966  -3.791  -0.285  1.00  0.00     0.063 C 
ATOM      2  C   UNL     1     -10.160  -3.583  -1.523  1.00  0.00     0.038 C 
ATOM      3  O   UNL     1     -10.437  -2.635  -2.303  1.00  0.00    -0.550 OA
ATOM      4  O   UNL     1      -9.069  -4.399  -1.789  1.00  0.00    -0.550 OA
ENDROOT
TORSDOF 0
ENDMDL
MODEL 2
REMARK VINA RESULT:    -2.633      1.240      1.300
REMARK INTER + INTRA:          -2.633
REMARK INTER:                  -2.633
REMARK INTRA:                   0.000
REMARK UNBOUND:                 0.000
REMARK SMILES CC(=O)[O-]
REMARK SMILES IDX 1 1 2 2 3 3 4 4
REMARK H PARENT
REMARK Flexibility Score: inf
ROOT
ATOM      1  C   UNL     1     -10.482  -3.617  -1.055  1.00  0.00     0.063 C 
ATOM      2  C   UNL     1      -9.308  -3.624  -1.975  1.00  0.00     0.038 C 
ATOM      3  O   UNL     1      -8.501  -2.659  -1.975  1.00  0.00    -0.550 OA
ATOM      4  O   UNL     1      -9.071  -4.721  -2.793  1.00  0.00    -0.550 OA
ENDROOT
TORSDOF 0
ENDMDL
MODEL 3
REMARK VINA RESULT:    -2.626      0.093      1.622
REMARK INTER + INTRA:          -2.626
REMARK INTER:                  -2.626
REMARK INTRA:                   0.000
REMARK UNBOUND:                 0.000
REMARK SMILES CC(=O)[O-]
REMARK SMILES IDX 1 1 2 2 3 3 4 4
REMARK H PARENT
REMARK Flexibility Score: inf
ROOT
ATOM      1  C   UNL     1     -10.910  -3.805  -0.243  1.00  0.00     0.063 C 
ATOM      2  C   UNL     1     -10.139  -3.594  -1.501  1.00  0.00     0.038 C 
ATOM      3  O   UNL     1      -9.187  -4.363  -1.794  1.00  0.00    -0.550 OA
ATOM      4  O   UNL     1     -10.503  -2.582  -2.379  1.00  0.00    -0.550 OA
ENDROOT
TORSDOF 0
ENDMDL
MODEL 4
REMARK VINA RESULT:    -2.617      1.278      1.673
REMARK INTER + INTRA:          -2.617
REMARK INTER:                  -2.617
REMARK INTRA:                   0.000
REMARK UNBOUND:                 0.000
REMARK SMILES CC(=O)[O-]
REMARK SMILES IDX 1 1 2 2 3 3 4 4
REMARK H PARENT
REMARK Flexibility Score: inf
ROOT
ATOM      1  C   UNL     1     -10.385  -3.710  -0.930  1.00  0.00     0.063 C 
ATOM      2  C   UNL     1      -9.267  -3.708  -1.918  1.00  0.00     0.038 C 
ATOM      3  O   UNL     1      -9.159  -4.647  -2.749  1.00  0.00    -0.550 OA
ATOM      4  O   UNL     1      -8.377  -2.644  -1.959  1.00  0.00    -0.550 OA
ENDROOT
TORSDOF 0
ENDMDL
MODEL 5
REMARK VINA RESULT:    -2.389      1.136      2.057
REMARK INTER + INTRA:          -2.389
REMARK INTER:                  -2.389
REMARK INTRA:                   0.000
REMARK UNBOUND:                 0.000
REMARK SMILES CC(=O)[O-]
REMARK SMILES IDX 1 1 2 2 3 3 4 4
REMARK H PARENT
REMARK Flexibility Score: inf
ROOT
ATOM      1  C   UNL     1     -10.335  -3.600  -1.270  1.00  0.00     0.063 C 
ATOM      2  C   UNL     1      -9.944  -3.754  -2.700  1.00  0.00     0.038 C 
ATOM      3  O   UNL     1      -9.228  -4.725  -3.057  1.00  0.00    -0.550 OA
ATOM      4  O   UNL     1     -10.414  -2.858  -3.651  1.00  0.00    -0.550 OA
ENDROOT
TORSDOF 0
ENDMDL
MODEL 6
REMARK VINA RESULT:    -2.305     10.510     11.006
REMARK INTER + INTRA:          -2.305
REMARK INTER:                  -2.305
REMARK INTRA:                   0.000
REMARK UNBOUND:                 0.000
REMARK SMILES CC(=O)[O-]
REMARK SMILES IDX 1 1 2 2 3 3 4 4
REMARK H PARENT
REMARK Flexibility Score: inf
ROOT
ATOM      1  C   UNL     1      -8.997   5.926  -0.126  1.00  0.00     0.063 C 
ATOM      2  C   UNL     1      -8.984   7.236  -0.838  1.00  0.00     0.038 C 
ATOM      3  O   UNL     1      -9.028   7.270  -2.095  1.00  0.00    -0.550 OA
ATOM      4  O   UNL     1      -8.978   8.421  -0.115  1.00  0.00    -0.550 OA
ENDROOT
TORSDOF 0
ENDMDL
MODEL 7
REMARK VINA RESULT:    -2.243      5.794      6.229
REMARK INTER + INTRA:          -2.243
REMARK INTER:                  -2.243
REMARK INTRA:                   0.000
REMARK UNBOUND:                 0.000
REMARK SMILES CC(=O)[O-]
REMARK SMILES IDX 1 1 2 2 3 3 4 4
REMARK H PARENT
REMARK Flexibility Score: inf
ROOT
ATOM      1  C   UNL     1      -8.143  -6.384  -7.030  1.00  0.00     0.063 C 
ATOM      2  C   UNL     1      -7.912  -7.080  -5.732  1.00  0.00     0.038 C 
ATOM      3  O   UNL     1      -8.875  -7.288  -4.948  1.00  0.00    -0.550 OA
ATOM      4  O   UNL     1      -6.646  -7.551  -5.409  1.00  0.00    -0.550 OA
ENDROOT
TORSDOF 0
ENDMDL
MODEL 8
REMARK VINA RESULT:    -2.164     19.715     19.728
REMARK INTER + INTRA:          -2.164
REMARK INTER:                  -2.164
REMARK INTRA:                   0.000
REMARK UNBOUND:                 0.000
REMARK SMILES CC(=O)[O-]
REMARK SMILES IDX 1 1 2 2 3 3 4 4
REMARK H PARENT
REMARK Flexibility Score: inf
ROOT
ATOM      1  C   UNL     1       2.325   9.768   8.950  1.00  0.00     0.063 C 
ATOM      2  C   UNL     1       1.746   8.582   8.254  1.00  0.00     0.038 C 
ATOM      3  O   UNL     1       2.098   8.307   7.078  1.00  0.00    -0.550 OA
ATOM      4  O   UNL     1       0.859   7.748   8.921  1.00  0.00    -0.550 OA
ENDROOT
TORSDOF 0
ENDMDL
MODEL 9
REMARK VINA RESULT:    -2.018      2.376      2.813
REMARK INTER + INTRA:          -2.018
REMARK INTER:                  -2.018
REMARK INTRA:                   0.000
REMARK UNBOUND:                 0.000
REMARK SMILES CC(=O)[O-]
REMARK SMILES IDX 1 1 2 2 3 3 4 4
REMARK H PARENT
REMARK Flexibility Score: inf
ROOT
ATOM      1  C   UNL     1     -10.902  -3.516  -3.102  1.00  0.00     0.063 C 
ATOM      2  C   UNL     1     -10.194  -4.764  -3.509  1.00  0.00     0.038 C 
ATOM      3  O   UNL     1      -8.937  -4.807  -3.500  1.00  0.00    -0.550 OA
ATOM      4  O   UNL     1     -10.921  -5.899  -3.844  1.00  0.00    -0.550 OA
ENDROOT
TORSDOF 0
ENDMDL
