MODEL 1
REMARK VINA RESULT:    -4.226      0.000      0.000
REMARK INTER + INTRA:         -16.361
REMARK INTER:                 -10.650
REMARK INTRA:                  -5.710
REMARK UNBOUND:                -5.710
REMARK SMILES CCCCCCCCCCCCCCCCCCCCCCCCCCCC(=O)[O-]
REMARK SMILES IDX 15 1 16 2 17 3 18 4 19 5 20 6 21 7 22 8 23 9 24 10 25 11
REMARK SMILES IDX 26 12 27 13 28 14 29 15 30 16 14 17 13 18 12 19 11 20 10 21
REMARK SMILES IDX 9 22 8 23 7 24 6 25 5 26 4 27 3 28 2 29 1 30
REMARK H PARENT
REMARK Flexibility Score: inf
ROOT
ATOM      1  C   UNL     1      47.500   0.794  21.582  1.00  0.00     0.000 C 
ENDROOT
BRANCH   1   2
ATOM      2  C   UNL     1      47.888  -0.681  21.794  1.00  0.00     0.000 C 
BRANCH   2   3
ATOM      3  C   UNL     1      49.177  -0.843  22.615  1.00  0.00     0.000 C 
BRANCH   3   4
ATOM      4  C   UNL     1      49.612   0.466  23.296  1.00  0.00     0.000 C 
BRANCH   4   5
ATOM      5  C   UNL     1      51.124   0.717  23.162  1.00  0.00     0.000 C 
BRANCH   5   6
ATOM      6  C   UNL     1      51.440   2.065  22.490  1.00  0.00     0.000 C 
BRANCH   6   7
ATOM      7  C   UNL     1      51.066   2.079  20.998  1.00  0.00     0.000 C 
BRANCH   7   8
ATOM      8  C   UNL     1      50.191   3.285  20.628  1.00  0.00     0.000 C 
BRANCH   8   9
ATOM      9  C   UNL     1      49.611   3.957  21.883  1.00  0.00     0.000 C 
BRANCH   9  10
ATOM     10  C   UNL     1      48.974   5.329  21.573  1.00  0.00     0.000 C 
BRANCH  10  11
ATOM     11  C   UNL     1      49.257   6.407  22.637  1.00  0.00     0.000 C 
BRANCH  11  12
ATOM     12  C   UNL     1      49.379   7.841  22.094  1.00  0.00     0.006 C 
BRANCH  12  13
ATOM     13  C   UNL     1      49.463   7.895  20.562  1.00  0.00     0.053 C 
BRANCH  13  14
ATOM     14  C   UNL     1      48.261   8.572  19.985  1.00  0.00     0.041 C 
ATOM     15  O   UNL     1      48.312   9.789  19.661  1.00  0.00    -0.550 OA
ATOM     16  O   UNL     1      47.068   7.872  19.841  1.00  0.00    -0.550 OA
ENDBRANCH  13  14
ENDBRANCH  12  13
ENDBRANCH  11  12
ENDBRANCH  10  11
ENDBRANCH   9  10
ENDBRANCH   8   9
ENDBRANCH   7   8
ENDBRANCH   6   7
ENDBRANCH   5   6
ENDBRANCH   4   5
ENDBRANCH   3   4
ENDBRANCH   2   3
ENDBRANCH   1   2
BRANCH   1  17
ATOM     17  C   UNL     1      47.000   1.076  20.154  1.00  0.00     0.000 C 
BRANCH  17  18
ATOM     18  C   UNL     1      46.586   2.537  19.890  1.00  0.00     0.000 C 
BRANCH  18  19
ATOM     19  C   UNL     1      45.893   3.247  21.071  1.00  0.00     0.000 C 
BRANCH  19  20
ATOM     20  C   UNL     1      44.364   3.377  20.948  1.00  0.00     0.000 C 
BRANCH  20  21
ATOM     21  C   UNL     1      43.604   2.484  21.939  1.00  0.00     0.000 C 
BRANCH  21  22
ATOM     22  C   UNL     1      43.447   1.062  21.381  1.00  0.00    -0.000 C 
BRANCH  22  23
ATOM     23  C   UNL     1      43.667  -0.031  22.446  1.00  0.00    -0.000 C 
BRANCH  23  24
ATOM     24  C   UNL     1      44.127   0.480  23.825  1.00  0.00    -0.000 C 
BRANCH  24  25
ATOM     25  C   UNL     1      45.225  -0.360  24.508  1.00  0.00    -0.000 C 
BRANCH  25  26
ATOM     26  C   UNL     1      46.402   0.473  25.066  1.00  0.00    -0.000 C 
BRANCH  26  27
ATOM     27  C   UNL     1      46.080   1.963  25.283  1.00  0.00    -0.000 C 
BRANCH  27  28
ATOM     28  C   UNL     1      46.933   2.890  24.399  1.00  0.00    -0.000 C 
BRANCH  28  29
ATOM     29  C   UNL     1      47.876   3.780  25.223  1.00  0.00    -0.003 C 
ATOM     30  C   UNL     1      48.951   2.978  25.960  1.00  0.00     0.004 C 
ENDBRANCH  28  29
ENDBRANCH  27  28
ENDBRANCH  26  27
ENDBRANCH  25  26
ENDBRANCH  24  25
ENDBRANCH  23  24
ENDBRANCH  22  23
ENDBRANCH  21  22
ENDBRANCH  20  21
ENDBRANCH  19  20
ENDBRANCH  18  19
ENDBRANCH  17  18
ENDBRANCH   1  17
TORSDOF 26
ENDMDL
MODEL 2
REMARK VINA RESULT:    -4.129      2.338      5.581
REMARK INTER + INTRA:         -16.115
REMARK INTER:                 -11.457
REMARK INTRA:                  -4.657
REMARK UNBOUND:                -5.710
REMARK SMILES CCCCCCCCCCCCCCCCCCCCCCCCCCCC(=O)[O-]
REMARK SMILES IDX 15 1 16 2 17 3 18 4 19 5 20 6 21 7 22 8 23 9 24 10 25 11
REMARK SMILES IDX 26 12 27 13 28 14 29 15 30 16 14 17 13 18 12 19 11 20 10 21
REMARK SMILES IDX 9 22 8 23 7 24 6 25 5 26 4 27 3 28 2 29 1 30
REMARK H PARENT
REMARK Flexibility Score: inf
ROOT
ATOM      1  C   UNL     1      49.233   6.163  21.870  1.00  0.00     0.000 C 
ENDROOT
BRANCH   1   2
ATOM      2  C   UNL     1      49.851   6.833  23.111  1.00  0.00     0.000 C 
BRANCH   2   3
ATOM      3  C   UNL     1      49.803   5.933  24.356  1.00  0.00     0.000 C 
BRANCH   3   4
ATOM      4  C   UNL     1      49.184   6.641  25.574  1.00  0.00     0.000 C 
BRANCH   4   5
ATOM      5  C   UNL     1      48.538   7.986  25.201  1.00  0.00     0.000 C 
BRANCH   5   6
ATOM      6  C   UNL     1      47.026   7.862  24.942  1.00  0.00     0.000 C 
BRANCH   6   7
ATOM      7  C   UNL     1      46.456   9.083  24.200  1.00  0.00     0.000 C 
BRANCH   7   8
ATOM      8  C   UNL     1      47.496   9.747  23.285  1.00  0.00     0.000 C 
BRANCH   8   9
ATOM      9  C   UNL     1      46.871  10.891  22.472  1.00  0.00     0.000 C 
BRANCH   9  10
ATOM     10  C   UNL     1      46.700  10.525  20.981  1.00  0.00     0.000 C 
BRANCH  10  11
ATOM     11  C   UNL     1      46.762   9.012  20.694  1.00  0.00     0.000 C 
BRANCH  11  12
ATOM     12  C   UNL     1      47.614   8.614  19.477  1.00  0.00     0.006 C 
BRANCH  12  13
ATOM     13  C   UNL     1      48.906   9.436  19.358  1.00  0.00     0.053 C 
BRANCH  13  14
ATOM     14  C   UNL     1      49.938   8.695  18.568  1.00  0.00     0.041 C 
ATOM     15  O   UNL     1      50.978   8.260  19.132  1.00  0.00    -0.550 OA
ATOM     16  O   UNL     1      49.773   8.515  17.199  1.00  0.00    -0.550 OA
ENDBRANCH  13  14
ENDBRANCH  12  13
ENDBRANCH  11  12
ENDBRANCH  10  11
ENDBRANCH   9  10
ENDBRANCH   8   9
ENDBRANCH   7   8
ENDBRANCH   6   7
ENDBRANCH   5   6
ENDBRANCH   4   5
ENDBRANCH   3   4
ENDBRANCH   2   3
ENDBRANCH   1   2
BRANCH   1  17
ATOM     17  C   UNL     1      48.042   5.253  22.218  1.00  0.00     0.000 C 
BRANCH  17  18
ATOM     18  C   UNL     1      46.705   5.658  21.567  1.00  0.00     0.000 C 
BRANCH  18  19
ATOM     19  C   UNL     1      45.889   4.496  20.966  1.00  0.00     0.000 C 
BRANCH  19  20
ATOM     20  C   UNL     1      46.356   3.089  21.377  1.00  0.00     0.000 C 
BRANCH  20  21
ATOM     21  C   UNL     1      46.605   2.164  20.175  1.00  0.00     0.000 C 
BRANCH  21  22
ATOM     22  C   UNL     1      47.525   0.999  20.565  1.00  0.00    -0.000 C 
BRANCH  22  23
ATOM     23  C   UNL     1      47.534   0.721  22.081  1.00  0.00    -0.000 C 
BRANCH  23  24
ATOM     24  C   UNL     1      48.929   0.700  22.737  1.00  0.00    -0.000 C 
BRANCH  24  25
ATOM     25  C   UNL     1      49.356   2.013  23.424  1.00  0.00    -0.000 C 
BRANCH  25  26
ATOM     26  C   UNL     1      50.607   2.674  22.802  1.00  0.00    -0.000 C 
BRANCH  26  27
ATOM     27  C   UNL     1      50.957   2.169  21.390  1.00  0.00    -0.000 C 
BRANCH  27  28
ATOM     28  C   UNL     1      50.422   3.092  20.280  1.00  0.00    -0.000 C 
BRANCH  28  29
ATOM     29  C   UNL     1      51.502   3.452  19.247  1.00  0.00    -0.003 C 
ATOM     30  C   UNL     1      52.622   2.411  19.177  1.00  0.00     0.004 C 
ENDBRANCH  28  29
ENDBRANCH  27  28
ENDBRANCH  26  27
ENDBRANCH  25  26
ENDBRANCH  24  25
ENDBRANCH  23  24
ENDBRANCH  22  23
ENDBRANCH  21  22
ENDBRANCH  20  21
ENDBRANCH  19  20
ENDBRANCH  18  19
ENDBRANCH  17  18
ENDBRANCH   1  17
TORSDOF 26
ENDMDL
MODEL 3
REMARK VINA RESULT:    -4.003      2.568      6.916
REMARK INTER + INTRA:         -15.797
REMARK INTER:                 -10.792
REMARK INTRA:                  -5.005
REMARK UNBOUND:                -5.710
REMARK SMILES CCCCCCCCCCCCCCCCCCCCCCCCCCCC(=O)[O-]
REMARK SMILES IDX 15 1 16 2 17 3 18 4 19 5 20 6 21 7 22 8 23 9 24 10 25 11
REMARK SMILES IDX 26 12 27 13 28 14 29 15 30 16 14 17 13 18 12 19 11 20 10 21
REMARK SMILES IDX 9 22 8 23 7 24 6 25 5 26 4 27 3 28 2 29 1 30
REMARK H PARENT
REMARK Flexibility Score: inf
ROOT
ATOM      1  C   UNL     1      45.403   4.483  23.719  1.00  0.00     0.000 C 
ENDROOT
BRANCH   1   2
ATOM      2  C   UNL     1      44.759   5.002  22.420  1.00  0.00     0.000 C 
BRANCH   2   3
ATOM      3  C   UNL     1      43.647   4.078  21.900  1.00  0.00     0.000 C 
BRANCH   3   4
ATOM      4  C   UNL     1      44.101   3.218  20.709  1.00  0.00     0.000 C 
BRANCH   4   5
ATOM      5  C   UNL     1      45.458   3.672  20.146  1.00  0.00     0.000 C 
BRANCH   5   6
ATOM      6  C   UNL     1      46.514   2.553  20.179  1.00  0.00     0.000 C 
BRANCH   6   7
ATOM      7  C   UNL     1      46.026   1.308  20.940  1.00  0.00     0.000 C 
BRANCH   7   8
ATOM      8  C   UNL     1      46.962   0.927  22.096  1.00  0.00     0.000 C 
BRANCH   8   9
ATOM      9  C   UNL     1      47.895  -0.228  21.698  1.00  0.00     0.000 C 
BRANCH   9  10
ATOM     10  C   UNL     1      49.381   0.103  21.955  1.00  0.00     0.000 C 
BRANCH  10  11
ATOM     11  C   UNL     1      49.649   1.588  22.270  1.00  0.00     0.000 C 
BRANCH  11  12
ATOM     12  C   UNL     1      50.852   2.203  21.535  1.00  0.00     0.006 C 
BRANCH  12  13
ATOM     13  C   UNL     1      50.469   2.843  20.193  1.00  0.00     0.053 C 
BRANCH  13  14
ATOM     14  C   UNL     1      51.671   3.006  19.318  1.00  0.00     0.041 C 
ATOM     15  O   UNL     1      52.504   2.067  19.203  1.00  0.00    -0.550 OA
ATOM     16  O   UNL     1      51.896   4.209  18.657  1.00  0.00    -0.550 OA
ENDBRANCH  13  14
ENDBRANCH  12  13
ENDBRANCH  11  12
ENDBRANCH  10  11
ENDBRANCH   9  10
ENDBRANCH   8   9
ENDBRANCH   7   8
ENDBRANCH   6   7
ENDBRANCH   5   6
ENDBRANCH   4   5
ENDBRANCH   3   4
ENDBRANCH   2   3
ENDBRANCH   1   2
BRANCH   1  17
ATOM     17  C   UNL     1      46.905   4.188  23.560  1.00  0.00     0.000 C 
BRANCH  17  18
ATOM     18  C   UNL     1      47.663   5.163  22.639  1.00  0.00     0.000 C 
BRANCH  18  19
ATOM     19  C   UNL     1      49.187   5.229  22.865  1.00  0.00     0.000 C 
BRANCH  19  20
ATOM     20  C   UNL     1      49.620   5.609  24.292  1.00  0.00     0.000 C 
BRANCH  20  21
ATOM     21  C   UNL     1      50.069   7.073  24.414  1.00  0.00     0.000 C 
BRANCH  21  22
ATOM     22  C   UNL     1      49.279   7.795  25.515  1.00  0.00    -0.000 C 
BRANCH  22  23
ATOM     23  C   UNL     1      47.891   8.272  25.047  1.00  0.00    -0.000 C 
BRANCH  23  24
ATOM     24  C   UNL     1      47.856   9.684  24.429  1.00  0.00    -0.000 C 
BRANCH  24  25
ATOM     25  C   UNL     1      47.281   9.765  23.001  1.00  0.00    -0.000 C 
BRANCH  25  26
ATOM     26  C   UNL     1      46.458   8.526  22.579  1.00  0.00    -0.000 C 
BRANCH  26  27
ATOM     27  C   UNL     1      46.320   8.343  21.055  1.00  0.00    -0.000 C 
BRANCH  27  28
ATOM     28  C   UNL     1      47.433   9.060  20.269  1.00  0.00    -0.000 C 
BRANCH  28  29
ATOM     29  C   UNL     1      48.494   8.083  19.736  1.00  0.00    -0.003 C 
ATOM     30  C   UNL     1      49.756   8.054  20.601  1.00  0.00     0.004 C 
ENDBRANCH  28  29
ENDBRANCH  27  28
ENDBRANCH  26  27
ENDBRANCH  25  26
ENDBRANCH  24  25
ENDBRANCH  23  24
ENDBRANCH  22  23
ENDBRANCH  21  22
ENDBRANCH  20  21
ENDBRANCH  19  20
ENDBRANCH  18  19
ENDBRANCH  17  18
ENDBRANCH   1  17
TORSDOF 26
ENDMDL
MODEL 4
REMARK VINA RESULT:    -3.954      3.142      6.625
REMARK INTER + INTRA:         -15.675
REMARK INTER:                 -10.957
REMARK INTRA:                  -4.718
REMARK UNBOUND:                -5.710
REMARK SMILES CCCCCCCCCCCCCCCCCCCCCCCCCCCC(=O)[O-]
REMARK SMILES IDX 15 1 16 2 17 3 18 4 19 5 20 6 21 7 22 8 23 9 24 10 25 11
REMARK SMILES IDX 26 12 27 13 28 14 29 15 30 16 14 17 13 18 12 19 11 20 10 21
REMARK SMILES IDX 9 22 8 23 7 24 6 25 5 26 4 27 3 28 2 29 1 30
REMARK H PARENT
REMARK Flexibility Score: inf
ROOT
ATOM      1  C   UNL     1      45.558   4.658  23.817  1.00  0.00     0.000 C 
ENDROOT
BRANCH   1   2
ATOM      2  C   UNL     1      44.940   5.124  22.485  1.00  0.00     0.000 C 
BRANCH   2   3
ATOM      3  C   UNL     1      43.743   4.263  22.053  1.00  0.00     0.000 C 
BRANCH   3   4
ATOM      4  C   UNL     1      44.069   3.358  20.852  1.00  0.00     0.000 C 
BRANCH   4   5
ATOM      5  C   UNL     1      45.400   3.737  20.181  1.00  0.00     0.000 C 
BRANCH   5   6
ATOM      6  C   UNL     1      46.450   2.616  20.280  1.00  0.00     0.000 C 
BRANCH   6   7
ATOM      7  C   UNL     1      45.938   1.402  21.075  1.00  0.00     0.000 C 
BRANCH   7   8
ATOM      8  C   UNL     1      46.767   1.143  22.341  1.00  0.00     0.000 C 
BRANCH   8   9
ATOM      9  C   UNL     1      47.694  -0.070  22.160  1.00  0.00     0.000 C 
BRANCH   9  10
ATOM     10  C   UNL     1      49.184   0.333  22.108  1.00  0.00     0.000 C 
BRANCH  10  11
ATOM     11  C   UNL     1      49.424   1.855  22.137  1.00  0.00     0.000 C 
BRANCH  11  12
ATOM     12  C   UNL     1      50.680   2.330  21.386  1.00  0.00     0.006 C 
BRANCH  12  13
ATOM     13  C   UNL     1      50.350   3.122  20.112  1.00  0.00     0.053 C 
BRANCH  13  14
ATOM     14  C   UNL     1      51.568   3.290  19.260  1.00  0.00     0.041 C 
ATOM     15  O   UNL     1      52.347   2.319  19.067  1.00  0.00    -0.550 OA
ATOM     16  O   UNL     1      51.867   4.532  18.709  1.00  0.00    -0.550 OA
ENDBRANCH  13  14
ENDBRANCH  12  13
ENDBRANCH  11  12
ENDBRANCH  10  11
ENDBRANCH   9  10
ENDBRANCH   8   9
ENDBRANCH   7   8
ENDBRANCH   6   7
ENDBRANCH   5   6
ENDBRANCH   4   5
ENDBRANCH   3   4
ENDBRANCH   2   3
ENDBRANCH   1   2
BRANCH   1  17
ATOM     17  C   UNL     1      47.086   4.495  23.737  1.00  0.00     0.000 C 
BRANCH  17  18
ATOM     18  C   UNL     1      47.767   5.316  22.624  1.00  0.00     0.000 C 
BRANCH  18  19
ATOM     19  C   UNL     1      49.249   5.663  22.878  1.00  0.00     0.000 C 
BRANCH  19  20
ATOM     20  C   UNL     1      49.860   5.031  24.141  1.00  0.00     0.000 C 
BRANCH  20  21
ATOM     21  C   UNL     1      50.396   6.072  25.135  1.00  0.00     0.000 C 
BRANCH  21  22
ATOM     22  C   UNL     1      50.183   5.606  26.582  1.00  0.00    -0.000 C 
BRANCH  22  23
ATOM     23  C   UNL     1      48.765   5.901  27.107  1.00  0.00    -0.000 C 
BRANCH  23  24
ATOM     24  C   UNL     1      48.668   7.059  28.120  1.00  0.00    -0.000 C 
BRANCH  24  25
ATOM     25  C   UNL     1      47.664   8.171  27.758  1.00  0.00    -0.000 C 
BRANCH  25  26
ATOM     26  C   UNL     1      46.332   7.653  27.168  1.00  0.00    -0.000 C 
BRANCH  26  27
ATOM     27  C   UNL     1      45.955   8.274  25.809  1.00  0.00    -0.000 C 
BRANCH  27  28
ATOM     28  C   UNL     1      47.141   8.322  24.829  1.00  0.00    -0.000 C 
BRANCH  28  29
ATOM     29  C   UNL     1      47.446   9.751  24.350  1.00  0.00    -0.003 C 
ATOM     30  C   UNL     1      46.184  10.530  23.976  1.00  0.00     0.004 C 
ENDBRANCH  28  29
ENDBRANCH  27  28
ENDBRANCH  26  27
ENDBRANCH  25  26
ENDBRANCH  24  25
ENDBRANCH  23  24
ENDBRANCH  22  23
ENDBRANCH  21  22
ENDBRANCH  20  21
ENDBRANCH  19  20
ENDBRANCH  18  19
ENDBRANCH  17  18
ENDBRANCH   1  17
TORSDOF 26
ENDMDL
MODEL 5
REMARK VINA RESULT:    -3.946      2.876      6.991
REMARK INTER + INTRA:         -15.653
REMARK INTER:                 -10.087
REMARK INTRA:                  -5.566
REMARK UNBOUND:                -5.710
REMARK SMILES CCCCCCCCCCCCCCCCCCCCCCCCCCCC(=O)[O-]
REMARK SMILES IDX 15 1 16 2 17 3 18 4 19 5 20 6 21 7 22 8 23 9 24 10 25 11
REMARK SMILES IDX 26 12 27 13 28 14 29 15 30 16 14 17 13 18 12 19 11 20 10 21
REMARK SMILES IDX 9 22 8 23 7 24 6 25 5 26 4 27 3 28 2 29 1 30
REMARK H PARENT
REMARK Flexibility Score: inf
ROOT
ATOM      1  C   UNL     1      47.814   4.899  25.255  1.00  0.00     0.000 C 
ENDROOT
BRANCH   1   2
ATOM      2  C   UNL     1      47.773   3.391  25.565  1.00  0.00     0.000 C 
BRANCH   2   3
ATOM      3  C   UNL     1      46.432   2.744  25.184  1.00  0.00     0.000 C 
BRANCH   3   4
ATOM      4  C   UNL     1      45.493   3.718  24.451  1.00  0.00     0.000 C 
BRANCH   4   5
ATOM      5  C   UNL     1      44.726   3.036  23.305  1.00  0.00     0.000 C 
BRANCH   5   6
ATOM      6  C   UNL     1      44.221   4.041  22.254  1.00  0.00     0.000 C 
BRANCH   6   7
ATOM      7  C   UNL     1      44.830   3.791  20.863  1.00  0.00     0.000 C 
BRANCH   7   8
ATOM      8  C   UNL     1      45.452   2.392  20.742  1.00  0.00     0.000 C 
BRANCH   8   9
ATOM      9  C   UNL     1      46.859   2.462  20.126  1.00  0.00     0.000 C 
BRANCH   9  10
ATOM     10  C   UNL     1      47.970   2.230  21.172  1.00  0.00     0.000 C 
BRANCH  10  11
ATOM     11  C   UNL     1      48.493   3.522  21.830  1.00  0.00     0.000 C 
BRANCH  11  12
ATOM     12  C   UNL     1      49.914   3.936  21.413  1.00  0.00     0.006 C 
BRANCH  12  13
ATOM     13  C   UNL     1      50.541   2.976  20.392  1.00  0.00     0.053 C 
BRANCH  13  14
ATOM     14  C   UNL     1      51.668   2.206  21.006  1.00  0.00     0.041 C 
ATOM     15  O   UNL     1      51.438   1.351  21.903  1.00  0.00    -0.550 OA
ATOM     16  O   UNL     1      52.979   2.460  20.618  1.00  0.00    -0.550 OA
ENDBRANCH  13  14
ENDBRANCH  12  13
ENDBRANCH  11  12
ENDBRANCH  10  11
ENDBRANCH   9  10
ENDBRANCH   8   9
ENDBRANCH   7   8
ENDBRANCH   6   7
ENDBRANCH   5   6
ENDBRANCH   4   5
ENDBRANCH   3   4
ENDBRANCH   2   3
ENDBRANCH   1   2
BRANCH   1  17
ATOM     17  C   UNL     1      48.239   5.743  26.470  1.00  0.00     0.000 C 
BRANCH  17  18
ATOM     18  C   UNL     1      49.690   6.262  26.421  1.00  0.00     0.000 C 
BRANCH  18  19
ATOM     19  C   UNL     1      50.395   6.113  25.058  1.00  0.00     0.000 C 
BRANCH  19  20
ATOM     20  C   UNL     1      49.993   7.154  23.997  1.00  0.00     0.000 C 
BRANCH  20  21
ATOM     21  C   UNL     1      49.911   8.582  24.558  1.00  0.00     0.000 C 
BRANCH  21  22
ATOM     22  C   UNL     1      48.650   9.295  24.050  1.00  0.00    -0.000 C 
BRANCH  22  23
ATOM     23  C   UNL     1      47.442   9.125  24.992  1.00  0.00    -0.000 C 
BRANCH  23  24
ATOM     24  C   UNL     1      46.345   8.168  24.486  1.00  0.00    -0.000 C 
BRANCH  24  25
ATOM     25  C   UNL     1      46.190   8.092  22.953  1.00  0.00    -0.000 C 
BRANCH  25  26
ATOM     26  C   UNL     1      46.707   6.775  22.330  1.00  0.00    -0.000 C 
BRANCH  26  27
ATOM     27  C   UNL     1      47.217   6.913  20.884  1.00  0.00    -0.000 C 
BRANCH  27  28
ATOM     28  C   UNL     1      47.682   8.343  20.553  1.00  0.00    -0.000 C 
BRANCH  28  29
ATOM     29  C   UNL     1      48.968   8.359  19.710  1.00  0.00    -0.003 C 
ATOM     30  C   UNL     1      50.131   7.638  20.394  1.00  0.00     0.004 C 
ENDBRANCH  28  29
ENDBRANCH  27  28
ENDBRANCH  26  27
ENDBRANCH  25  26
ENDBRANCH  24  25
ENDBRANCH  23  24
ENDBRANCH  22  23
ENDBRANCH  21  22
ENDBRANCH  20  21
ENDBRANCH  19  20
ENDBRANCH  18  19
ENDBRANCH  17  18
ENDBRANCH   1  17
TORSDOF 26
ENDMDL
MODEL 6
REMARK VINA RESULT:    -3.944      2.555      7.273
REMARK INTER + INTRA:         -15.650
REMARK INTER:                 -10.180
REMARK INTRA:                  -5.470
REMARK UNBOUND:                -5.710
REMARK SMILES CCCCCCCCCCCCCCCCCCCCCCCCCCCC(=O)[O-]
REMARK SMILES IDX 15 1 16 2 17 3 18 4 19 5 20 6 21 7 22 8 23 9 24 10 25 11
REMARK SMILES IDX 26 12 27 13 28 14 29 15 30 16 14 17 13 18 12 19 11 20 10 21
REMARK SMILES IDX 9 22 8 23 7 24 6 25 5 26 4 27 3 28 2 29 1 30
REMARK H PARENT
REMARK Flexibility Score: inf
ROOT
ATOM      1  C   UNL     1      47.105   4.677  23.641  1.00  0.00     0.000 C 
ENDROOT
BRANCH   1   2
ATOM      2  C   UNL     1      45.937   5.651  23.398  1.00  0.00     0.000 C 
BRANCH   2   3
ATOM      3  C   UNL     1      45.281   5.457  22.022  1.00  0.00     0.000 C 
BRANCH   3   4
ATOM      4  C   UNL     1      46.151   4.625  21.063  1.00  0.00     0.000 C 
BRANCH   4   5
ATOM      5  C   UNL     1      45.317   3.641  20.226  1.00  0.00     0.000 C 
BRANCH   5   6
ATOM      6  C   UNL     1      44.089   3.112  20.988  1.00  0.00     0.000 C 
BRANCH   6   7
ATOM      7  C   UNL     1      44.308   1.692  21.539  1.00  0.00     0.000 C 
BRANCH   7   8
ATOM      8  C   UNL     1      44.890   1.703  22.960  1.00  0.00     0.000 C 
BRANCH   8   9
ATOM      9  C   UNL     1      46.355   1.235  22.963  1.00  0.00     0.000 C 
BRANCH   9  10
ATOM     10  C   UNL     1      46.727   0.465  21.677  1.00  0.00     0.000 C 
BRANCH  10  11
ATOM     11  C   UNL     1      48.166   0.720  21.186  1.00  0.00     0.000 C 
BRANCH  11  12
ATOM     12  C   UNL     1      48.821   2.002  21.729  1.00  0.00     0.006 C 
BRANCH  12  13
ATOM     13  C   UNL     1      49.248   2.971  20.617  1.00  0.00     0.053 C 
BRANCH  13  14
ATOM     14  C   UNL     1      50.706   2.823  20.313  1.00  0.00     0.041 C 
ATOM     15  O   UNL     1      51.213   3.423  19.328  1.00  0.00    -0.550 OA
ATOM     16  O   UNL     1      51.500   1.990  21.094  1.00  0.00    -0.550 OA
ENDBRANCH  13  14
ENDBRANCH  12  13
ENDBRANCH  11  12
ENDBRANCH  10  11
ENDBRANCH   9  10
ENDBRANCH   8   9
ENDBRANCH   7   8
ENDBRANCH   6   7
ENDBRANCH   5   6
ENDBRANCH   4   5
ENDBRANCH   3   4
ENDBRANCH   2   3
ENDBRANCH   1   2
BRANCH   1  17
ATOM     17  C   UNL     1      47.394   4.459  25.137  1.00  0.00     0.000 C 
BRANCH  17  18
ATOM     18  C   UNL     1      48.750   5.009  25.621  1.00  0.00     0.000 C 
BRANCH  18  19
ATOM     19  C   UNL     1      48.691   6.389  26.309  1.00  0.00     0.000 C 
BRANCH  19  20
ATOM     20  C   UNL     1      49.481   7.504  25.602  1.00  0.00     0.000 C 
BRANCH  20  21
ATOM     21  C   UNL     1      50.138   7.039  24.294  1.00  0.00     0.000 C 
BRANCH  21  22
ATOM     22  C   UNL     1      49.542   7.781  23.090  1.00  0.00    -0.000 C 
BRANCH  22  23
ATOM     23  C   UNL     1      49.387   6.885  21.846  1.00  0.00    -0.000 C 
BRANCH  23  24
ATOM     24  C   UNL     1      49.780   7.543  20.509  1.00  0.00    -0.000 C 
BRANCH  24  25
ATOM     25  C   UNL     1      48.706   8.452  19.879  1.00  0.00    -0.000 C 
BRANCH  25  26
ATOM     26  C   UNL     1      47.257   7.946  20.072  1.00  0.00    -0.000 C 
BRANCH  26  27
ATOM     27  C   UNL     1      46.280   9.007  20.610  1.00  0.00    -0.000 C 
BRANCH  27  28
ATOM     28  C   UNL     1      46.998  10.261  21.140  1.00  0.00    -0.000 C 
BRANCH  28  29
ATOM     29  C   UNL     1      46.688  10.529  22.622  1.00  0.00    -0.003 C 
ATOM     30  C   UNL     1      46.260   9.267  23.374  1.00  0.00     0.004 C 
ENDBRANCH  28  29
ENDBRANCH  27  28
ENDBRANCH  26  27
ENDBRANCH  25  26
ENDBRANCH  24  25
ENDBRANCH  23  24
ENDBRANCH  22  23
ENDBRANCH  21  22
ENDBRANCH  20  21
ENDBRANCH  19  20
ENDBRANCH  18  19
ENDBRANCH  17  18
ENDBRANCH   1  17
TORSDOF 26
ENDMDL
MODEL 7
REMARK VINA RESULT:    -3.913      2.936      7.110
REMARK INTER + INTRA:         -15.572
REMARK INTER:                  -9.572
REMARK INTRA:                  -6.000
REMARK UNBOUND:                -5.710
REMARK SMILES CCCCCCCCCCCCCCCCCCCCCCCCCCCC(=O)[O-]
REMARK SMILES IDX 15 1 16 2 17 3 18 4 19 5 20 6 21 7 22 8 23 9 24 10 25 11
REMARK SMILES IDX 26 12 27 13 28 14 29 15 30 16 14 17 13 18 12 19 11 20 10 21
REMARK SMILES IDX 9 22 8 23 7 24 6 25 5 26 4 27 3 28 2 29 1 30
REMARK H PARENT
REMARK Flexibility Score: inf
ROOT
ATOM      1  C   UNL     1      48.491   7.369  22.179  1.00  0.00     0.000 C 
ENDROOT
BRANCH   1   2
ATOM      2  C   UNL     1      47.182   7.365  22.991  1.00  0.00     0.000 C 
BRANCH   2   3
ATOM      3  C   UNL     1      46.099   6.474  22.364  1.00  0.00     0.000 C 
BRANCH   3   4
ATOM      4  C   UNL     1      46.531   5.880  21.012  1.00  0.00     0.000 C 
BRANCH   4   5
ATOM      5  C   UNL     1      45.883   4.511  20.743  1.00  0.00     0.000 C 
BRANCH   5   6
ATOM      6  C   UNL     1      44.673   4.242  21.656  1.00  0.00     0.000 C 
BRANCH   6   7
ATOM      7  C   UNL     1      43.570   3.439  20.945  1.00  0.00     0.000 C 
BRANCH   7   8
ATOM      8  C   UNL     1      43.472   1.997  21.465  1.00  0.00     0.000 C 
BRANCH   8   9
ATOM      9  C   UNL     1      44.476   1.748  22.602  1.00  0.00     0.000 C 
BRANCH   9  10
ATOM     10  C   UNL     1      45.529   0.681  22.230  1.00  0.00     0.000 C 
BRANCH  10  11
ATOM     11  C   UNL     1      46.378   1.040  20.995  1.00  0.00     0.000 C 
BRANCH  11  12
ATOM     12  C   UNL     1      47.786   0.422  20.970  1.00  0.00     0.006 C 
BRANCH  12  13
ATOM     13  C   UNL     1      47.972  -0.684  22.019  1.00  0.00     0.053 C 
BRANCH  13  14
ATOM     14  C   UNL     1      49.223  -0.465  22.808  1.00  0.00     0.041 C 
ATOM     15  O   UNL     1      49.193  -0.497  24.068  1.00  0.00    -0.550 OA
ATOM     16  O   UNL     1      50.419  -0.186  22.156  1.00  0.00    -0.550 OA
ENDBRANCH  13  14
ENDBRANCH  12  13
ENDBRANCH  11  12
ENDBRANCH  10  11
ENDBRANCH   9  10
ENDBRANCH   8   9
ENDBRANCH   7   8
ENDBRANCH   6   7
ENDBRANCH   5   6
ENDBRANCH   4   5
ENDBRANCH   3   4
ENDBRANCH   2   3
ENDBRANCH   1   2
BRANCH   1  17
ATOM     17  C   UNL     1      49.734   7.135  23.056  1.00  0.00     0.000 C 
BRANCH  17  18
ATOM     18  C   UNL     1      49.438   6.917  24.553  1.00  0.00     0.000 C 
BRANCH  18  19
ATOM     19  C   UNL     1      50.425   5.989  25.289  1.00  0.00     0.000 C 
BRANCH  19  20
ATOM     20  C   UNL     1      49.825   5.197  26.464  1.00  0.00     0.000 C 
BRANCH  20  21
ATOM     21  C   UNL     1      48.566   5.854  27.050  1.00  0.00     0.000 C 
BRANCH  21  22
ATOM     22  C   UNL     1      47.398   4.858  27.085  1.00  0.00    -0.000 C 
BRANCH  22  23
ATOM     23  C   UNL     1      46.723   4.674  25.711  1.00  0.00    -0.000 C 
BRANCH  23  24
ATOM     24  C   UNL     1      46.685   3.225  25.188  1.00  0.00    -0.000 C 
BRANCH  24  25
ATOM     25  C   UNL     1      47.952   2.759  24.441  1.00  0.00    -0.000 C 
BRANCH  25  26
ATOM     26  C   UNL     1      48.280   3.586  23.177  1.00  0.00    -0.000 C 
BRANCH  26  27
ATOM     27  C   UNL     1      49.670   3.304  22.576  1.00  0.00    -0.000 C 
BRANCH  27  28
ATOM     28  C   UNL     1      49.816   3.838  21.140  1.00  0.00    -0.000 C 
BRANCH  28  29
ATOM     29  C   UNL     1      50.425   2.797  20.188  1.00  0.00    -0.003 C 
ATOM     30  C   UNL     1      51.536   3.377  19.310  1.00  0.00     0.004 C 
ENDBRANCH  28  29
ENDBRANCH  27  28
ENDBRANCH  26  27
ENDBRANCH  25  26
ENDBRANCH  24  25
ENDBRANCH  23  24
ENDBRANCH  22  23
ENDBRANCH  21  22
ENDBRANCH  20  21
ENDBRANCH  19  20
ENDBRANCH  18  19
ENDBRANCH  17  18
ENDBRANCH   1  17
TORSDOF 26
ENDMDL
MODEL 8
REMARK VINA RESULT:    -3.909      2.595      6.495
REMARK INTER + INTRA:         -15.560
REMARK INTER:                 -10.853
REMARK INTRA:                  -4.707
REMARK UNBOUND:                -5.710
REMARK SMILES CCCCCCCCCCCCCCCCCCCCCCCCCCCC(=O)[O-]
REMARK SMILES IDX 15 1 16 2 17 3 18 4 19 5 20 6 21 7 22 8 23 9 24 10 25 11
REMARK SMILES IDX 26 12 27 13 28 14 29 15 30 16 14 17 13 18 12 19 11 20 10 21
REMARK SMILES IDX 9 22 8 23 7 24 6 25 5 26 4 27 3 28 2 29 1 30
REMARK H PARENT
REMARK Flexibility Score: inf
ROOT
ATOM      1  C   UNL     1      45.879   4.446  20.975  1.00  0.00     0.000 C 
ENDROOT
BRANCH   1   2
ATOM      2  C   UNL     1      45.048   3.381  20.235  1.00  0.00     0.000 C 
BRANCH   2   3
ATOM      3  C   UNL     1      43.840   2.899  21.053  1.00  0.00     0.000 C 
BRANCH   3   4
ATOM      4  C   UNL     1      43.645   1.375  20.978  1.00  0.00     0.000 C 
BRANCH   4   5
ATOM      5  C   UNL     1      43.060   0.798  22.278  1.00  0.00     0.000 C 
BRANCH   5   6
ATOM      6  C   UNL     1      44.080  -0.052  23.057  1.00  0.00     0.000 C 
BRANCH   6   7
ATOM      7  C   UNL     1      44.982   0.801  23.966  1.00  0.00     0.000 C 
BRANCH   7   8
ATOM      8  C   UNL     1      46.466   0.680  23.594  1.00  0.00     0.000 C 
BRANCH   8   9
ATOM      9  C   UNL     1      46.663  -0.269  22.400  1.00  0.00     0.000 C 
BRANCH   9  10
ATOM     10  C   UNL     1      47.349   0.427  21.205  1.00  0.00     0.000 C 
BRANCH  10  11
ATOM     11  C   UNL     1      48.502   1.370  21.603  1.00  0.00     0.000 C 
BRANCH  11  12
ATOM     12  C   UNL     1      48.895   2.405  20.536  1.00  0.00     0.006 C 
BRANCH  12  13
ATOM     13  C   UNL     1      50.179   3.170  20.890  1.00  0.00     0.053 C 
BRANCH  13  14
ATOM     14  C   UNL     1      51.350   2.623  20.137  1.00  0.00     0.041 C 
ATOM     15  O   UNL     1      51.647   3.084  19.002  1.00  0.00    -0.550 OA
ATOM     16  O   UNL     1      52.093   1.575  20.669  1.00  0.00    -0.550 OA
ENDBRANCH  13  14
ENDBRANCH  12  13
ENDBRANCH  11  12
ENDBRANCH  10  11
ENDBRANCH   9  10
ENDBRANCH   8   9
ENDBRANCH   7   8
ENDBRANCH   6   7
ENDBRANCH   5   6
ENDBRANCH   4   5
ENDBRANCH   3   4
ENDBRANCH   2   3
ENDBRANCH   1   2
BRANCH   1  17
ATOM     17  C   UNL     1      45.997   4.163  22.484  1.00  0.00     0.000 C 
BRANCH  17  18
ATOM     18  C   UNL     1      45.392   5.249  23.395  1.00  0.00     0.000 C 
BRANCH  18  19
ATOM     19  C   UNL     1      44.802   6.469  22.659  1.00  0.00     0.000 C 
BRANCH  19  20
ATOM     20  C   UNL     1      45.688   7.728  22.667  1.00  0.00     0.000 C 
BRANCH  20  21
ATOM     21  C   UNL     1      45.116   8.869  21.813  1.00  0.00     0.000 C 
BRANCH  21  22
ATOM     22  C   UNL     1      46.126   9.305  20.741  1.00  0.00    -0.000 C 
BRANCH  22  23
ATOM     23  C   UNL     1      46.928   8.126  20.155  1.00  0.00    -0.000 C 
BRANCH  23  24
ATOM     24  C   UNL     1      48.257   8.510  19.476  1.00  0.00    -0.000 C 
BRANCH  24  25
ATOM     25  C   UNL     1      49.532   8.103  20.243  1.00  0.00    -0.000 C 
BRANCH  25  26
ATOM     26  C   UNL     1      49.304   7.826  21.747  1.00  0.00    -0.000 C 
BRANCH  26  27
ATOM     27  C   UNL     1      49.201   6.333  22.109  1.00  0.00    -0.000 C 
BRANCH  27  28
ATOM     28  C   UNL     1      48.942   6.102  23.609  1.00  0.00    -0.000 C 
BRANCH  28  29
ATOM     29  C   UNL     1      50.070   5.303  24.281  1.00  0.00    -0.003 C 
ATOM     30  C   UNL     1      50.497   5.899  25.624  1.00  0.00     0.004 C 
ENDBRANCH  28  29
ENDBRANCH  27  28
ENDBRANCH  26  27
ENDBRANCH  25  26
ENDBRANCH  24  25
ENDBRANCH  23  24
ENDBRANCH  22  23
ENDBRANCH  21  22
ENDBRANCH  20  21
ENDBRANCH  19  20
ENDBRANCH  18  19
ENDBRANCH  17  18
ENDBRANCH   1  17
TORSDOF 26
ENDMDL
MODEL 9
REMARK VINA RESULT:    -3.898      2.459      6.568
REMARK INTER + INTRA:         -15.534
REMARK INTER:                 -10.607
REMARK INTRA:                  -4.926
REMARK UNBOUND:                -5.710
REMARK SMILES CCCCCCCCCCCCCCCCCCCCCCCCCCCC(=O)[O-]
REMARK SMILES IDX 15 1 16 2 17 3 18 4 19 5 20 6 21 7 22 8 23 9 24 10 25 11
REMARK SMILES IDX 26 12 27 13 28 14 29 15 30 16 14 17 13 18 12 19 11 20 10 21
REMARK SMILES IDX 9 22 8 23 7 24 6 25 5 26 4 27 3 28 2 29 1 30
REMARK H PARENT
REMARK Flexibility Score: inf
ROOT
ATOM      1  C   UNL     1      46.810   4.073  20.979  1.00  0.00     0.000 C 
ENDROOT
BRANCH   1   2
ATOM      2  C   UNL     1      45.761   3.002  20.626  1.00  0.00     0.000 C 
BRANCH   2   3
ATOM      3  C   UNL     1      44.366   3.598  20.382  1.00  0.00     0.000 C 
BRANCH   3   4
ATOM      4  C   UNL     1      43.239   2.719  20.951  1.00  0.00     0.000 C 
BRANCH   4   5
ATOM      5  C   UNL     1      43.442   2.405  22.443  1.00  0.00     0.000 C 
BRANCH   5   6
ATOM      6  C   UNL     1      43.158   0.930  22.779  1.00  0.00     0.000 C 
BRANCH   6   7
ATOM      7  C   UNL     1      44.334   0.008  22.411  1.00  0.00     0.000 C 
BRANCH   7   8
ATOM      8  C   UNL     1      45.499   0.125  23.404  1.00  0.00     0.000 C 
BRANCH   8   9
ATOM      9  C   UNL     1      46.796  -0.445  22.807  1.00  0.00     0.000 C 
BRANCH   9  10
ATOM     10  C   UNL     1      47.999   0.503  23.006  1.00  0.00     0.000 C 
BRANCH  10  11
ATOM     11  C   UNL     1      48.624   1.009  21.691  1.00  0.00     0.000 C 
BRANCH  11  12
ATOM     12  C   UNL     1      49.775   2.015  21.862  1.00  0.00     0.006 C 
BRANCH  12  13
ATOM     13  C   UNL     1      50.205   2.662  20.537  1.00  0.00     0.053 C 
BRANCH  13  14
ATOM     14  C   UNL     1      51.652   2.399  20.262  1.00  0.00     0.041 C 
ATOM     15  O   UNL     1      52.396   1.934  21.166  1.00  0.00    -0.550 OA
ATOM     16  O   UNL     1      52.192   2.704  19.017  1.00  0.00    -0.550 OA
ENDBRANCH  13  14
ENDBRANCH  12  13
ENDBRANCH  11  12
ENDBRANCH  10  11
ENDBRANCH   9  10
ENDBRANCH   8   9
ENDBRANCH   7   8
ENDBRANCH   6   7
ENDBRANCH   5   6
ENDBRANCH   4   5
ENDBRANCH   3   4
ENDBRANCH   2   3
ENDBRANCH   1   2
BRANCH   1  17
ATOM     17  C   UNL     1      46.389   4.945  22.175  1.00  0.00     0.000 C 
BRANCH  17  18
ATOM     18  C   UNL     1      47.062   4.578  23.512  1.00  0.00     0.000 C 
BRANCH  18  19
ATOM     19  C   UNL     1      46.306   3.538  24.364  1.00  0.00     0.000 C 
BRANCH  19  20
ATOM     20  C   UNL     1      47.082   3.001  25.579  1.00  0.00     0.000 C 
BRANCH  20  21
ATOM     21  C   UNL     1      48.602   3.183  25.449  1.00  0.00     0.000 C 
BRANCH  21  22
ATOM     22  C   UNL     1      49.235   3.472  26.817  1.00  0.00    -0.000 C 
BRANCH  22  23
ATOM     23  C   UNL     1      48.909   4.883  27.345  1.00  0.00    -0.000 C 
BRANCH  23  24
ATOM     24  C   UNL     1      48.971   6.008  26.293  1.00  0.00    -0.000 C 
BRANCH  24  25
ATOM     25  C   UNL     1      50.368   6.284  25.702  1.00  0.00    -0.000 C 
BRANCH  25  26
ATOM     26  C   UNL     1      50.345   7.000  24.332  1.00  0.00    -0.000 C 
BRANCH  26  27
ATOM     27  C   UNL     1      49.205   8.023  24.169  1.00  0.00    -0.000 C 
BRANCH  27  28
ATOM     28  C   UNL     1      48.745   8.171  22.707  1.00  0.00    -0.000 C 
BRANCH  28  29
ATOM     29  C   UNL     1      49.353   7.097  21.791  1.00  0.00    -0.003 C 
ATOM     30  C   UNL     1      49.973   7.685  20.522  1.00  0.00     0.004 C 
ENDBRANCH  28  29
ENDBRANCH  27  28
ENDBRANCH  26  27
ENDBRANCH  25  26
ENDBRANCH  24  25
ENDBRANCH  23  24
ENDBRANCH  22  23
ENDBRANCH  21  22
ENDBRANCH  20  21
ENDBRANCH  19  20
ENDBRANCH  18  19
ENDBRANCH  17  18
ENDBRANCH   1  17
TORSDOF 26
ENDMDL
