MODEL 1
REMARK VINA RESULT:    -3.424      0.000      0.000
REMARK INTER + INTRA:          -7.339
REMARK INTER:                  -6.027
REMARK INTRA:                  -1.312
REMARK UNBOUND:                -1.312
REMARK SMILES CCCCCCC=CCCCCCCCC(=O)[O-]
REMARK SMILES IDX 10 1 11 2 12 3 13 4 14 5 15 6 16 7 17 8 18 9 9 10 8 11 7 12
REMARK SMILES IDX 6 13 5 14 4 15 3 16 2 17 1 18
REMARK H PARENT
REMARK Flexibility Score: inf
ROOT
ATOM      1  C   UNL     1     409.910 -85.749 114.634  1.00  0.00     0.004 C 
ENDROOT
BRANCH   1   2
ATOM      2  C   UNL     1     410.519 -84.900 113.505  1.00  0.00     0.000 C 
BRANCH   2   3
ATOM      3  C   UNL     1     412.020 -84.634 113.702  1.00  0.00     0.000 C 
BRANCH   3   4
ATOM      4  C   UNL     1     412.576 -85.299 114.971  1.00  0.00     0.000 C 
BRANCH   4   5
ATOM      5  C   UNL     1     412.868 -84.289 116.090  1.00  0.00     0.006 C 
BRANCH   5   6
ATOM      6  C   UNL     1     412.937 -84.986 117.452  1.00  0.00     0.053 C 
BRANCH   6   7
ATOM      7  C   UNL     1     414.260 -85.664 117.628  1.00  0.00     0.041 C 
ATOM      8  O   UNL     1     415.257 -85.011 118.036  1.00  0.00    -0.550 OA
ATOM      9  O   UNL     1     414.404 -87.004 117.294  1.00  0.00    -0.550 OA
ENDBRANCH   6   7
ENDBRANCH   5   6
ENDBRANCH   4   5
ENDBRANCH   3   4
ENDBRANCH   2   3
ENDBRANCH   1   2
BRANCH   1  10
ATOM     10  C   UNL     1     408.403 -85.506 114.851  1.00  0.00     0.027 C 
BRANCH  10  11
ATOM     11  C   UNL     1     408.119 -84.158 115.471  1.00  0.00    -0.031 C 
ATOM     12  C   UNL     1     407.095 -83.909 116.307  1.00  0.00    -0.031 C 
BRANCH  12  13
ATOM     13  C   UNL     1     406.068 -84.944 116.703  1.00  0.00     0.027 C 
BRANCH  13  14
ATOM     14  C   UNL     1     404.645 -84.381 116.590  1.00  0.00     0.004 C 
BRANCH  14  15
ATOM     15  C   UNL     1     404.145 -84.325 115.138  1.00  0.00     0.000 C 
BRANCH  15  16
ATOM     16  C   UNL     1     404.068 -85.717 114.486  1.00  0.00    -0.000 C 
BRANCH  16  17
ATOM     17  C   UNL     1     405.057 -85.875 113.320  1.00  0.00    -0.003 C 
ATOM     18  C   UNL     1     405.036 -84.685 112.362  1.00  0.00     0.004 C 
ENDBRANCH  16  17
ENDBRANCH  15  16
ENDBRANCH  14  15
ENDBRANCH  13  14
ENDBRANCH  12  13
ENDBRANCH  10  11
ENDBRANCH   1  10
TORSDOF 13
ENDMDL
MODEL 2
REMARK VINA RESULT:    -3.311      5.724      9.095
REMARK INTER + INTRA:          -7.139
REMARK INTER:                  -6.513
REMARK INTRA:                  -0.626
REMARK UNBOUND:                -1.312
REMARK SMILES CCCCCCC=CCCCCCCCC(=O)[O-]
REMARK SMILES IDX 10 1 11 2 12 3 13 4 14 5 15 6 16 7 17 8 18 9 9 10 8 11 7 12
REMARK SMILES IDX 6 13 5 14 4 15 3 16 2 17 1 18
REMARK H PARENT
REMARK Flexibility Score: inf
ROOT
ATOM      1  C   UNL     1     411.241 -83.877 112.456  1.00  0.00     0.004 C 
ENDROOT
BRANCH   1   2
ATOM      2  C   UNL     1     411.938 -83.875 113.827  1.00  0.00     0.000 C 
BRANCH   2   3
ATOM      3  C   UNL     1     411.605 -85.119 114.667  1.00  0.00     0.000 C 
BRANCH   3   4
ATOM      4  C   UNL     1     410.718 -84.793 115.879  1.00  0.00     0.000 C 
BRANCH   4   5
ATOM      5  C   UNL     1     409.262 -84.500 115.486  1.00  0.00     0.006 C 
BRANCH   5   6
ATOM      6  C   UNL     1     408.672 -85.657 114.674  1.00  0.00     0.053 C 
BRANCH   6   7
ATOM      7  C   UNL     1     407.211 -85.807 114.962  1.00  0.00     0.041 C 
ATOM      8  O   UNL     1     406.747 -85.466 116.082  1.00  0.00    -0.550 OA
ATOM      9  O   UNL     1     406.370 -86.372 114.011  1.00  0.00    -0.550 OA
ENDBRANCH   6   7
ENDBRANCH   5   6
ENDBRANCH   4   5
ENDBRANCH   3   4
ENDBRANCH   2   3
ENDBRANCH   1   2
BRANCH   1  10
ATOM     10  C   UNL     1     412.216 -83.944 111.263  1.00  0.00     0.027 C 
BRANCH  10  11
ATOM     11  C   UNL     1     411.506 -84.185 109.952  1.00  0.00    -0.031 C 
ATOM     12  C   UNL     1     412.129 -84.319 108.767  1.00  0.00    -0.031 C 
BRANCH  12  13
ATOM     13  C   UNL     1     413.624 -84.205 108.590  1.00  0.00     0.027 C 
BRANCH  13  14
ATOM     14  C   UNL     1     414.069 -84.803 107.249  1.00  0.00     0.004 C 
BRANCH  14  15
ATOM     15  C   UNL     1     415.515 -85.323 107.283  1.00  0.00     0.000 C 
BRANCH  15  16
ATOM     16  C   UNL     1     416.111 -85.507 105.877  1.00  0.00    -0.000 C 
BRANCH  16  17
ATOM     17  C   UNL     1     415.352 -86.557 105.051  1.00  0.00    -0.003 C 
ATOM     18  C   UNL     1     415.948 -87.958 105.185  1.00  0.00     0.004 C 
ENDBRANCH  16  17
ENDBRANCH  15  16
ENDBRANCH  14  15
ENDBRANCH  13  14
ENDBRANCH  12  13
ENDBRANCH  10  11
ENDBRANCH   1  10
TORSDOF 13
ENDMDL
MODEL 3
REMARK VINA RESULT:    -3.274     12.955     15.355
REMARK INTER + INTRA:          -7.075
REMARK INTER:                  -4.366
REMARK INTRA:                  -2.709
REMARK UNBOUND:                -1.312
REMARK SMILES CCCCCCC=CCCCCCCCC(=O)[O-]
REMARK SMILES IDX 10 1 11 2 12 3 13 4 14 5 15 6 16 7 17 8 18 9 9 10 8 11 7 12
REMARK SMILES IDX 6 13 5 14 4 15 3 16 2 17 1 18
REMARK H PARENT
REMARK Flexibility Score: inf
ROOT
ATOM      1  C   UNL     1     420.451 -85.529 119.802  1.00  0.00     0.004 C 
ENDROOT
BRANCH   1   2
ATOM      2  C   UNL     1     420.350 -87.062 119.878  1.00  0.00     0.000 C 
BRANCH   2   3
ATOM      3  C   UNL     1     420.214 -87.580 121.319  1.00  0.00     0.000 C 
BRANCH   3   4
ATOM      4  C   UNL     1     420.946 -88.913 121.538  1.00  0.00     0.000 C 
BRANCH   4   5
ATOM      5  C   UNL     1     422.168 -89.076 120.621  1.00  0.00     0.006 C 
BRANCH   5   6
ATOM      6  C   UNL     1     423.294 -89.826 121.339  1.00  0.00     0.053 C 
BRANCH   6   7
ATOM      7  C   UNL     1     423.105 -91.305 121.209  1.00  0.00     0.041 C 
ATOM      8  O   UNL     1     422.536 -91.784 120.192  1.00  0.00    -0.550 OA
ATOM      9  O   UNL     1     423.511 -92.151 122.233  1.00  0.00    -0.550 OA
ENDBRANCH   6   7
ENDBRANCH   5   6
ENDBRANCH   4   5
ENDBRANCH   3   4
ENDBRANCH   2   3
ENDBRANCH   1   2
BRANCH   1  10
ATOM     10  C   UNL     1     421.541 -84.931 120.714  1.00  0.00     0.027 C 
BRANCH  10  11
ATOM     11  C   UNL     1     422.920 -85.450 120.381  1.00  0.00    -0.031 C 
ATOM     12  C   UNL     1     423.859 -85.747 121.297  1.00  0.00    -0.031 C 
BRANCH  12  13
ATOM     13  C   UNL     1     423.667 -85.561 122.783  1.00  0.00     0.027 C 
BRANCH  13  14
ATOM     14  C   UNL     1     423.504 -86.913 123.492  1.00  0.00     0.004 C 
BRANCH  14  15
ATOM     15  C   UNL     1     422.262 -86.961 124.395  1.00  0.00     0.000 C 
BRANCH  15  16
ATOM     16  C   UNL     1     421.464 -85.646 124.374  1.00  0.00    -0.000 C 
BRANCH  16  17
ATOM     17  C   UNL     1     419.955 -85.871 124.552  1.00  0.00    -0.003 C 
ATOM     18  C   UNL     1     419.622 -87.276 125.055  1.00  0.00     0.004 C 
ENDBRANCH  16  17
ENDBRANCH  15  16
ENDBRANCH  14  15
ENDBRANCH  13  14
ENDBRANCH  12  13
ENDBRANCH  10  11
ENDBRANCH   1  10
TORSDOF 13
ENDMDL
MODEL 4
REMARK VINA RESULT:    -3.211      5.331      9.116
REMARK INTER + INTRA:          -6.963
REMARK INTER:                  -6.215
REMARK INTRA:                  -0.748
REMARK UNBOUND:                -1.312
REMARK SMILES CCCCCCC=CCCCCCCCC(=O)[O-]
REMARK SMILES IDX 10 1 11 2 12 3 13 4 14 5 15 6 16 7 17 8 18 9 9 10 8 11 7 12
REMARK SMILES IDX 6 13 5 14 4 15 3 16 2 17 1 18
REMARK H PARENT
REMARK Flexibility Score: inf
ROOT
ATOM      1  C   UNL     1     411.303 -84.781 113.793  1.00  0.00     0.004 C 
ENDROOT
BRANCH   1   2
ATOM      2  C   UNL     1     410.449 -83.884 114.704  1.00  0.00     0.000 C 
BRANCH   2   3
ATOM      3  C   UNL     1     408.942 -84.165 114.575  1.00  0.00     0.000 C 
BRANCH   3   4
ATOM      4  C   UNL     1     408.597 -85.645 114.802  1.00  0.00     0.000 C 
BRANCH   4   5
ATOM      5  C   UNL     1     407.095 -85.932 114.658  1.00  0.00     0.006 C 
BRANCH   5   6
ATOM      6  C   UNL     1     406.413 -84.857 113.806  1.00  0.00     0.053 C 
BRANCH   6   7
ATOM      7  C   UNL     1     405.140 -85.382 113.218  1.00  0.00     0.041 C 
ATOM      8  O   UNL     1     404.819 -85.088 112.036  1.00  0.00    -0.550 OA
ATOM      9  O   UNL     1     404.285 -86.155 113.992  1.00  0.00    -0.550 OA
ENDBRANCH   6   7
ENDBRANCH   5   6
ENDBRANCH   4   5
ENDBRANCH   3   4
ENDBRANCH   2   3
ENDBRANCH   1   2
BRANCH   1  10
ATOM     10  C   UNL     1     411.965 -84.028 112.621  1.00  0.00     0.027 C 
BRANCH  10  11
ATOM     11  C   UNL     1     411.088 -83.992 111.391  1.00  0.00    -0.031 C 
ATOM     12  C   UNL     1     411.553 -84.008 110.129  1.00  0.00    -0.031 C 
BRANCH  12  13
ATOM     13  C   UNL     1     413.022 -84.025 109.779  1.00  0.00     0.027 C 
BRANCH  13  14
ATOM     14  C   UNL     1     413.231 -84.330 108.289  1.00  0.00     0.004 C 
BRANCH  14  15
ATOM     15  C   UNL     1     414.670 -84.056 107.825  1.00  0.00     0.000 C 
BRANCH  15  16
ATOM     16  C   UNL     1     415.406 -85.336 107.394  1.00  0.00    -0.000 C 
BRANCH  16  17
ATOM     17  C   UNL     1     416.504 -85.746 108.388  1.00  0.00    -0.003 C 
ATOM     18  C   UNL     1     417.410 -84.580 108.781  1.00  0.00     0.004 C 
ENDBRANCH  16  17
ENDBRANCH  15  16
ENDBRANCH  14  15
ENDBRANCH  13  14
ENDBRANCH  12  13
ENDBRANCH  10  11
ENDBRANCH   1  10
TORSDOF 13
ENDMDL
MODEL 5
REMARK VINA RESULT:    -3.194      0.954      2.526
REMARK INTER + INTRA:          -6.934
REMARK INTER:                  -5.953
REMARK INTRA:                  -0.981
REMARK UNBOUND:                -1.312
REMARK SMILES CCCCCCC=CCCCCCCCC(=O)[O-]
REMARK SMILES IDX 10 1 11 2 12 3 13 4 14 5 15 6 16 7 17 8 18 9 9 10 8 11 7 12
REMARK SMILES IDX 6 13 5 14 4 15 3 16 2 17 1 18
REMARK H PARENT
REMARK Flexibility Score: inf
ROOT
ATOM      1  C   UNL     1     409.640 -84.844 115.150  1.00  0.00     0.004 C 
ENDROOT
BRANCH   1   2
ATOM      2  C   UNL     1     410.077 -84.698 113.683  1.00  0.00     0.000 C 
BRANCH   2   3
ATOM      3  C   UNL     1     411.591 -84.478 113.531  1.00  0.00     0.000 C 
BRANCH   3   4
ATOM      4  C   UNL     1     412.411 -85.294 114.543  1.00  0.00     0.000 C 
BRANCH   4   5
ATOM      5  C   UNL     1     412.850 -84.462 115.757  1.00  0.00     0.006 C 
BRANCH   5   6
ATOM      6  C   UNL     1     412.726 -85.273 117.051  1.00  0.00     0.053 C 
BRANCH   6   7
ATOM      7  C   UNL     1     414.079 -85.660 117.560  1.00  0.00     0.041 C 
ATOM      8  O   UNL     1     414.454 -86.861 117.512  1.00  0.00    -0.550 OA
ATOM      9  O   UNL     1     414.905 -84.702 118.133  1.00  0.00    -0.550 OA
ENDBRANCH   6   7
ENDBRANCH   5   6
ENDBRANCH   4   5
ENDBRANCH   3   4
ENDBRANCH   2   3
ENDBRANCH   1   2
BRANCH   1  10
ATOM     10  C   UNL     1     408.114 -84.762 115.355  1.00  0.00     0.027 C 
BRANCH  10  11
ATOM     11  C   UNL     1     407.413 -86.048 114.985  1.00  0.00    -0.031 C 
ATOM     12  C   UNL     1     406.378 -86.127 114.129  1.00  0.00    -0.031 C 
BRANCH  12  13
ATOM     13  C   UNL     1     405.756 -84.927 113.456  1.00  0.00     0.027 C 
BRANCH  13  14
ATOM     14  C   UNL     1     404.276 -84.784 113.839  1.00  0.00     0.004 C 
BRANCH  14  15
ATOM     15  C   UNL     1     404.024 -85.044 115.332  1.00  0.00     0.000 C 
BRANCH  15  16
ATOM     16  C   UNL     1     404.482 -83.875 116.221  1.00  0.00    -0.000 C 
BRANCH  16  17
ATOM     17  C   UNL     1     405.258 -84.348 117.460  1.00  0.00    -0.003 C 
ATOM     18  C   UNL     1     404.456 -84.201 118.752  1.00  0.00     0.004 C 
ENDBRANCH  16  17
ENDBRANCH  15  16
ENDBRANCH  14  15
ENDBRANCH  13  14
ENDBRANCH  12  13
ENDBRANCH  10  11
ENDBRANCH   1  10
TORSDOF 13
ENDMDL
MODEL 6
REMARK VINA RESULT:    -3.182      4.406      7.484
REMARK INTER + INTRA:          -6.912
REMARK INTER:                  -6.380
REMARK INTRA:                  -0.532
REMARK UNBOUND:                -1.312
REMARK SMILES CCCCCCC=CCCCCCCCC(=O)[O-]
REMARK SMILES IDX 10 1 11 2 12 3 13 4 14 5 15 6 16 7 17 8 18 9 9 10 8 11 7 12
REMARK SMILES IDX 6 13 5 14 4 15 3 16 2 17 1 18
REMARK H PARENT
REMARK Flexibility Score: inf
ROOT
ATOM      1  C   UNL     1     416.882 -84.145 117.648  1.00  0.00     0.004 C 
ENDROOT
BRANCH   1   2
ATOM      2  C   UNL     1     417.935 -83.875 118.737  1.00  0.00     0.000 C 
BRANCH   2   3
ATOM      3  C   UNL     1     419.157 -84.802 118.627  1.00  0.00     0.000 C 
BRANCH   3   4
ATOM      4  C   UNL     1     420.145 -84.617 119.791  1.00  0.00     0.000 C 
BRANCH   4   5
ATOM      5  C   UNL     1     420.161 -85.817 120.749  1.00  0.00     0.006 C 
BRANCH   5   6
ATOM      6  C   UNL     1     420.795 -87.041 120.081  1.00  0.00     0.053 C 
BRANCH   6   7
ATOM      7  C   UNL     1     420.364 -88.297 120.772  1.00  0.00     0.041 C 
ATOM      8  O   UNL     1     419.814 -89.223 120.118  1.00  0.00    -0.550 OA
ATOM      9  O   UNL     1     420.523 -88.425 122.145  1.00  0.00    -0.550 OA
ENDBRANCH   6   7
ENDBRANCH   5   6
ENDBRANCH   4   5
ENDBRANCH   3   4
ENDBRANCH   2   3
ENDBRANCH   1   2
BRANCH   1  10
ATOM     10  C   UNL     1     415.428 -84.059 118.155  1.00  0.00     0.027 C 
BRANCH  10  11
ATOM     11  C   UNL     1     414.706 -85.382 118.059  1.00  0.00    -0.031 C 
ATOM     12  C   UNL     1     413.617 -85.597 117.299  1.00  0.00    -0.031 C 
BRANCH  12  13
ATOM     13  C   UNL     1     412.952 -84.526 116.467  1.00  0.00     0.027 C 
BRANCH  13  14
ATOM     14  C   UNL     1     412.509 -85.079 115.106  1.00  0.00     0.004 C 
BRANCH  14  15
ATOM     15  C   UNL     1     411.313 -84.314 114.518  1.00  0.00     0.000 C 
BRANCH  15  16
ATOM     16  C   UNL     1     410.199 -85.251 114.020  1.00  0.00    -0.000 C 
BRANCH  16  17
ATOM     17  C   UNL     1     408.836 -84.932 114.655  1.00  0.00    -0.003 C 
ATOM     18  C   UNL     1     408.081 -86.186 115.095  1.00  0.00     0.004 C 
ENDBRANCH  16  17
ENDBRANCH  15  16
ENDBRANCH  14  15
ENDBRANCH  13  14
ENDBRANCH  12  13
ENDBRANCH  10  11
ENDBRANCH   1  10
TORSDOF 13
ENDMDL
MODEL 7
REMARK VINA RESULT:    -3.130      2.175      3.522
REMARK INTER + INTRA:          -6.821
REMARK INTER:                  -6.154
REMARK INTRA:                  -0.667
REMARK UNBOUND:                -1.312
REMARK SMILES CCCCCCC=CCCCCCCCC(=O)[O-]
REMARK SMILES IDX 10 1 11 2 12 3 13 4 14 5 15 6 16 7 17 8 18 9 9 10 8 11 7 12
REMARK SMILES IDX 6 13 5 14 4 15 3 16 2 17 1 18
REMARK H PARENT
REMARK Flexibility Score: inf
ROOT
ATOM      1  C   UNL     1     412.480 -85.647 115.309  1.00  0.00     0.004 C 
ENDROOT
BRANCH   1   2
ATOM      2  C   UNL     1     413.271 -85.652 116.628  1.00  0.00     0.000 C 
BRANCH   2   3
ATOM      3  C   UNL     1     413.584 -84.236 117.140  1.00  0.00     0.000 C 
BRANCH   3   4
ATOM      4  C   UNL     1     414.670 -84.229 118.229  1.00  0.00     0.000 C 
BRANCH   4   5
ATOM      5  C   UNL     1     416.035 -84.702 117.707  1.00  0.00     0.006 C 
BRANCH   5   6
ATOM      6  C   UNL     1     417.170 -83.875 118.317  1.00  0.00     0.053 C 
BRANCH   6   7
ATOM      7  C   UNL     1     418.477 -84.588 118.169  1.00  0.00     0.041 C 
ATOM      8  O   UNL     1     418.735 -85.225 117.112  1.00  0.00    -0.550 OA
ATOM      9  O   UNL     1     419.389 -84.593 119.216  1.00  0.00    -0.550 OA
ENDBRANCH   6   7
ENDBRANCH   5   6
ENDBRANCH   4   5
ENDBRANCH   3   4
ENDBRANCH   2   3
ENDBRANCH   1   2
BRANCH   1  10
ATOM     10  C   UNL     1     411.578 -84.409 115.129  1.00  0.00     0.027 C 
BRANCH  10  11
ATOM     11  C   UNL     1     410.661 -84.533 113.935  1.00  0.00    -0.031 C 
ATOM     12  C   UNL     1     409.408 -85.022 113.989  1.00  0.00    -0.031 C 
BRANCH  12  13
ATOM     13  C   UNL     1     408.770 -85.548 115.253  1.00  0.00     0.027 C 
BRANCH  13  14
ATOM     14  C   UNL     1     407.379 -86.131 114.967  1.00  0.00     0.004 C 
BRANCH  14  15
ATOM     15  C   UNL     1     406.291 -85.050 114.881  1.00  0.00     0.000 C 
BRANCH  15  16
ATOM     16  C   UNL     1     405.596 -85.018 113.508  1.00  0.00    -0.000 C 
BRANCH  16  17
ATOM     17  C   UNL     1     404.562 -86.143 113.346  1.00  0.00    -0.003 C 
ATOM     18  C   UNL     1     404.254 -86.457 111.883  1.00  0.00     0.004 C 
ENDBRANCH  16  17
ENDBRANCH  15  16
ENDBRANCH  14  15
ENDBRANCH  13  14
ENDBRANCH  12  13
ENDBRANCH  10  11
ENDBRANCH   1  10
TORSDOF 13
ENDMDL
