MODEL 1
REMARK VINA RESULT:    -5.937      0.000      0.000
REMARK INTER + INTRA:          -6.644
REMARK INTER:                  -6.457
REMARK INTRA:                  -0.186
REMARK UNBOUND:                -0.186
REMARK SMILES C=C(C)[C@H]1CC[C@H](C)C[C@@H]1O
REMARK SMILES IDX 8 1 7 2 6 3 5 4 4 5 10 6 9 7 11 8 2 10 1 11 3 12
REMARK H PARENT 11 9
REMARK Flexibility Score: inf
ROOT
ATOM      1  C   UNL     1     136.166 121.477 141.119  1.00  0.00     0.008 C 
ATOM      2  C   UNL     1     135.804 120.056 140.654  1.00  0.00    -0.012 C 
ATOM      3  C   UNL     1     135.148 120.051 139.262  1.00  0.00     0.004 C 
ATOM      4  C   UNL     1     136.155 120.298 138.129  1.00  0.00     0.011 C 
ATOM      5  C   UNL     1     137.377 119.354 138.173  1.00  0.00     0.043 C 
ATOM      6  C   UNL     1     138.029 119.285 139.580  1.00  0.00     0.121 C 
ATOM      7  C   UNL     1     137.004 119.087 140.715  1.00  0.00     0.035 C 
ENDROOT
BRANCH   6   8
ATOM      8  O   UNL     1     138.771 120.454 139.827  1.00  0.00    -0.392 OA
ATOM      9  H   UNL     1     139.327 120.281 140.631  1.00  0.00     0.210 HD
ENDBRANCH   6   8
BRANCH   5  10
ATOM     10  C   UNL     1     137.071 117.974 137.595  1.00  0.00    -0.075 C 
ATOM     11  C   UNL     1     137.911 116.947 137.790  1.00  0.00     0.008 C 
ATOM     12  C   UNL     1     135.813 117.749 136.789  1.00  0.00     0.039 C 
ENDBRANCH   5  10
TORSDOF 2
ENDMDL
MODEL 2
REMARK VINA RESULT:    -5.897      1.191      3.696
REMARK INTER + INTRA:          -6.601
REMARK INTER:                  -6.405
REMARK INTRA:                  -0.196
REMARK UNBOUND:                -0.186
REMARK SMILES C=C(C)[C@H]1CC[C@H](C)C[C@@H]1O
REMARK SMILES IDX 8 1 7 2 6 3 5 4 4 5 10 6 9 7 11 8 2 10 1 11 3 12
REMARK H PARENT 11 9
REMARK Flexibility Score: inf
ROOT
ATOM      1  C   UNL     1     138.030 117.036 137.825  1.00  0.00     0.008 C 
ATOM      2  C   UNL     1     137.043 118.182 137.546  1.00  0.00    -0.012 C 
ATOM      3  C   UNL     1     135.697 117.976 138.265  1.00  0.00     0.004 C 
ATOM      4  C   UNL     1     135.781 118.251 139.773  1.00  0.00     0.011 C 
ATOM      5  C   UNL     1     136.392 119.627 140.117  1.00  0.00     0.043 C 
ATOM      6  C   UNL     1     137.721 119.897 139.362  1.00  0.00     0.121 C 
ATOM      7  C   UNL     1     137.641 119.570 137.857  1.00  0.00     0.035 C 
ENDROOT
BRANCH   6   8
ATOM      8  O   UNL     1     138.765 119.154 139.941  1.00  0.00    -0.392 OA
ATOM      9  H   UNL     1     139.341 119.796 140.433  1.00  0.00     0.210 HD
ENDBRANCH   6   8
BRANCH   5  10
ATOM     10  C   UNL     1     135.386 120.767 139.969  1.00  0.00    -0.075 C 
ATOM     11  C   UNL     1     135.771 121.965 139.506  1.00  0.00     0.008 C 
ATOM     12  C   UNL     1     133.939 120.558 140.349  1.00  0.00     0.039 C 
ENDBRANCH   5  10
TORSDOF 2
ENDMDL
MODEL 3
REMARK VINA RESULT:    -5.444      1.864      3.914
REMARK INTER + INTRA:          -6.107
REMARK INTER:                  -6.175
REMARK INTRA:                   0.068
REMARK UNBOUND:                -0.186
REMARK SMILES C=C(C)[C@H]1CC[C@H](C)C[C@@H]1O
REMARK SMILES IDX 8 1 7 2 6 3 5 4 4 5 10 6 9 7 11 8 2 10 1 11 3 12
REMARK H PARENT 11 9
REMARK Flexibility Score: inf
ROOT
ATOM      1  C   UNL     1     135.710 117.382 136.226  1.00  0.00     0.008 C 
ATOM      2  C   UNL     1     136.955 117.747 137.053  1.00  0.00    -0.012 C 
ATOM      3  C   UNL     1     137.273 119.251 136.986  1.00  0.00     0.004 C 
ATOM      4  C   UNL     1     136.312 120.100 137.830  1.00  0.00     0.011 C 
ATOM      5  C   UNL     1     136.187 119.622 139.293  1.00  0.00     0.043 C 
ATOM      6  C   UNL     1     135.926 118.095 139.402  1.00  0.00     0.121 C 
ATOM      7  C   UNL     1     136.864 117.255 138.512  1.00  0.00     0.035 C 
ENDROOT
BRANCH   6   8
ATOM      8  O   UNL     1     134.591 117.807 139.067  1.00  0.00    -0.392 OA
ATOM      9  H   UNL     1     134.456 116.835 139.217  1.00  0.00     0.210 HD
ENDBRANCH   6   8
BRANCH   5  10
ATOM     10  C   UNL     1     137.353 120.085 140.163  1.00  0.00    -0.075 C 
ATOM     11  C   UNL     1     138.323 119.231 140.521  1.00  0.00     0.008 C 
ATOM     12  C   UNL     1     137.427 121.519 140.634  1.00  0.00     0.039 C 
ENDBRANCH   5  10
TORSDOF 2
ENDMDL
MODEL 4
REMARK VINA RESULT:    -5.417      1.736      2.716
REMARK INTER + INTRA:          -6.078
REMARK INTER:                  -5.906
REMARK INTRA:                  -0.172
REMARK UNBOUND:                -0.186
REMARK SMILES C=C(C)[C@H]1CC[C@H](C)C[C@@H]1O
REMARK SMILES IDX 8 1 7 2 6 3 5 4 4 5 10 6 9 7 11 8 2 10 1 11 3 12
REMARK H PARENT 11 9
REMARK Flexibility Score: inf
ROOT
ATOM      1  C   UNL     1     136.308 122.236 141.489  1.00  0.00     0.008 C 
ATOM      2  C   UNL     1     136.875 121.754 140.142  1.00  0.00    -0.012 C 
ATOM      3  C   UNL     1     137.844 120.570 140.312  1.00  0.00     0.004 C 
ATOM      4  C   UNL     1     137.122 119.251 140.620  1.00  0.00     0.011 C 
ATOM      5  C   UNL     1     135.998 118.912 139.616  1.00  0.00     0.043 C 
ATOM      6  C   UNL     1     135.035 120.105 139.372  1.00  0.00     0.121 C 
ATOM      7  C   UNL     1     135.771 121.435 139.113  1.00  0.00     0.035 C 
ENDROOT
BRANCH   6   8
ATOM      8  O   UNL     1     134.171 120.262 140.471  1.00  0.00    -0.392 OA
ATOM      9  H   UNL     1     133.403 119.649 140.326  1.00  0.00     0.210 HD
ENDBRANCH   6   8
BRANCH   5  10
ATOM     10  C   UNL     1     136.534 118.311 138.319  1.00  0.00    -0.075 C 
ATOM     11  C   UNL     1     135.737 118.161 137.252  1.00  0.00     0.008 C 
ATOM     12  C   UNL     1     137.977 117.872 138.225  1.00  0.00     0.039 C 
ENDBRANCH   5  10
TORSDOF 2
ENDMDL
MODEL 5
REMARK VINA RESULT:    -5.274      1.688      2.506
REMARK INTER + INTRA:          -5.922
REMARK INTER:                  -5.729
REMARK INTRA:                  -0.193
REMARK UNBOUND:                -0.186
REMARK SMILES C=C(C)[C@H]1CC[C@H](C)C[C@@H]1O
REMARK SMILES IDX 8 1 7 2 6 3 5 4 4 5 10 6 9 7 11 8 2 10 1 11 3 12
REMARK H PARENT 11 9
REMARK Flexibility Score: inf
ROOT
ATOM      1  C   UNL     1     133.536 121.698 140.160  1.00  0.00     0.008 C 
ATOM      2  C   UNL     1     134.351 120.476 140.615  1.00  0.00    -0.012 C 
ATOM      3  C   UNL     1     134.709 119.548 139.439  1.00  0.00     0.004 C 
ATOM      4  C   UNL     1     135.826 120.116 138.553  1.00  0.00     0.011 C 
ATOM      5  C   UNL     1     137.089 120.532 139.339  1.00  0.00     0.043 C 
ATOM      6  C   UNL     1     136.761 121.419 140.570  1.00  0.00     0.121 C 
ATOM      7  C   UNL     1     135.604 120.865 141.427  1.00  0.00     0.035 C 
ENDROOT
BRANCH   6   8
ATOM      8  O   UNL     1     136.443 122.724 140.155  1.00  0.00    -0.392 OA
ATOM      9  H   UNL     1     136.528 123.312 140.951  1.00  0.00     0.210 HD
ENDBRANCH   6   8
BRANCH   5  10
ATOM     10  C   UNL     1     137.978 119.341 139.689  1.00  0.00    -0.075 C 
ATOM     11  C   UNL     1     138.627 119.291 140.862  1.00  0.00     0.008 C 
ATOM     12  C   UNL     1     138.141 118.201 138.711  1.00  0.00     0.039 C 
ENDBRANCH   5  10
TORSDOF 2
ENDMDL
MODEL 6
REMARK VINA RESULT:    -5.209     10.755     12.352
REMARK INTER + INTRA:          -5.851
REMARK INTER:                  -5.639
REMARK INTRA:                  -0.212
REMARK UNBOUND:                -0.186
REMARK SMILES C=C(C)[C@H]1CC[C@H](C)C[C@@H]1O
REMARK SMILES IDX 8 1 7 2 6 3 5 4 4 5 10 6 9 7 11 8 2 10 1 11 3 12
REMARK H PARENT 11 9
REMARK Flexibility Score: inf
ROOT
ATOM      1  C   UNL     1     136.129 127.888 149.383  1.00  0.00     0.008 C 
ATOM      2  C   UNL     1     136.088 127.631 147.867  1.00  0.00    -0.012 C 
ATOM      3  C   UNL     1     135.064 126.546 147.490  1.00  0.00     0.004 C 
ATOM      4  C   UNL     1     133.614 127.045 147.569  1.00  0.00     0.011 C 
ATOM      5  C   UNL     1     133.364 128.346 146.776  1.00  0.00     0.043 C 
ATOM      6  C   UNL     1     134.416 129.446 147.084  1.00  0.00     0.121 C 
ATOM      7  C   UNL     1     135.867 128.922 147.051  1.00  0.00     0.035 C 
ENDROOT
BRANCH   6   8
ATOM      8  O   UNL     1     134.161 130.020 148.342  1.00  0.00    -0.392 OA
ATOM      9  H   UNL     1     134.590 129.436 149.021  1.00  0.00     0.210 HD
ENDBRANCH   6   8
BRANCH   5  10
ATOM     10  C   UNL     1     133.192 128.096 145.279  1.00  0.00    -0.075 C 
ATOM     11  C   UNL     1     133.350 129.091 144.395  1.00  0.00     0.008 C 
ATOM     12  C   UNL     1     132.837 126.716 144.776  1.00  0.00     0.039 C 
ENDBRANCH   5  10
TORSDOF 2
ENDMDL
MODEL 7
REMARK VINA RESULT:    -5.139      1.791      4.072
REMARK INTER + INTRA:          -5.776
REMARK INTER:                  -5.553
REMARK INTRA:                  -0.223
REMARK UNBOUND:                -0.186
REMARK SMILES C=C(C)[C@H]1CC[C@H](C)C[C@@H]1O
REMARK SMILES IDX 8 1 7 2 6 3 5 4 4 5 10 6 9 7 11 8 2 10 1 11 3 12
REMARK H PARENT 11 9
REMARK Flexibility Score: inf
ROOT
ATOM      1  C   UNL     1     138.274 116.941 137.196  1.00  0.00     0.008 C 
ATOM      2  C   UNL     1     137.625 117.312 138.541  1.00  0.00    -0.012 C 
ATOM      3  C   UNL     1     138.349 118.483 139.229  1.00  0.00     0.004 C 
ATOM      4  C   UNL     1     138.048 119.837 138.571  1.00  0.00     0.011 C 
ATOM      5  C   UNL     1     136.539 120.128 138.416  1.00  0.00     0.043 C 
ATOM      6  C   UNL     1     135.764 118.942 137.780  1.00  0.00     0.121 C 
ATOM      7  C   UNL     1     136.111 117.581 138.416  1.00  0.00     0.035 C 
ENDROOT
BRANCH   6   8
ATOM      8  O   UNL     1     136.018 118.884 136.398  1.00  0.00    -0.392 OA
ATOM      9  H   UNL     1     135.528 118.096 136.046  1.00  0.00     0.210 HD
ENDBRANCH   6   8
BRANCH   5  10
ATOM     10  C   UNL     1     135.903 120.622 139.713  1.00  0.00    -0.075 C 
ATOM     11  C   UNL     1     134.603 120.405 139.965  1.00  0.00     0.008 C 
ATOM     12  C   UNL     1     136.733 121.369 140.731  1.00  0.00     0.039 C 
ENDBRANCH   5  10
TORSDOF 2
ENDMDL
MODEL 8
REMARK VINA RESULT:    -5.127      2.026      3.886
REMARK INTER + INTRA:          -5.763
REMARK INTER:                  -5.688
REMARK INTRA:                  -0.074
REMARK UNBOUND:                -0.186
REMARK SMILES C=C(C)[C@H]1CC[C@H](C)C[C@@H]1O
REMARK SMILES IDX 8 1 7 2 6 3 5 4 4 5 10 6 9 7 11 8 2 10 1 11 3 12
REMARK H PARENT 11 9
REMARK Flexibility Score: inf
ROOT
ATOM      1  C   UNL     1     138.779 118.986 139.559  1.00  0.00     0.008 C 
ATOM      2  C   UNL     1     137.632 119.345 140.518  1.00  0.00    -0.012 C 
ATOM      3  C   UNL     1     137.553 120.859 140.785  1.00  0.00     0.004 C 
ATOM      4  C   UNL     1     136.970 121.642 139.600  1.00  0.00     0.011 C 
ATOM      5  C   UNL     1     135.616 121.093 139.102  1.00  0.00     0.043 C 
ATOM      6  C   UNL     1     135.639 119.556 138.880  1.00  0.00     0.121 C 
ATOM      7  C   UNL     1     136.272 118.783 140.055  1.00  0.00     0.035 C 
ENDROOT
BRANCH   6   8
ATOM      8  O   UNL     1     136.336 119.249 137.698  1.00  0.00    -0.392 OA
ATOM      9  H   UNL     1     136.385 118.259 137.638  1.00  0.00     0.210 HD
ENDBRANCH   6   8
BRANCH   5  10
ATOM     10  C   UNL     1     134.445 121.546 139.971  1.00  0.00    -0.075 C 
ATOM     11  C   UNL     1     133.597 120.652 140.500  1.00  0.00     0.008 C 
ATOM     12  C   UNL     1     134.226 123.016 140.244  1.00  0.00     0.039 C 
ENDBRANCH   5  10
TORSDOF 2
ENDMDL
MODEL 9
REMARK VINA RESULT:    -5.070      1.545      4.008
REMARK INTER + INTRA:          -5.701
REMARK INTER:                  -5.691
REMARK INTRA:                  -0.010
REMARK UNBOUND:                -0.186
REMARK SMILES C=C(C)[C@H]1CC[C@H](C)C[C@@H]1O
REMARK SMILES IDX 8 1 7 2 6 3 5 4 4 5 10 6 9 7 11 8 2 10 1 11 3 12
REMARK H PARENT 11 9
REMARK Flexibility Score: inf
ROOT
ATOM      1  C   UNL     1     136.131 117.792 139.295  1.00  0.00     0.008 C 
ATOM      2  C   UNL     1     135.745 119.186 138.771  1.00  0.00    -0.012 C 
ATOM      3  C   UNL     1     134.655 119.848 139.633  1.00  0.00     0.004 C 
ATOM      4  C   UNL     1     135.192 120.366 140.975  1.00  0.00     0.011 C 
ATOM      5  C   UNL     1     136.425 121.285 140.835  1.00  0.00     0.043 C 
ATOM      6  C   UNL     1     137.523 120.676 139.920  1.00  0.00     0.121 C 
ATOM      7  C   UNL     1     136.966 120.114 138.596  1.00  0.00     0.035 C 
ENDROOT
BRANCH   6   8
ATOM      8  O   UNL     1     138.209 119.656 140.602  1.00  0.00    -0.392 OA
ATOM      9  H   UNL     1     139.170 119.909 140.613  1.00  0.00     0.210 HD
ENDBRANCH   6   8
BRANCH   5  10
ATOM     10  C   UNL     1     136.050 122.711 140.439  1.00  0.00    -0.075 C 
ATOM     11  C   UNL     1     136.968 123.688 140.446  1.00  0.00     0.008 C 
ATOM     12  C   UNL     1     134.631 123.039 140.037  1.00  0.00     0.039 C 
ENDBRANCH   5  10
TORSDOF 2
ENDMDL
