MODEL 1
REMARK VINA RESULT:    -4.081      0.000      0.000
REMARK INTER + INTRA:          -9.627
REMARK INTER:                  -7.421
REMARK INTRA:                  -2.206
REMARK UNBOUND:                -2.206
REMARK SMILES CCCCCCCCCCCCCC[C@@H](C)C(=O)[O-]
REMARK SMILES IDX 9 1 10 2 11 3 12 4 13 5 14 6 15 7 16 8 17 9 18 10 19 11 8 12
REMARK SMILES IDX 7 13 6 14 5 15 4 16 3 17 2 18 1 19
REMARK H PARENT
REMARK Flexibility Score: inf
ROOT
ATOM      1  C   UNL     1      -2.286  -4.085   6.257  1.00  0.00     0.000 C 
ENDROOT
BRANCH   1   2
ATOM      2  C   UNL     1      -2.852  -2.918   7.085  1.00  0.00     0.000 C 
BRANCH   2   3
ATOM      3  C   UNL     1      -2.015  -2.628   8.341  1.00  0.00     0.000 C 
BRANCH   3   4
ATOM      4  C   UNL     1      -0.628  -3.286   8.293  1.00  0.00     0.000 C 
BRANCH   4   5
ATOM      5  C   UNL     1       0.422  -2.317   7.735  1.00  0.00     0.001 C 
BRANCH   5   6
ATOM      6  C   UNL     1       1.300  -3.010   6.678  1.00  0.00     0.009 C 
BRANCH   6   7
ATOM      7  C   UNL     1       1.785  -2.081   5.543  1.00  0.00     0.032 C 
ATOM      8  C   UNL     1       1.226  -0.656   5.665  1.00  0.00     0.014 C 
BRANCH   7   9
ATOM      9  C   UNL     1       3.286  -2.080   5.431  1.00  0.00     0.044 C 
ATOM     10  O   UNL     1       3.990  -1.936   6.466  1.00  0.00    -0.550 OA
ATOM     11  O   UNL     1       3.908  -2.188   4.193  1.00  0.00    -0.550 OA
ENDBRANCH   7   9
ENDBRANCH   6   7
ENDBRANCH   5   6
ENDBRANCH   4   5
ENDBRANCH   3   4
ENDBRANCH   2   3
ENDBRANCH   1   2
BRANCH   1  12
ATOM     12  C   UNL     1      -1.938  -3.675   4.816  1.00  0.00     0.000 C 
BRANCH  12  13
ATOM     13  C   UNL     1      -2.001  -2.155   4.596  1.00  0.00    -0.000 C 
BRANCH  13  14
ATOM     14  C   UNL     1      -3.067  -1.796   3.550  1.00  0.00    -0.000 C 
BRANCH  14  15
ATOM     15  C   UNL     1      -4.271  -1.048   4.149  1.00  0.00    -0.000 C 
BRANCH  15  16
ATOM     16  C   UNL     1      -5.494  -1.927   4.458  1.00  0.00    -0.000 C 
BRANCH  16  17
ATOM     17  C   UNL     1      -6.151  -1.584   5.802  1.00  0.00    -0.000 C 
BRANCH  17  18
ATOM     18  C   UNL     1      -5.443  -0.402   6.471  1.00  0.00    -0.003 C 
ATOM     19  C   UNL     1      -6.443   0.518   7.167  1.00  0.00     0.004 C 
ENDBRANCH  17  18
ENDBRANCH  16  17
ENDBRANCH  15  16
ENDBRANCH  14  15
ENDBRANCH  13  14
ENDBRANCH  12  13
ENDBRANCH   1  12
TORSDOF 14
ENDMDL
MODEL 2
REMARK VINA RESULT:    -3.953      4.865      6.154
REMARK INTER + INTRA:          -9.395
REMARK INTER:                  -8.488
REMARK INTRA:                  -0.906
REMARK UNBOUND:                -2.206
REMARK SMILES CCCCCCCCCCCCCC[C@@H](C)C(=O)[O-]
REMARK SMILES IDX 9 1 10 2 11 3 12 4 13 5 14 6 15 7 16 8 17 9 18 10 19 11 8 12
REMARK SMILES IDX 7 13 6 14 5 15 4 16 3 17 2 18 1 19
REMARK H PARENT
REMARK Flexibility Score: inf
ROOT
ATOM      1  C   UNL     1       1.391   0.170   6.097  1.00  0.00     0.000 C 
ENDROOT
BRANCH   1   2
ATOM      2  C   UNL     1       1.635   0.162   7.616  1.00  0.00     0.000 C 
BRANCH   2   3
ATOM      3  C   UNL     1       1.410   1.541   8.256  1.00  0.00     0.000 C 
BRANCH   3   4
ATOM      4  C   UNL     1       1.319   2.669   7.217  1.00  0.00     0.000 C 
BRANCH   4   5
ATOM      5  C   UNL     1       0.492   3.845   7.751  1.00  0.00     0.001 C 
BRANCH   5   6
ATOM      6  C   UNL     1       0.658   5.083   6.853  1.00  0.00     0.009 C 
BRANCH   6   7
ATOM      7  C   UNL     1      -0.668   5.652   6.301  1.00  0.00     0.032 C 
ATOM      8  C   UNL     1      -1.365   6.596   7.291  1.00  0.00     0.014 C 
BRANCH   7   9
ATOM      9  C   UNL     1      -0.474   6.304   4.957  1.00  0.00     0.044 C 
ATOM     10  O   UNL     1      -1.334   7.117   4.527  1.00  0.00    -0.550 OA
ATOM     11  O   UNL     1       0.619   5.982   4.161  1.00  0.00    -0.550 OA
ENDBRANCH   7   9
ENDBRANCH   6   7
ENDBRANCH   5   6
ENDBRANCH   4   5
ENDBRANCH   3   4
ENDBRANCH   2   3
ENDBRANCH   1   2
BRANCH   1  12
ATOM     12  C   UNL     1       0.964  -1.206   5.559  1.00  0.00     0.000 C 
BRANCH  12  13
ATOM     13  C   UNL     1       0.411  -2.130   6.655  1.00  0.00    -0.000 C 
BRANCH  13  14
ATOM     14  C   UNL     1      -0.942  -2.727   6.239  1.00  0.00    -0.000 C 
BRANCH  14  15
ATOM     15  C   UNL     1      -1.348  -2.354   4.802  1.00  0.00    -0.000 C 
BRANCH  15  16
ATOM     16  C   UNL     1      -2.801  -2.694   4.428  1.00  0.00    -0.000 C 
BRANCH  16  17
ATOM     17  C   UNL     1      -3.556  -1.502   3.824  1.00  0.00    -0.000 C 
BRANCH  17  18
ATOM     18  C   UNL     1      -4.431  -0.817   4.878  1.00  0.00    -0.003 C 
ATOM     19  C   UNL     1      -4.658  -1.727   6.082  1.00  0.00     0.004 C 
ENDBRANCH  17  18
ENDBRANCH  16  17
ENDBRANCH  15  16
ENDBRANCH  14  15
ENDBRANCH  13  14
ENDBRANCH  12  13
ENDBRANCH   1  12
TORSDOF 14
ENDMDL
MODEL 3
REMARK VINA RESULT:    -3.947      1.316      2.087
REMARK INTER + INTRA:          -9.383
REMARK INTER:                  -7.022
REMARK INTRA:                  -2.361
REMARK UNBOUND:                -2.206
REMARK SMILES CCCCCCCCCCCCCC[C@@H](C)C(=O)[O-]
REMARK SMILES IDX 9 1 10 2 11 3 12 4 13 5 14 6 15 7 16 8 17 9 18 10 19 11 8 12
REMARK SMILES IDX 7 13 6 14 5 15 4 16 3 17 2 18 1 19
REMARK H PARENT
REMARK Flexibility Score: inf
ROOT
ATOM      1  C   UNL     1      -3.129  -5.381   6.196  1.00  0.00     0.000 C 
ENDROOT
BRANCH   1   2
ATOM      2  C   UNL     1      -1.598  -5.412   6.046  1.00  0.00     0.000 C 
BRANCH   2   3
ATOM      3  C   UNL     1      -0.882  -4.625   7.154  1.00  0.00     0.000 C 
BRANCH   3   4
ATOM      4  C   UNL     1      -1.331  -3.158   7.224  1.00  0.00     0.000 C 
BRANCH   4   5
ATOM      5  C   UNL     1      -0.123  -2.214   7.283  1.00  0.00     0.001 C 
BRANCH   5   6
ATOM      6  C   UNL     1       1.029  -2.745   6.413  1.00  0.00     0.009 C 
BRANCH   6   7
ATOM      7  C   UNL     1       1.646  -1.696   5.461  1.00  0.00     0.032 C 
ATOM      8  C   UNL     1       1.267  -0.257   5.840  1.00  0.00     0.014 C 
BRANCH   7   9
ATOM      9  C   UNL     1       3.137  -1.864   5.343  1.00  0.00     0.044 C 
ATOM     10  O   UNL     1       3.886  -1.471   6.277  1.00  0.00    -0.550 OA
ATOM     11  O   UNL     1       3.705  -2.403   4.194  1.00  0.00    -0.550 OA
ENDBRANCH   7   9
ENDBRANCH   6   7
ENDBRANCH   5   6
ENDBRANCH   4   5
ENDBRANCH   3   4
ENDBRANCH   2   3
ENDBRANCH   1   2
BRANCH   1  12
ATOM     12  C   UNL     1      -3.857  -5.413   4.843  1.00  0.00     0.000 C 
BRANCH  12  13
ATOM     13  C   UNL     1      -2.907  -5.235   3.648  1.00  0.00    -0.000 C 
BRANCH  13  14
ATOM     14  C   UNL     1      -3.034  -3.825   3.051  1.00  0.00    -0.000 C 
BRANCH  14  15
ATOM     15  C   UNL     1      -1.941  -2.862   3.546  1.00  0.00    -0.000 C 
BRANCH  15  16
ATOM     16  C   UNL     1      -2.460  -1.581   4.222  1.00  0.00    -0.000 C 
BRANCH  16  17
ATOM     17  C   UNL     1      -3.938  -1.304   3.918  1.00  0.00    -0.000 C 
BRANCH  17  18
ATOM     18  C   UNL     1      -4.675  -0.831   5.175  1.00  0.00    -0.003 C 
ATOM     19  C   UNL     1      -4.549  -1.849   6.305  1.00  0.00     0.004 C 
ENDBRANCH  17  18
ENDBRANCH  16  17
ENDBRANCH  15  16
ENDBRANCH  14  15
ENDBRANCH  13  14
ENDBRANCH  12  13
ENDBRANCH   1  12
TORSDOF 14
ENDMDL
MODEL 4
REMARK VINA RESULT:    -3.849      1.555      3.210
REMARK INTER + INTRA:          -9.206
REMARK INTER:                  -7.019
REMARK INTRA:                  -2.187
REMARK UNBOUND:                -2.206
REMARK SMILES CCCCCCCCCCCCCC[C@@H](C)C(=O)[O-]
REMARK SMILES IDX 9 1 10 2 11 3 12 4 13 5 14 6 15 7 16 8 17 9 18 10 19 11 8 12
REMARK SMILES IDX 7 13 6 14 5 15 4 16 3 17 2 18 1 19
REMARK H PARENT
REMARK Flexibility Score: inf
ROOT
ATOM      1  C   UNL     1      -3.573  -4.221   6.819  1.00  0.00     0.000 C 
ENDROOT
BRANCH   1   2
ATOM      2  C   UNL     1      -2.348  -3.540   7.452  1.00  0.00     0.000 C 
BRANCH   2   3
ATOM      3  C   UNL     1      -1.110  -3.591   6.542  1.00  0.00     0.000 C 
BRANCH   3   4
ATOM      4  C   UNL     1      -0.272  -2.306   6.610  1.00  0.00     0.000 C 
BRANCH   4   5
ATOM      5  C   UNL     1       0.413  -2.023   5.267  1.00  0.00     0.001 C 
BRANCH   5   6
ATOM      6  C   UNL     1       1.845  -1.503   5.481  1.00  0.00     0.009 C 
BRANCH   6   7
ATOM      7  C   UNL     1       2.945  -2.574   5.313  1.00  0.00     0.032 C 
ATOM      8  C   UNL     1       4.263  -1.991   4.783  1.00  0.00     0.014 C 
BRANCH   7   9
ATOM      9  C   UNL     1       3.155  -3.357   6.582  1.00  0.00     0.044 C 
ATOM     10  O   UNL     1       3.830  -2.856   7.520  1.00  0.00    -0.550 OA
ATOM     11  O   UNL     1       2.655  -4.647   6.714  1.00  0.00    -0.550 OA
ENDBRANCH   7   9
ENDBRANCH   6   7
ENDBRANCH   5   6
ENDBRANCH   4   5
ENDBRANCH   3   4
ENDBRANCH   2   3
ENDBRANCH   1   2
BRANCH   1  12
ATOM     12  C   UNL     1      -4.797  -3.292   6.753  1.00  0.00     0.000 C 
BRANCH  12  13
ATOM     13  C   UNL     1      -4.422  -1.828   6.477  1.00  0.00    -0.000 C 
BRANCH  13  14
ATOM     14  C   UNL     1      -5.236  -1.265   5.301  1.00  0.00    -0.000 C 
BRANCH  14  15
ATOM     15  C   UNL     1      -4.425  -1.178   3.996  1.00  0.00    -0.000 C 
BRANCH  15  16
ATOM     16  C   UNL     1      -2.940  -1.557   4.126  1.00  0.00    -0.000 C 
BRANCH  16  17
ATOM     17  C   UNL     1      -2.543  -2.732   3.222  1.00  0.00    -0.000 C 
BRANCH  17  18
ATOM     18  C   UNL     1      -3.679  -3.754   3.124  1.00  0.00    -0.003 C 
ATOM     19  C   UNL     1      -3.152  -5.180   3.263  1.00  0.00     0.004 C 
ENDBRANCH  17  18
ENDBRANCH  16  17
ENDBRANCH  15  16
ENDBRANCH  14  15
ENDBRANCH  13  14
ENDBRANCH  12  13
ENDBRANCH   1  12
TORSDOF 14
ENDMDL
MODEL 5
REMARK VINA RESULT:    -3.801      5.276      8.165
REMARK INTER + INTRA:          -9.118
REMARK INTER:                  -7.637
REMARK INTRA:                  -1.481
REMARK UNBOUND:                -2.206
REMARK SMILES CCCCCCCCCCCCCC[C@@H](C)C(=O)[O-]
REMARK SMILES IDX 9 1 10 2 11 3 12 4 13 5 14 6 15 7 16 8 17 9 18 10 19 11 8 12
REMARK SMILES IDX 7 13 6 14 5 15 4 16 3 17 2 18 1 19
REMARK H PARENT
REMARK Flexibility Score: inf
ROOT
ATOM      1  C   UNL     1       1.732   0.494   6.551  1.00  0.00     0.000 C 
ENDROOT
BRANCH   1   2
ATOM      2  C   UNL     1       1.768   1.218   7.908  1.00  0.00     0.000 C 
BRANCH   2   3
ATOM      3  C   UNL     1       1.400   2.706   7.792  1.00  0.00     0.000 C 
BRANCH   3   4
ATOM      4  C   UNL     1       0.334   3.134   8.811  1.00  0.00     0.000 C 
BRANCH   4   5
ATOM      5  C   UNL     1      -0.160   4.558   8.526  1.00  0.00     0.001 C 
BRANCH   5   6
ATOM      6  C   UNL     1       0.173   4.974   7.083  1.00  0.00     0.009 C 
BRANCH   6   7
ATOM      7  C   UNL     1      -0.651   6.170   6.557  1.00  0.00     0.032 C 
ATOM      8  C   UNL     1      -0.206   7.508   7.164  1.00  0.00     0.014 C 
BRANCH   7   9
ATOM      9  C   UNL     1      -0.658   6.219   5.052  1.00  0.00     0.044 C 
ATOM     10  O   UNL     1      -0.164   5.265   4.393  1.00  0.00    -0.550 OA
ATOM     11  O   UNL     1      -1.159   7.326   4.377  1.00  0.00    -0.550 OA
ENDBRANCH   7   9
ENDBRANCH   6   7
ENDBRANCH   5   6
ENDBRANCH   4   5
ENDBRANCH   3   4
ENDBRANCH   2   3
ENDBRANCH   1   2
BRANCH   1  12
ATOM     12  C   UNL     1       1.018  -0.866   6.624  1.00  0.00     0.000 C 
BRANCH  12  13
ATOM     13  C   UNL     1       1.179  -1.695   5.340  1.00  0.00    -0.000 C 
BRANCH  13  14
ATOM     14  C   UNL     1       2.625  -2.189   5.183  1.00  0.00    -0.000 C 
BRANCH  14  15
ATOM     15  C   UNL     1       2.981  -3.327   6.155  1.00  0.00    -0.000 C 
BRANCH  15  16
ATOM     16  C   UNL     1       3.858  -2.913   7.348  1.00  0.00    -0.000 C 
BRANCH  16  17
ATOM     17  C   UNL     1       4.753  -1.705   7.039  1.00  0.00    -0.000 C 
BRANCH  17  18
ATOM     18  C   UNL     1       4.941  -0.831   8.283  1.00  0.00    -0.003 C 
ATOM     19  C   UNL     1       4.019  -1.277   9.415  1.00  0.00     0.004 C 
ENDBRANCH  17  18
ENDBRANCH  16  17
ENDBRANCH  15  16
ENDBRANCH  14  15
ENDBRANCH  13  14
ENDBRANCH  12  13
ENDBRANCH   1  12
TORSDOF 14
ENDMDL
MODEL 6
REMARK VINA RESULT:    -3.768      4.167      5.778
REMARK INTER + INTRA:          -9.058
REMARK INTER:                  -7.665
REMARK INTRA:                  -1.393
REMARK UNBOUND:                -2.206
REMARK SMILES CCCCCCCCCCCCCC[C@@H](C)C(=O)[O-]
REMARK SMILES IDX 9 1 10 2 11 3 12 4 13 5 14 6 15 7 16 8 17 9 18 10 19 11 8 12
REMARK SMILES IDX 7 13 6 14 5 15 4 16 3 17 2 18 1 19
REMARK H PARENT
REMARK Flexibility Score: inf
ROOT
ATOM      1  C   UNL     1       1.484  -0.042   5.886  1.00  0.00     0.000 C 
ENDROOT
BRANCH   1   2
ATOM      2  C   UNL     1       1.499   0.140   7.413  1.00  0.00     0.000 C 
BRANCH   2   3
ATOM      3  C   UNL     1       1.970   1.541   7.835  1.00  0.00     0.000 C 
BRANCH   3   4
ATOM      4  C   UNL     1       0.846   2.379   8.463  1.00  0.00     0.000 C 
BRANCH   4   5
ATOM      5  C   UNL     1       0.715   3.737   7.763  1.00  0.00     0.001 C 
BRANCH   5   6
ATOM      6  C   UNL     1       1.188   3.648   6.301  1.00  0.00     0.009 C 
BRANCH   6   7
ATOM      7  C   UNL     1       1.809   4.951   5.750  1.00  0.00     0.032 C 
ATOM      8  C   UNL     1       3.330   4.849   5.565  1.00  0.00     0.014 C 
BRANCH   7   9
ATOM      9  C   UNL     1       1.125   5.399   4.487  1.00  0.00     0.044 C 
ATOM     10  O   UNL     1       1.803   5.912   3.557  1.00  0.00    -0.550 OA
ATOM     11  O   UNL     1      -0.255   5.300   4.350  1.00  0.00    -0.550 OA
ENDBRANCH   7   9
ENDBRANCH   6   7
ENDBRANCH   5   6
ENDBRANCH   4   5
ENDBRANCH   3   4
ENDBRANCH   2   3
ENDBRANCH   1   2
BRANCH   1  12
ATOM     12  C   UNL     1       0.954  -1.421   5.459  1.00  0.00     0.000 C 
BRANCH  12  13
ATOM     13  C   UNL     1       1.074  -2.477   6.569  1.00  0.00    -0.000 C 
BRANCH  13  14
ATOM     14  C   UNL     1      -0.182  -3.359   6.626  1.00  0.00    -0.000 C 
BRANCH  14  15
ATOM     15  C   UNL     1      -1.343  -2.704   7.396  1.00  0.00    -0.000 C 
BRANCH  15  16
ATOM     16  C   UNL     1      -2.661  -2.590   6.611  1.00  0.00    -0.000 C 
BRANCH  16  17
ATOM     17  C   UNL     1      -2.497  -2.914   5.120  1.00  0.00    -0.000 C 
BRANCH  17  18
ATOM     18  C   UNL     1      -2.588  -1.642   4.271  1.00  0.00    -0.003 C 
ATOM     19  C   UNL     1      -4.038  -1.310   3.929  1.00  0.00     0.004 C 
ENDBRANCH  17  18
ENDBRANCH  16  17
ENDBRANCH  15  16
ENDBRANCH  14  15
ENDBRANCH  13  14
ENDBRANCH  12  13
ENDBRANCH   1  12
TORSDOF 14
ENDMDL
MODEL 7
REMARK VINA RESULT:    -3.742      1.533      2.864
REMARK INTER + INTRA:          -9.010
REMARK INTER:                  -6.614
REMARK INTRA:                  -2.396
REMARK UNBOUND:                -2.206
REMARK SMILES CCCCCCCCCCCCCC[C@@H](C)C(=O)[O-]
REMARK SMILES IDX 9 1 10 2 11 3 12 4 13 5 14 6 15 7 16 8 17 9 18 10 19 11 8 12
REMARK SMILES IDX 7 13 6 14 5 15 4 16 3 17 2 18 1 19
REMARK H PARENT
REMARK Flexibility Score: inf
ROOT
ATOM      1  C   UNL     1      -2.296  -3.449   2.917  1.00  0.00     0.000 C 
ENDROOT
BRANCH   1   2
ATOM      2  C   UNL     1      -2.957  -2.177   3.475  1.00  0.00     0.000 C 
BRANCH   2   3
ATOM      3  C   UNL     1      -2.094  -1.483   4.540  1.00  0.00     0.000 C 
BRANCH   3   4
ATOM      4  C   UNL     1      -0.776  -2.224   4.810  1.00  0.00     0.000 C 
BRANCH   4   5
ATOM      5  C   UNL     1      -0.622  -2.550   6.301  1.00  0.00     0.001 C 
BRANCH   5   6
ATOM      6  C   UNL     1       0.724  -2.033   6.838  1.00  0.00     0.009 C 
BRANCH   6   7
ATOM      7  C   UNL     1       1.481  -1.098   5.869  1.00  0.00     0.032 C 
ATOM      8  C   UNL     1       1.545   0.350   6.375  1.00  0.00     0.014 C 
BRANCH   7   9
ATOM      9  C   UNL     1       2.850  -1.632   5.540  1.00  0.00     0.044 C 
ATOM     10  O   UNL     1       3.019  -2.318   4.498  1.00  0.00    -0.550 OA
ATOM     11  O   UNL     1       3.923  -1.419   6.398  1.00  0.00    -0.550 OA
ENDBRANCH   7   9
ENDBRANCH   6   7
ENDBRANCH   5   6
ENDBRANCH   4   5
ENDBRANCH   3   4
ENDBRANCH   2   3
ENDBRANCH   1   2
BRANCH   1  12
ATOM     12  C   UNL     1      -3.260  -4.646   2.870  1.00  0.00     0.000 C 
BRANCH  12  13
ATOM     13  C   UNL     1      -2.696  -5.896   3.563  1.00  0.00    -0.000 C 
BRANCH  13  14
ATOM     14  C   UNL     1      -2.511  -5.653   5.069  1.00  0.00    -0.000 C 
BRANCH  14  15
ATOM     15  C   UNL     1      -3.834  -5.356   5.797  1.00  0.00    -0.000 C 
BRANCH  15  16
ATOM     16  C   UNL     1      -3.831  -4.081   6.657  1.00  0.00    -0.000 C 
BRANCH  16  17
ATOM     17  C   UNL     1      -5.003  -3.143   6.338  1.00  0.00    -0.000 C 
BRANCH  17  18
ATOM     18  C   UNL     1      -4.845  -1.804   7.065  1.00  0.00    -0.003 C 
ATOM     19  C   UNL     1      -5.306  -0.642   6.189  1.00  0.00     0.004 C 
ENDBRANCH  17  18
ENDBRANCH  16  17
ENDBRANCH  15  16
ENDBRANCH  14  15
ENDBRANCH  13  14
ENDBRANCH  12  13
ENDBRANCH   1  12
TORSDOF 14
ENDMDL
MODEL 8
REMARK VINA RESULT:    -3.717      3.925      7.078
REMARK INTER + INTRA:          -8.966
REMARK INTER:                  -6.706
REMARK INTRA:                  -2.260
REMARK UNBOUND:                -2.206
REMARK SMILES CCCCCCCCCCCCCC[C@@H](C)C(=O)[O-]
REMARK SMILES IDX 9 1 10 2 11 3 12 4 13 5 14 6 15 7 16 8 17 9 18 10 19 11 8 12
REMARK SMILES IDX 7 13 6 14 5 15 4 16 3 17 2 18 1 19
REMARK H PARENT
REMARK Flexibility Score: inf
ROOT
ATOM      1  C   UNL     1      -3.724  -5.058   4.981  1.00  0.00     0.000 C 
ENDROOT
BRANCH   1   2
ATOM      2  C   UNL     1      -2.846  -4.966   3.721  1.00  0.00     0.000 C 
BRANCH   2   3
ATOM      3  C   UNL     1      -3.184  -3.742   2.856  1.00  0.00     0.000 C 
BRANCH   3   4
ATOM      4  C   UNL     1      -4.247  -2.838   3.499  1.00  0.00     0.000 C 
BRANCH   4   5
ATOM      5  C   UNL     1      -3.666  -1.460   3.839  1.00  0.00     0.001 C 
BRANCH   5   6
ATOM      6  C   UNL     1      -4.456  -0.800   4.983  1.00  0.00     0.009 C 
BRANCH   6   7
ATOM      7  C   UNL     1      -5.198  -1.795   5.902  1.00  0.00     0.032 C 
ATOM      8  C   UNL     1      -4.554  -1.911   7.290  1.00  0.00     0.014 C 
BRANCH   7   9
ATOM      9  C   UNL     1      -6.666  -1.471   5.997  1.00  0.00     0.044 C 
ATOM     10  O   UNL     1      -7.510  -2.232   5.455  1.00  0.00    -0.550 OA
ATOM     11  O   UNL     1      -7.100  -0.315   6.636  1.00  0.00    -0.550 OA
ENDBRANCH   7   9
ENDBRANCH   6   7
ENDBRANCH   5   6
ENDBRANCH   4   5
ENDBRANCH   3   4
ENDBRANCH   2   3
ENDBRANCH   1   2
BRANCH   1  12
ATOM     12  C   UNL     1      -2.915  -4.893   6.279  1.00  0.00     0.000 C 
BRANCH  12  13
ATOM     13  C   UNL     1      -1.434  -4.573   6.023  1.00  0.00    -0.000 C 
BRANCH  13  14
ATOM     14  C   UNL     1      -1.121  -3.108   6.368  1.00  0.00    -0.000 C 
BRANCH  14  15
ATOM     15  C   UNL     1      -0.513  -2.330   5.189  1.00  0.00    -0.000 C 
BRANCH  15  16
ATOM     16  C   UNL     1       0.917  -1.813   5.420  1.00  0.00    -0.000 C 
BRANCH  16  17
ATOM     17  C   UNL     1       1.654  -2.574   6.530  1.00  0.00    -0.000 C 
BRANCH  17  18
ATOM     18  C   UNL     1       3.145  -2.706   6.205  1.00  0.00    -0.003 C 
ATOM     19  C   UNL     1       3.405  -2.508   4.714  1.00  0.00     0.004 C 
ENDBRANCH  17  18
ENDBRANCH  16  17
ENDBRANCH  15  16
ENDBRANCH  14  15
ENDBRANCH  13  14
ENDBRANCH  12  13
ENDBRANCH   1  12
TORSDOF 14
ENDMDL
MODEL 9
REMARK VINA RESULT:    -3.703      5.173      7.791
REMARK INTER + INTRA:          -8.940
REMARK INTER:                  -7.283
REMARK INTRA:                  -1.657
REMARK UNBOUND:                -2.206
REMARK SMILES CCCCCCCCCCCCCC[C@@H](C)C(=O)[O-]
REMARK SMILES IDX 9 1 10 2 11 3 12 4 13 5 14 6 15 7 16 8 17 9 18 10 19 11 8 12
REMARK SMILES IDX 7 13 6 14 5 15 4 16 3 17 2 18 1 19
REMARK H PARENT
REMARK Flexibility Score: inf
ROOT
ATOM      1  C   UNL     1       2.688   0.362   8.074  1.00  0.00     0.000 C 
ENDROOT
BRANCH   1   2
ATOM      2  C   UNL     1       1.842   1.587   7.686  1.00  0.00     0.000 C 
BRANCH   2   3
ATOM      3  C   UNL     1       0.886   2.021   8.809  1.00  0.00     0.000 C 
BRANCH   3   4
ATOM      4  C   UNL     1       0.338   3.441   8.604  1.00  0.00     0.000 C 
BRANCH   4   5
ATOM      5  C   UNL     1       0.715   3.982   7.219  1.00  0.00     0.001 C 
BRANCH   5   6
ATOM      6  C   UNL     1      -0.073   5.265   6.899  1.00  0.00     0.009 C 
BRANCH   6   7
ATOM      7  C   UNL     1       0.298   5.922   5.551  1.00  0.00     0.032 C 
ATOM      8  C   UNL     1       0.791   4.905   4.513  1.00  0.00     0.014 C 
BRANCH   7   9
ATOM      9  C   UNL     1      -0.832   6.760   5.014  1.00  0.00     0.044 C 
ATOM     10  O   UNL     1      -2.024   6.419   5.238  1.00  0.00    -0.550 OA
ATOM     11  O   UNL     1      -0.579   7.881   4.233  1.00  0.00    -0.550 OA
ENDBRANCH   7   9
ENDBRANCH   6   7
ENDBRANCH   5   6
ENDBRANCH   4   5
ENDBRANCH   3   4
ENDBRANCH   2   3
ENDBRANCH   1   2
BRANCH   1  12
ATOM     12  C   UNL     1       2.081  -0.431   9.242  1.00  0.00     0.000 C 
BRANCH  12  13
ATOM     13  C   UNL     1       2.203  -1.952   9.060  1.00  0.00    -0.000 C 
BRANCH  13  14
ATOM     14  C   UNL     1       0.866  -2.561   8.611  1.00  0.00    -0.000 C 
BRANCH  14  15
ATOM     15  C   UNL     1       0.887  -3.050   7.152  1.00  0.00    -0.000 C 
BRANCH  15  16
ATOM     16  C   UNL     1       0.408  -2.021   6.115  1.00  0.00    -0.000 C 
BRANCH  16  17
ATOM     17  C   UNL     1       1.542  -1.503   5.220  1.00  0.00    -0.000 C 
BRANCH  17  18
ATOM     18  C   UNL     1       2.692  -2.512   5.156  1.00  0.00    -0.003 C 
ATOM     19  C   UNL     1       4.031  -1.841   5.452  1.00  0.00     0.004 C 
ENDBRANCH  17  18
ENDBRANCH  16  17
ENDBRANCH  15  16
ENDBRANCH  14  15
ENDBRANCH  13  14
ENDBRANCH  12  13
ENDBRANCH   1  12
TORSDOF 14
ENDMDL
