MODEL 1
REMARK VINA RESULT:    -3.091      0.000      0.000
REMARK INTER + INTRA:          -3.681
REMARK INTER:                  -3.633
REMARK INTRA:                  -0.048
REMARK UNBOUND:                -0.048
REMARK SMILES CCCCC(=O)[O-]
REMARK SMILES IDX 4 1 5 2 6 3 7 4 3 5 2 6 1 7
REMARK H PARENT
REMARK Flexibility Score: inf
ROOT
ATOM      1  C   UNL     1      18.352  11.355 -13.586  1.00  0.00     0.053 C 
ENDROOT
BRANCH   1   2
ATOM      2  C   UNL     1      18.093  10.076 -14.317  1.00  0.00     0.041 C 
ATOM      3  O   UNL     1      17.135   9.333 -13.972  1.00  0.00    -0.550 OA
ATOM      4  O   UNL     1      18.936   9.679 -15.346  1.00  0.00    -0.550 OA
ENDBRANCH   1   2
BRANCH   1   5
ATOM      5  C   UNL     1      19.063  12.359 -14.499  1.00  0.00     0.006 C 
BRANCH   5   6
ATOM      6  C   UNL     1      20.493  12.626 -14.015  1.00  0.00    -0.003 C 
ATOM      7  C   UNL     1      21.022  13.948 -14.564  1.00  0.00     0.004 C 
ENDBRANCH   5   6
ENDBRANCH   1   5
TORSDOF 3
ENDMDL
MODEL 2
REMARK VINA RESULT:    -3.073      0.097      1.228
REMARK INTER + INTRA:          -3.660
REMARK INTER:                  -3.612
REMARK INTRA:                  -0.048
REMARK UNBOUND:                -0.048
REMARK SMILES CCCCC(=O)[O-]
REMARK SMILES IDX 4 1 5 2 6 3 7 4 3 5 2 6 1 7
REMARK H PARENT
REMARK Flexibility Score: inf
ROOT
ATOM      1  C   UNL     1      18.398  11.419 -13.609  1.00  0.00     0.053 C 
ENDROOT
BRANCH   1   2
ATOM      2  C   UNL     1      18.127  10.138 -14.332  1.00  0.00     0.041 C 
ATOM      3  O   UNL     1      18.864   9.782 -15.288  1.00  0.00    -0.550 OA
ATOM      4  O   UNL     1      17.031   9.361 -13.982  1.00  0.00    -0.550 OA
ENDBRANCH   1   2
BRANCH   1   5
ATOM      5  C   UNL     1      19.114  12.413 -14.530  1.00  0.00     0.006 C 
BRANCH   5   6
ATOM      6  C   UNL     1      20.527  12.715 -14.019  1.00  0.00    -0.003 C 
ATOM      7  C   UNL     1      21.053  14.025 -14.598  1.00  0.00     0.004 C 
ENDBRANCH   5   6
ENDBRANCH   1   5
TORSDOF 3
ENDMDL
MODEL 3
REMARK VINA RESULT:    -3.013      3.069      4.416
REMARK INTER + INTRA:          -3.590
REMARK INTER:                  -3.568
REMARK INTRA:                  -0.022
REMARK UNBOUND:                -0.048
REMARK SMILES CCCCC(=O)[O-]
REMARK SMILES IDX 4 1 5 2 6 3 7 4 3 5 2 6 1 7
REMARK H PARENT
REMARK Flexibility Score: inf
ROOT
ATOM      1  C   UNL     1      20.507  12.667 -14.114  1.00  0.00     0.053 C 
ENDROOT
BRANCH   1   2
ATOM      2  C   UNL     1      20.936  13.991 -14.661  1.00  0.00     0.041 C 
ATOM      3  O   UNL     1      21.862  14.637 -14.103  1.00  0.00    -0.550 OA
ATOM      4  O   UNL     1      20.282  14.535 -15.759  1.00  0.00    -0.550 OA
ENDBRANCH   1   2
BRANCH   1   5
ATOM      5  C   UNL     1      19.090  12.325 -14.585  1.00  0.00     0.006 C 
BRANCH   5   6
ATOM      6  C   UNL     1      18.324  11.552 -13.505  1.00  0.00    -0.003 C 
ATOM      7  C   UNL     1      17.948  10.155 -13.991  1.00  0.00     0.004 C 
ENDBRANCH   5   6
ENDBRANCH   1   5
TORSDOF 3
ENDMDL
MODEL 4
REMARK VINA RESULT:    -2.858     13.264     14.062
REMARK INTER + INTRA:          -3.408
REMARK INTER:                  -3.285
REMARK INTRA:                  -0.122
REMARK UNBOUND:                -0.048
REMARK SMILES CCCCC(=O)[O-]
REMARK SMILES IDX 4 1 5 2 6 3 7 4 3 5 2 6 1 7
REMARK H PARENT
REMARK Flexibility Score: inf
ROOT
ATOM      1  C   UNL     1       5.629   8.138 -12.097  1.00  0.00     0.053 C 
ENDROOT
BRANCH   1   2
ATOM      2  C   UNL     1       4.874   8.755 -10.963  1.00  0.00     0.041 C 
ATOM      3  O   UNL     1       3.732   9.249 -11.157  1.00  0.00    -0.550 OA
ATOM      4  O   UNL     1       5.451   8.830  -9.702  1.00  0.00    -0.550 OA
ENDBRANCH   1   2
BRANCH   1   5
ATOM      5  C   UNL     1       6.869   8.972 -12.434  1.00  0.00     0.006 C 
BRANCH   5   6
ATOM      6  C   UNL     1       6.491  10.215 -13.247  1.00  0.00    -0.003 C 
ATOM      7  C   UNL     1       5.654   9.840 -14.467  1.00  0.00     0.004 C 
ENDBRANCH   5   6
ENDBRANCH   1   5
TORSDOF 3
ENDMDL
MODEL 5
REMARK VINA RESULT:    -2.782      2.352      3.791
REMARK INTER + INTRA:          -3.318
REMARK INTER:                  -3.242
REMARK INTRA:                  -0.076
REMARK UNBOUND:                -0.048
REMARK SMILES CCCCC(=O)[O-]
REMARK SMILES IDX 4 1 5 2 6 3 7 4 3 5 2 6 1 7
REMARK H PARENT
REMARK Flexibility Score: inf
ROOT
ATOM      1  C   UNL     1      19.227  12.279 -14.657  1.00  0.00     0.053 C 
ENDROOT
BRANCH   1   2
ATOM      2  C   UNL     1      20.643  12.561 -14.266  1.00  0.00     0.041 C 
ATOM      3  O   UNL     1      21.012  13.743 -14.035  1.00  0.00    -0.550 OA
ATOM      4  O   UNL     1      21.567  11.527 -14.203  1.00  0.00    -0.550 OA
ENDBRANCH   1   2
BRANCH   1   5
ATOM      5  C   UNL     1      18.484  11.579 -13.514  1.00  0.00     0.006 C 
BRANCH   5   6
ATOM      6  C   UNL     1      17.831  10.280 -13.998  1.00  0.00    -0.003 C 
ATOM      7  C   UNL     1      18.654   9.630 -15.107  1.00  0.00     0.004 C 
ENDBRANCH   5   6
ENDBRANCH   1   5
TORSDOF 3
ENDMDL
MODEL 6
REMARK VINA RESULT:    -2.605     12.428     13.586
REMARK INTER + INTRA:          -3.110
REMARK INTER:                  -3.059
REMARK INTRA:                  -0.051
REMARK UNBOUND:                -0.048
REMARK SMILES CCCCC(=O)[O-]
REMARK SMILES IDX 4 1 5 2 6 3 7 4 3 5 2 6 1 7
REMARK H PARENT
REMARK Flexibility Score: inf
ROOT
ATOM      1  C   UNL     1       6.734  10.239 -13.194  1.00  0.00     0.053 C 
ENDROOT
BRANCH   1   2
ATOM      2  C   UNL     1       6.720   8.960 -12.420  1.00  0.00     0.041 C 
ATOM      3  O   UNL     1       7.388   7.970 -12.820  1.00  0.00    -0.550 OA
ATOM      4  O   UNL     1       5.931   8.842 -11.283  1.00  0.00    -0.550 OA
ENDBRANCH   1   2
BRANCH   1   5
ATOM      5  C   UNL     1       5.701  10.194 -14.324  1.00  0.00     0.006 C 
BRANCH   5   6
ATOM      6  C   UNL     1       4.404  10.900 -13.911  1.00  0.00    -0.003 C 
ATOM      7  C   UNL     1       4.052  12.019 -14.888  1.00  0.00     0.004 C 
ENDBRANCH   5   6
ENDBRANCH   1   5
TORSDOF 3
ENDMDL
MODEL 7
REMARK VINA RESULT:    -2.502     12.878     13.685
REMARK INTER + INTRA:          -2.989
REMARK INTER:                  -2.919
REMARK INTRA:                  -0.071
REMARK UNBOUND:                -0.048
REMARK SMILES CCCCC(=O)[O-]
REMARK SMILES IDX 4 1 5 2 6 3 7 4 3 5 2 6 1 7
REMARK H PARENT
REMARK Flexibility Score: inf
ROOT
ATOM      1  C   UNL     1       5.353  10.531 -13.676  1.00  0.00     0.053 C 
ENDROOT
BRANCH   1   2
ATOM      2  C   UNL     1       5.273  10.323 -15.155  1.00  0.00     0.041 C 
ATOM      3  O   UNL     1       4.986  11.285 -15.915  1.00  0.00    -0.550 OA
ATOM      4  O   UNL     1       5.468   9.057 -15.691  1.00  0.00    -0.550 OA
ENDBRANCH   1   2
BRANCH   1   5
ATOM      5  C   UNL     1       6.751  10.175 -13.159  1.00  0.00     0.006 C 
BRANCH   5   6
ATOM      6  C   UNL     1       6.734   8.840 -12.406  1.00  0.00    -0.003 C 
ATOM      7  C   UNL     1       5.589   8.790 -11.398  1.00  0.00     0.004 C 
ENDBRANCH   5   6
ENDBRANCH   1   5
TORSDOF 3
ENDMDL
MODEL 8
REMARK VINA RESULT:    -2.494     13.421     14.845
REMARK INTER + INTRA:          -2.980
REMARK INTER:                  -2.946
REMARK INTRA:                  -0.034
REMARK UNBOUND:                -0.048
REMARK SMILES CCCCC(=O)[O-]
REMARK SMILES IDX 4 1 5 2 6 3 7 4 3 5 2 6 1 7
REMARK H PARENT
REMARK Flexibility Score: inf
ROOT
ATOM      1  C   UNL     1       4.454   8.171 -10.918  1.00  0.00     0.053 C 
ENDROOT
BRANCH   1   2
ATOM      2  C   UNL     1       4.458   8.478  -9.455  1.00  0.00     0.041 C 
ATOM      3  O   UNL     1       5.526   8.824  -8.883  1.00  0.00    -0.550 OA
ATOM      4  O   UNL     1       3.294   8.336  -8.711  1.00  0.00    -0.550 OA
ENDBRANCH   1   2
BRANCH   1   5
ATOM      5  C   UNL     1       5.678   8.791 -11.600  1.00  0.00     0.006 C 
BRANCH   5   6
ATOM      6  C   UNL     1       5.256   9.735 -12.732  1.00  0.00    -0.003 C 
ATOM      7  C   UNL     1       6.472  10.278 -13.477  1.00  0.00     0.004 C 
ENDBRANCH   5   6
ENDBRANCH   1   5
TORSDOF 3
ENDMDL
MODEL 9
REMARK VINA RESULT:    -2.377      1.577      2.045
REMARK INTER + INTRA:          -2.842
REMARK INTER:                  -2.734
REMARK INTRA:                  -0.107
REMARK UNBOUND:                -0.048
REMARK SMILES CCCCC(=O)[O-]
REMARK SMILES IDX 4 1 5 2 6 3 7 4 3 5 2 6 1 7
REMARK H PARENT
REMARK Flexibility Score: inf
ROOT
ATOM      1  C   UNL     1      19.598  11.187 -14.071  1.00  0.00     0.053 C 
ENDROOT
BRANCH   1   2
ATOM      2  C   UNL     1      20.085  10.309 -15.179  1.00  0.00     0.041 C 
ATOM      3  O   UNL     1      21.312  10.045 -15.285  1.00  0.00    -0.550 OA
ATOM      4  O   UNL     1      19.192   9.822 -16.125  1.00  0.00    -0.550 OA
ENDBRANCH   1   2
BRANCH   1   5
ATOM      5  C   UNL     1      19.130  12.538 -14.623  1.00  0.00     0.006 C 
BRANCH   5   6
ATOM      6  C   UNL     1      20.305  13.326 -15.214  1.00  0.00    -0.003 C 
ATOM      7  C   UNL     1      21.310  13.711 -14.132  1.00  0.00     0.004 C 
ENDBRANCH   5   6
ENDBRANCH   1   5
TORSDOF 3
ENDMDL
