MODEL 1
REMARK VINA RESULT:     2.140      0.000      0.000
REMARK INTER + INTRA:           2.928
REMARK INTER:                   3.266
REMARK INTRA:                  -0.338
REMARK UNBOUND:                -0.338
REMARK SMILES CCCCCCCCCCC(=O)[O-]
REMARK SMILES IDX 7 1 8 2 9 3 10 4 11 5 12 6 13 7 6 8 5 9 4 10 3 11 2 12 1 13
REMARK H PARENT
REMARK Flexibility Score: inf
ROOT
ATOM      1  C   UNL     1      11.171  -3.694 -16.423  1.00  0.00     0.000 C 
ENDROOT
BRANCH   1   2
ATOM      2  C   UNL     1      11.195  -4.575 -17.685  1.00  0.00     0.000 C 
BRANCH   2   3
ATOM      3  C   UNL     1      12.203  -5.730 -17.577  1.00  0.00     0.006 C 
BRANCH   3   4
ATOM      4  C   UNL     1      12.889  -6.043 -18.915  1.00  0.00     0.053 C 
BRANCH   4   5
ATOM      5  C   UNL     1      14.297  -6.492 -18.686  1.00  0.00     0.041 C 
ATOM      6  O   UNL     1      14.555  -7.335 -17.787  1.00  0.00    -0.550 OA
ATOM      7  O   UNL     1      15.319  -6.019 -19.500  1.00  0.00    -0.550 OA
ENDBRANCH   4   5
ENDBRANCH   3   4
ENDBRANCH   2   3
ENDBRANCH   1   2
BRANCH   1   8
ATOM      8  C   UNL     1      10.815  -2.230 -16.732  1.00  0.00     0.000 C 
BRANCH   8   9
ATOM      9  C   UNL     1      11.834  -1.236 -16.152  1.00  0.00    -0.000 C 
BRANCH   9  10
ATOM     10  C   UNL     1      12.663  -0.589 -17.272  1.00  0.00    -0.000 C 
BRANCH  10  11
ATOM     11  C   UNL     1      12.767   0.938 -17.126  1.00  0.00    -0.000 C 
BRANCH  11  12
ATOM     12  C   UNL     1      13.942   1.529 -17.919  1.00  0.00    -0.003 C 
ATOM     13  C   UNL     1      14.901   0.435 -18.378  1.00  0.00     0.004 C 
ENDBRANCH  11  12
ENDBRANCH  10  11
ENDBRANCH   9  10
ENDBRANCH   8   9
ENDBRANCH   1   8
TORSDOF 9
ENDMDL
MODEL 2
REMARK VINA RESULT:     2.521      2.925      6.249
REMARK INTER + INTRA:           3.509
REMARK INTER:                   3.814
REMARK INTRA:                  -0.305
REMARK UNBOUND:                -0.338
REMARK SMILES CCCCCCCCCCC(=O)[O-]
REMARK SMILES IDX 7 1 8 2 9 3 10 4 11 5 12 6 13 7 6 8 5 9 4 10 3 11 2 12 1 13
REMARK H PARENT
REMARK Flexibility Score: inf
ROOT
ATOM      1  C   UNL     1      10.902  -2.079 -16.777  1.00  0.00     0.000 C 
ENDROOT
BRANCH   1   2
ATOM      2  C   UNL     1      12.184  -1.241 -16.631  1.00  0.00     0.000 C 
BRANCH   2   3
ATOM      3  C   UNL     1      11.991   0.216 -17.083  1.00  0.00     0.006 C 
BRANCH   3   4
ATOM      4  C   UNL     1      13.275   1.048 -16.964  1.00  0.00     0.053 C 
BRANCH   4   5
ATOM      5  C   UNL     1      13.976   1.118 -18.284  1.00  0.00     0.041 C 
ATOM      6  O   UNL     1      13.580   1.921 -19.169  1.00  0.00    -0.550 OA
ATOM      7  O   UNL     1      15.098   0.334 -18.519  1.00  0.00    -0.550 OA
ENDBRANCH   4   5
ENDBRANCH   3   4
ENDBRANCH   2   3
ENDBRANCH   1   2
BRANCH   1   8
ATOM      8  C   UNL     1      11.119  -3.558 -16.418  1.00  0.00     0.000 C 
BRANCH   8   9
ATOM      9  C   UNL     1      11.142  -4.471 -17.654  1.00  0.00    -0.000 C 
BRANCH   9  10
ATOM     10  C   UNL     1      12.205  -5.570 -17.501  1.00  0.00    -0.000 C 
BRANCH  10  11
ATOM     11  C   UNL     1      12.734  -6.076 -18.852  1.00  0.00    -0.000 C 
BRANCH  11  12
ATOM     12  C   UNL     1      14.267  -6.168 -18.890  1.00  0.00    -0.003 C 
ATOM     13  C   UNL     1      14.766  -7.364 -18.085  1.00  0.00     0.004 C 
ENDBRANCH  11  12
ENDBRANCH  10  11
ENDBRANCH   9  10
ENDBRANCH   8   9
ENDBRANCH   1   8
TORSDOF 9
ENDMDL
MODEL 3
REMARK VINA RESULT:     2.593     11.052     12.381
REMARK INTER + INTRA:           3.619
REMARK INTER:                   3.973
REMARK INTRA:                  -0.354
REMARK UNBOUND:                -0.338
REMARK SMILES CCCCCCCCCCC(=O)[O-]
REMARK SMILES IDX 7 1 8 2 9 3 10 4 11 5 12 6 13 7 6 8 5 9 4 10 3 11 2 12 1 13
REMARK H PARENT
REMARK Flexibility Score: inf
ROOT
ATOM      1  C   UNL     1       0.718  -0.327 -16.252  1.00  0.00     0.000 C 
ENDROOT
BRANCH   1   2
ATOM      2  C   UNL     1       0.661  -1.849 -16.471  1.00  0.00     0.000 C 
BRANCH   2   3
ATOM      3  C   UNL     1      -0.125  -2.234 -17.734  1.00  0.00     0.006 C 
BRANCH   3   4
ATOM      4  C   UNL     1       0.289  -1.411 -18.962  1.00  0.00     0.053 C 
BRANCH   4   5
ATOM      5  C   UNL     1       0.189  -2.240 -20.204  1.00  0.00     0.041 C 
ATOM      6  O   UNL     1       0.325  -1.705 -21.335  1.00  0.00    -0.550 OA
ATOM      7  O   UNL     1      -0.002  -3.613 -20.110  1.00  0.00    -0.550 OA
ENDBRANCH   4   5
ENDBRANCH   3   4
ENDBRANCH   2   3
ENDBRANCH   1   2
BRANCH   1   8
ATOM      8  C   UNL     1       0.012   0.111 -14.958  1.00  0.00     0.000 C 
BRANCH   8   9
ATOM      9  C   UNL     1       0.950   0.851 -13.992  1.00  0.00    -0.000 C 
BRANCH   9  10
ATOM     10  C   UNL     1       2.418   0.502 -14.281  1.00  0.00    -0.000 C 
BRANCH  10  11
ATOM     11  C   UNL     1       3.371   0.981 -13.174  1.00  0.00    -0.000 C 
BRANCH  11  12
ATOM     12  C   UNL     1       4.757   1.367 -13.713  1.00  0.00    -0.003 C 
ATOM     13  C   UNL     1       5.044   2.847 -13.478  1.00  0.00     0.004 C 
ENDBRANCH  11  12
ENDBRANCH  10  11
ENDBRANCH   9  10
ENDBRANCH   8   9
ENDBRANCH   1   8
TORSDOF 9
ENDMDL
MODEL 4
REMARK VINA RESULT:     3.800      0.990      1.387
REMARK INTER + INTRA:           5.462
REMARK INTER:                   5.883
REMARK INTRA:                  -0.421
REMARK UNBOUND:                -0.338
REMARK SMILES CCCCCCCCCCC(=O)[O-]
REMARK SMILES IDX 7 1 8 2 9 3 10 4 11 5 12 6 13 7 6 8 5 9 4 10 3 11 2 12 1 13
REMARK H PARENT
REMARK Flexibility Score: inf
ROOT
ATOM      1  C   UNL     1      10.814  -2.494 -16.376  1.00  0.00     0.000 C 
ENDROOT
BRANCH   1   2
ATOM      2  C   UNL     1      11.173  -3.990 -16.354  1.00  0.00     0.000 C 
BRANCH   2   3
ATOM      3  C   UNL     1      11.508  -4.536 -17.752  1.00  0.00     0.006 C 
BRANCH   3   4
ATOM      4  C   UNL     1      12.008  -5.987 -17.716  1.00  0.00     0.053 C 
BRANCH   4   5
ATOM      5  C   UNL     1      13.035  -6.210 -18.781  1.00  0.00     0.041 C 
ATOM      6  O   UNL     1      14.203  -6.561 -18.470  1.00  0.00    -0.550 OA
ATOM      7  O   UNL     1      12.688  -6.082 -20.119  1.00  0.00    -0.550 OA
ENDBRANCH   4   5
ENDBRANCH   3   4
ENDBRANCH   2   3
ENDBRANCH   1   2
BRANCH   1   8
ATOM      8  C   UNL     1      11.919  -1.631 -17.009  1.00  0.00     0.000 C 
BRANCH   8   9
ATOM      9  C   UNL     1      12.254  -0.387 -16.170  1.00  0.00    -0.000 C 
BRANCH   9  10
ATOM     10  C   UNL     1      12.207   0.882 -17.034  1.00  0.00    -0.000 C 
BRANCH  10  11
ATOM     11  C   UNL     1      13.597   1.500 -17.256  1.00  0.00    -0.000 C 
BRANCH  11  12
ATOM     12  C   UNL     1      14.108   1.307 -18.692  1.00  0.00    -0.003 C 
ATOM     13  C   UNL     1      15.337   0.404 -18.722  1.00  0.00     0.004 C 
ENDBRANCH  11  12
ENDBRANCH  10  11
ENDBRANCH   9  10
ENDBRANCH   8   9
ENDBRANCH   1   8
TORSDOF 9
ENDMDL
MODEL 5
REMARK VINA RESULT:     3.914      3.731      6.549
REMARK INTER + INTRA:           5.635
REMARK INTER:                   5.994
REMARK INTRA:                  -0.359
REMARK UNBOUND:                -0.338
REMARK SMILES CCCCCCCCCCC(=O)[O-]
REMARK SMILES IDX 7 1 8 2 9 3 10 4 11 5 12 6 13 7 6 8 5 9 4 10 3 11 2 12 1 13
REMARK H PARENT
REMARK Flexibility Score: inf
ROOT
ATOM      1  C   UNL     1      10.750  -2.916 -16.211  1.00  0.00     0.000 C 
ENDROOT
BRANCH   1   2
ATOM      2  C   UNL     1      11.292  -1.854 -17.183  1.00  0.00     0.000 C 
BRANCH   2   3
ATOM      3  C   UNL     1      12.136  -0.782 -16.474  1.00  0.00     0.006 C 
BRANCH   3   4
ATOM      4  C   UNL     1      12.866   0.143 -17.457  1.00  0.00     0.053 C 
BRANCH   4   5
ATOM      5  C   UNL     1      12.936   1.534 -16.910  1.00  0.00     0.041 C 
ATOM      6  O   UNL     1      13.839   2.322 -17.297  1.00  0.00    -0.550 OA
ATOM      7  O   UNL     1      11.974   1.978 -16.013  1.00  0.00    -0.550 OA
ENDBRANCH   4   5
ENDBRANCH   3   4
ENDBRANCH   2   3
ENDBRANCH   1   2
BRANCH   1   8
ATOM      8  C   UNL     1      11.400  -4.294 -16.420  1.00  0.00     0.000 C 
BRANCH   8   9
ATOM      9  C   UNL     1      11.449  -4.710 -17.898  1.00  0.00    -0.000 C 
BRANCH   9  10
ATOM     10  C   UNL     1      12.169  -6.057 -18.062  1.00  0.00    -0.000 C 
BRANCH  10  11
ATOM     11  C   UNL     1      13.235  -6.029 -19.170  1.00  0.00    -0.000 C 
BRANCH  11  12
ATOM     12  C   UNL     1      14.649  -6.306 -18.637  1.00  0.00    -0.003 C 
ATOM     13  C   UNL     1      14.739  -7.696 -18.015  1.00  0.00     0.004 C 
ENDBRANCH  11  12
ENDBRANCH  10  11
ENDBRANCH   9  10
ENDBRANCH   8   9
ENDBRANCH   1   8
TORSDOF 9
ENDMDL
MODEL 6
REMARK VINA RESULT:     4.377      0.774      1.001
REMARK INTER + INTRA:           6.341
REMARK INTER:                   6.659
REMARK INTRA:                  -0.317
REMARK UNBOUND:                -0.338
REMARK SMILES CCCCCCCCCCC(=O)[O-]
REMARK SMILES IDX 7 1 8 2 9 3 10 4 11 5 12 6 13 7 6 8 5 9 4 10 3 11 2 12 1 13
REMARK H PARENT
REMARK Flexibility Score: inf
ROOT
ATOM      1  C   UNL     1      11.773  -3.865 -17.560  1.00  0.00     0.000 C 
ENDROOT
BRANCH   1   2
ATOM      2  C   UNL     1      11.392  -5.339 -17.782  1.00  0.00     0.000 C 
BRANCH   2   3
ATOM      3  C   UNL     1      12.459  -6.110 -18.575  1.00  0.00     0.006 C 
BRANCH   3   4
ATOM      4  C   UNL     1      13.671  -6.495 -17.715  1.00  0.00     0.053 C 
BRANCH   4   5
ATOM      5  C   UNL     1      14.805  -6.943 -18.582  1.00  0.00     0.041 C 
ATOM      6  O   UNL     1      15.216  -8.132 -18.524  1.00  0.00    -0.550 OA
ATOM      7  O   UNL     1      15.374  -6.062 -19.493  1.00  0.00    -0.550 OA
ENDBRANCH   4   5
ENDBRANCH   3   4
ENDBRANCH   2   3
ENDBRANCH   1   2
BRANCH   1   8
ATOM      8  C   UNL     1      11.015  -3.230 -16.382  1.00  0.00     0.000 C 
BRANCH   8   9
ATOM      9  C   UNL     1      10.867  -1.707 -16.524  1.00  0.00    -0.000 C 
BRANCH   9  10
ATOM     10  C   UNL     1      12.242  -1.021 -16.523  1.00  0.00    -0.000 C 
BRANCH  10  11
ATOM     11  C   UNL     1      12.266   0.260 -17.371  1.00  0.00    -0.000 C 
BRANCH  11  12
ATOM     12  C   UNL     1      13.592   1.026 -17.247  1.00  0.00    -0.003 C 
ATOM     13  C   UNL     1      14.543   0.667 -18.386  1.00  0.00     0.004 C 
ENDBRANCH  11  12
ENDBRANCH  10  11
ENDBRANCH   9  10
ENDBRANCH   8   9
ENDBRANCH   1   8
TORSDOF 9
ENDMDL
MODEL 7
REMARK VINA RESULT:     4.533      0.937      1.502
REMARK INTER + INTRA:           6.580
REMARK INTER:                   6.827
REMARK INTRA:                  -0.247
REMARK UNBOUND:                -0.338
REMARK SMILES CCCCCCCCCCC(=O)[O-]
REMARK SMILES IDX 7 1 8 2 9 3 10 4 11 5 12 6 13 7 6 8 5 9 4 10 3 11 2 12 1 13
REMARK H PARENT
REMARK Flexibility Score: inf
ROOT
ATOM      1  C   UNL     1      11.093  -3.605 -16.518  1.00  0.00     0.000 C 
ENDROOT
BRANCH   1   2
ATOM      2  C   UNL     1      11.094  -4.658 -17.641  1.00  0.00     0.000 C 
BRANCH   2   3
ATOM      3  C   UNL     1      12.261  -5.651 -17.516  1.00  0.00     0.006 C 
BRANCH   3   4
ATOM      4  C   UNL     1      12.836  -6.062 -18.879  1.00  0.00     0.053 C 
BRANCH   4   5
ATOM      5  C   UNL     1      14.288  -6.399 -18.752  1.00  0.00     0.041 C 
ATOM      6  O   UNL     1      14.668  -7.265 -17.920  1.00  0.00    -0.550 OA
ATOM      7  O   UNL     1      15.218  -5.794 -19.588  1.00  0.00    -0.550 OA
ENDBRANCH   4   5
ENDBRANCH   3   4
ENDBRANCH   2   3
ENDBRANCH   1   2
BRANCH   1   8
ATOM      8  C   UNL     1      11.378  -2.186 -17.039  1.00  0.00     0.000 C 
BRANCH   8   9
ATOM      9  C   UNL     1      11.697  -1.193 -15.911  1.00  0.00    -0.000 C 
BRANCH   9  10
ATOM     10  C   UNL     1      12.926  -0.341 -16.266  1.00  0.00    -0.000 C 
BRANCH  10  11
ATOM     11  C   UNL     1      12.595   0.796 -17.247  1.00  0.00    -0.000 C 
BRANCH  11  12
ATOM     12  C   UNL     1      12.574   2.174 -16.569  1.00  0.00    -0.003 C 
ATOM     13  C   UNL     1      11.436   2.272 -15.557  1.00  0.00     0.004 C 
ENDBRANCH  11  12
ENDBRANCH  10  11
ENDBRANCH   9  10
ENDBRANCH   8   9
ENDBRANCH   1   8
TORSDOF 9
ENDMDL
MODEL 8
REMARK VINA RESULT:     4.625      2.901      6.241
REMARK INTER + INTRA:           6.720
REMARK INTER:                   7.045
REMARK INTRA:                  -0.325
REMARK UNBOUND:                -0.338
REMARK SMILES CCCCCCCCCCC(=O)[O-]
REMARK SMILES IDX 7 1 8 2 9 3 10 4 11 5 12 6 13 7 6 8 5 9 4 10 3 11 2 12 1 13
REMARK H PARENT
REMARK Flexibility Score: inf
ROOT
ATOM      1  C   UNL     1      11.905  -0.959 -16.879  1.00  0.00     0.000 C 
ENDROOT
BRANCH   1   2
ATOM      2  C   UNL     1      12.098   0.274 -15.979  1.00  0.00     0.000 C 
BRANCH   2   3
ATOM      3  C   UNL     1      12.430   1.543 -16.780  1.00  0.00     0.006 C 
BRANCH   3   4
ATOM      4  C   UNL     1      13.931   1.684 -17.069  1.00  0.00     0.053 C 
BRANCH   4   5
ATOM      5  C   UNL     1      14.245   1.203 -18.450  1.00  0.00     0.041 C 
ATOM      6  O   UNL     1      13.713   1.755 -19.449  1.00  0.00    -0.550 OA
ATOM      7  O   UNL     1      15.164   0.178 -18.637  1.00  0.00    -0.550 OA
ENDBRANCH   4   5
ENDBRANCH   3   4
ENDBRANCH   2   3
ENDBRANCH   1   2
BRANCH   1   8
ATOM      8  C   UNL     1      11.866  -2.273 -16.081  1.00  0.00     0.000 C 
BRANCH   8   9
ATOM      9  C   UNL     1      10.738  -3.211 -16.537  1.00  0.00    -0.000 C 
BRANCH   9  10
ATOM     10  C   UNL     1      11.160  -4.010 -17.779  1.00  0.00    -0.000 C 
BRANCH  10  11
ATOM     11  C   UNL     1      11.884  -5.319 -17.424  1.00  0.00    -0.000 C 
BRANCH  11  12
ATOM     12  C   UNL     1      12.428  -6.049 -18.662  1.00  0.00    -0.003 C 
ATOM     13  C   UNL     1      13.912  -6.365 -18.506  1.00  0.00     0.004 C 
ENDBRANCH  11  12
ENDBRANCH  10  11
ENDBRANCH   9  10
ENDBRANCH   8   9
ENDBRANCH   1   8
TORSDOF 9
ENDMDL
