MODEL 1
REMARK VINA RESULT:    -7.341      0.000      0.000
REMARK INTER + INTRA:         -13.187
REMARK INTER:                 -10.130
REMARK INTRA:                  -3.056
REMARK UNBOUND:                -3.056
REMARK SMILES CC[C@H](CC[C@H](C)[C@@H]1CC[C@H]2C3=CC[C@@H]4C[C@H](O)CC[C@]4(C)[C@@H]3CC[C@@]21C)C(C)C
REMARK SMILES IDX 5 1 4 2 3 3 2 4 1 5 28 6 29 7 30 8 6 9 7 10 8 11 9 12 26 13
REMARK SMILES IDX 10 14 11 15 25 16 27 17 12 18 24 19 23 20 13 21 21 22 14 23
REMARK SMILES IDX 15 24 20 25 22 26 16 27 19 28 17 29 18 30
REMARK H PARENT 18 31
REMARK Flexibility Score: inf
ROOT
ATOM      1  C   UNL     1     129.484 134.212 137.928  1.00  0.00     0.004 C 
ENDROOT
BRANCH   1   2
ATOM      2  C   UNL     1     129.216 132.780 137.386  1.00  0.00     0.004 C 
BRANCH   2   3
ATOM      3  C   UNL     1     130.480 132.001 136.914  1.00  0.00    -0.009 C 
BRANCH   3   4
ATOM      4  C   UNL     1     131.818 132.756 137.133  1.00  0.00     0.000 C 
ATOM      5  C   UNL     1     132.643 133.024 135.877  1.00  0.00     0.004 C 
ENDBRANCH   3   4
BRANCH   3   6
ATOM      6  C   UNL     1     130.538 130.529 137.456  1.00  0.00    -0.014 C 
ATOM      7  C   UNL     1     130.168 129.451 136.418  1.00  0.00     0.007 C 
ATOM      8  C   UNL     1     131.919 130.207 138.049  1.00  0.00     0.007 C 
ENDBRANCH   3   6
ENDBRANCH   2   3
ENDBRANCH   1   2
BRANCH   1   9
ATOM      9  C   UNL     1     128.709 134.610 139.224  1.00  0.00    -0.011 C 
ATOM     10  C   UNL     1     128.393 136.124 139.248  1.00  0.00     0.008 C 
BRANCH   9  11
ATOM     11  C   UNL     1     129.434 134.202 140.563  1.00  0.00    -0.002 C 
ATOM     12  C   UNL     1     130.985 134.143 140.431  1.00  0.00     0.005 C 
ATOM     13  C   UNL     1     129.049 132.856 141.272  1.00  0.00    -0.023 C 
ATOM     14  C   UNL     1     131.435 132.729 140.822  1.00  0.00     0.009 C 
ATOM     15  C   UNL     1     130.156 131.903 140.787  1.00  0.00     0.021 C 
ATOM     16  C   UNL     1     127.637 132.234 141.000  1.00  0.00     0.008 C 
ATOM     17  C   UNL     1     129.153 133.092 142.818  1.00  0.00     0.012 C 
ATOM     18  C   UNL     1     130.081 130.590 141.533  1.00  0.00    -0.067 C 
ATOM     19  C   UNL     1     127.649 130.696 140.785  1.00  0.00     0.009 C 
ATOM     20  C   UNL     1     128.713 129.928 141.637  1.00  0.00     0.021 C 
ATOM     21  C   UNL     1     131.172 129.938 141.968  1.00  0.00    -0.027 C 
ATOM     22  C   UNL     1     128.836 128.398 141.291  1.00  0.00    -0.023 C 
ATOM     23  C   UNL     1     131.058 128.642 142.721  1.00  0.00     0.031 C 
ATOM     24  C   UNL     1     129.839 127.747 142.322  1.00  0.00     0.002 C 
ATOM     25  C   UNL     1     129.338 128.195 139.821  1.00  0.00     0.010 C 
ATOM     26  C   UNL     1     127.443 127.727 141.449  1.00  0.00     0.012 C 
ATOM     27  C   UNL     1     130.291 126.321 141.918  1.00  0.00     0.036 C 
ATOM     28  C   UNL     1     129.737 126.751 139.501  1.00  0.00     0.032 C 
ATOM     29  C   UNL     1     130.801 126.232 140.474  1.00  0.00     0.114 C 
BRANCH  29  30
ATOM     30  O   UNL     1     131.996 126.958 140.334  1.00  0.00    -0.393 OA
ATOM     31  H   UNL     1     131.825 127.666 139.662  1.00  0.00     0.210 HD
ENDBRANCH  29  30
ENDBRANCH   9  11
ENDBRANCH   1   9
TORSDOF 7
ENDMDL
MODEL 2
REMARK VINA RESULT:    -7.051      5.156      8.366
REMARK INTER + INTRA:         -12.787
REMARK INTER:                 -11.441
REMARK INTRA:                  -1.346
REMARK UNBOUND:                -3.056
REMARK SMILES CC[C@H](CC[C@H](C)[C@@H]1CC[C@H]2C3=CC[C@@H]4C[C@H](O)CC[C@]4(C)[C@@H]3CC[C@@]21C)C(C)C
REMARK SMILES IDX 5 1 4 2 3 3 2 4 1 5 28 6 29 7 30 8 6 9 7 10 8 11 9 12 26 13
REMARK SMILES IDX 10 14 11 15 25 16 27 17 12 18 24 19 23 20 13 21 21 22 14 23
REMARK SMILES IDX 15 24 20 25 22 26 16 27 19 28 17 29 18 30
REMARK H PARENT 18 31
REMARK Flexibility Score: inf
ROOT
ATOM      1  C   UNL     1     133.384 124.978 139.555  1.00  0.00     0.004 C 
ENDROOT
BRANCH   1   2
ATOM      2  C   UNL     1     133.785 123.594 138.972  1.00  0.00     0.004 C 
BRANCH   2   3
ATOM      3  C   UNL     1     135.236 123.131 139.299  1.00  0.00    -0.009 C 
BRANCH   3   4
ATOM      4  C   UNL     1     136.108 124.202 140.006  1.00  0.00     0.000 C 
ATOM      5  C   UNL     1     136.338 123.989 141.501  1.00  0.00     0.004 C 
ENDBRANCH   3   4
BRANCH   3   6
ATOM      6  C   UNL     1     135.291 121.746 140.036  1.00  0.00    -0.014 C 
ATOM      7  C   UNL     1     133.912 121.136 140.355  1.00  0.00     0.007 C 
ATOM      8  C   UNL     1     136.125 120.725 139.244  1.00  0.00     0.007 C 
ENDBRANCH   3   6
ENDBRANCH   2   3
ENDBRANCH   1   2
BRANCH   1   9
ATOM      9  C   UNL     1     132.137 124.990 140.495  1.00  0.00    -0.011 C 
ATOM     10  C   UNL     1     130.938 124.256 139.851  1.00  0.00     0.008 C 
BRANCH   9  11
ATOM     11  C   UNL     1     131.688 126.430 140.956  1.00  0.00    -0.002 C 
ATOM     12  C   UNL     1     132.557 127.571 140.348  1.00  0.00     0.005 C 
ATOM     13  C   UNL     1     131.616 126.765 142.487  1.00  0.00    -0.023 C 
ATOM     14  C   UNL     1     133.153 128.376 141.510  1.00  0.00     0.009 C 
ATOM     15  C   UNL     1     132.956 127.483 142.727  1.00  0.00     0.021 C 
ATOM     16  C   UNL     1     131.434 125.594 143.511  1.00  0.00     0.008 C 
ATOM     17  C   UNL     1     130.412 127.746 142.698  1.00  0.00     0.012 C 
ATOM     18  C   UNL     1     132.990 128.078 144.117  1.00  0.00    -0.067 C 
ATOM     19  C   UNL     1     132.326 125.710 144.777  1.00  0.00     0.009 C 
ATOM     20  C   UNL     1     132.570 127.174 145.269  1.00  0.00     0.021 C 
ATOM     21  C   UNL     1     133.500 129.293 144.375  1.00  0.00    -0.027 C 
ATOM     22  C   UNL     1     133.609 127.296 146.445  1.00  0.00    -0.023 C 
ATOM     23  C   UNL     1     133.502 129.859 145.768  1.00  0.00     0.031 C 
ATOM     24  C   UNL     1     133.636 128.804 146.914  1.00  0.00     0.002 C 
ATOM     25  C   UNL     1     135.032 126.829 145.986  1.00  0.00     0.010 C 
ATOM     26  C   UNL     1     133.141 126.407 147.632  1.00  0.00     0.012 C 
ATOM     27  C   UNL     1     134.826 129.131 147.851  1.00  0.00     0.036 C 
ATOM     28  C   UNL     1     136.143 127.170 146.985  1.00  0.00     0.032 C 
ATOM     29  C   UNL     1     136.180 128.669 147.297  1.00  0.00     0.114 C 
BRANCH  29  30
ATOM     30  O   UNL     1     136.513 129.406 146.148  1.00  0.00    -0.393 OA
ATOM     31  H   UNL     1     136.688 128.750 145.426  1.00  0.00     0.210 HD
ENDBRANCH  29  30
ENDBRANCH   9  11
ENDBRANCH   1   9
TORSDOF 7
ENDMDL
MODEL 3
REMARK VINA RESULT:    -6.716      1.904      4.968
REMARK INTER + INTRA:         -12.325
REMARK INTER:                  -9.390
REMARK INTRA:                  -2.935
REMARK UNBOUND:                -3.056
REMARK SMILES CC[C@H](CC[C@H](C)[C@@H]1CC[C@H]2C3=CC[C@@H]4C[C@H](O)CC[C@]4(C)[C@@H]3CC[C@@]21C)C(C)C
REMARK SMILES IDX 5 1 4 2 3 3 2 4 1 5 28 6 29 7 30 8 6 9 7 10 8 11 9 12 26 13
REMARK SMILES IDX 10 14 11 15 25 16 27 17 12 18 24 19 23 20 13 21 21 22 14 23
REMARK SMILES IDX 15 24 20 25 22 26 16 27 19 28 17 29 18 30
REMARK H PARENT 18 31
REMARK Flexibility Score: inf
ROOT
ATOM      1  C   UNL     1     132.182 132.617 136.546  1.00  0.00     0.004 C 
ENDROOT
BRANCH   1   2
ATOM      2  C   UNL     1     131.790 133.368 137.849  1.00  0.00     0.004 C 
BRANCH   2   3
ATOM      3  C   UNL     1     130.503 132.849 138.554  1.00  0.00    -0.009 C 
BRANCH   3   4
ATOM      4  C   UNL     1     129.281 132.673 137.612  1.00  0.00     0.000 C 
ATOM      5  C   UNL     1     128.350 133.878 137.501  1.00  0.00     0.004 C 
ENDBRANCH   3   4
BRANCH   3   6
ATOM      6  C   UNL     1     130.752 131.576 139.438  1.00  0.00    -0.014 C 
ATOM      7  C   UNL     1     131.816 131.760 140.537  1.00  0.00     0.007 C 
ATOM      8  C   UNL     1     129.445 131.076 140.077  1.00  0.00     0.007 C 
ENDBRANCH   3   6
ENDBRANCH   2   3
ENDBRANCH   1   2
BRANCH   1   9
ATOM      9  C   UNL     1     133.237 131.477 136.702  1.00  0.00    -0.011 C 
ATOM     10  C   UNL     1     134.534 131.799 135.923  1.00  0.00     0.008 C 
BRANCH   9  11
ATOM     11  C   UNL     1     132.714 130.049 136.287  1.00  0.00    -0.002 C 
ATOM     12  C   UNL     1     131.212 130.039 135.875  1.00  0.00     0.005 C 
ATOM     13  C   UNL     1     132.853 128.851 137.291  1.00  0.00    -0.023 C 
ATOM     14  C   UNL     1     130.483 129.042 136.785  1.00  0.00     0.009 C 
ATOM     15  C   UNL     1     131.455 128.798 137.932  1.00  0.00     0.021 C 
ATOM     16  C   UNL     1     133.959 128.918 138.400  1.00  0.00     0.008 C 
ATOM     17  C   UNL     1     133.131 127.560 136.448  1.00  0.00     0.012 C 
ATOM     18  C   UNL     1     131.319 127.561 138.791  1.00  0.00    -0.067 C 
ATOM     19  C   UNL     1     133.486 128.439 139.800  1.00  0.00     0.009 C 
ATOM     20  C   UNL     1     132.448 127.269 139.772  1.00  0.00     0.021 C 
ATOM     21  C   UNL     1     130.203 126.814 138.818  1.00  0.00    -0.027 C 
ATOM     22  C   UNL     1     131.846 126.905 141.179  1.00  0.00    -0.023 C 
ATOM     23  C   UNL     1     130.110 125.581 139.673  1.00  0.00     0.031 C 
ATOM     24  C   UNL     1     130.934 125.629 141.001  1.00  0.00     0.002 C 
ATOM     25  C   UNL     1     131.023 128.103 141.764  1.00  0.00     0.010 C 
ATOM     26  C   UNL     1     133.007 126.563 142.155  1.00  0.00     0.012 C 
ATOM     27  C   UNL     1     130.039 125.341 142.233  1.00  0.00     0.036 C 
ATOM     28  C   UNL     1     130.191 127.734 142.996  1.00  0.00     0.032 C 
ATOM     29  C   UNL     1     129.244 126.564 142.707  1.00  0.00     0.114 C 
BRANCH  29  30
ATOM     30  O   UNL     1     128.289 126.927 141.743  1.00  0.00    -0.393 OA
ATOM     31  H   UNL     1     127.719 126.131 141.589  1.00  0.00     0.210 HD
ENDBRANCH  29  30
ENDBRANCH   9  11
ENDBRANCH   1   9
TORSDOF 7
ENDMDL
MODEL 4
REMARK VINA RESULT:    -6.673      1.600      3.258
REMARK INTER + INTRA:         -12.264
REMARK INTER:                  -9.531
REMARK INTRA:                  -2.734
REMARK UNBOUND:                -3.056
REMARK SMILES CC[C@H](CC[C@H](C)[C@@H]1CC[C@H]2C3=CC[C@@H]4C[C@H](O)CC[C@]4(C)[C@@H]3CC[C@@]21C)C(C)C
REMARK SMILES IDX 5 1 4 2 3 3 2 4 1 5 28 6 29 7 30 8 6 9 7 10 8 11 9 12 26 13
REMARK SMILES IDX 10 14 11 15 25 16 27 17 12 18 24 19 23 20 13 21 21 22 14 23
REMARK SMILES IDX 15 24 20 25 22 26 16 27 19 28 17 29 18 30
REMARK H PARENT 18 31
REMARK Flexibility Score: inf
ROOT
ATOM      1  C   UNL     1     129.703 134.807 141.984  1.00  0.00     0.004 C 
ENDROOT
BRANCH   1   2
ATOM      2  C   UNL     1     128.827 134.374 140.776  1.00  0.00     0.004 C 
BRANCH   2   3
ATOM      3  C   UNL     1     129.346 133.133 139.990  1.00  0.00    -0.009 C 
BRANCH   3   4
ATOM      4  C   UNL     1     128.471 131.861 140.150  1.00  0.00     0.000 C 
ATOM      5  C   UNL     1     127.197 132.031 140.975  1.00  0.00     0.004 C 
ENDBRANCH   3   4
BRANCH   3   6
ATOM      6  C   UNL     1     129.664 133.443 138.485  1.00  0.00    -0.014 C 
ATOM      7  C   UNL     1     129.787 132.196 137.587  1.00  0.00     0.007 C 
ATOM      8  C   UNL     1     128.624 134.401 137.880  1.00  0.00     0.007 C 
ENDBRANCH   3   6
ENDBRANCH   2   3
ENDBRANCH   1   2
BRANCH   1   9
ATOM      9  C   UNL     1     129.519 133.981 143.296  1.00  0.00    -0.011 C 
ATOM     10  C   UNL     1     129.149 134.893 144.489  1.00  0.00     0.008 C 
BRANCH   9  11
ATOM     11  C   UNL     1     130.762 133.090 143.680  1.00  0.00    -0.002 C 
ATOM     12  C   UNL     1     131.996 133.323 142.758  1.00  0.00     0.005 C 
ATOM     13  C   UNL     1     130.607 131.530 143.739  1.00  0.00    -0.023 C 
ATOM     14  C   UNL     1     132.372 131.976 142.129  1.00  0.00     0.009 C 
ATOM     15  C   UNL     1     131.154 131.094 142.369  1.00  0.00     0.021 C 
ATOM     16  C   UNL     1     129.183 130.919 143.977  1.00  0.00     0.008 C 
ATOM     17  C   UNL     1     131.524 131.010 144.898  1.00  0.00     0.012 C 
ATOM     18  C   UNL     1     131.284 129.589 142.310  1.00  0.00    -0.067 C 
ATOM     19  C   UNL     1     128.860 129.691 143.083  1.00  0.00     0.009 C 
ATOM     20  C   UNL     1     130.086 128.770 142.774  1.00  0.00     0.021 C 
ATOM     21  C   UNL     1     132.335 128.971 141.747  1.00  0.00    -0.027 C 
ATOM     22  C   UNL     1     129.789 127.628 141.733  1.00  0.00    -0.023 C 
ATOM     23  C   UNL     1     132.438 127.472 141.721  1.00  0.00     0.031 C 
ATOM     24  C   UNL     1     131.073 126.713 141.639  1.00  0.00     0.002 C 
ATOM     25  C   UNL     1     129.427 128.226 140.332  1.00  0.00     0.010 C 
ATOM     26  C   UNL     1     128.596 126.771 142.244  1.00  0.00     0.012 C 
ATOM     27  C   UNL     1     131.040 125.736 140.437  1.00  0.00     0.036 C 
ATOM     28  C   UNL     1     129.389 127.185 139.209  1.00  0.00     0.032 C 
ATOM     29  C   UNL     1     130.714 126.422 139.104  1.00  0.00     0.114 C 
BRANCH  29  30
ATOM     30  O   UNL     1     131.757 127.288 138.735  1.00  0.00    -0.393 OA
ATOM     31  H   UNL     1     131.656 128.109 139.282  1.00  0.00     0.210 HD
ENDBRANCH  29  30
ENDBRANCH   9  11
ENDBRANCH   1   9
TORSDOF 7
ENDMDL
MODEL 5
REMARK VINA RESULT:    -6.616      2.069      6.182
REMARK INTER + INTRA:         -12.186
REMARK INTER:                  -9.017
REMARK INTRA:                  -3.169
REMARK UNBOUND:                -3.056
REMARK SMILES CC[C@H](CC[C@H](C)[C@@H]1CC[C@H]2C3=CC[C@@H]4C[C@H](O)CC[C@]4(C)[C@@H]3CC[C@@]21C)C(C)C
REMARK SMILES IDX 5 1 4 2 3 3 2 4 1 5 28 6 29 7 30 8 6 9 7 10 8 11 9 12 26 13
REMARK SMILES IDX 10 14 11 15 25 16 27 17 12 18 24 19 23 20 13 21 21 22 14 23
REMARK SMILES IDX 15 24 20 25 22 26 16 27 19 28 17 29 18 30
REMARK H PARENT 18 31
REMARK Flexibility Score: inf
ROOT
ATOM      1  C   UNL     1     130.065 125.944 140.293  1.00  0.00     0.004 C 
ENDROOT
BRANCH   1   2
ATOM      2  C   UNL     1     130.508 126.426 138.884  1.00  0.00     0.004 C 
BRANCH   2   3
ATOM      3  C   UNL     1     131.637 127.498 138.872  1.00  0.00    -0.009 C 
BRANCH   3   4
ATOM      4  C   UNL     1     133.059 126.930 138.616  1.00  0.00     0.000 C 
ATOM      5  C   UNL     1     133.119 125.476 138.152  1.00  0.00     0.004 C 
ENDBRANCH   3   4
BRANCH   3   6
ATOM      6  C   UNL     1     131.318 128.724 137.944  1.00  0.00    -0.014 C 
ATOM      7  C   UNL     1     132.272 128.884 136.745  1.00  0.00     0.007 C 
ATOM      8  C   UNL     1     129.868 128.673 137.433  1.00  0.00     0.007 C 
ENDBRANCH   3   6
ENDBRANCH   2   3
ENDBRANCH   1   2
BRANCH   1   9
ATOM      9  C   UNL     1     130.719 126.679 141.506  1.00  0.00    -0.011 C 
ATOM     10  C   UNL     1     131.200 125.676 142.580  1.00  0.00     0.008 C 
BRANCH   9  11
ATOM     11  C   UNL     1     129.796 127.768 142.177  1.00  0.00    -0.002 C 
ATOM     12  C   UNL     1     128.317 127.705 141.693  1.00  0.00     0.005 C 
ATOM     13  C   UNL     1     130.182 129.285 142.065  1.00  0.00    -0.023 C 
ATOM     14  C   UNL     1     127.958 129.076 141.104  1.00  0.00     0.009 C 
ATOM     15  C   UNL     1     129.303 129.760 140.895  1.00  0.00     0.021 C 
ATOM     16  C   UNL     1     131.680 129.668 141.812  1.00  0.00     0.008 C 
ATOM     17  C   UNL     1     129.753 129.979 143.403  1.00  0.00     0.012 C 
ATOM     18  C   UNL     1     129.375 131.264 140.761  1.00  0.00    -0.067 C 
ATOM     19  C   UNL     1     131.879 130.802 140.770  1.00  0.00     0.009 C 
ATOM     20  C   UNL     1     130.761 131.896 140.775  1.00  0.00     0.021 C 
ATOM     21  C   UNL     1     128.300 132.023 140.495  1.00  0.00    -0.027 C 
ATOM     22  C   UNL     1     130.878 132.945 139.607  1.00  0.00    -0.023 C 
ATOM     23  C   UNL     1     128.407 133.518 140.385  1.00  0.00     0.031 C 
ATOM     24  C   UNL     1     129.771 134.048 139.835  1.00  0.00     0.002 C 
ATOM     25  C   UNL     1     130.699 132.254 138.213  1.00  0.00     0.010 C 
ATOM     26  C   UNL     1     132.279 133.616 139.665  1.00  0.00     0.012 C 
ATOM     27  C   UNL     1     129.568 134.971 138.607  1.00  0.00     0.036 C 
ATOM     28  C   UNL     1     130.532 133.241 137.054  1.00  0.00     0.032 C 
ATOM     29  C   UNL     1     129.362 134.201 137.296  1.00  0.00     0.114 C 
BRANCH  29  30
ATOM     30  O   UNL     1     128.145 133.500 137.328  1.00  0.00    -0.393 OA
ATOM     31  H   UNL     1     128.361 132.541 137.202  1.00  0.00     0.210 HD
ENDBRANCH  29  30
ENDBRANCH   9  11
ENDBRANCH   1   9
TORSDOF 7
ENDMDL
MODEL 6
REMARK VINA RESULT:    -6.614      4.160      7.924
REMARK INTER + INTRA:         -12.183
REMARK INTER:                 -10.045
REMARK INTRA:                  -2.139
REMARK UNBOUND:                -3.056
REMARK SMILES CC[C@H](CC[C@H](C)[C@@H]1CC[C@H]2C3=CC[C@@H]4C[C@H](O)CC[C@]4(C)[C@@H]3CC[C@@]21C)C(C)C
REMARK SMILES IDX 5 1 4 2 3 3 2 4 1 5 28 6 29 7 30 8 6 9 7 10 8 11 9 12 26 13
REMARK SMILES IDX 10 14 11 15 25 16 27 17 12 18 24 19 23 20 13 21 21 22 14 23
REMARK SMILES IDX 15 24 20 25 22 26 16 27 19 28 17 29 18 30
REMARK H PARENT 18 31
REMARK Flexibility Score: inf
ROOT
ATOM      1  C   UNL     1     131.147 128.370 143.352  1.00  0.00     0.004 C 
ENDROOT
BRANCH   1   2
ATOM      2  C   UNL     1     132.677 128.637 143.291  1.00  0.00     0.004 C 
BRANCH   2   3
ATOM      3  C   UNL     1     133.479 128.196 144.551  1.00  0.00    -0.009 C 
BRANCH   3   4
ATOM      4  C   UNL     1     133.322 129.138 145.774  1.00  0.00     0.000 C 
ATOM      5  C   UNL     1     134.532 130.010 146.100  1.00  0.00     0.004 C 
ENDBRANCH   3   4
BRANCH   3   6
ATOM      6  C   UNL     1     133.251 126.691 144.934  1.00  0.00    -0.014 C 
ATOM      7  C   UNL     1     134.031 125.685 144.065  1.00  0.00     0.007 C 
ATOM      8  C   UNL     1     133.576 126.437 146.416  1.00  0.00     0.007 C 
ENDBRANCH   3   6
ENDBRANCH   2   3
ENDBRANCH   1   2
BRANCH   1   9
ATOM      9  C   UNL     1     130.383 128.449 141.993  1.00  0.00    -0.011 C 
ATOM     10  C   UNL     1     129.116 129.329 142.109  1.00  0.00     0.008 C 
BRANCH   9  11
ATOM     11  C   UNL     1     129.996 127.047 141.385  1.00  0.00    -0.002 C 
ATOM     12  C   UNL     1     129.741 125.955 142.466  1.00  0.00     0.005 C 
ATOM     13  C   UNL     1     130.958 126.359 140.353  1.00  0.00    -0.023 C 
ATOM     14  C   UNL     1     130.701 124.791 142.194  1.00  0.00     0.009 C 
ATOM     15  C   UNL     1     131.738 125.373 141.241  1.00  0.00     0.021 C 
ATOM     16  C   UNL     1     131.949 127.251 139.530  1.00  0.00     0.008 C 
ATOM     17  C   UNL     1     130.067 125.593 139.317  1.00  0.00     0.012 C 
ATOM     18  C   UNL     1     132.582 124.454 140.387  1.00  0.00    -0.067 C 
ATOM     19  C   UNL     1     133.380 126.663 139.403  1.00  0.00     0.009 C 
ATOM     20  C   UNL     1     133.437 125.103 139.305  1.00  0.00     0.021 C 
ATOM     21  C   UNL     1     132.710 123.141 140.638  1.00  0.00    -0.027 C 
ATOM     22  C   UNL     1     134.891 124.505 139.348  1.00  0.00    -0.023 C 
ATOM     23  C   UNL     1     133.546 122.255 139.758  1.00  0.00     0.031 C 
ATOM     24  C   UNL     1     134.783 122.949 139.100  1.00  0.00     0.002 C 
ATOM     25  C   UNL     1     135.580 124.804 140.722  1.00  0.00     0.010 C 
ATOM     26  C   UNL     1     135.736 125.140 138.208  1.00  0.00     0.012 C 
ATOM     27  C   UNL     1     136.095 122.187 139.417  1.00  0.00     0.036 C 
ATOM     28  C   UNL     1     136.884 124.029 140.939  1.00  0.00     0.032 C 
ATOM     29  C   UNL     1     136.671 122.518 140.801  1.00  0.00     0.114 C 
BRANCH  29  30
ATOM     30  O   UNL     1     135.817 122.043 141.809  1.00  0.00    -0.393 OA
ATOM     31  H   UNL     1     135.097 122.716 141.918  1.00  0.00     0.210 HD
ENDBRANCH  29  30
ENDBRANCH   9  11
ENDBRANCH   1   9
TORSDOF 7
ENDMDL
MODEL 7
REMARK VINA RESULT:    -6.583      1.551      4.259
REMARK INTER + INTRA:         -12.140
REMARK INTER:                  -9.327
REMARK INTRA:                  -2.813
REMARK UNBOUND:                -3.056
REMARK SMILES CC[C@H](CC[C@H](C)[C@@H]1CC[C@H]2C3=CC[C@@H]4C[C@H](O)CC[C@]4(C)[C@@H]3CC[C@@]21C)C(C)C
REMARK SMILES IDX 5 1 4 2 3 3 2 4 1 5 28 6 29 7 30 8 6 9 7 10 8 11 9 12 26 13
REMARK SMILES IDX 10 14 11 15 25 16 27 17 12 18 24 19 23 20 13 21 21 22 14 23
REMARK SMILES IDX 15 24 20 25 22 26 16 27 19 28 17 29 18 30
REMARK H PARENT 18 31
REMARK Flexibility Score: inf
ROOT
ATOM      1  C   UNL     1     128.897 133.091 137.396  1.00  0.00     0.004 C 
ENDROOT
BRANCH   1   2
ATOM      2  C   UNL     1     128.144 133.241 138.747  1.00  0.00     0.004 C 
BRANCH   2   3
ATOM      3  C   UNL     1     129.012 133.013 140.020  1.00  0.00    -0.009 C 
BRANCH   3   4
ATOM      4  C   UNL     1     129.295 134.299 140.843  1.00  0.00     0.000 C 
ATOM      5  C   UNL     1     128.956 135.617 140.151  1.00  0.00     0.004 C 
ENDBRANCH   3   4
BRANCH   3   6
ATOM      6  C   UNL     1     128.489 131.840 140.923  1.00  0.00    -0.014 C 
ATOM      7  C   UNL     1     128.907 131.937 142.403  1.00  0.00     0.007 C 
ATOM      8  C   UNL     1     126.959 131.708 140.837  1.00  0.00     0.007 C 
ENDBRANCH   3   6
ENDBRANCH   2   3
ENDBRANCH   1   2
BRANCH   1   9
ATOM      9  C   UNL     1     130.456 133.080 137.477  1.00  0.00    -0.011 C 
ATOM     10  C   UNL     1     131.069 134.258 136.684  1.00  0.00     0.008 C 
BRANCH   9  11
ATOM     11  C   UNL     1     131.119 131.728 137.010  1.00  0.00    -0.002 C 
ATOM     12  C   UNL     1     130.131 130.781 136.265  1.00  0.00     0.005 C 
ATOM     13  C   UNL     1     131.823 130.806 138.066  1.00  0.00    -0.023 C 
ATOM     14  C   UNL     1     130.097 129.448 137.023  1.00  0.00     0.009 C 
ATOM     15  C   UNL     1     130.732 129.765 138.371  1.00  0.00     0.021 C 
ATOM     16  C   UNL     1     132.352 131.445 139.395  1.00  0.00     0.008 C 
ATOM     17  C   UNL     1     133.053 130.137 137.362  1.00  0.00     0.012 C 
ATOM     18  C   UNL     1     131.293 128.650 139.224  1.00  0.00    -0.067 C 
ATOM     19  C   UNL     1     132.059 130.603 140.668  1.00  0.00     0.009 C 
ATOM     20  C   UNL     1     132.105 129.055 140.449  1.00  0.00     0.021 C 
ATOM     21  C   UNL     1     130.990 127.357 139.024  1.00  0.00    -0.027 C 
ATOM     22  C   UNL     1     131.641 128.213 141.694  1.00  0.00    -0.023 C 
ATOM     23  C   UNL     1     131.581 126.275 139.884  1.00  0.00     0.031 C 
ATOM     24  C   UNL     1     131.877 126.687 141.362  1.00  0.00     0.002 C 
ATOM     25  C   UNL     1     130.135 128.485 142.026  1.00  0.00     0.010 C 
ATOM     26  C   UNL     1     132.510 128.602 142.924  1.00  0.00     0.012 C 
ATOM     27  C   UNL     1     131.188 125.730 142.367  1.00  0.00     0.036 C 
ATOM     28  C   UNL     1     129.544 127.509 143.048  1.00  0.00     0.032 C 
ATOM     29  C   UNL     1     129.706 126.054 142.596  1.00  0.00     0.114 C 
BRANCH  29  30
ATOM     30  O   UNL     1     128.968 125.814 141.425  1.00  0.00    -0.393 OA
ATOM     31  H   UNL     1     128.067 126.201 141.568  1.00  0.00     0.210 HD
ENDBRANCH  29  30
ENDBRANCH   9  11
ENDBRANCH   1   9
TORSDOF 7
ENDMDL
MODEL 8
REMARK VINA RESULT:    -6.512      2.390      7.221
REMARK INTER + INTRA:         -12.043
REMARK INTER:                  -8.674
REMARK INTRA:                  -3.369
REMARK UNBOUND:                -3.056
REMARK SMILES CC[C@H](CC[C@H](C)[C@@H]1CC[C@H]2C3=CC[C@@H]4C[C@H](O)CC[C@]4(C)[C@@H]3CC[C@@]21C)C(C)C
REMARK SMILES IDX 5 1 4 2 3 3 2 4 1 5 28 6 29 7 30 8 6 9 7 10 8 11 9 12 26 13
REMARK SMILES IDX 10 14 11 15 25 16 27 17 12 18 24 19 23 20 13 21 21 22 14 23
REMARK SMILES IDX 15 24 20 25 22 26 16 27 19 28 17 29 18 30
REMARK H PARENT 18 31
REMARK Flexibility Score: inf
ROOT
ATOM      1  C   UNL     1     131.911 126.364 143.055  1.00  0.00     0.004 C 
ENDROOT
BRANCH   1   2
ATOM      2  C   UNL     1     131.422 127.814 143.328  1.00  0.00     0.004 C 
BRANCH   2   3
ATOM      3  C   UNL     1     130.541 128.440 142.207  1.00  0.00    -0.009 C 
BRANCH   3   4
ATOM      4  C   UNL     1     129.026 128.500 142.539  1.00  0.00     0.000 C 
ATOM      5  C   UNL     1     128.095 127.870 141.506  1.00  0.00     0.004 C 
ENDBRANCH   3   4
BRANCH   3   6
ATOM      6  C   UNL     1     131.086 129.819 141.690  1.00  0.00    -0.014 C 
ATOM      7  C   UNL     1     130.201 131.030 142.046  1.00  0.00     0.007 C 
ATOM      8  C   UNL     1     132.518 130.076 142.188  1.00  0.00     0.007 C 
ENDBRANCH   3   6
ENDBRANCH   2   3
ENDBRANCH   1   2
BRANCH   1   9
ATOM      9  C   UNL     1     131.379 125.695 141.749  1.00  0.00    -0.011 C 
ATOM     10  C   UNL     1     130.861 124.263 142.019  1.00  0.00     0.008 C 
BRANCH   9  11
ATOM     11  C   UNL     1     132.422 125.664 140.567  1.00  0.00    -0.002 C 
ATOM     12  C   UNL     1     133.844 126.143 140.986  1.00  0.00     0.005 C 
ATOM     13  C   UNL     1     132.117 126.451 139.244  1.00  0.00    -0.023 C 
ATOM     14  C   UNL     1     134.225 127.324 140.084  1.00  0.00     0.009 C 
ATOM     15  C   UNL     1     132.909 127.754 139.449  1.00  0.00     0.021 C 
ATOM     16  C   UNL     1     130.627 126.770 138.880  1.00  0.00     0.008 C 
ATOM     17  C   UNL     1     132.708 125.619 138.055  1.00  0.00     0.012 C 
ATOM     18  C   UNL     1     132.913 128.572 138.178  1.00  0.00    -0.067 C 
ATOM     19  C   UNL     1     130.397 128.209 138.343  1.00  0.00     0.009 C 
ATOM     20  C   UNL     1     131.573 128.779 137.482  1.00  0.00     0.021 C 
ATOM     21  C   UNL     1     134.001 129.221 137.733  1.00  0.00    -0.027 C 
ATOM     22  C   UNL     1     131.409 130.293 137.085  1.00  0.00    -0.023 C 
ATOM     23  C   UNL     1     133.971 130.011 136.455  1.00  0.00     0.031 C 
ATOM     24  C   UNL     1     132.595 130.669 136.113  1.00  0.00     0.002 C 
ATOM     25  C   UNL     1     131.417 131.209 138.356  1.00  0.00     0.010 C 
ATOM     26  C   UNL     1     130.061 130.479 136.334  1.00  0.00     0.012 C 
ATOM     27  C   UNL     1     132.737 132.196 135.886  1.00  0.00     0.036 C 
ATOM     28  C   UNL     1     131.533 132.703 138.036  1.00  0.00     0.032 C 
ATOM     29  C   UNL     1     132.774 133.003 137.190  1.00  0.00     0.114 C 
BRANCH  29  30
ATOM     30  O   UNL     1     133.946 132.714 137.908  1.00  0.00    -0.393 OA
ATOM     31  H   UNL     1     134.666 132.578 137.241  1.00  0.00     0.210 HD
ENDBRANCH  29  30
ENDBRANCH   9  11
ENDBRANCH   1   9
TORSDOF 7
ENDMDL
MODEL 9
REMARK VINA RESULT:    -6.474      1.857      4.992
REMARK INTER + INTRA:         -11.991
REMARK INTER:                  -8.786
REMARK INTRA:                  -3.205
REMARK UNBOUND:                -3.056
REMARK SMILES CC[C@H](CC[C@H](C)[C@@H]1CC[C@H]2C3=CC[C@@H]4C[C@H](O)CC[C@]4(C)[C@@H]3CC[C@@]21C)C(C)C
REMARK SMILES IDX 5 1 4 2 3 3 2 4 1 5 28 6 29 7 30 8 6 9 7 10 8 11 9 12 26 13
REMARK SMILES IDX 10 14 11 15 25 16 27 17 12 18 24 19 23 20 13 21 21 22 14 23
REMARK SMILES IDX 15 24 20 25 22 26 16 27 19 28 17 29 18 30
REMARK H PARENT 18 31
REMARK Flexibility Score: inf
ROOT
ATOM      1  C   UNL     1     130.884 132.283 138.115  1.00  0.00     0.004 C 
ENDROOT
BRANCH   1   2
ATOM      2  C   UNL     1     131.363 132.312 139.593  1.00  0.00     0.004 C 
BRANCH   2   3
ATOM      3  C   UNL     1     130.717 131.243 140.522  1.00  0.00    -0.009 C 
BRANCH   3   4
ATOM      4  C   UNL     1     131.021 131.437 142.032  1.00  0.00     0.000 C 
ATOM      5  C   UNL     1     132.339 130.844 142.525  1.00  0.00     0.004 C 
ENDBRANCH   3   4
BRANCH   3   6
ATOM      6  C   UNL     1     129.185 131.034 140.252  1.00  0.00    -0.014 C 
ATOM      7  C   UNL     1     128.627 129.685 140.749  1.00  0.00     0.007 C 
ATOM      8  C   UNL     1     128.351 132.178 140.853  1.00  0.00     0.007 C 
ENDBRANCH   3   6
ENDBRANCH   2   3
ENDBRANCH   1   2
BRANCH   1   9
ATOM      9  C   UNL     1     131.925 131.777 137.066  1.00  0.00    -0.011 C 
ATOM     10  C   UNL     1     132.046 132.756 135.875  1.00  0.00     0.008 C 
BRANCH   9  11
ATOM     11  C   UNL     1     131.645 130.323 136.527  1.00  0.00    -0.002 C 
ATOM     12  C   UNL     1     130.133 130.031 136.296  1.00  0.00     0.005 C 
ATOM     13  C   UNL     1     132.164 129.083 137.338  1.00  0.00    -0.023 C 
ATOM     14  C   UNL     1     129.756 128.808 137.142  1.00  0.00     0.009 C 
ATOM     15  C   UNL     1     130.911 128.660 138.124  1.00  0.00     0.021 C 
ATOM     16  C   UNL     1     133.380 129.269 138.308  1.00  0.00     0.008 C 
ATOM     17  C   UNL     1     132.572 127.980 136.302  1.00  0.00     0.012 C 
ATOM     18  C   UNL     1     131.149 127.338 138.819  1.00  0.00    -0.067 C 
ATOM     19  C   UNL     1     133.217 128.552 139.677  1.00  0.00     0.009 C 
ATOM     20  C   UNL     1     132.442 127.195 139.613  1.00  0.00     0.021 C 
ATOM     21  C   UNL     1     130.222 126.368 138.875  1.00  0.00    -0.027 C 
ATOM     22  C   UNL     1     132.133 126.561 141.019  1.00  0.00    -0.023 C 
ATOM     23  C   UNL     1     130.501 125.060 139.561  1.00  0.00     0.031 C 
ATOM     24  C   UNL     1     131.479 125.144 140.778  1.00  0.00     0.002 C 
ATOM     25  C   UNL     1     131.178 127.481 141.852  1.00  0.00     0.010 C 
ATOM     26  C   UNL     1     133.466 126.376 141.798  1.00  0.00     0.012 C 
ATOM     27  C   UNL     1     130.846 124.538 142.057  1.00  0.00     0.036 C 
ATOM     28  C   UNL     1     130.621 126.811 143.112  1.00  0.00     0.032 C 
ATOM     29  C   UNL     1     129.896 125.502 142.780  1.00  0.00     0.114 C 
BRANCH  29  30
ATOM     30  O   UNL     1     128.761 125.750 141.992  1.00  0.00    -0.393 OA
ATOM     31  H   UNL     1     128.945 125.373 141.094  1.00  0.00     0.210 HD
ENDBRANCH  29  30
ENDBRANCH   9  11
ENDBRANCH   1   9
TORSDOF 7
ENDMDL
