MODEL 1
REMARK VINA RESULT:    -4.971      0.000      0.000
REMARK INTER + INTRA:          -8.697
REMARK INTER:                  -6.714
REMARK INTRA:                  -1.983
REMARK UNBOUND:                -1.983
REMARK SMILES CC[C@H](CC[C@@H](C)[C@@H]1CC[C@@H]2[C@H]3CC(=O)C4=CC(=O)CC[C@]4(C)[C@H]3CC[C@@]21C)C(C)C
REMARK SMILES IDX 4 1 3 2 2 3 1 4 29 5 30 6 31 7 5 8 6 9 7 10 8 11 9 12 27 13
REMARK SMILES IDX 10 14 11 15 26 16 28 17 12 18 25 19 24 20 13 21 22 22 14 23
REMARK SMILES IDX 16 24 21 25 23 26 15 27 17 28 20 29 18 30 19 31
REMARK H PARENT
REMARK Flexibility Score: inf
ROOT
ATOM      1  C   UNL     1      28.204  47.348  83.289  1.00  0.00     0.004 C 
ENDROOT
BRANCH   1   2
ATOM      2  C   UNL     1      28.921  46.760  84.545  1.00  0.00    -0.009 C 
BRANCH   2   3
ATOM      3  C   UNL     1      28.476  47.528  85.822  1.00  0.00     0.000 C 
ATOM      4  C   UNL     1      28.271  46.618  87.040  1.00  0.00     0.004 C 
ENDBRANCH   2   3
BRANCH   2   5
ATOM      5  C   UNL     1      28.744  45.211  84.699  1.00  0.00    -0.014 C 
ATOM      6  C   UNL     1      29.899  44.395  84.093  1.00  0.00     0.007 C 
ATOM      7  C   UNL     1      27.397  44.712  84.145  1.00  0.00     0.007 C 
ENDBRANCH   2   5
ENDBRANCH   1   2
BRANCH   1   8
ATOM      8  C   UNL     1      29.095  47.755  82.091  1.00  0.00     0.004 C 
BRANCH   8   9
ATOM      9  C   UNL     1      28.774  47.008  80.759  1.00  0.00    -0.011 C 
ATOM     10  C   UNL     1      29.995  46.988  79.824  1.00  0.00     0.008 C 
BRANCH   9  11
ATOM     11  C   UNL     1      28.090  45.597  80.876  1.00  0.00    -0.002 C 
ATOM     12  C   UNL     1      28.992  44.433  80.508  1.00  0.00     0.005 C 
ATOM     13  C   UNL     1      26.707  45.260  80.212  1.00  0.00    -0.026 C 
ATOM     14  C   UNL     1      28.085  43.224  80.622  1.00  0.00     0.005 C 
ATOM     15  C   UNL     1      26.683  43.687  80.162  1.00  0.00    -0.001 C 
ATOM     16  C   UNL     1      26.554  45.832  78.776  1.00  0.00     0.007 C 
ATOM     17  C   UNL     1      25.551  45.778  81.118  1.00  0.00     0.012 C 
ATOM     18  C   UNL     1      26.323  43.039  78.774  1.00  0.00     0.004 C 
ATOM     19  C   UNL     1      25.265  45.343  78.114  1.00  0.00     0.005 C 
ATOM     20  C   UNL     1      25.241  43.803  77.923  1.00  0.00     0.003 C 
ATOM     21  C   UNL     1      26.040  41.518  78.941  1.00  0.00     0.085 C 
ATOM     22  C   UNL     1      23.797  43.170  77.933  1.00  0.00    -0.000 C 
ATOM     23  C   UNL     1      25.135  40.959  77.891  1.00  0.00     0.159 C 
ATOM     24  C   UNL     1      23.917  41.705  77.507  1.00  0.00     0.005 C 
ATOM     25  C   UNL     1      22.892  43.928  76.908  1.00  0.00     0.020 C 
ATOM     26  C   UNL     1      23.153  43.232  79.340  1.00  0.00     0.017 C 
ATOM     27  O   UNL     1      25.394  39.834  77.385  1.00  0.00    -0.295 OA
ATOM     28  C   UNL     1      22.932  41.078  76.836  1.00  0.00     0.055 C 
ATOM     29  C   UNL     1      21.538  43.243  76.684  1.00  0.00     0.081 C 
ATOM     30  C   UNL     1      21.718  41.785  76.402  1.00  0.00     0.156 C 
ATOM     31  O   UNL     1      20.809  41.149  75.809  1.00  0.00    -0.295 OA
ENDBRANCH   9  11
ENDBRANCH   8   9
ENDBRANCH   1   8
TORSDOF 6
ENDMDL
MODEL 2
REMARK VINA RESULT:    -4.938      4.159      8.147
REMARK INTER + INTRA:          -8.653
REMARK INTER:                  -6.346
REMARK INTRA:                  -2.307
REMARK UNBOUND:                -1.983
REMARK SMILES CC[C@H](CC[C@@H](C)[C@@H]1CC[C@@H]2[C@H]3CC(=O)C4=CC(=O)CC[C@]4(C)[C@H]3CC[C@@]21C)C(C)C
REMARK SMILES IDX 4 1 3 2 2 3 1 4 29 5 30 6 31 7 5 8 6 9 7 10 8 11 9 12 27 13
REMARK SMILES IDX 10 14 11 15 26 16 28 17 12 18 25 19 24 20 13 21 22 22 14 23
REMARK SMILES IDX 16 24 21 25 23 26 15 27 17 28 20 29 18 30 19 31
REMARK H PARENT
REMARK Flexibility Score: inf
ROOT
ATOM      1  C   UNL     1      25.734  46.732  79.027  1.00  0.00     0.004 C 
ENDROOT
BRANCH   1   2
ATOM      2  C   UNL     1      25.153  45.406  79.611  1.00  0.00    -0.009 C 
BRANCH   2   3
ATOM      3  C   UNL     1      23.686  45.625  80.079  1.00  0.00     0.000 C 
ATOM      4  C   UNL     1      23.321  44.826  81.335  1.00  0.00     0.004 C 
ENDBRANCH   2   3
BRANCH   2   5
ATOM      5  C   UNL     1      25.282  44.183  78.638  1.00  0.00    -0.014 C 
ATOM      6  C   UNL     1      26.302  43.130  79.105  1.00  0.00     0.007 C 
ATOM      7  C   UNL     1      25.586  44.609  77.191  1.00  0.00     0.007 C 
ENDBRANCH   2   5
ENDBRANCH   1   2
BRANCH   1   8
ATOM      8  C   UNL     1      27.203  47.074  79.372  1.00  0.00     0.004 C 
BRANCH   8   9
ATOM      9  C   UNL     1      27.876  46.099  80.387  1.00  0.00    -0.011 C 
ATOM     10  C   UNL     1      29.194  45.538  79.830  1.00  0.00     0.008 C 
BRANCH   9  11
ATOM     11  C   UNL     1      28.022  46.599  81.871  1.00  0.00    -0.002 C 
ATOM     12  C   UNL     1      29.391  46.354  82.481  1.00  0.00     0.005 C 
ATOM     13  C   UNL     1      27.002  46.222  83.005  1.00  0.00    -0.026 C 
ATOM     14  C   UNL     1      29.242  46.841  83.909  1.00  0.00     0.005 C 
ATOM     15  C   UNL     1      27.794  46.501  84.336  1.00  0.00    -0.001 C 
ATOM     16  C   UNL     1      26.553  44.736  82.963  1.00  0.00     0.007 C 
ATOM     17  C   UNL     1      25.760  47.158  82.923  1.00  0.00     0.012 C 
ATOM     18  C   UNL     1      27.800  45.341  85.399  1.00  0.00     0.004 C 
ATOM     19  C   UNL     1      25.692  44.379  84.176  1.00  0.00     0.005 C 
ATOM     20  C   UNL     1      26.464  44.513  85.515  1.00  0.00     0.003 C 
ATOM     21  C   UNL     1      28.347  45.855  86.763  1.00  0.00     0.085 C 
ATOM     22  C   UNL     1      25.557  44.859  86.757  1.00  0.00    -0.000 C 
ATOM     23  C   UNL     1      27.844  45.082  87.939  1.00  0.00     0.159 C 
ATOM     24  C   UNL     1      26.410  44.730  88.021  1.00  0.00     0.005 C 
ATOM     25  C   UNL     1      24.373  43.839  86.832  1.00  0.00     0.020 C 
ATOM     26  C   UNL     1      24.995  46.300  86.675  1.00  0.00     0.017 C 
ATOM     27  O   UNL     1      28.639  44.785  88.871  1.00  0.00    -0.295 OA
ATOM     28  C   UNL     1      25.880  44.348  89.199  1.00  0.00     0.055 C 
ATOM     29  C   UNL     1      23.565  43.955  88.131  1.00  0.00     0.081 C 
ATOM     30  C   UNL     1      24.469  43.957  89.323  1.00  0.00     0.156 C 
ATOM     31  O   UNL     1      24.010  43.641  90.452  1.00  0.00    -0.295 OA
ENDBRANCH   9  11
ENDBRANCH   8   9
ENDBRANCH   1   8
TORSDOF 6
ENDMDL
MODEL 3
REMARK VINA RESULT:    -4.863      4.646      8.370
REMARK INTER + INTRA:          -8.552
REMARK INTER:                  -6.527
REMARK INTRA:                  -2.025
REMARK UNBOUND:                -1.983
REMARK SMILES CC[C@H](CC[C@@H](C)[C@@H]1CC[C@@H]2[C@H]3CC(=O)C4=CC(=O)CC[C@]4(C)[C@H]3CC[C@@]21C)C(C)C
REMARK SMILES IDX 4 1 3 2 2 3 1 4 29 5 30 6 31 7 5 8 6 9 7 10 8 11 9 12 27 13
REMARK SMILES IDX 10 14 11 15 26 16 28 17 12 18 25 19 24 20 13 21 22 22 14 23
REMARK SMILES IDX 16 24 21 25 23 26 15 27 17 28 20 29 18 30 19 31
REMARK H PARENT
REMARK Flexibility Score: inf
ROOT
ATOM      1  C   UNL     1      22.688  45.807  89.327  1.00  0.00     0.004 C 
ENDROOT
BRANCH   1   2
ATOM      2  C   UNL     1      22.480  44.839  90.535  1.00  0.00    -0.009 C 
BRANCH   2   3
ATOM      3  C   UNL     1      20.962  44.590  90.765  1.00  0.00     0.000 C 
ATOM      4  C   UNL     1      20.067  45.283  89.730  1.00  0.00     0.004 C 
ENDBRANCH   2   3
BRANCH   2   5
ATOM      5  C   UNL     1      23.282  43.499  90.409  1.00  0.00    -0.014 C 
ATOM      6  C   UNL     1      24.652  43.532  91.109  1.00  0.00     0.007 C 
ATOM      7  C   UNL     1      23.447  43.043  88.948  1.00  0.00     0.007 C 
ENDBRANCH   2   5
ENDBRANCH   1   2
BRANCH   1   8
ATOM      8  C   UNL     1      23.272  47.206  89.634  1.00  0.00     0.004 C 
BRANCH   8   9
ATOM      9  C   UNL     1      24.803  47.345  89.364  1.00  0.00    -0.011 C 
ATOM     10  C   UNL     1      25.551  47.805  90.625  1.00  0.00     0.008 C 
BRANCH   9  11
ATOM     11  C   UNL     1      25.518  46.136  88.655  1.00  0.00    -0.002 C 
ATOM     12  C   UNL     1      26.862  45.766  89.256  1.00  0.00     0.005 C 
ATOM     13  C   UNL     1      25.737  46.064  87.101  1.00  0.00    -0.026 C 
ATOM     14  C   UNL     1      27.365  44.653  88.357  1.00  0.00     0.005 C 
ATOM     15  C   UNL     1      26.880  44.996  86.929  1.00  0.00    -0.001 C 
ATOM     16  C   UNL     1      26.183  47.414  86.477  1.00  0.00     0.007 C 
ATOM     17  C   UNL     1      24.435  45.561  86.412  1.00  0.00     0.012 C 
ATOM     18  C   UNL     1      28.099  45.419  86.028  1.00  0.00     0.004 C 
ATOM     19  C   UNL     1      26.539  47.256  84.998  1.00  0.00     0.005 C 
ATOM     20  C   UNL     1      27.748  46.307  84.775  1.00  0.00     0.003 C 
ATOM     21  C   UNL     1      28.987  44.183  85.700  1.00  0.00     0.085 C 
ATOM     22  C   UNL     1      27.736  45.554  83.390  1.00  0.00    -0.000 C 
ATOM     23  C   UNL     1      29.758  44.322  84.426  1.00  0.00     0.159 C 
ATOM     24  C   UNL     1      29.084  44.849  83.220  1.00  0.00     0.005 C 
ATOM     25  C   UNL     1      27.553  46.594  82.237  1.00  0.00     0.020 C 
ATOM     26  C   UNL     1      26.605  44.498  83.320  1.00  0.00     0.017 C 
ATOM     27  O   UNL     1      30.958  43.939  84.384  1.00  0.00    -0.295 OA
ATOM     28  C   UNL     1      29.640  44.664  82.008  1.00  0.00     0.055 C 
ATOM     29  C   UNL     1      27.754  45.985  80.844  1.00  0.00     0.081 C 
ATOM     30  C   UNL     1      29.025  45.198  80.784  1.00  0.00     0.156 C 
ATOM     31  O   UNL     1      29.563  44.970  79.669  1.00  0.00    -0.295 OA
ENDBRANCH   9  11
ENDBRANCH   8   9
ENDBRANCH   1   8
TORSDOF 6
ENDMDL
MODEL 4
REMARK VINA RESULT:    -4.818      3.504      8.145
REMARK INTER + INTRA:          -8.491
REMARK INTER:                  -7.413
REMARK INTRA:                  -1.078
REMARK UNBOUND:                -1.983
REMARK SMILES CC[C@H](CC[C@@H](C)[C@@H]1CC[C@@H]2[C@H]3CC(=O)C4=CC(=O)CC[C@]4(C)[C@H]3CC[C@@]21C)C(C)C
REMARK SMILES IDX 4 1 3 2 2 3 1 4 29 5 30 6 31 7 5 8 6 9 7 10 8 11 9 12 27 13
REMARK SMILES IDX 10 14 11 15 26 16 28 17 12 18 25 19 24 20 13 21 22 22 14 23
REMARK SMILES IDX 16 24 21 25 23 26 15 27 17 28 20 29 18 30 19 31
REMARK H PARENT
REMARK Flexibility Score: inf
ROOT
ATOM      1  C   UNL     1      24.349  43.591  78.425  1.00  0.00     0.004 C 
ENDROOT
BRANCH   1   2
ATOM      2  C   UNL     1      24.086  42.065  78.622  1.00  0.00    -0.009 C 
BRANCH   2   3
ATOM      3  C   UNL     1      25.431  41.284  78.606  1.00  0.00     0.000 C 
ATOM      4  C   UNL     1      25.466  40.150  77.575  1.00  0.00     0.004 C 
ENDBRANCH   2   3
BRANCH   2   5
ATOM      5  C   UNL     1      23.230  41.735  79.893  1.00  0.00    -0.014 C 
ATOM      6  C   UNL     1      21.997  40.865  79.597  1.00  0.00     0.007 C 
ATOM      7  C   UNL     1      22.813  42.998  80.668  1.00  0.00     0.007 C 
ENDBRANCH   2   5
ENDBRANCH   1   2
BRANCH   1   8
ATOM      8  C   UNL     1      25.795  44.022  78.079  1.00  0.00     0.004 C 
BRANCH   8   9
ATOM      9  C   UNL     1      26.120  45.516  78.388  1.00  0.00    -0.011 C 
ATOM     10  C   UNL     1      24.837  46.322  78.650  1.00  0.00     0.008 C 
BRANCH   9  11
ATOM     11  C   UNL     1      27.231  45.800  79.463  1.00  0.00    -0.002 C 
ATOM     12  C   UNL     1      28.407  44.842  79.414  1.00  0.00     0.005 C 
ATOM     13  C   UNL     1      26.917  45.974  80.993  1.00  0.00    -0.026 C 
ATOM     14  C   UNL     1      29.274  45.273  80.581  1.00  0.00     0.005 C 
ATOM     15  C   UNL     1      28.305  45.734  81.695  1.00  0.00    -0.001 C 
ATOM     16  C   UNL     1      25.875  44.955  81.529  1.00  0.00     0.007 C 
ATOM     17  C   UNL     1      26.431  47.428  81.265  1.00  0.00     0.012 C 
ATOM     18  C   UNL     1      28.315  44.704  82.885  1.00  0.00     0.004 C 
ATOM     19  C   UNL     1      25.724  45.057  83.048  1.00  0.00     0.005 C 
ATOM     20  C   UNL     1      27.034  44.705  83.802  1.00  0.00     0.003 C 
ATOM     21  C   UNL     1      29.656  44.792  83.669  1.00  0.00     0.085 C 
ATOM     22  C   UNL     1      27.196  45.426  85.194  1.00  0.00    -0.000 C 
ATOM     23  C   UNL     1      29.546  44.353  85.094  1.00  0.00     0.159 C 
ATOM     24  C   UNL     1      28.401  44.812  85.911  1.00  0.00     0.005 C 
ATOM     25  C   UNL     1      25.912  45.187  86.054  1.00  0.00     0.020 C 
ATOM     26  C   UNL     1      27.434  46.948  85.028  1.00  0.00     0.017 C 
ATOM     27  O   UNL     1      30.457  43.641  85.595  1.00  0.00    -0.295 OA
ATOM     28  C   UNL     1      28.457  44.719  87.253  1.00  0.00     0.055 C 
ATOM     29  C   UNL     1      26.068  45.658  87.505  1.00  0.00     0.081 C 
ATOM     30  C   UNL     1      27.332  45.130  88.106  1.00  0.00     0.156 C 
ATOM     31  O   UNL     1      27.444  45.059  89.357  1.00  0.00    -0.295 OA
ENDBRANCH   9  11
ENDBRANCH   8   9
ENDBRANCH   1   8
TORSDOF 6
ENDMDL
MODEL 5
REMARK VINA RESULT:    -4.766      5.179      8.646
REMARK INTER + INTRA:          -8.421
REMARK INTER:                  -6.689
REMARK INTRA:                  -1.732
REMARK UNBOUND:                -1.983
REMARK SMILES CC[C@H](CC[C@@H](C)[C@@H]1CC[C@@H]2[C@H]3CC(=O)C4=CC(=O)CC[C@]4(C)[C@H]3CC[C@@]21C)C(C)C
REMARK SMILES IDX 4 1 3 2 2 3 1 4 29 5 30 6 31 7 5 8 6 9 7 10 8 11 9 12 27 13
REMARK SMILES IDX 10 14 11 15 26 16 28 17 12 18 25 19 24 20 13 21 22 22 14 23
REMARK SMILES IDX 16 24 21 25 23 26 15 27 17 28 20 29 18 30 19 31
REMARK H PARENT
REMARK Flexibility Score: inf
ROOT
ATOM      1  C   UNL     1      27.976  46.862  81.586  1.00  0.00     0.004 C 
ENDROOT
BRANCH   1   2
ATOM      2  C   UNL     1      28.123  45.987  80.301  1.00  0.00    -0.009 C 
BRANCH   2   3
ATOM      3  C   UNL     1      29.589  45.489  80.159  1.00  0.00     0.000 C 
ATOM      4  C   UNL     1      30.258  45.928  78.850  1.00  0.00     0.004 C 
ENDBRANCH   2   3
BRANCH   2   5
ATOM      5  C   UNL     1      27.092  44.809  80.224  1.00  0.00    -0.014 C 
ATOM      6  C   UNL     1      25.973  44.901  81.276  1.00  0.00     0.007 C 
ATOM      7  C   UNL     1      27.767  43.428  80.289  1.00  0.00     0.007 C 
ENDBRANCH   2   5
ENDBRANCH   1   2
BRANCH   1   8
ATOM      8  C   UNL     1      28.999  46.628  82.723  1.00  0.00     0.004 C 
BRANCH   8   9
ATOM      9  C   UNL     1      28.677  45.413  83.648  1.00  0.00    -0.011 C 
ATOM     10  C   UNL     1      29.805  44.371  83.610  1.00  0.00     0.008 C 
BRANCH   9  11
ATOM     11  C   UNL     1      28.211  45.734  85.115  1.00  0.00    -0.002 C 
ATOM     12  C   UNL     1      28.997  45.011  86.193  1.00  0.00     0.005 C 
ATOM     13  C   UNL     1      26.712  45.638  85.576  1.00  0.00    -0.026 C 
ATOM     14  C   UNL     1      28.308  45.421  87.479  1.00  0.00     0.005 C 
ATOM     15  C   UNL     1      26.803  45.548  87.145  1.00  0.00    -0.001 C 
ATOM     16  C   UNL     1      25.974  44.390  85.022  1.00  0.00     0.007 C 
ATOM     17  C   UNL     1      25.953  46.934  85.165  1.00  0.00     0.012 C 
ATOM     18  C   UNL     1      25.995  44.381  87.824  1.00  0.00     0.004 C 
ATOM     19  C   UNL     1      24.575  44.254  85.625  1.00  0.00     0.005 C 
ATOM     20  C   UNL     1      24.608  44.034  87.162  1.00  0.00     0.003 C 
ATOM     21  C   UNL     1      25.926  44.591  89.365  1.00  0.00     0.085 C 
ATOM     22  C   UNL     1      23.338  44.573  87.923  1.00  0.00    -0.000 C 
ATOM     23  C   UNL     1      24.738  43.948  90.004  1.00  0.00     0.159 C 
ATOM     24  C   UNL     1      23.407  44.084  89.371  1.00  0.00     0.005 C 
ATOM     25  C   UNL     1      22.048  43.998  87.250  1.00  0.00     0.020 C 
ATOM     26  C   UNL     1      23.279  46.121  87.919  1.00  0.00     0.017 C 
ATOM     27  O   UNL     1      24.876  43.343  91.101  1.00  0.00    -0.295 OA
ATOM     28  C   UNL     1      22.297  43.818  90.086  1.00  0.00     0.055 C 
ATOM     29  C   UNL     1      20.775  44.285  88.056  1.00  0.00     0.081 C 
ATOM     30  C   UNL     1      20.955  43.906  89.492  1.00  0.00     0.156 C 
ATOM     31  O   UNL     1      19.944  43.683  90.207  1.00  0.00    -0.295 OA
ENDBRANCH   9  11
ENDBRANCH   8   9
ENDBRANCH   1   8
TORSDOF 6
ENDMDL
MODEL 6
REMARK VINA RESULT:    -4.718      1.631      3.026
REMARK INTER + INTRA:          -8.355
REMARK INTER:                  -7.037
REMARK INTRA:                  -1.319
REMARK UNBOUND:                -1.983
REMARK SMILES CC[C@H](CC[C@@H](C)[C@@H]1CC[C@@H]2[C@H]3CC(=O)C4=CC(=O)CC[C@]4(C)[C@H]3CC[C@@]21C)C(C)C
REMARK SMILES IDX 4 1 3 2 2 3 1 4 29 5 30 6 31 7 5 8 6 9 7 10 8 11 9 12 27 13
REMARK SMILES IDX 10 14 11 15 26 16 28 17 12 18 25 19 24 20 13 21 22 22 14 23
REMARK SMILES IDX 16 24 21 25 23 26 15 27 17 28 20 29 18 30 19 31
REMARK H PARENT
REMARK Flexibility Score: inf
ROOT
ATOM      1  C   UNL     1      28.988  45.782  82.999  1.00  0.00     0.004 C 
ENDROOT
BRANCH   1   2
ATOM      2  C   UNL     1      28.052  45.245  84.127  1.00  0.00    -0.009 C 
BRANCH   2   3
ATOM      3  C   UNL     1      26.844  44.489  83.505  1.00  0.00     0.000 C 
ATOM      4  C   UNL     1      25.516  44.770  84.220  1.00  0.00     0.004 C 
ENDBRANCH   2   3
BRANCH   2   5
ATOM      5  C   UNL     1      28.798  44.378  85.200  1.00  0.00    -0.014 C 
ATOM      6  C   UNL     1      28.761  44.982  86.614  1.00  0.00     0.007 C 
ATOM      7  C   UNL     1      30.250  44.061  84.798  1.00  0.00     0.007 C 
ENDBRANCH   2   5
ENDBRANCH   1   2
BRANCH   1   8
ATOM      8  C   UNL     1      28.805  47.257  82.569  1.00  0.00     0.004 C 
BRANCH   8   9
ATOM      9  C   UNL     1      28.595  47.467  81.037  1.00  0.00    -0.011 C 
ATOM     10  C   UNL     1      29.729  46.819  80.226  1.00  0.00     0.008 C 
BRANCH   9  11
ATOM     11  C   UNL     1      27.175  47.124  80.456  1.00  0.00    -0.002 C 
ATOM     12  C   UNL     1      26.047  47.217  81.466  1.00  0.00     0.005 C 
ATOM     13  C   UNL     1      26.879  45.813  79.641  1.00  0.00    -0.026 C 
ATOM     14  C   UNL     1      24.826  46.766  80.688  1.00  0.00     0.005 C 
ATOM     15  C   UNL     1      25.313  45.666  79.715  1.00  0.00    -0.001 C 
ATOM     16  C   UNL     1      27.553  44.549  80.239  1.00  0.00     0.007 C 
ATOM     17  C   UNL     1      27.322  46.006  78.161  1.00  0.00     0.012 C 
ATOM     18  C   UNL     1      24.767  44.261  80.165  1.00  0.00     0.004 C 
ATOM     19  C   UNL     1      27.107  43.280  79.511  1.00  0.00     0.005 C 
ATOM     20  C   UNL     1      25.584  43.014  79.657  1.00  0.00     0.003 C 
ATOM     21  C   UNL     1      23.236  44.164  79.903  1.00  0.00     0.085 C 
ATOM     22  C   UNL     1      24.943  42.227  78.451  1.00  0.00    -0.000 C 
ATOM     23  C   UNL     1      22.750  42.764  79.708  1.00  0.00     0.159 C 
ATOM     24  C   UNL     1      23.514  41.841  78.840  1.00  0.00     0.005 C 
ATOM     25  C   UNL     1      25.769  40.925  78.185  1.00  0.00     0.020 C 
ATOM     26  C   UNL     1      24.898  43.086  77.163  1.00  0.00     0.017 C 
ATOM     27  O   UNL     1      21.666  42.404  80.243  1.00  0.00    -0.295 OA
ATOM     28  C   UNL     1      22.932  40.717  78.382  1.00  0.00     0.055 C 
ATOM     29  C   UNL     1      25.094  39.983  77.181  1.00  0.00     0.081 C 
ATOM     30  C   UNL     1      23.661  39.753  77.545  1.00  0.00     0.156 C 
ATOM     31  O   UNL     1      23.065  38.734  77.111  1.00  0.00    -0.295 OA
ENDBRANCH   9  11
ENDBRANCH   8   9
ENDBRANCH   1   8
TORSDOF 6
ENDMDL
MODEL 7
REMARK VINA RESULT:    -4.701      1.544      3.686
REMARK INTER + INTRA:          -8.333
REMARK INTER:                  -6.511
REMARK INTRA:                  -1.822
REMARK UNBOUND:                -1.983
REMARK SMILES CC[C@H](CC[C@@H](C)[C@@H]1CC[C@@H]2[C@H]3CC(=O)C4=CC(=O)CC[C@]4(C)[C@H]3CC[C@@]21C)C(C)C
REMARK SMILES IDX 4 1 3 2 2 3 1 4 29 5 30 6 31 7 5 8 6 9 7 10 8 11 9 12 27 13
REMARK SMILES IDX 10 14 11 15 26 16 28 17 12 18 25 19 24 20 13 21 22 22 14 23
REMARK SMILES IDX 16 24 21 25 23 26 15 27 17 28 20 29 18 30 19 31
REMARK H PARENT
REMARK Flexibility Score: inf
ROOT
ATOM      1  C   UNL     1      28.759  46.858  81.778  1.00  0.00     0.004 C 
ENDROOT
BRANCH   1   2
ATOM      2  C   UNL     1      28.590  45.448  82.426  1.00  0.00    -0.009 C 
BRANCH   2   3
ATOM      3  C   UNL     1      29.411  44.393  81.632  1.00  0.00     0.000 C 
ATOM      4  C   UNL     1      29.497  44.692  80.130  1.00  0.00     0.004 C 
ENDBRANCH   2   3
BRANCH   2   5
ATOM      5  C   UNL     1      28.922  45.420  83.958  1.00  0.00    -0.014 C 
ATOM      6  C   UNL     1      29.344  46.787  84.522  1.00  0.00     0.007 C 
ATOM      7  C   UNL     1      29.972  44.353  84.315  1.00  0.00     0.007 C 
ENDBRANCH   2   5
ENDBRANCH   1   2
BRANCH   1   8
ATOM      8  C   UNL     1      27.535  47.449  81.038  1.00  0.00     0.004 C 
BRANCH   8   9
ATOM      9  C   UNL     1      26.154  46.947  81.562  1.00  0.00    -0.011 C 
ATOM     10  C   UNL     1      25.545  47.940  82.565  1.00  0.00     0.008 C 
BRANCH   9  11
ATOM     11  C   UNL     1      25.110  46.472  80.486  1.00  0.00    -0.002 C 
ATOM     12  C   UNL     1      23.690  46.344  81.008  1.00  0.00     0.005 C 
ATOM     13  C   UNL     1      25.325  45.201  79.588  1.00  0.00    -0.026 C 
ATOM     14  C   UNL     1      22.917  45.802  79.822  1.00  0.00     0.005 C 
ATOM     15  C   UNL     1      23.879  44.851  79.072  1.00  0.00    -0.001 C 
ATOM     16  C   UNL     1      25.913  43.990  80.362  1.00  0.00     0.007 C 
ATOM     17  C   UNL     1      26.243  45.562  78.383  1.00  0.00     0.012 C 
ATOM     18  C   UNL     1      23.418  43.358  79.252  1.00  0.00     0.004 C 
ATOM     19  C   UNL     1      25.953  42.735  79.489  1.00  0.00     0.005 C 
ATOM     20  C   UNL     1      24.538  42.268  79.053  1.00  0.00     0.003 C 
ATOM     21  C   UNL     1      22.119  43.088  78.438  1.00  0.00     0.085 C 
ATOM     22  C   UNL     1      24.502  41.501  77.677  1.00  0.00    -0.000 C 
ATOM     23  C   UNL     1      21.948  41.657  78.042  1.00  0.00     0.159 C 
ATOM     24  C   UNL     1      23.102  40.908  77.498  1.00  0.00     0.005 C 
ATOM     25  C   UNL     1      25.549  40.339  77.703  1.00  0.00     0.020 C 
ATOM     26  C   UNL     1      24.804  42.444  76.485  1.00  0.00     0.017 C 
ATOM     27  O   UNL     1      20.810  41.122  78.127  1.00  0.00    -0.295 OA
ATOM     28  C   UNL     1      22.898  39.758  76.828  1.00  0.00     0.055 C 
ATOM     29  C   UNL     1      25.431  39.399  76.497  1.00  0.00     0.081 C 
ATOM     30  C   UNL     1      24.014  38.962  76.298  1.00  0.00     0.156 C 
ATOM     31  O   UNL     1      23.773  37.912  75.649  1.00  0.00    -0.295 OA
ENDBRANCH   9  11
ENDBRANCH   8   9
ENDBRANCH   1   8
TORSDOF 6
ENDMDL
MODEL 8
REMARK VINA RESULT:    -4.689      9.986     12.393
REMARK INTER + INTRA:          -8.317
REMARK INTER:                  -6.273
REMARK INTRA:                  -2.044
REMARK UNBOUND:                -1.983
REMARK SMILES CC[C@H](CC[C@@H](C)[C@@H]1CC[C@@H]2[C@H]3CC(=O)C4=CC(=O)CC[C@]4(C)[C@H]3CC[C@@]21C)C(C)C
REMARK SMILES IDX 4 1 3 2 2 3 1 4 29 5 30 6 31 7 5 8 6 9 7 10 8 11 9 12 27 13
REMARK SMILES IDX 10 14 11 15 26 16 28 17 12 18 25 19 24 20 13 21 22 22 14 23
REMARK SMILES IDX 16 24 21 25 23 26 15 27 17 28 20 29 18 30 19 31
REMARK H PARENT
REMARK Flexibility Score: inf
ROOT
ATOM      1  C   UNL     1      21.229  36.722  88.071  1.00  0.00     0.004 C 
ENDROOT
BRANCH   1   2
ATOM      2  C   UNL     1      22.150  36.768  86.811  1.00  0.00    -0.009 C 
BRANCH   2   3
ATOM      3  C   UNL     1      22.493  38.242  86.453  1.00  0.00     0.000 C 
ATOM      4  C   UNL     1      22.399  38.543  84.952  1.00  0.00     0.004 C 
ENDBRANCH   2   3
BRANCH   2   5
ATOM      5  C   UNL     1      23.435  35.880  86.941  1.00  0.00    -0.014 C 
ATOM      6  C   UNL     1      23.637  34.911  85.763  1.00  0.00     0.007 C 
ATOM      7  C   UNL     1      23.489  35.111  88.274  1.00  0.00     0.007 C 
ENDBRANCH   2   5
ENDBRANCH   1   2
BRANCH   1   8
ATOM      8  C   UNL     1      19.879  35.978  87.935  1.00  0.00     0.004 C 
BRANCH   8   9
ATOM      9  C   UNL     1      19.925  34.707  87.031  1.00  0.00    -0.011 C 
ATOM     10  C   UNL     1      19.863  33.423  87.873  1.00  0.00     0.008 C 
BRANCH   9  11
ATOM     11  C   UNL     1      18.940  34.664  85.806  1.00  0.00    -0.002 C 
ATOM     12  C   UNL     1      18.055  33.431  85.759  1.00  0.00     0.005 C 
ATOM     13  C   UNL     1      19.410  34.880  84.323  1.00  0.00    -0.026 C 
ATOM     14  C   UNL     1      17.279  33.593  84.467  1.00  0.00     0.005 C 
ATOM     15  C   UNL     1      18.243  34.267  83.462  1.00  0.00    -0.001 C 
ATOM     16  C   UNL     1      20.743  34.159  83.986  1.00  0.00     0.007 C 
ATOM     17  C   UNL     1      19.537  36.404  84.031  1.00  0.00     0.012 C 
ATOM     18  C   UNL     1      18.665  33.244  82.343  1.00  0.00     0.004 C 
ATOM     19  C   UNL     1      21.074  34.264  82.496  1.00  0.00     0.005 C 
ATOM     20  C   UNL     1      20.018  33.562  81.601  1.00  0.00     0.003 C 
ATOM     21  C   UNL     1      17.470  32.958  81.388  1.00  0.00     0.085 C 
ATOM     22  C   UNL     1      19.872  34.184  80.160  1.00  0.00    -0.000 C 
ATOM     23  C   UNL     1      17.889  32.533  80.018  1.00  0.00     0.159 C 
ATOM     24  C   UNL     1      18.979  33.258  79.330  1.00  0.00     0.005 C 
ATOM     25  C   UNL     1      21.282  34.272  79.488  1.00  0.00     0.020 C 
ATOM     26  C   UNL     1      19.229  35.593  80.204  1.00  0.00     0.017 C 
ATOM     27  O   UNL     1      17.271  31.595  79.445  1.00  0.00    -0.295 OA
ATOM     28  C   UNL     1      19.137  33.124  78.000  1.00  0.00     0.055 C 
ATOM     29  C   UNL     1      21.215  34.653  78.004  1.00  0.00     0.081 C 
ATOM     30  C   UNL     1      20.227  33.797  77.277  1.00  0.00     0.156 C 
ATOM     31  O   UNL     1      20.313  33.670  76.029  1.00  0.00    -0.295 OA
ENDBRANCH   9  11
ENDBRANCH   8   9
ENDBRANCH   1   8
TORSDOF 6
ENDMDL
MODEL 9
REMARK VINA RESULT:    -4.655      2.264      4.798
REMARK INTER + INTRA:          -8.270
REMARK INTER:                  -6.842
REMARK INTRA:                  -1.428
REMARK UNBOUND:                -1.983
REMARK SMILES CC[C@H](CC[C@@H](C)[C@@H]1CC[C@@H]2[C@H]3CC(=O)C4=CC(=O)CC[C@]4(C)[C@H]3CC[C@@]21C)C(C)C
REMARK SMILES IDX 4 1 3 2 2 3 1 4 29 5 30 6 31 7 5 8 6 9 7 10 8 11 9 12 27 13
REMARK SMILES IDX 10 14 11 15 26 16 28 17 12 18 25 19 24 20 13 21 22 22 14 23
REMARK SMILES IDX 16 24 21 25 23 26 15 27 17 28 20 29 18 30 19 31
REMARK H PARENT
REMARK Flexibility Score: inf
ROOT
ATOM      1  C   UNL     1      28.241  43.875  80.356  1.00  0.00     0.004 C 
ENDROOT
BRANCH   1   2
ATOM      2  C   UNL     1      29.285  44.669  81.203  1.00  0.00    -0.009 C 
BRANCH   2   3
ATOM      3  C   UNL     1      29.761  45.927  80.423  1.00  0.00     0.000 C 
ATOM      4  C   UNL     1      29.794  45.725  78.903  1.00  0.00     0.004 C 
ENDBRANCH   2   3
BRANCH   2   5
ATOM      5  C   UNL     1      28.781  45.027  82.643  1.00  0.00    -0.014 C 
ATOM      6  C   UNL     1      28.570  46.535  82.866  1.00  0.00     0.007 C 
ATOM      7  C   UNL     1      29.686  44.451  83.747  1.00  0.00     0.007 C 
ENDBRANCH   2   5
ENDBRANCH   1   2
BRANCH   1   8
ATOM      8  C   UNL     1      26.761  43.955  80.800  1.00  0.00     0.004 C 
BRANCH   8   9
ATOM      9  C   UNL     1      25.785  44.506  79.715  1.00  0.00    -0.011 C 
ATOM     10  C   UNL     1      26.043  45.996  79.439  1.00  0.00     0.008 C 
BRANCH   9  11
ATOM     11  C   UNL     1      25.643  43.671  78.389  1.00  0.00    -0.002 C 
ATOM     12  C   UNL     1      25.024  44.435  77.233  1.00  0.00     0.005 C 
ATOM     13  C   UNL     1      24.971  42.252  78.341  1.00  0.00    -0.026 C 
ATOM     14  C   UNL     1      24.927  43.401  76.128  1.00  0.00     0.005 C 
ATOM     15  C   UNL     1      24.614  42.054  76.820  1.00  0.00    -0.001 C 
ATOM     16  C   UNL     1      23.683  42.149  79.200  1.00  0.00     0.007 C 
ATOM     17  C   UNL     1      25.999  41.171  78.787  1.00  0.00     0.012 C 
ATOM     18  C   UNL     1      23.137  41.610  76.504  1.00  0.00     0.004 C 
ATOM     19  C   UNL     1      22.979  40.806  78.993  1.00  0.00     0.005 C 
ATOM     20  C   UNL     1      22.489  40.610  77.534  1.00  0.00     0.003 C 
ATOM     21  C   UNL     1      23.010  41.162  75.019  1.00  0.00     0.085 C 
ATOM     22  C   UNL     1      22.421  39.105  77.068  1.00  0.00    -0.000 C 
ATOM     23  C   UNL     1      21.901  40.190  74.781  1.00  0.00     0.159 C 
ATOM     24  C   UNL     1      21.711  39.057  75.714  1.00  0.00     0.005 C 
ATOM     25  C   UNL     1      21.596  38.278  78.108  1.00  0.00     0.020 C 
ATOM     26  C   UNL     1      23.833  38.486  76.917  1.00  0.00     0.017 C 
ATOM     27  O   UNL     1      21.174  40.317  73.759  1.00  0.00    -0.295 OA
ATOM     28  C   UNL     1      20.961  38.002  75.341  1.00  0.00     0.055 C 
ATOM     29  C   UNL     1      21.285  36.855  77.629  1.00  0.00     0.081 C 
ATOM     30  C   UNL     1      20.716  36.869  76.246  1.00  0.00     0.156 C 
ATOM     31  O   UNL     1      20.038  35.889  75.842  1.00  0.00    -0.295 OA
ENDBRANCH   9  11
ENDBRANCH   8   9
ENDBRANCH   1   8
TORSDOF 6
ENDMDL
