MODEL 1
REMARK VINA RESULT:    -4.273      0.000      0.000
REMARK INTER + INTRA:          -4.621
REMARK INTER:                  -4.522
REMARK INTRA:                  -0.099
REMARK UNBOUND:                -0.099
REMARK SMILES C=C(C)[C@@H]1CC=C(C)C(=O)C1
REMARK SMILES IDX 8 1 7 2 6 3 5 4 4 5 11 6 9 7 10 8 2 9 1 10 3 11
REMARK H PARENT
REMARK Flexibility Score: inf
ROOT
ATOM      1  C   UNL     1      19.185  34.928  29.786  1.00  0.00     0.048 C 
ATOM      2  C   UNL     1      18.367  33.687  29.555  1.00  0.00    -0.012 C 
ATOM      3  C   UNL     1      17.033  33.781  29.421  1.00  0.00    -0.019 C 
ATOM      4  C   UNL     1      16.169  32.573  29.171  1.00  0.00     0.036 C 
ATOM      5  C   UNL     1      16.750  31.323  29.858  1.00  0.00     0.025 C 
ATOM      6  C   UNL     1      18.206  31.100  29.410  1.00  0.00     0.089 C 
ATOM      7  C   UNL     1      19.016  32.354  29.599  1.00  0.00     0.158 C 
ATOM      8  O   UNL     1      20.263  32.260  29.761  1.00  0.00    -0.295 OA
ENDROOT
BRANCH   5   9
ATOM      9  C   UNL     1      15.896  30.096  29.586  1.00  0.00    -0.077 C 
ATOM     10  C   UNL     1      14.557  30.199  29.572  1.00  0.00     0.008 C 
ATOM     11  C   UNL     1      16.543  28.757  29.332  1.00  0.00     0.039 C 
ENDBRANCH   5   9
TORSDOF 1
ENDMDL
MODEL 2
REMARK VINA RESULT:    -4.258      5.931      7.964
REMARK INTER + INTRA:          -4.606
REMARK INTER:                  -4.513
REMARK INTRA:                  -0.093
REMARK UNBOUND:                -0.099
REMARK SMILES C=C(C)[C@@H]1CC=C(C)C(=O)C1
REMARK SMILES IDX 8 1 7 2 6 3 5 4 4 5 11 6 9 7 10 8 2 9 1 10 3 11
REMARK H PARENT
REMARK Flexibility Score: inf
ROOT
ATOM      1  C   UNL     1      20.367  27.642  30.159  1.00  0.00     0.048 C 
ATOM      2  C   UNL     1      20.253  26.489  29.199  1.00  0.00    -0.012 C 
ATOM      3  C   UNL     1      21.349  25.786  28.866  1.00  0.00    -0.019 C 
ATOM      4  C   UNL     1      21.288  24.613  27.923  1.00  0.00     0.036 C 
ATOM      5  C   UNL     1      20.192  24.812  26.858  1.00  0.00     0.025 C 
ATOM      6  C   UNL     1      18.837  25.086  27.536  1.00  0.00     0.089 C 
ATOM      7  C   UNL     1      18.959  26.210  28.529  1.00  0.00     0.158 C 
ATOM      8  O   UNL     1      17.938  26.891  28.813  1.00  0.00    -0.295 OA
ENDROOT
BRANCH   5   9
ATOM      9  C   UNL     1      20.109  23.619  25.922  1.00  0.00    -0.077 C 
ATOM     10  C   UNL     1      21.033  23.452  24.962  1.00  0.00     0.008 C 
ATOM     11  C   UNL     1      18.991  22.615  26.063  1.00  0.00     0.039 C 
ENDBRANCH   5   9
TORSDOF 1
ENDMDL
MODEL 3
REMARK VINA RESULT:    -4.223      5.920      7.775
REMARK INTER + INTRA:          -4.569
REMARK INTER:                  -4.468
REMARK INTRA:                  -0.101
REMARK UNBOUND:                -0.099
REMARK SMILES C=C(C)[C@@H]1CC=C(C)C(=O)C1
REMARK SMILES IDX 8 1 7 2 6 3 5 4 4 5 11 6 9 7 10 8 2 9 1 10 3 11
REMARK H PARENT
REMARK Flexibility Score: inf
ROOT
ATOM      1  C   UNL     1      20.400  27.645  30.177  1.00  0.00     0.048 C 
ATOM      2  C   UNL     1      20.271  26.692  29.020  1.00  0.00    -0.012 C 
ATOM      3  C   UNL     1      19.064  26.206  28.686  1.00  0.00    -0.019 C 
ATOM      4  C   UNL     1      18.876  25.262  27.526  1.00  0.00     0.036 C 
ATOM      5  C   UNL     1      20.108  24.355  27.344  1.00  0.00     0.025 C 
ATOM      6  C   UNL     1      21.380  25.211  27.199  1.00  0.00     0.089 C 
ATOM      7  C   UNL     1      21.488  26.195  28.331  1.00  0.00     0.158 C 
ATOM      8  O   UNL     1      22.626  26.622  28.668  1.00  0.00    -0.295 OA
ENDROOT
BRANCH   5   9
ATOM      9  C   UNL     1      19.934  23.421  26.158  1.00  0.00    -0.077 C 
ATOM     10  C   UNL     1      20.802  23.465  25.135  1.00  0.00     0.008 C 
ATOM     11  C   UNL     1      18.789  22.439  26.123  1.00  0.00     0.039 C 
ENDBRANCH   5   9
TORSDOF 1
ENDMDL
MODEL 4
REMARK VINA RESULT:    -4.168      0.999      1.511
REMARK INTER + INTRA:          -4.510
REMARK INTER:                  -4.411
REMARK INTRA:                  -0.099
REMARK UNBOUND:                -0.099
REMARK SMILES C=C(C)[C@@H]1CC=C(C)C(=O)C1
REMARK SMILES IDX 8 1 7 2 6 3 5 4 4 5 11 6 9 7 10 8 2 9 1 10 3 11
REMARK H PARENT
REMARK Flexibility Score: inf
ROOT
ATOM      1  C   UNL     1      19.840  34.287  29.473  1.00  0.00     0.048 C 
ATOM      2  C   UNL     1      18.599  33.437  29.512  1.00  0.00    -0.012 C 
ATOM      3  C   UNL     1      17.391  34.012  29.383  1.00  0.00    -0.019 C 
ATOM      4  C   UNL     1      16.119  33.206  29.398  1.00  0.00     0.036 C 
ATOM      5  C   UNL     1      16.251  31.975  30.315  1.00  0.00     0.025 C 
ATOM      6  C   UNL     1      17.470  31.132  29.898  1.00  0.00     0.089 C 
ATOM      7  C   UNL     1      18.704  31.989  29.815  1.00  0.00     0.158 C 
ATOM      8  O   UNL     1      19.834  31.454  29.973  1.00  0.00    -0.295 OA
ENDROOT
BRANCH   5   9
ATOM      9  C   UNL     1      14.979  31.145  30.311  1.00  0.00    -0.077 C 
ATOM     10  C   UNL     1      14.818  30.165  29.407  1.00  0.00     0.008 C 
ATOM     11  C   UNL     1      13.890  31.414  31.321  1.00  0.00     0.039 C 
ENDBRANCH   5   9
TORSDOF 1
ENDMDL
MODEL 5
REMARK VINA RESULT:    -4.115      4.154      6.535
REMARK INTER + INTRA:          -4.454
REMARK INTER:                  -4.356
REMARK INTRA:                  -0.098
REMARK UNBOUND:                -0.099
REMARK SMILES C=C(C)[C@@H]1CC=C(C)C(=O)C1
REMARK SMILES IDX 8 1 7 2 6 3 5 4 4 5 11 6 9 7 10 8 2 9 1 10 3 11
REMARK H PARENT
REMARK Flexibility Score: inf
ROOT
ATOM      1  C   UNL     1      20.244  23.925  27.137  1.00  0.00     0.048 C 
ATOM      2  C   UNL     1      19.736  25.210  27.730  1.00  0.00    -0.012 C 
ATOM      3  C   UNL     1      18.436  25.531  27.617  1.00  0.00    -0.019 C 
ATOM      4  C   UNL     1      17.873  26.797  28.207  1.00  0.00     0.036 C 
ATOM      5  C   UNL     1      18.913  27.933  28.183  1.00  0.00     0.025 C 
ATOM      6  C   UNL     1      20.205  27.484  28.891  1.00  0.00     0.089 C 
ATOM      7  C   UNL     1      20.690  26.176  28.329  1.00  0.00     0.158 C 
ATOM      8  O   UNL     1      21.916  25.893  28.404  1.00  0.00    -0.295 OA
ENDROOT
BRANCH   5   9
ATOM      9  C   UNL     1      18.358  29.204  28.802  1.00  0.00    -0.077 C 
ATOM     10  C   UNL     1      19.081  30.335  28.780  1.00  0.00     0.008 C 
ATOM     11  C   UNL     1      16.993  29.205  29.445  1.00  0.00     0.039 C 
ENDBRANCH   5   9
TORSDOF 1
ENDMDL
MODEL 6
REMARK VINA RESULT:    -4.096      5.568      6.619
REMARK INTER + INTRA:          -4.434
REMARK INTER:                  -4.336
REMARK INTRA:                  -0.098
REMARK UNBOUND:                -0.099
REMARK SMILES C=C(C)[C@@H]1CC=C(C)C(=O)C1
REMARK SMILES IDX 8 1 7 2 6 3 5 4 4 5 11 6 9 7 10 8 2 9 1 10 3 11
REMARK H PARENT
REMARK Flexibility Score: inf
ROOT
ATOM      1  C   UNL     1      21.190  27.366  28.960  1.00  0.00     0.048 C 
ATOM      2  C   UNL     1      19.924  26.761  28.419  1.00  0.00    -0.012 C 
ATOM      3  C   UNL     1      18.787  27.476  28.420  1.00  0.00    -0.019 C 
ATOM      4  C   UNL     1      17.496  26.924  27.875  1.00  0.00     0.036 C 
ATOM      5  C   UNL     1      17.405  25.402  28.096  1.00  0.00     0.025 C 
ATOM      6  C   UNL     1      18.638  24.704  27.494  1.00  0.00     0.089 C 
ATOM      7  C   UNL     1      19.905  25.337  28.000  1.00  0.00     0.158 C 
ATOM      8  O   UNL     1      20.963  24.653  28.032  1.00  0.00    -0.295 OA
ENDROOT
BRANCH   5   9
ATOM      9  C   UNL     1      16.116  24.837  27.523  1.00  0.00    -0.077 C 
ATOM     10  C   UNL     1      14.955  25.484  27.715  1.00  0.00     0.008 C 
ATOM     11  C   UNL     1      16.131  23.549  26.737  1.00  0.00     0.039 C 
ENDBRANCH   5   9
TORSDOF 1
ENDMDL
MODEL 7
REMARK VINA RESULT:    -4.031      5.390      6.322
REMARK INTER + INTRA:          -4.365
REMARK INTER:                  -4.267
REMARK INTRA:                  -0.098
REMARK UNBOUND:                -0.099
REMARK SMILES C=C(C)[C@@H]1CC=C(C)C(=O)C1
REMARK SMILES IDX 8 1 7 2 6 3 5 4 4 5 11 6 9 7 10 8 2 9 1 10 3 11
REMARK H PARENT
REMARK Flexibility Score: inf
ROOT
ATOM      1  C   UNL     1      23.152  29.441  29.760  1.00  0.00     0.048 C 
ATOM      2  C   UNL     1      22.199  28.452  29.147  1.00  0.00    -0.012 C 
ATOM      3  C   UNL     1      20.880  28.705  29.149  1.00  0.00    -0.019 C 
ATOM      4  C   UNL     1      19.884  27.757  28.534  1.00  0.00     0.036 C 
ATOM      5  C   UNL     1      20.351  26.295  28.672  1.00  0.00     0.025 C 
ATOM      6  C   UNL     1      21.760  26.129  28.074  1.00  0.00     0.089 C 
ATOM      7  C   UNL     1      22.704  27.147  28.653  1.00  0.00     0.158 C 
ATOM      8  O   UNL     1      23.938  26.892  28.683  1.00  0.00    -0.295 OA
ENDROOT
BRANCH   5   9
ATOM      9  C   UNL     1      19.362  25.337  28.029  1.00  0.00    -0.077 C 
ATOM     10  C   UNL     1      18.046  25.480  28.252  1.00  0.00     0.008 C 
ATOM     11  C   UNL     1      19.851  24.222  27.138  1.00  0.00     0.039 C 
ENDBRANCH   5   9
TORSDOF 1
ENDMDL
MODEL 8
REMARK VINA RESULT:    -4.026      5.877      7.798
REMARK INTER + INTRA:          -4.360
REMARK INTER:                  -4.260
REMARK INTRA:                  -0.100
REMARK UNBOUND:                -0.099
REMARK SMILES C=C(C)[C@@H]1CC=C(C)C(=O)C1
REMARK SMILES IDX 8 1 7 2 6 3 5 4 4 5 11 6 9 7 10 8 2 9 1 10 3 11
REMARK H PARENT
REMARK Flexibility Score: inf
ROOT
ATOM      1  C   UNL     1      18.364  25.536  27.924  1.00  0.00     0.048 C 
ATOM      2  C   UNL     1      19.665  26.126  28.396  1.00  0.00    -0.012 C 
ATOM      3  C   UNL     1      19.692  27.373  28.895  1.00  0.00    -0.019 C 
ATOM      4  C   UNL     1      20.965  28.004  29.396  1.00  0.00     0.036 C 
ATOM      5  C   UNL     1      22.184  27.507  28.596  1.00  0.00     0.025 C 
ATOM      6  C   UNL     1      22.246  25.969  28.624  1.00  0.00     0.089 C 
ATOM      7  C   UNL     1      20.931  25.378  28.195  1.00  0.00     0.158 C 
ATOM      8  O   UNL     1      20.912  24.222  27.693  1.00  0.00    -0.295 OA
ENDROOT
BRANCH   5   9
ATOM      9  C   UNL     1      23.473  28.121  29.116  1.00  0.00    -0.077 C 
ATOM     10  C   UNL     1      23.436  29.262  29.823  1.00  0.00     0.008 C 
ATOM     11  C   UNL     1      24.799  27.455  28.842  1.00  0.00     0.039 C 
ENDBRANCH   5   9
TORSDOF 1
ENDMDL
MODEL 9
REMARK VINA RESULT:    -3.995      3.618      5.089
REMARK INTER + INTRA:          -4.327
REMARK INTER:                  -4.226
REMARK INTRA:                  -0.100
REMARK UNBOUND:                -0.099
REMARK SMILES C=C(C)[C@@H]1CC=C(C)C(=O)C1
REMARK SMILES IDX 8 1 7 2 6 3 5 4 4 5 11 6 9 7 10 8 2 9 1 10 3 11
REMARK H PARENT
REMARK Flexibility Score: inf
ROOT
ATOM      1  C   UNL     1      20.255  30.792  29.542  1.00  0.00     0.048 C 
ATOM      2  C   UNL     1      19.898  29.455  28.951  1.00  0.00    -0.012 C 
ATOM      3  C   UNL     1      18.742  29.307  28.283  1.00  0.00    -0.019 C 
ATOM      4  C   UNL     1      18.344  27.996  27.657  1.00  0.00     0.036 C 
ATOM      5  C   UNL     1      18.875  26.805  28.478  1.00  0.00     0.025 C 
ATOM      6  C   UNL     1      20.399  26.925  28.661  1.00  0.00     0.089 C 
ATOM      7  C   UNL     1      20.761  28.277  29.211  1.00  0.00     0.158 C 
ATOM      8  O   UNL     1      21.829  28.406  29.869  1.00  0.00    -0.295 OA
ENDROOT
BRANCH   5   9
ATOM      9  C   UNL     1      18.499  25.481  27.835  1.00  0.00    -0.077 C 
ATOM     10  C   UNL     1      19.452  24.690  27.317  1.00  0.00     0.008 C 
ATOM     11  C   UNL     1      17.055  25.045  27.775  1.00  0.00     0.039 C 
ENDBRANCH   5   9
TORSDOF 1
ENDMDL
