MODEL 1
REMARK VINA RESULT:    -5.048      0.000      0.000
REMARK INTER + INTRA:         -14.277
REMARK INTER:                 -10.951
REMARK INTRA:                  -3.326
REMARK UNBOUND:                -3.326
REMARK SMILES CCCCCCCCCCCCCCCCCCCCCC(=O)[O-]
REMARK SMILES IDX 12 1 11 2 10 3 9 4 8 5 7 6 6 7 5 8 4 9 3 10 2 11 1 12 13 13
REMARK SMILES IDX 14 14 15 15 16 16 17 17 18 18 19 19 20 20 21 21 22 22 23 23
REMARK SMILES IDX 24 24
REMARK H PARENT
REMARK Flexibility Score: inf
ROOT
ATOM      1  C   UNL     1      17.984  56.848  16.483  1.00  0.00     0.000 C 
ENDROOT
BRANCH   1   2
ATOM      2  C   UNL     1      16.691  56.042  16.674  1.00  0.00     0.000 C 
BRANCH   2   3
ATOM      3  C   UNL     1      16.707  55.295  18.016  1.00  0.00     0.000 C 
BRANCH   3   4
ATOM      4  C   UNL     1      16.321  53.813  17.880  1.00  0.00    -0.000 C 
BRANCH   4   5
ATOM      5  C   UNL     1      17.340  52.872  18.547  1.00  0.00    -0.000 C 
BRANCH   5   6
ATOM      6  C   UNL     1      18.463  53.638  19.264  1.00  0.00    -0.000 C 
BRANCH   6   7
ATOM      7  C   UNL     1      19.864  53.154  18.853  1.00  0.00    -0.000 C 
BRANCH   7   8
ATOM      8  C   UNL     1      19.882  52.475  17.470  1.00  0.00    -0.000 C 
BRANCH   8   9
ATOM      9  C   UNL     1      20.098  53.425  16.279  1.00  0.00    -0.000 C 
BRANCH   9  10
ATOM     10  C   UNL     1      19.122  53.169  15.122  1.00  0.00    -0.000 C 
BRANCH  10  11
ATOM     11  C   UNL     1      19.465  54.043  13.910  1.00  0.00    -0.003 C 
ATOM     12  C   UNL     1      18.246  54.828  13.433  1.00  0.00     0.004 C 
ENDBRANCH  10  11
ENDBRANCH   9  10
ENDBRANCH   8   9
ENDBRANCH   7   8
ENDBRANCH   6   7
ENDBRANCH   5   6
ENDBRANCH   4   5
ENDBRANCH   3   4
ENDBRANCH   2   3
ENDBRANCH   1   2
BRANCH   1  13
ATOM     13  C   UNL     1      18.791  57.000  17.784  1.00  0.00     0.000 C 
BRANCH  13  14
ATOM     14  C   UNL     1      20.307  57.048  17.533  1.00  0.00     0.000 C 
BRANCH  14  15
ATOM     15  C   UNL     1      20.674  56.926  16.043  1.00  0.00     0.000 C 
BRANCH  15  16
ATOM     16  C   UNL     1      22.057  56.307  15.756  1.00  0.00     0.000 C 
BRANCH  16  17
ATOM     17  C   UNL     1      23.032  56.302  16.950  1.00  0.00     0.000 C 
BRANCH  17  18
ATOM     18  C   UNL     1      24.515  56.097  16.580  1.00  0.00     0.000 C 
BRANCH  18  19
ATOM     19  C   UNL     1      24.995  54.636  16.605  1.00  0.00     0.000 C 
BRANCH  19  20
ATOM     20  C   UNL     1      26.529  54.511  16.575  1.00  0.00     0.006 C 
BRANCH  20  21
ATOM     21  C   UNL     1      27.196  55.274  17.727  1.00  0.00     0.053 C 
BRANCH  21  22
ATOM     22  C   UNL     1      26.820  54.709  19.063  1.00  0.00     0.041 C 
ATOM     23  O   UNL     1      26.434  55.473  19.988  1.00  0.00    -0.550 OA
ATOM     24  O   UNL     1      26.867  53.337  19.278  1.00  0.00    -0.550 OA
ENDBRANCH  21  22
ENDBRANCH  20  21
ENDBRANCH  19  20
ENDBRANCH  18  19
ENDBRANCH  17  18
ENDBRANCH  16  17
ENDBRANCH  15  16
ENDBRANCH  14  15
ENDBRANCH  13  14
ENDBRANCH   1  13
TORSDOF 20
ENDMDL
MODEL 2
REMARK VINA RESULT:    -4.920      2.907      6.811
REMARK INTER + INTRA:         -13.998
REMARK INTER:                 -11.479
REMARK INTRA:                  -2.519
REMARK UNBOUND:                -3.326
REMARK SMILES CCCCCCCCCCCCCCCCCCCCCC(=O)[O-]
REMARK SMILES IDX 12 1 11 2 10 3 9 4 8 5 7 6 6 7 5 8 4 9 3 10 2 11 1 12 13 13
REMARK SMILES IDX 14 14 15 15 16 16 17 17 18 18 19 19 20 20 21 21 22 22 23 23
REMARK SMILES IDX 24 24
REMARK H PARENT
REMARK Flexibility Score: inf
ROOT
ATOM      1  C   UNL     1      17.711  55.061  12.827  1.00  0.00     0.000 C 
ENDROOT
BRANCH   1   2
ATOM      2  C   UNL     1      18.668  55.115  14.027  1.00  0.00     0.000 C 
BRANCH   2   3
ATOM      3  C   UNL     1      19.483  53.816  14.133  1.00  0.00     0.000 C 
BRANCH   3   4
ATOM      4  C   UNL     1      19.070  52.949  15.333  1.00  0.00    -0.000 C 
BRANCH   4   5
ATOM      5  C   UNL     1      20.252  52.621  16.262  1.00  0.00    -0.000 C 
BRANCH   5   6
ATOM      6  C   UNL     1      21.510  53.433  15.917  1.00  0.00    -0.000 C 
BRANCH   6   7
ATOM      7  C   UNL     1      21.761  54.583  16.908  1.00  0.00    -0.000 C 
BRANCH   7   8
ATOM      8  C   UNL     1      22.317  55.849  16.229  1.00  0.00    -0.000 C 
BRANCH   8   9
ATOM      9  C   UNL     1      23.621  56.397  16.838  1.00  0.00    -0.000 C 
BRANCH   9  10
ATOM     10  C   UNL     1      24.767  56.486  15.821  1.00  0.00    -0.000 C 
BRANCH  10  11
ATOM     11  C   UNL     1      24.516  57.607  14.806  1.00  0.00    -0.003 C 
ATOM     12  C   UNL     1      25.820  58.290  14.403  1.00  0.00     0.004 C 
ENDBRANCH  10  11
ENDBRANCH   9  10
ENDBRANCH   8   9
ENDBRANCH   7   8
ENDBRANCH   6   7
ENDBRANCH   5   6
ENDBRANCH   4   5
ENDBRANCH   3   4
ENDBRANCH   2   3
ENDBRANCH   1   2
BRANCH   1  13
ATOM     13  C   UNL     1      16.242  54.864  13.242  1.00  0.00     0.000 C 
BRANCH  13  14
ATOM     14  C   UNL     1      16.011  55.139  14.737  1.00  0.00     0.000 C 
BRANCH  14  15
ATOM     15  C   UNL     1      14.520  55.249  15.103  1.00  0.00     0.000 C 
BRANCH  15  16
ATOM     16  C   UNL     1      14.172  56.363  16.112  1.00  0.00     0.000 C 
BRANCH  16  17
ATOM     17  C   UNL     1      14.095  55.911  17.584  1.00  0.00     0.000 C 
BRANCH  17  18
ATOM     18  C   UNL     1      15.207  56.468  18.496  1.00  0.00     0.000 C 
BRANCH  18  19
ATOM     19  C   UNL     1      16.204  55.420  19.020  1.00  0.00     0.000 C 
BRANCH  19  20
ATOM     20  C   UNL     1      17.188  54.940  17.939  1.00  0.00     0.006 C 
BRANCH  20  21
ATOM     21  C   UNL     1      18.611  55.464  18.175  1.00  0.00     0.053 C 
BRANCH  21  22
ATOM     22  C   UNL     1      18.807  56.831  17.595  1.00  0.00     0.041 C 
ATOM     23  O   UNL     1      18.048  57.245  16.678  1.00  0.00    -0.550 OA
ATOM     24  O   UNL     1      19.809  57.659  18.087  1.00  0.00    -0.550 OA
ENDBRANCH  21  22
ENDBRANCH  20  21
ENDBRANCH  19  20
ENDBRANCH  18  19
ENDBRANCH  17  18
ENDBRANCH  16  17
ENDBRANCH  15  16
ENDBRANCH  14  15
ENDBRANCH  13  14
ENDBRANCH   1  13
TORSDOF 20
ENDMDL
MODEL 3
REMARK VINA RESULT:    -4.861      2.973      4.891
REMARK INTER + INTRA:         -13.871
REMARK INTER:                  -9.965
REMARK INTRA:                  -3.907
REMARK UNBOUND:                -3.326
REMARK SMILES CCCCCCCCCCCCCCCCCCCCCC(=O)[O-]
REMARK SMILES IDX 12 1 11 2 10 3 9 4 8 5 7 6 6 7 5 8 4 9 3 10 2 11 1 12 13 13
REMARK SMILES IDX 14 14 15 15 16 16 17 17 18 18 19 19 20 20 21 21 22 22 23 23
REMARK SMILES IDX 24 24
REMARK H PARENT
REMARK Flexibility Score: inf
ROOT
ATOM      1  C   UNL     1      17.364  56.192  18.010  1.00  0.00     0.000 C 
ENDROOT
BRANCH   1   2
ATOM      2  C   UNL     1      16.220  55.645  18.876  1.00  0.00     0.000 C 
BRANCH   2   3
ATOM      3  C   UNL     1      14.857  56.093  18.325  1.00  0.00     0.000 C 
BRANCH   3   4
ATOM      4  C   UNL     1      13.941  54.913  17.966  1.00  0.00    -0.000 C 
BRANCH   4   5
ATOM      5  C   UNL     1      14.289  54.286  16.603  1.00  0.00    -0.000 C 
BRANCH   5   6
ATOM      6  C   UNL     1      14.799  52.842  16.737  1.00  0.00    -0.000 C 
BRANCH   6   7
ATOM      7  C   UNL     1      16.269  52.692  16.307  1.00  0.00    -0.000 C 
BRANCH   7   8
ATOM      8  C   UNL     1      17.207  52.373  17.486  1.00  0.00    -0.000 C 
BRANCH   8   9
ATOM      9  C   UNL     1      16.501  52.069  18.819  1.00  0.00    -0.000 C 
BRANCH   9  10
ATOM     10  C   UNL     1      17.479  51.877  19.987  1.00  0.00    -0.000 C 
BRANCH  10  11
ATOM     11  C   UNL     1      18.931  52.018  19.516  1.00  0.00    -0.003 C 
ATOM     12  C   UNL     1      19.750  52.858  20.492  1.00  0.00     0.004 C 
ENDBRANCH  10  11
ENDBRANCH   9  10
ENDBRANCH   8   9
ENDBRANCH   7   8
ENDBRANCH   6   7
ENDBRANCH   5   6
ENDBRANCH   4   5
ENDBRANCH   3   4
ENDBRANCH   2   3
ENDBRANCH   1   2
BRANCH   1  13
ATOM     13  C   UNL     1      16.868  56.863  16.717  1.00  0.00     0.000 C 
BRANCH  13  14
ATOM     14  C   UNL     1      17.743  56.518  15.501  1.00  0.00     0.000 C 
BRANCH  14  15
ATOM     15  C   UNL     1      17.052  55.555  14.518  1.00  0.00     0.000 C 
BRANCH  15  16
ATOM     16  C   UNL     1      17.784  55.350  13.176  1.00  0.00     0.000 C 
BRANCH  16  17
ATOM     17  C   UNL     1      18.599  54.047  13.067  1.00  0.00     0.000 C 
BRANCH  17  18
ATOM     18  C   UNL     1      19.936  54.048  13.835  1.00  0.00     0.000 C 
BRANCH  18  19
ATOM     19  C   UNL     1      19.926  53.265  15.160  1.00  0.00     0.000 C 
BRANCH  19  20
ATOM     20  C   UNL     1      21.110  53.625  16.075  1.00  0.00     0.006 C 
BRANCH  20  21
ATOM     21  C   UNL     1      20.709  54.608  17.183  1.00  0.00     0.053 C 
BRANCH  21  22
ATOM     22  C   UNL     1      21.405  55.927  17.038  1.00  0.00     0.041 C 
ATOM     23  O   UNL     1      22.630  55.968  16.747  1.00  0.00    -0.550 OA
ATOM     24  O   UNL     1      20.693  57.111  17.196  1.00  0.00    -0.550 OA
ENDBRANCH  21  22
ENDBRANCH  20  21
ENDBRANCH  19  20
ENDBRANCH  18  19
ENDBRANCH  17  18
ENDBRANCH  16  17
ENDBRANCH  15  16
ENDBRANCH  14  15
ENDBRANCH  13  14
ENDBRANCH   1  13
TORSDOF 20
ENDMDL
MODEL 4
REMARK VINA RESULT:    -4.856      1.305      2.805
REMARK INTER + INTRA:         -13.859
REMARK INTER:                 -10.902
REMARK INTRA:                  -2.956
REMARK UNBOUND:                -3.326
REMARK SMILES CCCCCCCCCCCCCCCCCCCCCC(=O)[O-]
REMARK SMILES IDX 12 1 11 2 10 3 9 4 8 5 7 6 6 7 5 8 4 9 3 10 2 11 1 12 13 13
REMARK SMILES IDX 14 14 15 15 16 16 17 17 18 18 19 19 20 20 21 21 22 22 23 23
REMARK SMILES IDX 24 24
REMARK H PARENT
REMARK Flexibility Score: inf
ROOT
ATOM      1  C   UNL     1      18.011  57.013  16.908  1.00  0.00     0.000 C 
ENDROOT
BRANCH   1   2
ATOM      2  C   UNL     1      16.575  56.549  17.195  1.00  0.00     0.000 C 
BRANCH   2   3
ATOM      3  C   UNL     1      16.503  55.016  17.274  1.00  0.00     0.000 C 
BRANCH   3   4
ATOM      4  C   UNL     1      15.690  54.397  16.126  1.00  0.00    -0.000 C 
BRANCH   4   5
ATOM      5  C   UNL     1      15.637  55.301  14.882  1.00  0.00    -0.000 C 
BRANCH   5   6
ATOM      6  C   UNL     1      16.145  54.588  13.618  1.00  0.00    -0.000 C 
BRANCH   6   7
ATOM      7  C   UNL     1      17.506  55.127  13.143  1.00  0.00    -0.000 C 
BRANCH   7   8
ATOM      8  C   UNL     1      18.625  54.926  14.182  1.00  0.00    -0.000 C 
BRANCH   8   9
ATOM      9  C   UNL     1      19.724  53.928  13.772  1.00  0.00    -0.000 C 
BRANCH   9  10
ATOM     10  C   UNL     1      20.303  53.152  14.963  1.00  0.00    -0.000 C 
BRANCH  10  11
ATOM     11  C   UNL     1      19.217  52.845  16.000  1.00  0.00    -0.003 C 
ATOM     12  C   UNL     1      19.687  53.186  17.411  1.00  0.00     0.004 C 
ENDBRANCH  10  11
ENDBRANCH   9  10
ENDBRANCH   8   9
ENDBRANCH   7   8
ENDBRANCH   6   7
ENDBRANCH   5   6
ENDBRANCH   4   5
ENDBRANCH   3   4
ENDBRANCH   2   3
ENDBRANCH   1   2
BRANCH   1  13
ATOM     13  C   UNL     1      18.972  56.740  18.078  1.00  0.00     0.000 C 
BRANCH  13  14
ATOM     14  C   UNL     1      20.449  56.866  17.668  1.00  0.00     0.000 C 
BRANCH  14  15
ATOM     15  C   UNL     1      20.640  57.000  16.145  1.00  0.00     0.000 C 
BRANCH  15  16
ATOM     16  C   UNL     1      21.949  56.399  15.592  1.00  0.00     0.000 C 
BRANCH  16  17
ATOM     17  C   UNL     1      22.801  55.630  16.622  1.00  0.00     0.000 C 
BRANCH  17  18
ATOM     18  C   UNL     1      24.298  55.998  16.633  1.00  0.00     0.000 C 
BRANCH  18  19
ATOM     19  C   UNL     1      25.262  54.799  16.617  1.00  0.00     0.000 C 
BRANCH  19  20
ATOM     20  C   UNL     1      26.727  55.207  16.856  1.00  0.00     0.006 C 
BRANCH  20  21
ATOM     21  C   UNL     1      27.191  54.896  18.285  1.00  0.00     0.053 C 
BRANCH  21  22
ATOM     22  C   UNL     1      28.276  55.826  18.734  1.00  0.00     0.041 C 
ATOM     23  O   UNL     1      28.679  55.800  19.928  1.00  0.00    -0.550 OA
ATOM     24  O   UNL     1      28.864  56.700  17.828  1.00  0.00    -0.550 OA
ENDBRANCH  21  22
ENDBRANCH  20  21
ENDBRANCH  19  20
ENDBRANCH  18  19
ENDBRANCH  17  18
ENDBRANCH  16  17
ENDBRANCH  15  16
ENDBRANCH  14  15
ENDBRANCH  13  14
ENDBRANCH   1  13
TORSDOF 20
ENDMDL
MODEL 5
REMARK VINA RESULT:    -4.806      3.875      7.678
REMARK INTER + INTRA:         -13.751
REMARK INTER:                 -10.492
REMARK INTRA:                  -3.259
REMARK UNBOUND:                -3.326
REMARK SMILES CCCCCCCCCCCCCCCCCCCCCC(=O)[O-]
REMARK SMILES IDX 12 1 11 2 10 3 9 4 8 5 7 6 6 7 5 8 4 9 3 10 2 11 1 12 13 13
REMARK SMILES IDX 14 14 15 15 16 16 17 17 18 18 19 19 20 20 21 21 22 22 23 23
REMARK SMILES IDX 24 24
REMARK H PARENT
REMARK Flexibility Score: inf
ROOT
ATOM      1  C   UNL     1      18.750  52.947  15.433  1.00  0.00     0.000 C 
ENDROOT
BRANCH   1   2
ATOM      2  C   UNL     1      19.445  53.817  14.375  1.00  0.00     0.000 C 
BRANCH   2   3
ATOM      3  C   UNL     1      18.874  55.244  14.381  1.00  0.00     0.000 C 
BRANCH   3   4
ATOM      4  C   UNL     1      17.945  55.510  15.576  1.00  0.00    -0.000 C 
BRANCH   4   5
ATOM      5  C   UNL     1      18.547  56.504  16.585  1.00  0.00    -0.000 C 
BRANCH   5   6
ATOM      6  C   UNL     1      19.789  57.221  16.031  1.00  0.00    -0.000 C 
BRANCH   6   7
ATOM      7  C   UNL     1      21.065  56.888  16.823  1.00  0.00    -0.000 C 
BRANCH   7   8
ATOM      8  C   UNL     1      22.192  56.327  15.936  1.00  0.00    -0.000 C 
BRANCH   8   9
ATOM      9  C   UNL     1      23.364  55.684  16.700  1.00  0.00    -0.000 C 
BRANCH   9  10
ATOM     10  C   UNL     1      24.730  56.253  16.291  1.00  0.00    -0.000 C 
BRANCH  10  11
ATOM     11  C   UNL     1      25.872  55.464  16.943  1.00  0.00    -0.003 C 
ATOM     12  C   UNL     1      27.233  55.982  16.487  1.00  0.00     0.004 C 
ENDBRANCH  10  11
ENDBRANCH   9  10
ENDBRANCH   8   9
ENDBRANCH   7   8
ENDBRANCH   6   7
ENDBRANCH   5   6
ENDBRANCH   4   5
ENDBRANCH   3   4
ENDBRANCH   2   3
ENDBRANCH   1   2
BRANCH   1  13
ATOM     13  C   UNL     1      19.743  52.180  16.323  1.00  0.00     0.000 C 
BRANCH  13  14
ATOM     14  C   UNL     1      20.711  53.116  17.067  1.00  0.00     0.000 C 
BRANCH  14  15
ATOM     15  C   UNL     1      20.078  53.767  18.311  1.00  0.00     0.000 C 
BRANCH  15  16
ATOM     16  C   UNL     1      19.678  52.786  19.433  1.00  0.00     0.000 C 
BRANCH  16  17
ATOM     17  C   UNL     1      18.174  52.758  19.771  1.00  0.00     0.000 C 
BRANCH  17  18
ATOM     18  C   UNL     1      17.275  53.564  18.812  1.00  0.00     0.000 C 
BRANCH  18  19
ATOM     19  C   UNL     1      16.313  54.550  19.498  1.00  0.00     0.000 C 
BRANCH  19  20
ATOM     20  C   UNL     1      15.121  54.939  18.606  1.00  0.00     0.006 C 
BRANCH  20  21
ATOM     21  C   UNL     1      15.179  56.409  18.168  1.00  0.00     0.053 C 
BRANCH  21  22
ATOM     22  C   UNL     1      14.644  56.600  16.782  1.00  0.00     0.041 C 
ATOM     23  O   UNL     1      14.423  55.602  16.044  1.00  0.00    -0.550 OA
ATOM     24  O   UNL     1      14.362  57.878  16.314  1.00  0.00    -0.550 OA
ENDBRANCH  21  22
ENDBRANCH  20  21
ENDBRANCH  19  20
ENDBRANCH  18  19
ENDBRANCH  17  18
ENDBRANCH  16  17
ENDBRANCH  15  16
ENDBRANCH  14  15
ENDBRANCH  13  14
ENDBRANCH   1  13
TORSDOF 20
ENDMDL
MODEL 6
REMARK VINA RESULT:    -4.805      3.346      6.655
REMARK INTER + INTRA:         -13.749
REMARK INTER:                 -10.809
REMARK INTRA:                  -2.941
REMARK UNBOUND:                -3.326
REMARK SMILES CCCCCCCCCCCCCCCCCCCCCC(=O)[O-]
REMARK SMILES IDX 12 1 11 2 10 3 9 4 8 5 7 6 6 7 5 8 4 9 3 10 2 11 1 12 13 13
REMARK SMILES IDX 14 14 15 15 16 16 17 17 18 18 19 19 20 20 21 21 22 22 23 23
REMARK SMILES IDX 24 24
REMARK H PARENT
REMARK Flexibility Score: inf
ROOT
ATOM      1  C   UNL     1      18.248  55.928  14.104  1.00  0.00     0.000 C 
ENDROOT
BRANCH   1   2
ATOM      2  C   UNL     1      17.170  55.982  15.197  1.00  0.00     0.000 C 
BRANCH   2   3
ATOM      3  C   UNL     1      17.510  57.053  16.245  1.00  0.00     0.000 C 
BRANCH   3   4
ATOM      4  C   UNL     1      18.242  56.480  17.469  1.00  0.00    -0.000 C 
BRANCH   4   5
ATOM      5  C   UNL     1      19.348  57.415  17.989  1.00  0.00    -0.000 C 
BRANCH   5   6
ATOM      6  C   UNL     1      20.757  56.879  17.690  1.00  0.00    -0.000 C 
BRANCH   6   7
ATOM      7  C   UNL     1      20.934  56.478  16.215  1.00  0.00    -0.000 C 
BRANCH   7   8
ATOM      8  C   UNL     1      22.407  56.482  15.766  1.00  0.00    -0.000 C 
BRANCH   8   9
ATOM      9  C   UNL     1      23.332  55.536  16.553  1.00  0.00    -0.000 C 
BRANCH   9  10
ATOM     10  C   UNL     1      24.805  55.969  16.516  1.00  0.00    -0.000 C 
BRANCH  10  11
ATOM     11  C   UNL     1      25.737  54.755  16.604  1.00  0.00    -0.003 C 
ATOM     12  C   UNL     1      27.030  55.104  17.336  1.00  0.00     0.004 C 
ENDBRANCH  10  11
ENDBRANCH   9  10
ENDBRANCH   8   9
ENDBRANCH   7   8
ENDBRANCH   6   7
ENDBRANCH   5   6
ENDBRANCH   4   5
ENDBRANCH   3   4
ENDBRANCH   2   3
ENDBRANCH   1   2
BRANCH   1  13
ATOM     13  C   UNL     1      18.462  54.510  13.546  1.00  0.00     0.000 C 
BRANCH  13  14
ATOM     14  C   UNL     1      19.485  53.704  14.364  1.00  0.00     0.000 C 
BRANCH  14  15
ATOM     15  C   UNL     1      18.900  53.151  15.677  1.00  0.00     0.000 C 
BRANCH  15  16
ATOM     16  C   UNL     1      19.878  52.319  16.532  1.00  0.00     0.000 C 
BRANCH  16  17
ATOM     17  C   UNL     1      20.656  53.115  17.598  1.00  0.00     0.000 C 
BRANCH  17  18
ATOM     18  C   UNL     1      19.821  53.569  18.811  1.00  0.00     0.000 C 
BRANCH  18  19
ATOM     19  C   UNL     1      19.318  52.432  19.717  1.00  0.00     0.000 C 
BRANCH  19  20
ATOM     20  C   UNL     1      17.802  52.195  19.592  1.00  0.00     0.006 C 
BRANCH  20  21
ATOM     21  C   UNL     1      17.034  53.491  19.299  1.00  0.00     0.053 C 
BRANCH  21  22
ATOM     22  C   UNL     1      16.064  53.323  18.170  1.00  0.00     0.041 C 
ATOM     23  O   UNL     1      15.315  54.278  17.831  1.00  0.00    -0.550 OA
ATOM     24  O   UNL     1      16.008  52.122  17.474  1.00  0.00    -0.550 OA
ENDBRANCH  21  22
ENDBRANCH  20  21
ENDBRANCH  19  20
ENDBRANCH  18  19
ENDBRANCH  17  18
ENDBRANCH  16  17
ENDBRANCH  15  16
ENDBRANCH  14  15
ENDBRANCH  13  14
ENDBRANCH   1  13
TORSDOF 20
ENDMDL
MODEL 7
REMARK VINA RESULT:    -4.800      3.818      7.749
REMARK INTER + INTRA:         -13.738
REMARK INTER:                 -10.727
REMARK INTRA:                  -3.011
REMARK UNBOUND:                -3.326
REMARK SMILES CCCCCCCCCCCCCCCCCCCCCC(=O)[O-]
REMARK SMILES IDX 12 1 11 2 10 3 9 4 8 5 7 6 6 7 5 8 4 9 3 10 2 11 1 12 13 13
REMARK SMILES IDX 14 14 15 15 16 16 17 17 18 18 19 19 20 20 21 21 22 22 23 23
REMARK SMILES IDX 24 24
REMARK H PARENT
REMARK Flexibility Score: inf
ROOT
ATOM      1  C   UNL     1      18.494  53.633  18.033  1.00  0.00     0.000 C 
ENDROOT
BRANCH   1   2
ATOM      2  C   UNL     1      17.625  54.892  18.179  1.00  0.00     0.000 C 
BRANCH   2   3
ATOM      3  C   UNL     1      18.409  56.147  17.766  1.00  0.00     0.000 C 
BRANCH   3   4
ATOM      4  C   UNL     1      19.931  55.944  17.818  1.00  0.00    -0.000 C 
BRANCH   4   5
ATOM      5  C   UNL     1      20.703  57.054  17.081  1.00  0.00    -0.000 C 
BRANCH   5   6
ATOM      6  C   UNL     1      21.704  56.492  16.060  1.00  0.00    -0.000 C 
BRANCH   6   7
ATOM      7  C   UNL     1      22.535  55.328  16.628  1.00  0.00    -0.000 C 
BRANCH   7   8
ATOM      8  C   UNL     1      24.029  55.674  16.773  1.00  0.00    -0.000 C 
BRANCH   8   9
ATOM      9  C   UNL     1      24.995  54.491  16.574  1.00  0.00    -0.000 C 
BRANCH   9  10
ATOM     10  C   UNL     1      26.196  54.530  17.529  1.00  0.00    -0.000 C 
BRANCH  10  11
ATOM     11  C   UNL     1      27.313  55.419  16.972  1.00  0.00    -0.003 C 
ATOM     12  C   UNL     1      28.152  56.022  18.095  1.00  0.00     0.004 C 
ENDBRANCH  10  11
ENDBRANCH   9  10
ENDBRANCH   8   9
ENDBRANCH   7   8
ENDBRANCH   6   7
ENDBRANCH   5   6
ENDBRANCH   4   5
ENDBRANCH   3   4
ENDBRANCH   2   3
ENDBRANCH   1   2
BRANCH   1  13
ATOM     13  C   UNL     1      17.773  52.492  17.296  1.00  0.00     0.000 C 
BRANCH  13  14
ATOM     14  C   UNL     1      18.514  52.054  16.020  1.00  0.00     0.000 C 
BRANCH  14  15
ATOM     15  C   UNL     1      19.777  52.890  15.744  1.00  0.00     0.000 C 
BRANCH  15  16
ATOM     16  C   UNL     1      19.787  53.639  14.395  1.00  0.00     0.000 C 
BRANCH  16  17
ATOM     17  C   UNL     1      18.834  54.848  14.312  1.00  0.00     0.000 C 
BRANCH  17  18
ATOM     18  C   UNL     1      17.928  54.880  13.064  1.00  0.00     0.000 C 
BRANCH  18  19
ATOM     19  C   UNL     1      16.418  54.863  13.357  1.00  0.00     0.000 C 
BRANCH  19  20
ATOM     20  C   UNL     1      16.100  54.948  14.860  1.00  0.00     0.006 C 
BRANCH  20  21
ATOM     21  C   UNL     1      14.639  55.334  15.124  1.00  0.00     0.053 C 
BRANCH  21  22
ATOM     22  C   UNL     1      14.504  56.233  16.315  1.00  0.00     0.041 C 
ATOM     23  O   UNL     1      14.341  55.743  17.464  1.00  0.00    -0.550 OA
ATOM     24  O   UNL     1      14.590  57.612  16.159  1.00  0.00    -0.550 OA
ENDBRANCH  21  22
ENDBRANCH  20  21
ENDBRANCH  19  20
ENDBRANCH  18  19
ENDBRANCH  17  18
ENDBRANCH  16  17
ENDBRANCH  15  16
ENDBRANCH  14  15
ENDBRANCH  13  14
ENDBRANCH   1  13
TORSDOF 20
ENDMDL
MODEL 8
REMARK VINA RESULT:    -4.696      2.190      4.117
REMARK INTER + INTRA:         -13.512
REMARK INTER:                  -9.995
REMARK INTRA:                  -3.517
REMARK UNBOUND:                -3.326
REMARK SMILES CCCCCCCCCCCCCCCCCCCCCC(=O)[O-]
REMARK SMILES IDX 12 1 11 2 10 3 9 4 8 5 7 6 6 7 5 8 4 9 3 10 2 11 1 12 13 13
REMARK SMILES IDX 14 14 15 15 16 16 17 17 18 18 19 19 20 20 21 21 22 22 23 23
REMARK SMILES IDX 24 24
REMARK H PARENT
REMARK Flexibility Score: inf
ROOT
ATOM      1  C   UNL     1      18.976  57.110  16.994  1.00  0.00     0.000 C 
ENDROOT
BRANCH   1   2
ATOM      2  C   UNL     1      18.987  56.101  18.152  1.00  0.00     0.000 C 
BRANCH   2   3
ATOM      3  C   UNL     1      17.739  55.207  18.110  1.00  0.00     0.000 C 
BRANCH   3   4
ATOM      4  C   UNL     1      17.933  53.874  18.850  1.00  0.00    -0.000 C 
BRANCH   4   5
ATOM      5  C   UNL     1      16.628  53.068  18.971  1.00  0.00    -0.000 C 
BRANCH   5   6
ATOM      6  C   UNL     1      16.578  51.884  17.992  1.00  0.00    -0.000 C 
BRANCH   6   7
ATOM      7  C   UNL     1      16.236  52.320  16.557  1.00  0.00    -0.000 C 
BRANCH   7   8
ATOM      8  C   UNL     1      14.737  52.188  16.232  1.00  0.00    -0.000 C 
BRANCH   8   9
ATOM      9  C   UNL     1      13.974  53.521  16.120  1.00  0.00    -0.000 C 
BRANCH   9  10
ATOM     10  C   UNL     1      14.882  54.702  15.747  1.00  0.00    -0.000 C 
BRANCH  10  11
ATOM     11  C   UNL     1      14.062  55.978  15.526  1.00  0.00    -0.003 C 
ATOM     12  C   UNL     1      14.332  57.005  16.621  1.00  0.00     0.004 C 
ENDBRANCH  10  11
ENDBRANCH   9  10
ENDBRANCH   8   9
ENDBRANCH   7   8
ENDBRANCH   6   7
ENDBRANCH   5   6
ENDBRANCH   4   5
ENDBRANCH   3   4
ENDBRANCH   2   3
ENDBRANCH   1   2
BRANCH   1  13
ATOM     13  C   UNL     1      18.006  56.714  15.867  1.00  0.00     0.000 C 
BRANCH  13  14
ATOM     14  C   UNL     1      18.736  56.181  14.622  1.00  0.00     0.000 C 
BRANCH  14  15
ATOM     15  C   UNL     1      18.236  54.793  14.181  1.00  0.00     0.000 C 
BRANCH  15  16
ATOM     16  C   UNL     1      19.298  53.674  14.206  1.00  0.00     0.000 C 
BRANCH  16  17
ATOM     17  C   UNL     1      19.775  53.257  15.611  1.00  0.00     0.000 C 
BRANCH  17  18
ATOM     18  C   UNL     1      21.290  53.404  15.856  1.00  0.00     0.000 C 
BRANCH  18  19
ATOM     19  C   UNL     1      21.680  54.468  16.896  1.00  0.00     0.000 C 
BRANCH  19  20
ATOM     20  C   UNL     1      22.346  55.704  16.265  1.00  0.00     0.006 C 
BRANCH  20  21
ATOM     21  C   UNL     1      23.768  55.932  16.796  1.00  0.00     0.053 C 
BRANCH  21  22
ATOM     22  C   UNL     1      24.609  56.703  15.825  1.00  0.00     0.041 C 
ATOM     23  O   UNL     1      25.863  56.571  15.829  1.00  0.00    -0.550 OA
ATOM     24  O   UNL     1      24.008  57.543  14.896  1.00  0.00    -0.550 OA
ENDBRANCH  21  22
ENDBRANCH  20  21
ENDBRANCH  19  20
ENDBRANCH  18  19
ENDBRANCH  17  18
ENDBRANCH  16  17
ENDBRANCH  15  16
ENDBRANCH  14  15
ENDBRANCH  13  14
ENDBRANCH   1  13
TORSDOF 20
ENDMDL
MODEL 9
REMARK VINA RESULT:    -4.678      3.811      7.825
REMARK INTER + INTRA:         -13.475
REMARK INTER:                 -10.045
REMARK INTRA:                  -3.429
REMARK UNBOUND:                -3.326
REMARK SMILES CCCCCCCCCCCCCCCCCCCCCC(=O)[O-]
REMARK SMILES IDX 12 1 11 2 10 3 9 4 8 5 7 6 6 7 5 8 4 9 3 10 2 11 1 12 13 13
REMARK SMILES IDX 14 14 15 15 16 16 17 17 18 18 19 19 20 20 21 21 22 22 23 23
REMARK SMILES IDX 24 24
REMARK H PARENT
REMARK Flexibility Score: inf
ROOT
ATOM      1  C   UNL     1      19.189  53.102  16.388  1.00  0.00     0.000 C 
ENDROOT
BRANCH   1   2
ATOM      2  C   UNL     1      20.152  53.039  15.192  1.00  0.00     0.000 C 
BRANCH   2   3
ATOM      3  C   UNL     1      19.551  53.750  13.970  1.00  0.00     0.000 C 
BRANCH   3   4
ATOM      4  C   UNL     1      18.246  54.495  14.294  1.00  0.00    -0.000 C 
BRANCH   4   5
ATOM      5  C   UNL     1      18.446  56.017  14.409  1.00  0.00    -0.000 C 
BRANCH   5   6
ATOM      6  C   UNL     1      17.911  56.579  15.737  1.00  0.00    -0.000 C 
BRANCH   6   7
ATOM      7  C   UNL     1      19.027  56.807  16.772  1.00  0.00    -0.000 C 
BRANCH   7   8
ATOM      8  C   UNL     1      20.436  56.783  16.150  1.00  0.00    -0.000 C 
BRANCH   8   9
ATOM      9  C   UNL     1      21.562  56.347  17.105  1.00  0.00    -0.000 C 
BRANCH   9  10
ATOM     10  C   UNL     1      22.624  55.474  16.420  1.00  0.00    -0.000 C 
BRANCH  10  11
ATOM     11  C   UNL     1      24.001  56.145  16.468  1.00  0.00    -0.003 C 
ATOM     12  C   UNL     1      25.113  55.113  16.638  1.00  0.00     0.004 C 
ENDBRANCH  10  11
ENDBRANCH   9  10
ENDBRANCH   8   9
ENDBRANCH   7   8
ENDBRANCH   6   7
ENDBRANCH   5   6
ENDBRANCH   4   5
ENDBRANCH   3   4
ENDBRANCH   2   3
ENDBRANCH   1   2
BRANCH   1  13
ATOM     13  C   UNL     1      19.868  52.744  17.721  1.00  0.00     0.000 C 
BRANCH  13  14
ATOM     14  C   UNL     1      19.467  53.697  18.860  1.00  0.00     0.000 C 
BRANCH  14  15
ATOM     15  C   UNL     1      17.984  54.106  18.806  1.00  0.00     0.000 C 
BRANCH  15  16
ATOM     16  C   UNL     1      16.979  52.972  19.095  1.00  0.00     0.000 C 
BRANCH  16  17
ATOM     17  C   UNL     1      15.662  53.047  18.297  1.00  0.00     0.000 C 
BRANCH  17  18
ATOM     18  C   UNL     1      15.726  52.456  16.875  1.00  0.00     0.000 C 
BRANCH  18  19
ATOM     19  C   UNL     1      14.629  52.950  15.915  1.00  0.00     0.000 C 
BRANCH  19  20
ATOM     20  C   UNL     1      13.928  54.225  16.416  1.00  0.00     0.006 C 
BRANCH  20  21
ATOM     21  C   UNL     1      14.448  55.487  15.715  1.00  0.00     0.053 C 
BRANCH  21  22
ATOM     22  C   UNL     1      14.551  56.648  16.657  1.00  0.00     0.041 C 
ATOM     23  O   UNL     1      14.325  57.818  16.248  1.00  0.00    -0.550 OA
ATOM     24  O   UNL     1      14.867  56.434  17.993  1.00  0.00    -0.550 OA
ENDBRANCH  21  22
ENDBRANCH  20  21
ENDBRANCH  19  20
ENDBRANCH  18  19
ENDBRANCH  17  18
ENDBRANCH  16  17
ENDBRANCH  15  16
ENDBRANCH  14  15
ENDBRANCH  13  14
ENDBRANCH   1  13
TORSDOF 20
ENDMDL
