MODEL 1
REMARK VINA RESULT:    -5.715      0.000      0.000
REMARK INTER + INTRA:          -6.049
REMARK INTER:                  -6.049
REMARK INTRA:                   0.000
REMARK UNBOUND:                 0.000
REMARK SMILES Cc1cc(O)c(C)c(C)c1O
REMARK SMILES IDX 1 1 2 2 3 3 4 4 6 5 8 6 10 7 9 8 7 9 11 10 5 12
REMARK H PARENT 11 11 5 13
REMARK Flexibility Score: inf
ROOT
ATOM      1  C   UNL     1      83.311   1.991   0.392  1.00  0.00     0.048 C 
ATOM      2  C   UNL     1      81.896   1.515   0.204  1.00  0.00    -0.005 A 
ATOM      3  C   UNL     1      81.638   0.156   0.011  1.00  0.00     0.053 A 
ATOM      4  C   UNL     1      80.339  -0.305  -0.202  1.00  0.00     0.119 A 
ATOM      5  C   UNL     1      79.259   0.610  -0.238  1.00  0.00    -0.003 A 
ATOM      6  C   UNL     1      79.498   1.977   0.083  1.00  0.00    -0.002 A 
ATOM      7  C   UNL     1      80.833   2.432   0.231  1.00  0.00     0.121 A 
ATOM      8  C   UNL     1      78.352   2.950   0.253  1.00  0.00     0.049 C 
ATOM      9  C   UNL     1      77.875   0.121  -0.599  1.00  0.00     0.049 C 
ENDROOT
BRANCH   7  10
ATOM     10  O   UNL     1      81.135   3.788   0.396  1.00  0.00    -0.507 OA
ATOM     11  H   UNL     1      80.631   4.537  -0.061  1.00  0.00     0.293 HD
ENDBRANCH   7  10
BRANCH   4  12
ATOM     12  O   UNL     1      80.159  -1.682  -0.358  1.00  0.00    -0.508 OA
ATOM     13  H   UNL     1      80.573  -2.373   0.252  1.00  0.00     0.293 HD
ENDBRANCH   4  12
TORSDOF 2
ENDMDL
MODEL 2
REMARK VINA RESULT:    -5.496      1.011      4.408
REMARK INTER + INTRA:          -5.818
REMARK INTER:                  -5.818
REMARK INTRA:                   0.000
REMARK UNBOUND:                 0.000
REMARK SMILES Cc1cc(O)c(C)c(C)c1O
REMARK SMILES IDX 1 1 2 2 3 3 4 4 6 5 8 6 10 7 9 8 7 9 11 10 5 12
REMARK H PARENT 11 11 5 13
REMARK Flexibility Score: inf
ROOT
ATOM      1  C   UNL     1      76.762   1.074  -0.364  1.00  0.00     0.048 C 
ATOM      2  C   UNL     1      78.223   1.349  -0.134  1.00  0.00    -0.005 A 
ATOM      3  C   UNL     1      78.660   2.659   0.083  1.00  0.00     0.053 A 
ATOM      4  C   UNL     1      80.013   2.943   0.263  1.00  0.00     0.119 A 
ATOM      5  C   UNL     1      80.970   1.901   0.212  1.00  0.00    -0.003 A 
ATOM      6  C   UNL     1      80.521   0.553   0.118  1.00  0.00    -0.002 A 
ATOM      7  C   UNL     1      79.149   0.294  -0.128  1.00  0.00     0.121 A 
ATOM      8  C   UNL     1      81.488  -0.602   0.261  1.00  0.00     0.049 C 
ATOM      9  C   UNL     1      82.443   2.234   0.276  1.00  0.00     0.049 C 
ENDROOT
BRANCH   7  10
ATOM     10  O   UNL     1      78.678  -1.000  -0.381  1.00  0.00    -0.507 OA
ATOM     11  H   UNL     1      78.260  -1.285  -1.257  1.00  0.00     0.293 HD
ENDBRANCH   7  10
BRANCH   4  12
ATOM     12  O   UNL     1      80.367   4.274   0.503  1.00  0.00    -0.508 OA
ATOM     13  H   UNL     1      81.222   4.551   0.966  1.00  0.00     0.293 HD
ENDBRANCH   4  12
TORSDOF 2
ENDMDL
MODEL 3
REMARK VINA RESULT:    -5.268      7.353      9.373
REMARK INTER + INTRA:          -5.576
REMARK INTER:                  -5.576
REMARK INTRA:                   0.000
REMARK UNBOUND:                 0.000
REMARK SMILES Cc1cc(O)c(C)c(C)c1O
REMARK SMILES IDX 1 1 2 2 3 3 4 4 6 5 8 6 10 7 9 8 7 9 11 10 5 12
REMARK H PARENT 11 11 5 13
REMARK Flexibility Score: inf
ROOT
ATOM      1  C   UNL     1      70.841   0.226   2.485  1.00  0.00     0.048 C 
ATOM      2  C   UNL     1      71.315   0.750   1.157  1.00  0.00    -0.005 A 
ATOM      3  C   UNL     1      72.681   0.941   0.930  1.00  0.00     0.053 A 
ATOM      4  C   UNL     1      73.142   1.460  -0.279  1.00  0.00     0.119 A 
ATOM      5  C   UNL     1      72.223   1.816  -1.295  1.00  0.00    -0.003 A 
ATOM      6  C   UNL     1      70.844   1.507  -1.120  1.00  0.00    -0.002 A 
ATOM      7  C   UNL     1      70.391   1.041   0.140  1.00  0.00     0.121 A 
ATOM      8  C   UNL     1      69.856   1.684  -2.252  1.00  0.00     0.049 C 
ATOM      9  C   UNL     1      72.720   2.498  -2.549  1.00  0.00     0.049 C 
ENDROOT
BRANCH   7  10
ATOM     10  O   UNL     1      69.030   0.866   0.416  1.00  0.00    -0.507 OA
ATOM     11  H   UNL     1      68.679   0.333   1.200  1.00  0.00     0.293 HD
ENDBRANCH   7  10
BRANCH   4  12
ATOM     12  O   UNL     1      74.524   1.594  -0.439  1.00  0.00    -0.508 OA
ATOM     13  H   UNL     1      75.031   1.249  -1.243  1.00  0.00     0.293 HD
ENDBRANCH   4  12
TORSDOF 2
ENDMDL
MODEL 4
REMARK VINA RESULT:    -5.216      0.934      3.126
REMARK INTER + INTRA:          -5.521
REMARK INTER:                  -5.521
REMARK INTRA:                   0.000
REMARK UNBOUND:                 0.000
REMARK SMILES Cc1cc(O)c(C)c(C)c1O
REMARK SMILES IDX 1 1 2 2 3 3 4 4 6 5 8 6 10 7 9 8 7 9 11 10 5 12
REMARK H PARENT 11 11 5 13
REMARK Flexibility Score: inf
ROOT
ATOM      1  C   UNL     1      83.650   0.888   0.593  1.00  0.00     0.048 C 
ATOM      2  C   UNL     1      82.222   1.319   0.396  1.00  0.00    -0.005 A 
ATOM      3  C   UNL     1      81.902   2.679   0.364  1.00  0.00     0.053 A 
ATOM      4  C   UNL     1      80.581   3.102   0.219  1.00  0.00     0.119 A 
ATOM      5  C   UNL     1      79.539   2.150   0.116  1.00  0.00    -0.003 A 
ATOM      6  C   UNL     1      79.869   0.768   0.021  1.00  0.00    -0.002 A 
ATOM      7  C   UNL     1      81.210   0.359   0.236  1.00  0.00     0.121 A 
ATOM      8  C   UNL     1      78.811  -0.267  -0.289  1.00  0.00     0.049 C 
ATOM      9  C   UNL     1      78.100   2.615   0.092  1.00  0.00     0.049 C 
ENDROOT
BRANCH   7  10
ATOM     10  O   UNL     1      81.565  -0.993   0.305  1.00  0.00    -0.507 OA
ATOM     11  H   UNL     1      81.577  -1.614  -0.494  1.00  0.00     0.293 HD
ENDBRANCH   7  10
BRANCH   4  12
ATOM     12  O   UNL     1      80.346   4.478   0.168  1.00  0.00    -0.508 OA
ATOM     13  H   UNL     1      80.214   5.055   0.988  1.00  0.00     0.293 HD
ENDBRANCH   4  12
TORSDOF 2
ENDMDL
MODEL 5
REMARK VINA RESULT:    -5.214      1.362      3.310
REMARK INTER + INTRA:          -5.518
REMARK INTER:                  -5.518
REMARK INTRA:                   0.000
REMARK UNBOUND:                 0.000
REMARK SMILES Cc1cc(O)c(C)c(C)c1O
REMARK SMILES IDX 1 1 2 2 3 3 4 4 6 5 8 6 10 7 9 8 7 9 11 10 5 12
REMARK H PARENT 11 11 5 13
REMARK Flexibility Score: inf
ROOT
ATOM      1  C   UNL     1      76.443   0.871  -0.387  1.00  0.00     0.048 C 
ATOM      2  C   UNL     1      77.942   0.921  -0.267  1.00  0.00    -0.005 A 
ATOM      3  C   UNL     1      78.690  -0.256  -0.370  1.00  0.00     0.053 A 
ATOM      4  C   UNL     1      80.076  -0.241  -0.226  1.00  0.00     0.119 A 
ATOM      5  C   UNL     1      80.748   0.977   0.042  1.00  0.00    -0.003 A 
ATOM      6  C   UNL     1      80.009   2.194   0.021  1.00  0.00    -0.002 A 
ATOM      7  C   UNL     1      78.595   2.146  -0.062  1.00  0.00     0.121 A 
ATOM      8  C   UNL     1      80.711   3.532   0.103  1.00  0.00     0.049 C 
ATOM      9  C   UNL     1      82.233   0.965   0.326  1.00  0.00     0.049 C 
ENDROOT
BRANCH   7  10
ATOM     10  O   UNL     1      77.810   3.298   0.067  1.00  0.00    -0.507 OA
ATOM     11  H   UNL     1      78.100   4.123   0.577  1.00  0.00     0.293 HD
ENDBRANCH   7  10
BRANCH   4  12
ATOM     12  O   UNL     1      80.754  -1.454  -0.370  1.00  0.00    -0.508 OA
ATOM     13  H   UNL     1      80.985  -2.062   0.404  1.00  0.00     0.293 HD
ENDBRANCH   4  12
TORSDOF 2
ENDMDL
MODEL 6
REMARK VINA RESULT:    -5.150      1.733      2.389
REMARK INTER + INTRA:          -5.451
REMARK INTER:                  -5.451
REMARK INTRA:                   0.000
REMARK UNBOUND:                 0.000
REMARK SMILES Cc1cc(O)c(C)c(C)c1O
REMARK SMILES IDX 1 1 2 2 3 3 4 4 6 5 8 6 10 7 9 8 7 9 11 10 5 12
REMARK H PARENT 11 11 5 13
REMARK Flexibility Score: inf
ROOT
ATOM      1  C   UNL     1      85.215   2.148  -0.875  1.00  0.00     0.048 C 
ATOM      2  C   UNL     1      83.748   2.085  -0.549  1.00  0.00    -0.005 A 
ATOM      3  C   UNL     1      83.228   0.972   0.117  1.00  0.00     0.053 A 
ATOM      4  C   UNL     1      81.866   0.875   0.398  1.00  0.00     0.119 A 
ATOM      5  C   UNL     1      80.984   1.906  -0.005  1.00  0.00    -0.003 A 
ATOM      6  C   UNL     1      81.522   3.097  -0.569  1.00  0.00    -0.002 A 
ATOM      7  C   UNL     1      82.899   3.146  -0.904  1.00  0.00     0.121 A 
ATOM      8  C   UNL     1      80.644   4.301  -0.831  1.00  0.00     0.049 C 
ATOM      9  C   UNL     1      79.494   1.732   0.186  1.00  0.00     0.049 C 
ENDROOT
BRANCH   7  10
ATOM     10  O   UNL     1      83.450   4.229  -1.598  1.00  0.00    -0.507 OA
ATOM     11  H   UNL     1      82.989   4.699  -2.366  1.00  0.00     0.293 HD
ENDBRANCH   7  10
BRANCH   4  12
ATOM     12  O   UNL     1      81.429  -0.256   1.093  1.00  0.00    -0.508 OA
ATOM     13  H   UNL     1      81.825  -1.179   0.966  1.00  0.00     0.293 HD
ENDBRANCH   4  12
TORSDOF 2
ENDMDL
MODEL 7
REMARK VINA RESULT:    -5.006      7.133      9.240
REMARK INTER + INTRA:          -5.299
REMARK INTER:                  -5.299
REMARK INTRA:                   0.000
REMARK UNBOUND:                 0.000
REMARK SMILES Cc1cc(O)c(C)c(C)c1O
REMARK SMILES IDX 1 1 2 2 3 3 4 4 6 5 8 6 10 7 9 8 7 9 11 10 5 12
REMARK H PARENT 11 11 5 13
REMARK Flexibility Score: inf
ROOT
ATOM      1  C   UNL     1      70.489   2.271  -3.034  1.00  0.00     0.048 C 
ATOM      2  C   UNL     1      71.043   1.784  -1.722  1.00  0.00    -0.005 A 
ATOM      3  C   UNL     1      70.182   1.276  -0.747  1.00  0.00     0.053 A 
ATOM      4  C   UNL     1      70.667   0.853   0.490  1.00  0.00     0.119 A 
ATOM      5  C   UNL     1      72.050   0.947   0.779  1.00  0.00    -0.003 A 
ATOM      6  C   UNL     1      72.947   1.344  -0.253  1.00  0.00    -0.002 A 
ATOM      7  C   UNL     1      72.425   1.830  -1.478  1.00  0.00     0.121 A 
ATOM      8  C   UNL     1      74.445   1.269  -0.054  1.00  0.00     0.049 C 
ATOM      9  C   UNL     1      72.549   0.611   2.165  1.00  0.00     0.049 C 
ENDROOT
BRANCH   7  10
ATOM     10  O   UNL     1      73.252   2.375  -2.467  1.00  0.00    -0.507 OA
ATOM     11  H   UNL     1      74.233   2.584  -2.329  1.00  0.00     0.293 HD
ENDBRANCH   7  10
BRANCH   4  12
ATOM     12  O   UNL     1      69.746   0.330   1.401  1.00  0.00    -0.508 OA
ATOM     13  H   UNL     1      68.775   0.156   1.178  1.00  0.00     0.293 HD
ENDBRANCH   4  12
TORSDOF 2
ENDMDL
MODEL 8
REMARK VINA RESULT:    -5.000      8.916      9.415
REMARK INTER + INTRA:          -5.292
REMARK INTER:                  -5.292
REMARK INTRA:                   0.000
REMARK UNBOUND:                 0.000
REMARK SMILES Cc1cc(O)c(C)c(C)c1O
REMARK SMILES IDX 1 1 2 2 3 3 4 4 6 5 8 6 10 7 9 8 7 9 11 10 5 12
REMARK H PARENT 11 11 5 13
REMARK Flexibility Score: inf
ROOT
ATOM      1  C   UNL     1      86.133   3.000   7.439  1.00  0.00     0.048 C 
ATOM      2  C   UNL     1      84.724   3.464   7.686  1.00  0.00    -0.005 A 
ATOM      3  C   UNL     1      84.274   4.662   7.123  1.00  0.00     0.053 A 
ATOM      4  C   UNL     1      82.984   5.131   7.368  1.00  0.00     0.119 A 
ATOM      5  C   UNL     1      82.112   4.399   8.209  1.00  0.00    -0.003 A 
ATOM      6  C   UNL     1      82.517   3.119   8.682  1.00  0.00    -0.002 A 
ATOM      7  C   UNL     1      83.854   2.694   8.475  1.00  0.00     0.121 A 
ATOM      8  C   UNL     1      81.549   2.217   9.415  1.00  0.00     0.049 C 
ATOM      9  C   UNL     1      80.764   4.979   8.575  1.00  0.00     0.049 C 
ENDROOT
BRANCH   7  10
ATOM     10  O   UNL     1      84.350   1.517   9.047  1.00  0.00    -0.507 OA
ATOM     11  H   UNL     1      83.901   0.615   8.957  1.00  0.00     0.293 HD
ENDBRANCH   7  10
BRANCH   4  12
ATOM     12  O   UNL     1      82.601   6.322   6.746  1.00  0.00    -0.508 OA
ATOM     13  H   UNL     1      82.345   7.160   7.250  1.00  0.00     0.293 HD
ENDBRANCH   4  12
TORSDOF 2
ENDMDL
MODEL 9
REMARK VINA RESULT:    -4.945      7.276      9.314
REMARK INTER + INTRA:          -5.234
REMARK INTER:                  -5.234
REMARK INTRA:                   0.000
REMARK UNBOUND:                 0.000
REMARK SMILES Cc1cc(O)c(C)c(C)c1O
REMARK SMILES IDX 1 1 2 2 3 3 4 4 6 5 8 6 10 7 9 8 7 9 11 10 5 12
REMARK H PARENT 11 11 5 13
REMARK Flexibility Score: inf
ROOT
ATOM      1  C   UNL     1      70.907   2.167  -2.671  1.00  0.00     0.048 C 
ATOM      2  C   UNL     1      71.381   1.661  -1.336  1.00  0.00    -0.005 A 
ATOM      3  C   UNL     1      72.749   1.611  -1.055  1.00  0.00     0.053 A 
ATOM      4  C   UNL     1      73.215   1.112   0.161  1.00  0.00     0.119 A 
ATOM      5  C   UNL     1      72.298   0.632   1.127  1.00  0.00    -0.003 A 
ATOM      6  C   UNL     1      70.902   0.797   0.900  1.00  0.00    -0.002 A 
ATOM      7  C   UNL     1      70.454   1.246  -0.367  1.00  0.00     0.121 A 
ATOM      8  C   UNL     1      69.894   0.484   1.984  1.00  0.00     0.049 C 
ATOM      9  C   UNL     1      72.815  -0.027   2.386  1.00  0.00     0.049 C 
ENDROOT
BRANCH   7  10
ATOM     10  O   UNL     1      69.094   1.281  -0.698  1.00  0.00    -0.507 OA
ATOM     11  H   UNL     1      68.647   0.615  -1.315  1.00  0.00     0.293 HD
ENDBRANCH   7  10
BRANCH   4  12
ATOM     12  O   UNL     1      74.595   1.122   0.377  1.00  0.00    -0.508 OA
ATOM     13  H   UNL     1      75.195   1.897   0.127  1.00  0.00     0.293 HD
ENDBRANCH   4  12
TORSDOF 2
ENDMDL
