MODEL 1
REMARK VINA RESULT:    -4.840      0.000      0.000
REMARK INTER + INTRA:          -7.750
REMARK INTER:                  -6.538
REMARK INTRA:                  -1.212
REMARK UNBOUND:                -1.212
REMARK SMILES CC(=O)CCC=C(C)CCC=C(C)C
REMARK SMILES IDX 7 1 6 2 8 3 9 4 10 5 11 6 13 7 12 8 14 9 5 10 4 11 2 12 3 13
REMARK SMILES IDX 1 14
REMARK H PARENT
REMARK Flexibility Score: inf
ROOT
ATOM      1  C   UNL     1      51.424  32.179  31.390  1.00  0.00    -0.077 C 
ATOM      2  C   UNL     1      51.091  32.767  32.560  1.00  0.00    -0.028 C 
ATOM      3  C   UNL     1      51.019  32.778  30.064  1.00  0.00     0.039 C 
ENDROOT
BRANCH   1   4
ATOM      4  C   UNL     1      52.194  30.875  31.406  1.00  0.00     0.034 C 
BRANCH   4   5
ATOM      5  C   UNL     1      53.347  30.906  32.421  1.00  0.00     0.032 C 
BRANCH   5   6
ATOM      6  C   UNL     1      54.685  31.122  31.757  1.00  0.00    -0.028 C 
ATOM      7  C   UNL     1      56.735  32.323  31.132  1.00  0.00     0.039 C 
ATOM      8  C   UNL     1      55.369  32.289  31.766  1.00  0.00    -0.080 C 
ATOM      9  C   UNL     1      54.801  33.547  32.379  1.00  0.00     0.039 C 
ENDBRANCH   5   6
ENDBRANCH   4   5
ENDBRANCH   1   4
BRANCH   2  10
ATOM     10  C   UNL     1      50.290  34.045  32.648  1.00  0.00     0.035 C 
BRANCH  10  11
ATOM     11  C   UNL     1      51.182  35.262  32.918  1.00  0.00     0.079 C 
BRANCH  11  12
ATOM     12  C   UNL     1      51.345  36.120  31.688  1.00  0.00     0.130 C 
ATOM     13  O   UNL     1      50.463  36.908  31.383  1.00  0.00    -0.300 OA
ATOM     14  C   UNL     1      52.576  36.035  30.835  1.00  0.00     0.087 C 
ENDBRANCH  11  12
ENDBRANCH  10  11
ENDBRANCH   2  10
TORSDOF 6
ENDMDL
MODEL 2
REMARK VINA RESULT:    -4.808      1.110      1.726
REMARK INTER + INTRA:          -7.706
REMARK INTER:                  -6.437
REMARK INTRA:                  -1.270
REMARK UNBOUND:                -1.212
REMARK SMILES CC(=O)CCC=C(C)CCC=C(C)C
REMARK SMILES IDX 7 1 6 2 8 3 9 4 10 5 11 6 13 7 12 8 14 9 5 10 4 11 2 12 3 13
REMARK SMILES IDX 1 14
REMARK H PARENT
REMARK Flexibility Score: inf
ROOT
ATOM      1  C   UNL     1      51.473  32.378  31.520  1.00  0.00    -0.077 C 
ATOM      2  C   UNL     1      51.747  33.241  30.516  1.00  0.00    -0.028 C 
ATOM      3  C   UNL     1      50.653  32.797  32.716  1.00  0.00     0.039 C 
ENDROOT
BRANCH   1   4
ATOM      4  C   UNL     1      52.026  30.970  31.459  1.00  0.00     0.034 C 
BRANCH   4   5
ATOM      5  C   UNL     1      53.230  30.789  32.397  1.00  0.00     0.032 C 
BRANCH   5   6
ATOM      6  C   UNL     1      54.539  31.087  31.708  1.00  0.00    -0.028 C 
ATOM      7  C   UNL     1      56.596  32.329  31.194  1.00  0.00     0.039 C 
ATOM      8  C   UNL     1      55.264  32.215  31.888  1.00  0.00    -0.080 C 
ATOM      9  C   UNL     1      54.773  33.355  32.748  1.00  0.00     0.039 C 
ENDBRANCH   5   6
ENDBRANCH   4   5
ENDBRANCH   1   4
BRANCH   2  10
ATOM     10  C   UNL     1      51.276  34.676  30.505  1.00  0.00     0.035 C 
BRANCH  10  11
ATOM     11  C   UNL     1      52.402  35.650  30.873  1.00  0.00     0.079 C 
BRANCH  11  12
ATOM     12  C   UNL     1      52.173  36.288  32.220  1.00  0.00     0.130 C 
ATOM     13  O   UNL     1      53.132  36.649  32.886  1.00  0.00    -0.300 OA
ATOM     14  C   UNL     1      50.789  36.499  32.758  1.00  0.00     0.087 C 
ENDBRANCH  11  12
ENDBRANCH  10  11
ENDBRANCH   2  10
TORSDOF 6
ENDMDL
MODEL 3
REMARK VINA RESULT:    -4.712      2.483      4.761
REMARK INTER + INTRA:          -7.578
REMARK INTER:                  -6.695
REMARK INTRA:                  -0.883
REMARK UNBOUND:                -1.212
REMARK SMILES CC(=O)CCC=C(C)CCC=C(C)C
REMARK SMILES IDX 7 1 6 2 8 3 9 4 10 5 11 6 13 7 12 8 14 9 5 10 4 11 2 12 3 13
REMARK SMILES IDX 1 14
REMARK H PARENT
REMARK Flexibility Score: inf
ROOT
ATOM      1  C   UNL     1      55.936  32.158  31.864  1.00  0.00    -0.077 C 
ATOM      2  C   UNL     1      55.055  31.150  31.683  1.00  0.00    -0.028 C 
ATOM      3  C   UNL     1      55.897  33.026  33.098  1.00  0.00     0.039 C 
ENDROOT
BRANCH   1   4
ATOM      4  C   UNL     1      56.967  32.444  30.792  1.00  0.00     0.034 C 
BRANCH   4   5
ATOM      5  C   UNL     1      58.366  32.662  31.390  1.00  0.00     0.032 C 
BRANCH   5   6
ATOM      6  C   UNL     1      59.248  31.447  31.232  1.00  0.00    -0.028 C 
ATOM      7  C   UNL     1      60.548  29.485  31.939  1.00  0.00     0.039 C 
ATOM      8  C   UNL     1      59.753  30.725  32.258  1.00  0.00    -0.080 C 
ATOM      9  C   UNL     1      59.554  31.131  33.699  1.00  0.00     0.039 C 
ENDBRANCH   5   6
ENDBRANCH   4   5
ENDBRANCH   1   4
BRANCH   2  10
ATOM     10  C   UNL     1      53.965  30.813  32.673  1.00  0.00     0.035 C 
BRANCH  10  11
ATOM     11  C   UNL     1      52.573  30.867  32.033  1.00  0.00     0.079 C 
BRANCH  11  12
ATOM     12  C   UNL     1      52.106  32.287  31.828  1.00  0.00     0.130 C 
ATOM     13  O   UNL     1      52.260  33.106  32.721  1.00  0.00    -0.300 OA
ATOM     14  C   UNL     1      51.464  32.719  30.543  1.00  0.00     0.087 C 
ENDBRANCH  11  12
ENDBRANCH  10  11
ENDBRANCH   2  10
TORSDOF 6
ENDMDL
MODEL 4
REMARK VINA RESULT:    -4.657      1.479      3.328
REMARK INTER + INTRA:          -7.502
REMARK INTER:                  -6.306
REMARK INTRA:                  -1.196
REMARK UNBOUND:                -1.212
REMARK SMILES CC(=O)CCC=C(C)CCC=C(C)C
REMARK SMILES IDX 7 1 6 2 8 3 9 4 10 5 11 6 13 7 12 8 14 9 5 10 4 11 2 12 3 13
REMARK SMILES IDX 1 14
REMARK H PARENT
REMARK Flexibility Score: inf
ROOT
ATOM      1  C   UNL     1      54.022  30.875  31.902  1.00  0.00    -0.077 C 
ATOM      2  C   UNL     1      53.102  31.360  31.039  1.00  0.00    -0.028 C 
ATOM      3  C   UNL     1      53.614  30.115  33.141  1.00  0.00     0.039 C 
ENDROOT
BRANCH   1   4
ATOM      4  C   UNL     1      55.492  31.124  31.639  1.00  0.00     0.034 C 
BRANCH   4   5
ATOM      5  C   UNL     1      55.775  32.605  31.342  1.00  0.00     0.032 C 
BRANCH   5   6
ATOM      6  C   UNL     1      55.844  33.436  32.600  1.00  0.00    -0.028 C 
ATOM      7  C   UNL     1      55.111  35.085  34.268  1.00  0.00     0.039 C 
ATOM      8  C   UNL     1      54.957  34.401  32.934  1.00  0.00    -0.080 C 
ATOM      9  C   UNL     1      53.836  34.815  32.011  1.00  0.00     0.039 C 
ENDBRANCH   5   6
ENDBRANCH   4   5
ENDBRANCH   1   4
BRANCH   2  10
ATOM     10  C   UNL     1      51.613  31.200  31.236  1.00  0.00     0.035 C 
BRANCH  10  11
ATOM     11  C   UNL     1      50.820  32.303  30.527  1.00  0.00     0.079 C 
BRANCH  11  12
ATOM     12  C   UNL     1      50.431  33.410  31.474  1.00  0.00     0.130 C 
ATOM     13  O   UNL     1      50.045  34.479  31.025  1.00  0.00    -0.300 OA
ATOM     14  C   UNL     1      50.495  33.223  32.961  1.00  0.00     0.087 C 
ENDBRANCH  11  12
ENDBRANCH  10  11
ENDBRANCH   2  10
TORSDOF 6
ENDMDL
MODEL 5
REMARK VINA RESULT:    -4.639      2.746      5.350
REMARK INTER + INTRA:          -7.478
REMARK INTER:                  -6.608
REMARK INTRA:                  -0.870
REMARK UNBOUND:                -1.212
REMARK SMILES CC(=O)CCC=C(C)CCC=C(C)C
REMARK SMILES IDX 7 1 6 2 8 3 9 4 10 5 11 6 13 7 12 8 14 9 5 10 4 11 2 12 3 13
REMARK SMILES IDX 1 14
REMARK H PARENT
REMARK Flexibility Score: inf
ROOT
ATOM      1  C   UNL     1      53.121  31.423  31.696  1.00  0.00    -0.077 C 
ATOM      2  C   UNL     1      53.844  32.562  31.615  1.00  0.00    -0.028 C 
ATOM      3  C   UNL     1      53.392  30.392  32.765  1.00  0.00     0.039 C 
ENDROOT
BRANCH   1   4
ATOM      4  C   UNL     1      52.035  31.159  30.673  1.00  0.00     0.034 C 
BRANCH   4   5
ATOM      5  C   UNL     1      50.632  31.287  31.286  1.00  0.00     0.032 C 
BRANCH   5   6
ATOM      6  C   UNL     1      49.961  32.586  30.908  1.00  0.00    -0.028 C 
ATOM      7  C   UNL     1      49.328  34.951  31.113  1.00  0.00     0.039 C 
ATOM      8  C   UNL     1      49.969  33.705  31.667  1.00  0.00    -0.080 C 
ATOM      9  C   UNL     1      50.586  33.735  33.044  1.00  0.00     0.039 C 
ENDBRANCH   5   6
ENDBRANCH   4   5
ENDBRANCH   1   4
BRANCH   2  10
ATOM     10  C   UNL     1      54.973  32.896  32.561  1.00  0.00     0.035 C 
BRANCH  10  11
ATOM     11  C   UNL     1      56.223  33.376  31.813  1.00  0.00     0.079 C 
BRANCH  11  12
ATOM     12  C   UNL     1      57.153  32.234  31.487  1.00  0.00     0.130 C 
ATOM     13  O   UNL     1      56.845  31.097  31.808  1.00  0.00    -0.300 OA
ATOM     14  C   UNL     1      58.447  32.465  30.764  1.00  0.00     0.087 C 
ENDBRANCH  11  12
ENDBRANCH  10  11
ENDBRANCH   2  10
TORSDOF 6
ENDMDL
MODEL 6
REMARK VINA RESULT:    -4.583      1.485      1.779
REMARK INTER + INTRA:          -7.403
REMARK INTER:                  -6.555
REMARK INTRA:                  -0.848
REMARK UNBOUND:                -1.212
REMARK SMILES CC(=O)CCC=C(C)CCC=C(C)C
REMARK SMILES IDX 7 1 6 2 8 3 9 4 10 5 11 6 13 7 12 8 14 9 5 10 4 11 2 12 3 13
REMARK SMILES IDX 1 14
REMARK H PARENT
REMARK Flexibility Score: inf
ROOT
ATOM      1  C   UNL     1      52.280  32.461  31.730  1.00  0.00    -0.077 C 
ATOM      2  C   UNL     1      51.106  32.370  32.392  1.00  0.00    -0.028 C 
ATOM      3  C   UNL     1      52.863  33.798  31.341  1.00  0.00     0.039 C 
ENDROOT
BRANCH   1   4
ATOM      4  C   UNL     1      53.014  31.194  31.343  1.00  0.00     0.034 C 
BRANCH   4   5
ATOM      5  C   UNL     1      54.195  30.909  32.284  1.00  0.00     0.032 C 
BRANCH   5   6
ATOM      6  C   UNL     1      55.527  31.170  31.623  1.00  0.00    -0.028 C 
ATOM      7  C   UNL     1      57.731  32.208  31.302  1.00  0.00     0.039 C 
ATOM      8  C   UNL     1      56.402  32.127  32.007  1.00  0.00    -0.080 C 
ATOM      9  C   UNL     1      56.081  33.112  33.106  1.00  0.00     0.039 C 
ENDBRANCH   5   6
ENDBRANCH   4   5
ENDBRANCH   1   4
BRANCH   2  10
ATOM     10  C   UNL     1      50.280  33.572  32.785  1.00  0.00     0.035 C 
BRANCH  10  11
ATOM     11  C   UNL     1      49.157  33.849  31.778  1.00  0.00     0.079 C 
BRANCH  11  12
ATOM     12  C   UNL     1      49.051  35.316  31.446  1.00  0.00     0.130 C 
ATOM     13  O   UNL     1      48.361  35.672  30.503  1.00  0.00    -0.300 OA
ATOM     14  C   UNL     1      49.769  36.353  32.258  1.00  0.00     0.087 C 
ENDBRANCH  11  12
ENDBRANCH  10  11
ENDBRANCH   2  10
TORSDOF 6
ENDMDL
MODEL 7
REMARK VINA RESULT:    -4.578      3.229      5.985
REMARK INTER + INTRA:          -7.396
REMARK INTER:                  -6.484
REMARK INTRA:                  -0.912
REMARK UNBOUND:                -1.212
REMARK SMILES CC(=O)CCC=C(C)CCC=C(C)C
REMARK SMILES IDX 7 1 6 2 8 3 9 4 10 5 11 6 13 7 12 8 14 9 5 10 4 11 2 12 3 13
REMARK SMILES IDX 1 14
REMARK H PARENT
REMARK Flexibility Score: inf
ROOT
ATOM      1  C   UNL     1      54.387  31.771  32.202  1.00  0.00    -0.077 C 
ATOM      2  C   UNL     1      55.460  31.376  31.481  1.00  0.00    -0.028 C 
ATOM      3  C   UNL     1      54.337  33.130  32.857  1.00  0.00     0.039 C 
ENDROOT
BRANCH   1   4
ATOM      4  C   UNL     1      53.223  30.820  32.383  1.00  0.00     0.034 C 
BRANCH   4   5
ATOM      5  C   UNL     1      52.219  30.920  31.224  1.00  0.00     0.032 C 
BRANCH   5   6
ATOM      6  C   UNL     1      50.962  31.656  31.621  1.00  0.00    -0.028 C 
ATOM      7  C   UNL     1      49.322  33.485  31.648  1.00  0.00     0.039 C 
ATOM      8  C   UNL     1      50.657  32.917  31.242  1.00  0.00    -0.080 C 
ATOM      9  C   UNL     1      51.614  33.768  30.441  1.00  0.00     0.039 C 
ENDBRANCH   5   6
ENDBRANCH   4   5
ENDBRANCH   1   4
BRANCH   2  10
ATOM     10  C   UNL     1      56.685  32.235  31.278  1.00  0.00     0.035 C 
BRANCH  10  11
ATOM     11  C   UNL     1      57.971  31.501  31.678  1.00  0.00     0.079 C 
BRANCH  11  12
ATOM     12  C   UNL     1      58.575  32.075  32.935  1.00  0.00     0.130 C 
ATOM     13  O   UNL     1      59.654  31.659  33.329  1.00  0.00    -0.300 OA
ATOM     14  C   UNL     1      57.884  33.159  33.708  1.00  0.00     0.087 C 
ENDBRANCH  11  12
ENDBRANCH  10  11
ENDBRANCH   2  10
TORSDOF 6
ENDMDL
MODEL 8
REMARK VINA RESULT:    -4.511      3.041      6.310
REMARK INTER + INTRA:          -7.306
REMARK INTER:                  -6.648
REMARK INTRA:                  -0.659
REMARK UNBOUND:                -1.212
REMARK SMILES CC(=O)CCC=C(C)CCC=C(C)C
REMARK SMILES IDX 7 1 6 2 8 3 9 4 10 5 11 6 13 7 12 8 14 9 5 10 4 11 2 12 3 13
REMARK SMILES IDX 1 14
REMARK H PARENT
REMARK Flexibility Score: inf
ROOT
ATOM      1  C   UNL     1      50.702  33.010  31.441  1.00  0.00    -0.077 C 
ATOM      2  C   UNL     1      50.970  31.727  31.771  1.00  0.00    -0.028 C 
ATOM      3  C   UNL     1      51.605  33.789  30.515  1.00  0.00     0.039 C 
ENDROOT
BRANCH   1   4
ATOM      4  C   UNL     1      49.488  33.691  32.035  1.00  0.00     0.034 C 
BRANCH   4   5
ATOM      5  C   UNL     1      48.601  34.324  30.951  1.00  0.00     0.032 C 
BRANCH   5   6
ATOM      6  C   UNL     1      47.332  33.539  30.723  1.00  0.00    -0.028 C 
ATOM      7  C   UNL     1      44.933  33.026  30.850  1.00  0.00     0.039 C 
ATOM      8  C   UNL     1      46.125  33.860  31.240  1.00  0.00    -0.080 C 
ATOM      9  C   UNL     1      45.944  35.014  32.197  1.00  0.00     0.039 C 
ENDBRANCH   5   6
ENDBRANCH   4   5
ENDBRANCH   1   4
BRANCH   2  10
ATOM     10  C   UNL     1      52.178  30.975  31.264  1.00  0.00     0.035 C 
BRANCH  10  11
ATOM     11  C   UNL     1      53.213  30.740  32.371  1.00  0.00     0.079 C 
BRANCH  11  12
ATOM     12  C   UNL     1      54.321  31.762  32.328  1.00  0.00     0.130 C 
ATOM     13  O   UNL     1      54.161  32.846  32.867  1.00  0.00    -0.300 OA
ATOM     14  C   UNL     1      55.624  31.470  31.645  1.00  0.00     0.087 C 
ENDBRANCH  11  12
ENDBRANCH  10  11
ENDBRANCH   2  10
TORSDOF 6
ENDMDL
MODEL 9
REMARK VINA RESULT:    -4.482      2.244      5.095
REMARK INTER + INTRA:          -7.266
REMARK INTER:                  -6.548
REMARK INTRA:                  -0.718
REMARK UNBOUND:                -1.212
REMARK SMILES CC(=O)CCC=C(C)CCC=C(C)C
REMARK SMILES IDX 7 1 6 2 8 3 9 4 10 5 11 6 13 7 12 8 14 9 5 10 4 11 2 12 3 13
REMARK SMILES IDX 1 14
REMARK H PARENT
REMARK Flexibility Score: inf
ROOT
ATOM      1  C   UNL     1      51.779  31.597  31.507  1.00  0.00    -0.077 C 
ATOM      2  C   UNL     1      52.834  31.767  32.334  1.00  0.00    -0.028 C 
ATOM      3  C   UNL     1      51.766  30.510  30.460  1.00  0.00     0.039 C 
ENDROOT
BRANCH   1   4
ATOM      4  C   UNL     1      50.595  32.536  31.612  1.00  0.00     0.034 C 
BRANCH   4   5
ATOM      5  C   UNL     1      50.594  33.307  32.941  1.00  0.00     0.032 C 
BRANCH   5   6
ATOM      6  C   UNL     1      50.217  34.757  32.757  1.00  0.00    -0.028 C 
ATOM      7  C   UNL     1      50.573  37.161  32.391  1.00  0.00     0.039 C 
ATOM      8  C   UNL     1      51.102  35.775  32.660  1.00  0.00    -0.080 C 
ATOM      9  C   UNL     1      52.589  35.565  32.822  1.00  0.00     0.039 C 
ENDBRANCH   5   6
ENDBRANCH   4   5
ENDBRANCH   1   4
BRANCH   2  10
ATOM     10  C   UNL     1      54.077  30.910  32.280  1.00  0.00     0.035 C 
BRANCH  10  11
ATOM     11  C   UNL     1      55.140  31.503  31.347  1.00  0.00     0.079 C 
BRANCH  11  12
ATOM     12  C   UNL     1      56.322  32.039  32.115  1.00  0.00     0.130 C 
ATOM     13  O   UNL     1      56.134  32.779  33.069  1.00  0.00    -0.300 OA
ATOM     14  C   UNL     1      57.727  31.674  31.740  1.00  0.00     0.087 C 
ENDBRANCH  11  12
ENDBRANCH  10  11
ENDBRANCH   2  10
TORSDOF 6
ENDMDL
