MODEL 1
REMARK VINA RESULT:    -4.437      0.000      0.000
REMARK INTER + INTRA:          -5.177
REMARK INTER:                  -5.085
REMARK INTRA:                  -0.092
REMARK UNBOUND:                -0.092
REMARK SMILES COc1cc(C(=O)[O-])ccc1O
REMARK SMILES IDX 5 1 9 2 4 3 10 4 3 5 11 6 6 7 7 8 8 9 2 10 1 11 12 12
REMARK H PARENT 12 13
REMARK Flexibility Score: inf
ROOT
ATOM      1  C   UNL     1      12.614  -4.530   6.234  1.00  0.00     0.001 A 
ATOM      2  C   UNL     1      11.335  -4.814   6.742  1.00  0.00     0.014 A 
ATOM      3  C   UNL     1      12.840  -3.293   5.606  1.00  0.00     0.060 A 
ATOM      4  C   UNL     1      10.304  -3.880   6.624  1.00  0.00     0.051 A 
ATOM      5  C   UNL     1      11.802  -2.346   5.485  1.00  0.00     0.161 A 
ATOM      6  C   UNL     1      10.534  -2.649   5.998  1.00  0.00     0.157 A 
ENDROOT
BRANCH   1   7
ATOM      7  C   UNL     1      13.708  -5.518   6.358  1.00  0.00     0.072 C 
ATOM      8  O   UNL     1      13.905  -6.125   7.445  1.00  0.00    -0.545 OA
ATOM      9  O   UNL     1      14.537  -5.791   5.275  1.00  0.00    -0.545 OA
ENDBRANCH   1   7
BRANCH   5  10
ATOM     10  O   UNL     1      11.991  -1.102   4.864  1.00  0.00    -0.493 OA
ATOM     11  C   UNL     1      12.978  -0.149   5.249  1.00  0.00     0.278 C 
ENDBRANCH   5  10
BRANCH   6  12
ATOM     12  O   UNL     1       9.503  -1.718   5.881  1.00  0.00    -0.504 OA
ATOM     13  H   UNL     1       9.010  -1.366   6.693  1.00  0.00     0.293 HD
ENDBRANCH   6  12
TORSDOF 3
ENDMDL
MODEL 2
REMARK VINA RESULT:    -4.421      1.249      1.438
REMARK INTER + INTRA:          -5.159
REMARK INTER:                  -5.062
REMARK INTRA:                  -0.097
REMARK UNBOUND:                -0.092
REMARK SMILES COc1cc(C(=O)[O-])ccc1O
REMARK SMILES IDX 5 1 9 2 4 3 10 4 3 5 11 6 6 7 7 8 8 9 2 10 1 11 12 12
REMARK H PARENT 12 13
REMARK Flexibility Score: inf
ROOT
ATOM      1  C   UNL     1      11.735  -4.042   6.383  1.00  0.00     0.001 A 
ATOM      2  C   UNL     1      10.354  -3.781   6.378  1.00  0.00     0.014 A 
ATOM      3  C   UNL     1      12.626  -3.021   6.007  1.00  0.00     0.060 A 
ATOM      4  C   UNL     1       9.875  -2.524   6.003  1.00  0.00     0.051 A 
ATOM      5  C   UNL     1      12.145  -1.750   5.628  1.00  0.00     0.161 A 
ATOM      6  C   UNL     1      10.764  -1.510   5.630  1.00  0.00     0.157 A 
ENDROOT
BRANCH   1   7
ATOM      7  C   UNL     1      12.247  -5.373   6.780  1.00  0.00     0.072 C 
ATOM      8  O   UNL     1      11.566  -6.125   7.527  1.00  0.00    -0.545 OA
ATOM      9  O   UNL     1      13.489  -5.812   6.333  1.00  0.00    -0.545 OA
ENDBRANCH   1   7
BRANCH   5  10
ATOM     10  O   UNL     1      13.004  -0.708   5.246  1.00  0.00    -0.493 OA
ATOM     11  C   UNL     1      13.886  -0.757   4.128  1.00  0.00     0.278 C 
ENDBRANCH   5  10
BRANCH   6  12
ATOM     12  O   UNL     1      10.283  -0.256   5.255  1.00  0.00    -0.504 OA
ATOM     13  H   UNL     1      10.053   0.451   5.943  1.00  0.00     0.293 HD
ENDBRANCH   6  12
TORSDOF 3
ENDMDL
MODEL 3
REMARK VINA RESULT:    -4.359      1.662      3.183
REMARK INTER + INTRA:          -5.088
REMARK INTER:                  -5.010
REMARK INTRA:                  -0.078
REMARK UNBOUND:                -0.092
REMARK SMILES COc1cc(C(=O)[O-])ccc1O
REMARK SMILES IDX 5 1 9 2 4 3 10 4 3 5 11 6 6 7 7 8 8 9 2 10 1 11 12 12
REMARK H PARENT 12 13
REMARK Flexibility Score: inf
ROOT
ATOM      1  C   UNL     1      13.623  -3.105   4.338  1.00  0.00     0.001 A 
ATOM      2  C   UNL     1      13.815  -1.738   4.077  1.00  0.00     0.014 A 
ATOM      3  C   UNL     1      12.444  -3.519   4.983  1.00  0.00     0.060 A 
ATOM      4  C   UNL     1      12.846  -0.804   4.452  1.00  0.00     0.051 A 
ATOM      5  C   UNL     1      11.464  -2.580   5.363  1.00  0.00     0.161 A 
ATOM      6  C   UNL     1      11.673  -1.221   5.092  1.00  0.00     0.157 A 
ENDROOT
BRANCH   1   7
ATOM      7  C   UNL     1      14.648  -4.097   3.943  1.00  0.00     0.072 C 
ATOM      8  O   UNL     1      15.125  -4.899   4.790  1.00  0.00    -0.545 OA
ATOM      9  O   UNL     1      15.100  -4.157   2.629  1.00  0.00    -0.545 OA
ENDBRANCH   1   7
BRANCH   5  10
ATOM     10  O   UNL     1      10.275  -2.957   6.008  1.00  0.00    -0.493 OA
ATOM     11  C   UNL     1      10.114  -4.149   6.770  1.00  0.00     0.278 C 
ENDBRANCH   5  10
BRANCH   6  12
ATOM     12  O   UNL     1      10.708  -0.287   5.467  1.00  0.00    -0.504 OA
ATOM     13  H   UNL     1      10.400  -0.199   6.428  1.00  0.00     0.293 HD
ENDBRANCH   6  12
TORSDOF 3
ENDMDL
MODEL 4
REMARK VINA RESULT:    -4.203      1.827      3.250
REMARK INTER + INTRA:          -4.909
REMARK INTER:                  -4.809
REMARK INTRA:                  -0.100
REMARK UNBOUND:                -0.092
REMARK SMILES COc1cc(C(=O)[O-])ccc1O
REMARK SMILES IDX 5 1 9 2 4 3 10 4 3 5 11 6 6 7 7 8 8 9 2 10 1 11 12 12
REMARK H PARENT 12 13
REMARK Flexibility Score: inf
ROOT
ATOM      1  C   UNL     1      11.830  -3.809   5.821  1.00  0.00     0.001 A 
ATOM      2  C   UNL     1      12.884  -4.592   5.322  1.00  0.00     0.014 A 
ATOM      3  C   UNL     1      11.761  -2.449   5.469  1.00  0.00     0.060 A 
ATOM      4  C   UNL     1      13.850  -4.026   4.486  1.00  0.00     0.051 A 
ATOM      5  C   UNL     1      12.735  -1.875   4.626  1.00  0.00     0.161 A 
ATOM      6  C   UNL     1      13.777  -2.673   4.137  1.00  0.00     0.157 A 
ENDROOT
BRANCH   1   7
ATOM      7  C   UNL     1      10.805  -4.405   6.707  1.00  0.00     0.072 C 
ATOM      8  O   UNL     1       9.639  -3.929   6.749  1.00  0.00    -0.545 OA
ATOM      9  O   UNL     1      11.115  -5.500   7.507  1.00  0.00    -0.545 OA
ENDBRANCH   1   7
BRANCH   5  10
ATOM     10  O   UNL     1      12.698  -0.522   4.253  1.00  0.00    -0.493 OA
ATOM     11  C   UNL     1      13.169   0.552   5.064  1.00  0.00     0.278 C 
ENDBRANCH   5  10
BRANCH   6  12
ATOM     12  O   UNL     1      14.744  -2.110   3.304  1.00  0.00    -0.504 OA
ATOM     13  H   UNL     1      15.710  -2.021   3.596  1.00  0.00     0.293 HD
ENDBRANCH   6  12
TORSDOF 3
ENDMDL
MODEL 5
REMARK VINA RESULT:    -4.103      2.164      5.141
REMARK INTER + INTRA:          -4.795
REMARK INTER:                  -4.717
REMARK INTRA:                  -0.078
REMARK UNBOUND:                -0.092
REMARK SMILES COc1cc(C(=O)[O-])ccc1O
REMARK SMILES IDX 5 1 9 2 4 3 10 4 3 5 11 6 6 7 7 8 8 9 2 10 1 11 12 12
REMARK H PARENT 12 13
REMARK Flexibility Score: inf
ROOT
ATOM      1  C   UNL     1      13.555  -0.474   4.399  1.00  0.00     0.001 A 
ATOM      2  C   UNL     1      14.599  -1.189   3.788  1.00  0.00     0.014 A 
ATOM      3  C   UNL     1      12.450  -1.179   4.908  1.00  0.00     0.060 A 
ATOM      4  C   UNL     1      14.538  -2.581   3.687  1.00  0.00     0.051 A 
ATOM      5  C   UNL     1      12.385  -2.584   4.809  1.00  0.00     0.161 A 
ATOM      6  C   UNL     1      13.437  -3.278   4.196  1.00  0.00     0.157 A 
ENDROOT
BRANCH   1   7
ATOM      7  C   UNL     1      13.617   1.001   4.507  1.00  0.00     0.072 C 
ATOM      8  O   UNL     1      13.298   1.579   5.580  1.00  0.00    -0.545 OA
ATOM      9  O   UNL     1      14.027   1.770   3.423  1.00  0.00    -0.545 OA
ENDBRANCH   1   7
BRANCH   5  10
ATOM     10  O   UNL     1      11.298  -3.320   5.305  1.00  0.00    -0.493 OA
ATOM     11  C   UNL     1      10.193  -2.756   6.006  1.00  0.00     0.278 C 
ENDBRANCH   5  10
BRANCH   6  12
ATOM     12  O   UNL     1      13.378  -4.668   4.094  1.00  0.00    -0.504 OA
ATOM     13  H   UNL     1      14.192  -5.217   3.845  1.00  0.00     0.293 HD
ENDBRANCH   6  12
TORSDOF 3
ENDMDL
MODEL 6
REMARK VINA RESULT:    -4.060      1.601      4.031
REMARK INTER + INTRA:          -4.745
REMARK INTER:                  -4.666
REMARK INTRA:                  -0.079
REMARK UNBOUND:                -0.092
REMARK SMILES COc1cc(C(=O)[O-])ccc1O
REMARK SMILES IDX 5 1 9 2 4 3 10 4 3 5 11 6 6 7 7 8 8 9 2 10 1 11 12 12
REMARK H PARENT 12 13
REMARK Flexibility Score: inf
ROOT
ATOM      1  C   UNL     1      12.258  -2.325   5.687  1.00  0.00     0.001 A 
ATOM      2  C   UNL     1      10.862  -2.174   5.728  1.00  0.00     0.014 A 
ATOM      3  C   UNL     1      12.821  -3.569   6.026  1.00  0.00     0.060 A 
ATOM      4  C   UNL     1      10.045  -3.244   6.099  1.00  0.00     0.051 A 
ATOM      5  C   UNL     1      11.999  -4.652   6.402  1.00  0.00     0.161 A 
ATOM      6  C   UNL     1      10.609  -4.480   6.435  1.00  0.00     0.157 A 
ENDROOT
BRANCH   1   7
ATOM      7  C   UNL     1      13.127  -1.193   5.295  1.00  0.00     0.072 C 
ATOM      8  O   UNL     1      12.879  -0.527   4.254  1.00  0.00    -0.545 OA
ATOM      9  O   UNL     1      14.230  -0.850   6.068  1.00  0.00    -0.545 OA
ENDBRANCH   1   7
BRANCH   5  10
ATOM     10  O   UNL     1      12.526  -5.907   6.747  1.00  0.00    -0.493 OA
ATOM     11  C   UNL     1      13.847  -6.122   7.233  1.00  0.00     0.278 C 
ENDBRANCH   5  10
BRANCH   6  12
ATOM     12  O   UNL     1       9.792  -5.547   6.806  1.00  0.00    -0.504 OA
ATOM     13  H   UNL     1       8.850  -5.399   7.149  1.00  0.00     0.293 HD
ENDBRANCH   6  12
TORSDOF 3
ENDMDL
MODEL 7
REMARK VINA RESULT:    -3.907      2.187      2.835
REMARK INTER + INTRA:          -4.570
REMARK INTER:                  -4.533
REMARK INTRA:                  -0.036
REMARK UNBOUND:                -0.092
REMARK SMILES COc1cc(C(=O)[O-])ccc1O
REMARK SMILES IDX 5 1 9 2 4 3 10 4 3 5 11 6 6 7 7 8 8 9 2 10 1 11 12 12
REMARK H PARENT 12 13
REMARK Flexibility Score: inf
ROOT
ATOM      1  C   UNL     1      13.296  -2.856   4.372  1.00  0.00     0.001 A 
ATOM      2  C   UNL     1      12.014  -2.832   4.947  1.00  0.00     0.014 A 
ATOM      3  C   UNL     1      14.025  -1.658   4.278  1.00  0.00     0.060 A 
ATOM      4  C   UNL     1      11.473  -1.634   5.417  1.00  0.00     0.051 A 
ATOM      5  C   UNL     1      13.482  -0.446   4.752  1.00  0.00     0.161 A 
ATOM      6  C   UNL     1      12.203  -0.443   5.322  1.00  0.00     0.157 A 
ENDROOT
BRANCH   1   7
ATOM      7  C   UNL     1      13.872  -4.124   3.873  1.00  0.00     0.072 C 
ATOM      8  O   UNL     1      14.031  -5.105   4.647  1.00  0.00    -0.545 OA
ATOM      9  O   UNL     1      14.247  -4.251   2.540  1.00  0.00    -0.545 OA
ENDBRANCH   1   7
BRANCH   5  10
ATOM     10  O   UNL     1      14.181   0.769   4.673  1.00  0.00    -0.493 OA
ATOM     11  C   UNL     1      14.023   1.726   3.629  1.00  0.00     0.278 C 
ENDBRANCH   5  10
BRANCH   6  12
ATOM     12  O   UNL     1      11.660   0.753   5.792  1.00  0.00    -0.504 OA
ATOM     13  H   UNL     1      10.741   1.068   5.503  1.00  0.00     0.293 HD
ENDBRANCH   6  12
TORSDOF 3
ENDMDL
MODEL 8
REMARK VINA RESULT:    -3.881      1.922      4.761
REMARK INTER + INTRA:          -4.540
REMARK INTER:                  -4.449
REMARK INTRA:                  -0.091
REMARK UNBOUND:                -0.092
REMARK SMILES COc1cc(C(=O)[O-])ccc1O
REMARK SMILES IDX 5 1 9 2 4 3 10 4 3 5 11 6 6 7 7 8 8 9 2 10 1 11 12 12
REMARK H PARENT 12 13
REMARK Flexibility Score: inf
ROOT
ATOM      1  C   UNL     1      13.628  -1.262   5.672  1.00  0.00     0.001 A 
ATOM      2  C   UNL     1      14.691  -1.650   6.505  1.00  0.00     0.014 A 
ATOM      3  C   UNL     1      12.531  -2.128   5.515  1.00  0.00     0.060 A 
ATOM      4  C   UNL     1      14.657  -2.878   7.169  1.00  0.00     0.051 A 
ATOM      5  C   UNL     1      12.493  -3.369   6.183  1.00  0.00     0.161 A 
ATOM      6  C   UNL     1      13.563  -3.736   7.010  1.00  0.00     0.157 A 
ENDROOT
BRANCH   1   7
ATOM      7  C   UNL     1      13.661   0.039   4.967  1.00  0.00     0.072 C 
ATOM      8  O   UNL     1      14.418   0.212   3.975  1.00  0.00    -0.545 OA
ATOM      9  O   UNL     1      12.857   1.091   5.392  1.00  0.00    -0.545 OA
ENDBRANCH   1   7
BRANCH   5  10
ATOM     10  O   UNL     1      11.415  -4.258   6.050  1.00  0.00    -0.493 OA
ATOM     11  C   UNL     1      10.208  -4.182   6.803  1.00  0.00     0.278 C 
ENDBRANCH   5  10
BRANCH   6  12
ATOM     12  O   UNL     1      13.531  -4.963   7.673  1.00  0.00    -0.504 OA
ATOM     13  H   UNL     1      12.723  -5.256   8.209  1.00  0.00     0.293 HD
ENDBRANCH   6  12
TORSDOF 3
ENDMDL
