MODEL 1
REMARK VINA RESULT:   125.989      0.000      0.000
REMARK INTER + INTRA:         147.998
REMARK INTER:                 148.085
REMARK INTRA:                  -0.087
REMARK UNBOUND:                -0.087
REMARK SMILES C=C(C)[C@H]1CC[C@]2(CO)CC[C@@]3(C)[C@H](CC[C@@H]4[C@]5(C)CC[C@H](O)C(C)(C)[C@H]5CC[C@@]43C)[C@H]12
REMARK SMILES IDX 4 1 5 2 6 3 7 4 32 5 14 6 15 7 16 8 17 9 18 10 20 11 21 12
REMARK SMILES IDX 22 13 24 14 27 15 28 16 29 17 30 18 12 19 11 20 10 21 13 22
REMARK SMILES IDX 31 23 25 24 26 25 19 26 2 27 3 28 1 29 8 30 9 31 23 33
REMARK H PARENT 9 32 23 34
REMARK Flexibility Score: inf
ROOT
ATOM      1  C   UNL     1       8.255  94.293   1.060  1.00  0.00     0.018 C 
ATOM      2  C   UNL     1       7.090  94.622   0.100  1.00  0.00     0.009 C 
ATOM      3  C   UNL     1       7.160  96.118  -0.230  1.00  0.00     0.010 C 
ATOM      4  C   UNL     1       8.065  96.755   0.839  1.00  0.00    -0.003 C 
ATOM      5  C   UNL     1       9.069  95.616   1.188  1.00  0.00     0.008 C 
ATOM      6  C   UNL     1      10.388  95.616   0.318  1.00  0.00    -0.000 C 
ATOM      7  C   UNL     1      10.205  95.124  -1.135  1.00  0.00     0.005 C 
ATOM      8  C   UNL     1      11.546  94.917  -1.803  1.00  0.00     0.005 C 
ATOM      9  C   UNL     1      12.392  96.216  -1.919  1.00  0.00     0.002 C 
ATOM     10  C   UNL     1      13.792  95.944  -2.677  1.00  0.00    -0.026 C 
ATOM     11  C   UNL     1      13.605  94.992  -3.911  1.00  0.00     0.010 C 
ATOM     12  C   UNL     1      14.920  94.554  -4.581  1.00  0.00     0.033 C 
ATOM     13  C   UNL     1      15.851  93.845  -3.583  1.00  0.00     0.120 C 
ATOM     14  C   UNL     1      16.155  94.715  -2.320  1.00  0.00    -0.006 C 
ATOM     15  C   UNL     1      14.794  95.232  -1.688  1.00  0.00     0.003 C 
ATOM     16  C   UNL     1      14.962  96.025  -0.375  1.00  0.00     0.005 C 
ATOM     17  C   UNL     1      13.621  96.245   0.339  1.00  0.00     0.008 C 
ATOM     18  C   UNL     1      12.517  96.966  -0.506  1.00  0.00    -0.024 C 
ATOM     19  C   UNL     1      11.112  97.006   0.326  1.00  0.00    -0.024 C 
ATOM     20  C   UNL     1      10.114  98.041  -0.294  1.00  0.00     0.008 C 
ATOM     21  C   UNL     1       8.721  98.095   0.365  1.00  0.00     0.010 C 
ATOM     22  C   UNL     1      11.377  97.414   1.819  1.00  0.00     0.012 C 
ATOM     23  C   UNL     1      12.977  98.447  -0.738  1.00  0.00     0.012 C 
ATOM     24  C   UNL     1      16.907  93.813  -1.300  1.00  0.00     0.014 C 
ATOM     25  C   UNL     1      17.138  95.854  -2.697  1.00  0.00     0.014 C 
ATOM     26  C   UNL     1      14.334  97.305  -3.239  1.00  0.00     0.012 C 
ENDROOT
BRANCH   1  27
ATOM     27  C   UNL     1       7.745  93.604   2.338  1.00  0.00    -0.077 C 
ATOM     28  C   UNL     1       8.356  92.274   2.705  1.00  0.00     0.039 C 
ATOM     29  C   UNL     1       6.807  94.097   3.170  1.00  0.00     0.008 C 
ENDBRANCH   1  27
BRANCH   4  30
ATOM     30  C   UNL     1       7.180  97.084   2.087  1.00  0.00     0.163 C 
BRANCH  30  31
ATOM     31  O   UNL     1       6.334  98.182   1.838  1.00  0.00    -0.396 OA
ATOM     32  H   UNL     1       5.749  98.292   2.633  1.00  0.00     0.210 HD
ENDBRANCH  30  31
ENDBRANCH   4  30
BRANCH  13  33
ATOM     33  O   UNL     1      15.274  92.618  -3.200  1.00  0.00    -0.393 OA
ATOM     34  H   UNL     1      15.930  91.907  -3.424  1.00  0.00     0.210 HD
ENDBRANCH  13  33
TORSDOF 4
ENDMDL
MODEL 2
REMARK VINA RESULT:   126.072      3.301      7.482
REMARK INTER + INTRA:         148.095
REMARK INTER:                 148.347
REMARK INTRA:                  -0.253
REMARK UNBOUND:                -0.087
REMARK SMILES C=C(C)[C@H]1CC[C@]2(CO)CC[C@@]3(C)[C@H](CC[C@@H]4[C@]5(C)CC[C@H](O)C(C)(C)[C@H]5CC[C@@]43C)[C@H]12
REMARK SMILES IDX 4 1 5 2 6 3 7 4 32 5 14 6 15 7 16 8 17 9 18 10 20 11 21 12
REMARK SMILES IDX 22 13 24 14 27 15 28 16 29 17 30 18 12 19 11 20 10 21 13 22
REMARK SMILES IDX 31 23 25 24 26 25 19 26 2 27 3 28 1 29 8 30 9 31 23 33
REMARK H PARENT 9 32 23 34
REMARK Flexibility Score: inf
ROOT
ATOM      1  C   UNL     1      15.671  95.373  -3.109  1.00  0.00     0.018 C 
ATOM      2  C   UNL     1      14.989  94.943  -4.426  1.00  0.00     0.009 C 
ATOM      3  C   UNL     1      13.543  94.549  -4.101  1.00  0.00     0.010 C 
ATOM      4  C   UNL     1      13.487  94.325  -2.580  1.00  0.00    -0.003 C 
ATOM      5  C   UNL     1      14.548  95.324  -2.029  1.00  0.00     0.008 C 
ATOM      6  C   UNL     1      13.977  96.752  -1.667  1.00  0.00    -0.000 C 
ATOM      7  C   UNL     1      13.646  97.644  -2.883  1.00  0.00     0.005 C 
ATOM      8  C   UNL     1      13.354  99.061  -2.444  1.00  0.00     0.005 C 
ATOM      9  C   UNL     1      12.120  99.182  -1.506  1.00  0.00     0.002 C 
ATOM     10  C   UNL     1      11.831 100.720  -1.105  1.00  0.00    -0.026 C 
ATOM     11  C   UNL     1      12.005 101.680  -2.335  1.00  0.00     0.010 C 
ATOM     12  C   UNL     1      11.911 103.178  -1.990  1.00  0.00     0.033 C 
ATOM     13  C   UNL     1      12.954 103.579  -0.934  1.00  0.00     0.120 C 
ATOM     14  C   UNL     1      12.855 102.721   0.369  1.00  0.00    -0.006 C 
ATOM     15  C   UNL     1      12.867 101.179  -0.007  1.00  0.00     0.003 C 
ATOM     16  C   UNL     1      12.871 100.228   1.209  1.00  0.00     0.005 C 
ATOM     17  C   UNL     1      13.175  98.778   0.803  1.00  0.00     0.008 C 
ATOM     18  C   UNL     1      12.217  98.163  -0.271  1.00  0.00    -0.024 C 
ATOM     19  C   UNL     1      12.742  96.678  -0.705  1.00  0.00    -0.024 C 
ATOM     20  C   UNL     1      11.626  95.879  -1.459  1.00  0.00     0.008 C 
ATOM     21  C   UNL     1      12.046  94.494  -1.990  1.00  0.00     0.010 C 
ATOM     22  C   UNL     1      13.157  95.857   0.568  1.00  0.00     0.012 C 
ATOM     23  C   UNL     1      10.801  97.997   0.383  1.00  0.00     0.012 C 
ATOM     24  C   UNL     1      14.089 103.064   1.251  1.00  0.00     0.014 C 
ATOM     25  C   UNL     1      11.608 103.153   1.183  1.00  0.00     0.014 C 
ATOM     26  C   UNL     1      10.337 100.849  -0.644  1.00  0.00     0.012 C 
ENDROOT
BRANCH   1  27
ATOM     27  C   UNL     1      16.969  94.582  -2.871  1.00  0.00    -0.077 C 
ATOM     28  C   UNL     1      17.023  93.162  -3.378  1.00  0.00     0.039 C 
ATOM     29  C   UNL     1      18.072  95.056  -2.259  1.00  0.00     0.008 C 
ENDBRANCH   1  27
BRANCH   4  30
ATOM     30  C   UNL     1      13.940  92.856  -2.291  1.00  0.00     0.163 C 
BRANCH  30  31
ATOM     31  O   UNL     1      14.613  92.762  -1.058  1.00  0.00    -0.396 OA
ATOM     32  H   UNL     1      14.362  93.560  -0.521  1.00  0.00     0.210 HD
ENDBRANCH  30  31
ENDBRANCH   4  30
BRANCH  13  33
ATOM     33  O   UNL     1      14.244 103.471  -1.491  1.00  0.00    -0.393 OA
ATOM     34  H   UNL     1      14.560 102.547  -1.314  1.00  0.00     0.210 HD
ENDBRANCH  13  33
TORSDOF 4
ENDMDL
MODEL 3
REMARK VINA RESULT:   127.087      2.978      7.601
REMARK INTER + INTRA:         149.288
REMARK INTER:                 149.634
REMARK INTRA:                  -0.347
REMARK UNBOUND:                -0.087
REMARK SMILES C=C(C)[C@H]1CC[C@]2(CO)CC[C@@]3(C)[C@H](CC[C@@H]4[C@]5(C)CC[C@H](O)C(C)(C)[C@H]5CC[C@@]43C)[C@H]12
REMARK SMILES IDX 4 1 5 2 6 3 7 4 32 5 14 6 15 7 16 8 17 9 18 10 20 11 21 12
REMARK SMILES IDX 22 13 24 14 27 15 28 16 29 17 30 18 12 19 11 20 10 21 13 22
REMARK SMILES IDX 31 23 25 24 26 25 19 26 2 27 3 28 1 29 8 30 9 31 23 33
REMARK H PARENT 9 32 23 34
REMARK Flexibility Score: inf
ROOT
ATOM      1  C   UNL     1      11.784 102.002  -0.625  1.00  0.00     0.018 C 
ATOM      2  C   UNL     1      11.526 102.356  -2.106  1.00  0.00     0.009 C 
ATOM      3  C   UNL     1      12.264 101.329  -2.973  1.00  0.00     0.010 C 
ATOM      4  C   UNL     1      13.292 100.646  -2.054  1.00  0.00    -0.003 C 
ATOM      5  C   UNL     1      12.601 100.675  -0.657  1.00  0.00     0.008 C 
ATOM      6  C   UNL     1      11.723  99.402  -0.335  1.00  0.00    -0.000 C 
ATOM      7  C   UNL     1      10.378  99.334  -1.091  1.00  0.00     0.005 C 
ATOM      8  C   UNL     1       9.505  98.233  -0.535  1.00  0.00     0.005 C 
ATOM      9  C   UNL     1      10.123  96.814  -0.681  1.00  0.00     0.002 C 
ATOM     10  C   UNL     1       9.130  95.674  -0.110  1.00  0.00    -0.026 C 
ATOM     11  C   UNL     1       7.639  95.950  -0.519  1.00  0.00     0.010 C 
ATOM     12  C   UNL     1       6.616  95.000   0.131  1.00  0.00     0.033 C 
ATOM     13  C   UNL     1       6.696  95.051   1.666  1.00  0.00     0.120 C 
ATOM     14  C   UNL     1       8.131  94.746   2.206  1.00  0.00    -0.006 C 
ATOM     15  C   UNL     1       9.187  95.672   1.467  1.00  0.00     0.003 C 
ATOM     16  C   UNL     1      10.633  95.529   1.987  1.00  0.00     0.005 C 
ATOM     17  C   UNL     1      11.548  96.639   1.451  1.00  0.00     0.008 C 
ATOM     18  C   UNL     1      11.620  96.760  -0.109  1.00  0.00    -0.024 C 
ATOM     19  C   UNL     1      12.513  98.062  -0.528  1.00  0.00    -0.024 C 
ATOM     20  C   UNL     1      12.937  97.999  -2.034  1.00  0.00     0.008 C 
ATOM     21  C   UNL     1      13.713  99.224  -2.557  1.00  0.00     0.010 C 
ATOM     22  C   UNL     1      13.817  98.130   0.346  1.00  0.00     0.012 C 
ATOM     23  C   UNL     1      12.348  95.485  -0.659  1.00  0.00     0.012 C 
ATOM     24  C   UNL     1       8.131  95.050   3.731  1.00  0.00     0.014 C 
ATOM     25  C   UNL     1       8.427  93.230   2.067  1.00  0.00     0.014 C 
ATOM     26  C   UNL     1       9.522  94.297  -0.749  1.00  0.00     0.012 C 
ENDROOT
BRANCH   1  27
ATOM     27  C   UNL     1      12.351 103.208   0.145  1.00  0.00    -0.077 C 
ATOM     28  C   UNL     1      13.044 104.283  -0.656  1.00  0.00     0.039 C 
ATOM     29  C   UNL     1      12.267 103.394   1.476  1.00  0.00     0.008 C 
ENDBRANCH   1  27
BRANCH   4  30
ATOM     30  C   UNL     1      14.581 101.533  -2.027  1.00  0.00     0.163 C 
BRANCH  30  31
ATOM     31  O   UNL     1      15.158 101.555  -0.743  1.00  0.00    -0.396 OA
ATOM     32  H   UNL     1      14.725 100.838  -0.210  1.00  0.00     0.210 HD
ENDBRANCH  30  31
ENDBRANCH   4  30
BRANCH  13  33
ATOM     33  O   UNL     1       6.268  96.318   2.111  1.00  0.00    -0.393 OA
ATOM     34  H   UNL     1       6.879  96.590   2.844  1.00  0.00     0.210 HD
ENDBRANCH  13  33
TORSDOF 4
ENDMDL
MODEL 4
REMARK VINA RESULT:   127.670      9.392     12.167
REMARK INTER + INTRA:         149.974
REMARK INTER:                 150.313
REMARK INTRA:                  -0.339
REMARK UNBOUND:                -0.087
REMARK SMILES C=C(C)[C@H]1CC[C@]2(CO)CC[C@@]3(C)[C@H](CC[C@@H]4[C@]5(C)CC[C@H](O)C(C)(C)[C@H]5CC[C@@]43C)[C@H]12
REMARK SMILES IDX 4 1 5 2 6 3 7 4 32 5 14 6 15 7 16 8 17 9 18 10 20 11 21 12
REMARK SMILES IDX 22 13 24 14 27 15 28 16 29 17 30 18 12 19 11 20 10 21 13 22
REMARK SMILES IDX 31 23 25 24 26 25 19 26 2 27 3 28 1 29 8 30 9 31 23 33
REMARK H PARENT 9 32 23 34
REMARK Flexibility Score: inf
ROOT
ATOM      1  C   UNL     1      18.126 101.382   4.165  1.00  0.00     0.018 C 
ATOM      2  C   UNL     1      19.589 101.831   3.956  1.00  0.00     0.009 C 
ATOM      3  C   UNL     1      20.164 102.215   5.325  1.00  0.00     0.010 C 
ATOM      4  C   UNL     1      18.960 102.413   6.261  1.00  0.00    -0.003 C 
ATOM      5  C   UNL     1      17.904 101.409   5.708  1.00  0.00     0.008 C 
ATOM      6  C   UNL     1      17.959  99.974   6.365  1.00  0.00    -0.000 C 
ATOM      7  C   UNL     1      19.150  99.100   5.914  1.00  0.00     0.005 C 
ATOM      8  C   UNL     1      18.980  97.675   6.389  1.00  0.00     0.005 C 
ATOM      9  C   UNL     1      18.939  97.534   7.936  1.00  0.00     0.002 C 
ATOM     10  C   UNL     1      18.799  95.989   8.387  1.00  0.00    -0.026 C 
ATOM     11  C   UNL     1      19.707  95.049   7.516  1.00  0.00     0.010 C 
ATOM     12  C   UNL     1      19.499  93.546   7.775  1.00  0.00     0.033 C 
ATOM     13  C   UNL     1      18.037  93.131   7.538  1.00  0.00     0.120 C 
ATOM     14  C   UNL     1      17.027  93.968   8.389  1.00  0.00    -0.006 C 
ATOM     15  C   UNL     1      17.308  95.516   8.180  1.00  0.00     0.003 C 
ATOM     16  C   UNL     1      16.308  96.447   8.897  1.00  0.00     0.005 C 
ATOM     17  C   UNL     1      16.444  97.904   8.432  1.00  0.00     0.008 C 
ATOM     18  C   UNL     1      17.869  98.533   8.591  1.00  0.00    -0.024 C 
ATOM     19  C   UNL     1      17.898 100.027   7.931  1.00  0.00    -0.024 C 
ATOM     20  C   UNL     1      19.152 100.834   8.407  1.00  0.00     0.008 C 
ATOM     21  C   UNL     1      19.322 102.229   7.773  1.00  0.00     0.010 C 
ATOM     22  C   UNL     1      16.612 100.829   8.346  1.00  0.00     0.012 C 
ATOM     23  C   UNL     1      18.161  98.684  10.125  1.00  0.00     0.012 C 
ATOM     24  C   UNL     1      15.594  93.615   7.897  1.00  0.00     0.014 C 
ATOM     25  C   UNL     1      17.098  93.517   9.872  1.00  0.00     0.014 C 
ATOM     26  C   UNL     1      19.298  95.847   9.867  1.00  0.00     0.012 C 
ENDROOT
BRANCH   1  27
ATOM     27  C   UNL     1      17.166 102.173   3.260  1.00  0.00    -0.077 C 
ATOM     28  C   UNL     1      17.447 102.173   1.777  1.00  0.00     0.039 C 
ATOM     29  C   UNL     1      16.083 102.856   3.678  1.00  0.00     0.008 C 
ENDBRANCH   1  27
BRANCH   4  30
ATOM     30  C   UNL     1      18.444 103.879   6.080  1.00  0.00     0.163 C 
BRANCH  30  31
ATOM     31  O   UNL     1      19.096 104.762   6.961  1.00  0.00    -0.396 OA
ATOM     32  H   UNL     1      19.403 105.543   6.427  1.00  0.00     0.210 HD
ENDBRANCH  30  31
ENDBRANCH   4  30
BRANCH  13  33
ATOM     33  O   UNL     1      17.735  93.254   6.167  1.00  0.00    -0.393 OA
ATOM     34  H   UNL     1      17.736  92.337   5.787  1.00  0.00     0.210 HD
ENDBRANCH  13  33
TORSDOF 4
ENDMDL
