MODEL 1
REMARK VINA RESULT:    -5.819      0.000      0.000
REMARK INTER + INTRA:          -9.554
REMARK INTER:                  -9.051
REMARK INTRA:                  -0.502
REMARK UNBOUND:                -0.502
REMARK SMILES COc1cc(CNC(=O)CCCCC=CC(C)C)ccc1O
REMARK SMILES IDX 11 1 12 2 13 3 14 4 15 5 16 6 17 7 18 8 10 9 8 10 9 11 7 12
REMARK SMILES IDX 6 14 5 15 4 16 19 17 3 18 20 19 21 20 2 21 1 22 22 23
REMARK H PARENT 7 13 22 24
REMARK Flexibility Score: inf
ROOT
ATOM      1  C   UNL     1      -1.101  -4.486  49.162  1.00  0.00     0.010 C 
ENDROOT
BRANCH   1   2
ATOM      2  C   UNL     1       0.010  -4.074  48.176  1.00  0.00     0.005 C 
BRANCH   2   3
ATOM      3  C   UNL     1      -0.504  -3.451  46.868  1.00  0.00     0.027 C 
BRANCH   3   4
ATOM      4  C   UNL     1       0.444  -2.408  46.340  1.00  0.00    -0.031 C 
ATOM      5  C   UNL     1      -0.001  -1.259  45.803  1.00  0.00    -0.028 C 
BRANCH   5   6
ATOM      6  C   UNL     1       0.925  -0.221  45.212  1.00  0.00     0.005 C 
ATOM      7  C   UNL     1       0.749  -0.119  43.692  1.00  0.00     0.012 C 
ATOM      8  C   UNL     1       2.386  -0.497  45.587  1.00  0.00     0.012 C 
ENDBRANCH   5   6
ENDBRANCH   3   4
ENDBRANCH   2   3
ENDBRANCH   1   2
BRANCH   1   9
ATOM      9  C   UNL     1      -0.602  -5.280  50.380  1.00  0.00     0.100 C 
BRANCH   9  10
ATOM     10  C   UNL     1      -0.287  -4.383  51.541  1.00  0.00     0.220 C 
ATOM     11  O   UNL     1       0.849  -3.841  51.614  1.00  0.00    -0.275 OA
ATOM     12  N   UNL     1      -1.280  -4.121  52.543  1.00  0.00    -0.352 N 
ATOM     13  H   UNL     1      -2.227  -4.551  52.449  1.00  0.00     0.163 HD
BRANCH  12  14
ATOM     14  C   UNL     1      -1.022  -3.260  53.695  1.00  0.00     0.151 C 
BRANCH  14  15
ATOM     15  C   UNL     1      -0.634  -4.088  54.889  1.00  0.00    -0.025 A 
ATOM     16  C   UNL     1      -0.355  -3.465  56.115  1.00  0.00     0.056 A 
ATOM     17  C   UNL     1      -0.575  -5.487  54.798  1.00  0.00     0.009 A 
ATOM     18  C   UNL     1      -0.011  -4.230  57.247  1.00  0.00     0.160 A 
ATOM     19  C   UNL     1      -0.231  -6.250  55.914  1.00  0.00     0.050 A 
ATOM     20  C   UNL     1       0.051  -5.631  57.136  1.00  0.00     0.157 A 
BRANCH  18  21
ATOM     21  O   UNL     1       0.272  -3.635  58.488  1.00  0.00    -0.493 OA
ATOM     22  C   UNL     1       1.140  -2.522  58.669  1.00  0.00     0.278 C 
ENDBRANCH  18  21
BRANCH  20  23
ATOM     23  O   UNL     1       0.389  -6.427  58.231  1.00  0.00    -0.504 OA
ATOM     24  H   UNL     1       0.373  -7.438  58.187  1.00  0.00     0.293 HD
ENDBRANCH  20  23
ENDBRANCH  14  15
ENDBRANCH  12  14
ENDBRANCH   9  10
ENDBRANCH   1   9
TORSDOF 10
ENDMDL
MODEL 2
REMARK VINA RESULT:    -5.622      1.235      2.180
REMARK INTER + INTRA:          -9.247
REMARK INTER:                  -8.620
REMARK INTRA:                  -0.627
REMARK UNBOUND:                -0.502
REMARK SMILES COc1cc(CNC(=O)CCCCC=CC(C)C)ccc1O
REMARK SMILES IDX 11 1 12 2 13 3 14 4 15 5 16 6 17 7 18 8 10 9 8 10 9 11 7 12
REMARK SMILES IDX 6 14 5 15 4 16 19 17 3 18 20 19 21 20 2 21 1 22 22 23
REMARK H PARENT 7 13 22 24
REMARK Flexibility Score: inf
ROOT
ATOM      1  C   UNL     1      -0.640  -4.968  48.765  1.00  0.00     0.010 C 
ENDROOT
BRANCH   1   2
ATOM      2  C   UNL     1      -0.745  -3.784  47.782  1.00  0.00     0.005 C 
BRANCH   2   3
ATOM      3  C   UNL     1      -0.095  -4.039  46.413  1.00  0.00     0.027 C 
BRANCH   3   4
ATOM      4  C   UNL     1       0.186  -2.752  45.685  1.00  0.00    -0.031 C 
ATOM      5  C   UNL     1       1.023  -1.827  46.186  1.00  0.00    -0.028 C 
BRANCH   5   6
ATOM      6  C   UNL     1       1.279  -0.502  45.506  1.00  0.00     0.005 C 
ATOM      7  C   UNL     1       0.635  -0.458  44.115  1.00  0.00     0.012 C 
ATOM      8  C   UNL     1       2.779  -0.190  45.436  1.00  0.00     0.012 C 
ENDBRANCH   5   6
ENDBRANCH   3   4
ENDBRANCH   2   3
ENDBRANCH   1   2
BRANCH   1   9
ATOM      9  C   UNL     1       0.075  -4.633  50.084  1.00  0.00     0.100 C 
BRANCH   9  10
ATOM     10  C   UNL     1      -0.879  -4.113  51.120  1.00  0.00     0.220 C 
ATOM     11  O   UNL     1      -2.088  -4.471  51.083  1.00  0.00    -0.275 OA
ATOM     12  N   UNL     1      -0.413  -3.242  52.160  1.00  0.00    -0.352 N 
ATOM     13  H   UNL     1       0.598  -2.984  52.195  1.00  0.00     0.163 HD
BRANCH  12  14
ATOM     14  C   UNL     1      -1.301  -2.705  53.188  1.00  0.00     0.151 C 
BRANCH  14  15
ATOM     15  C   UNL     1      -0.898  -3.216  54.544  1.00  0.00    -0.025 A 
ATOM     16  C   UNL     1      -0.596  -4.575  54.721  1.00  0.00     0.056 A 
ATOM     17  C   UNL     1      -0.794  -2.340  55.635  1.00  0.00     0.009 A 
ATOM     18  C   UNL     1      -0.197  -5.065  55.980  1.00  0.00     0.160 A 
ATOM     19  C   UNL     1      -0.403  -2.819  56.886  1.00  0.00     0.050 A 
ATOM     20  C   UNL     1      -0.105  -4.174  57.065  1.00  0.00     0.157 A 
BRANCH  18  21
ATOM     21  O   UNL     1       0.113  -6.419  56.187  1.00  0.00    -0.493 OA
ATOM     22  C   UNL     1      -0.272  -7.477  55.316  1.00  0.00     0.278 C 
ENDBRANCH  18  21
BRANCH  20  23
ATOM     23  O   UNL     1       0.284  -4.615  58.330  1.00  0.00    -0.504 OA
ATOM     24  H   UNL     1       1.255  -4.765  58.573  1.00  0.00     0.293 HD
ENDBRANCH  20  23
ENDBRANCH  14  15
ENDBRANCH  12  14
ENDBRANCH   9  10
ENDBRANCH   1   9
TORSDOF 10
ENDMDL
MODEL 3
REMARK VINA RESULT:    -5.584      6.564      8.795
REMARK INTER + INTRA:          -9.188
REMARK INTER:                  -7.813
REMARK INTRA:                  -1.375
REMARK UNBOUND:                -0.502
REMARK SMILES COc1cc(CNC(=O)CCCCC=CC(C)C)ccc1O
REMARK SMILES IDX 11 1 12 2 13 3 14 4 15 5 16 6 17 7 18 8 10 9 8 10 9 11 7 12
REMARK SMILES IDX 6 14 5 15 4 16 19 17 3 18 20 19 21 20 2 21 1 22 22 23
REMARK H PARENT 7 13 22 24
REMARK Flexibility Score: inf
ROOT
ATOM      1  C   UNL     1       1.631  -3.881  41.089  1.00  0.00     0.010 C 
ENDROOT
BRANCH   1   2
ATOM      2  C   UNL     1       0.923  -2.511  41.094  1.00  0.00     0.005 C 
BRANCH   2   3
ATOM      3  C   UNL     1      -0.424  -2.499  41.833  1.00  0.00     0.027 C 
BRANCH   3   4
ATOM      4  C   UNL     1      -0.315  -1.826  43.175  1.00  0.00    -0.031 C 
ATOM      5  C   UNL     1       0.685  -0.971  43.455  1.00  0.00    -0.028 C 
BRANCH   5   6
ATOM      6  C   UNL     1       0.852  -0.327  44.811  1.00  0.00     0.005 C 
ATOM      7  C   UNL     1       2.264  -0.557  45.365  1.00  0.00     0.012 C 
ATOM      8  C   UNL     1      -0.218  -0.812  45.797  1.00  0.00     0.012 C 
ENDBRANCH   5   6
ENDBRANCH   3   4
ENDBRANCH   2   3
ENDBRANCH   1   2
BRANCH   1   9
ATOM      9  C   UNL     1       0.879  -4.979  40.319  1.00  0.00     0.100 C 
BRANCH   9  10
ATOM     10  C   UNL     1       0.099  -5.871  41.240  1.00  0.00     0.220 C 
ATOM     11  O   UNL     1      -0.904  -6.494  40.796  1.00  0.00    -0.275 OA
ATOM     12  N   UNL     1       0.509  -6.039  42.605  1.00  0.00    -0.352 N 
ATOM     13  H   UNL     1       1.363  -5.543  42.946  1.00  0.00     0.163 HD
BRANCH  12  14
ATOM     14  C   UNL     1      -0.218  -6.892  43.542  1.00  0.00     0.151 C 
BRANCH  14  15
ATOM     15  C   UNL     1      -0.110  -6.342  44.938  1.00  0.00    -0.025 A 
ATOM     16  C   UNL     1      -0.094  -7.215  46.037  1.00  0.00     0.056 A 
ATOM     17  C   UNL     1       0.002  -4.960  45.154  1.00  0.00     0.009 A 
ATOM     18  C   UNL     1       0.028  -6.716  47.349  1.00  0.00     0.160 A 
ATOM     19  C   UNL     1       0.119  -4.460  46.452  1.00  0.00     0.050 A 
ATOM     20  C   UNL     1       0.132  -5.328  47.548  1.00  0.00     0.157 A 
BRANCH  18  21
ATOM     21  O   UNL     1       0.049  -7.565  48.468  1.00  0.00    -0.493 OA
ATOM     22  C   UNL     1       0.128  -8.985  48.403  1.00  0.00     0.278 C 
ENDBRANCH  18  21
BRANCH  20  23
ATOM     23  O   UNL     1       0.252  -4.790  48.830  1.00  0.00    -0.504 OA
ATOM     24  H   UNL     1       0.018  -3.826  49.033  1.00  0.00     0.293 HD
ENDBRANCH  20  23
ENDBRANCH  14  15
ENDBRANCH  12  14
ENDBRANCH   9  10
ENDBRANCH   1   9
TORSDOF 10
ENDMDL
MODEL 4
REMARK VINA RESULT:    -5.463      6.912     11.009
REMARK INTER + INTRA:          -8.999
REMARK INTER:                  -7.605
REMARK INTRA:                  -1.394
REMARK UNBOUND:                -0.502
REMARK SMILES COc1cc(CNC(=O)CCCCC=CC(C)C)ccc1O
REMARK SMILES IDX 11 1 12 2 13 3 14 4 15 5 16 6 17 7 18 8 10 9 8 10 9 11 7 12
REMARK SMILES IDX 6 14 5 15 4 16 19 17 3 18 20 19 21 20 2 21 1 22 22 23
REMARK H PARENT 7 13 22 24
REMARK Flexibility Score: inf
ROOT
ATOM      1  C   UNL     1       0.912  -5.460  47.538  1.00  0.00     0.010 C 
ENDROOT
BRANCH   1   2
ATOM      2  C   UNL     1       0.063  -4.244  47.959  1.00  0.00     0.005 C 
BRANCH   2   3
ATOM      3  C   UNL     1      -0.508  -3.435  46.784  1.00  0.00     0.027 C 
BRANCH   3   4
ATOM      4  C   UNL     1       0.441  -2.353  46.341  1.00  0.00    -0.031 C 
ATOM      5  C   UNL     1       0.006  -1.246  45.715  1.00  0.00    -0.028 C 
BRANCH   5   6
ATOM      6  C   UNL     1       0.941  -0.173  45.208  1.00  0.00     0.005 C 
ATOM      7  C   UNL     1       0.755   0.061  43.704  1.00  0.00     0.012 C 
ATOM      8  C   UNL     1       2.401  -0.500  45.545  1.00  0.00     0.012 C 
ENDBRANCH   5   6
ENDBRANCH   3   4
ENDBRANCH   2   3
ENDBRANCH   1   2
BRANCH   1   9
ATOM      9  C   UNL     1       0.118  -6.769  47.400  1.00  0.00     0.100 C 
BRANCH   9  10
ATOM     10  C   UNL     1      -0.034  -7.181  45.964  1.00  0.00     0.220 C 
ATOM     11  O   UNL     1      -0.217  -8.397  45.685  1.00  0.00    -0.275 OA
ATOM     12  N   UNL     1      -0.003  -6.195  44.922  1.00  0.00    -0.352 N 
ATOM     13  H   UNL     1       0.115  -5.189  45.174  1.00  0.00     0.163 HD
BRANCH  12  14
ATOM     14  C   UNL     1      -0.141  -6.544  43.510  1.00  0.00     0.151 C 
BRANCH  14  15
ATOM     15  C   UNL     1       0.179  -5.356  42.645  1.00  0.00    -0.025 A 
ATOM     16  C   UNL     1      -0.330  -5.280  41.340  1.00  0.00     0.056 A 
ATOM     17  C   UNL     1       0.963  -4.303  43.141  1.00  0.00     0.009 A 
ATOM     18  C   UNL     1      -0.056  -4.163  40.526  1.00  0.00     0.160 A 
ATOM     19  C   UNL     1       1.242  -3.196  42.339  1.00  0.00     0.050 A 
ATOM     20  C   UNL     1       0.738  -3.120  41.036  1.00  0.00     0.157 A 
BRANCH  18  21
ATOM     21  O   UNL     1      -0.553  -4.058  39.216  1.00  0.00    -0.493 OA
ATOM     22  C   UNL     1      -1.827  -3.523  38.877  1.00  0.00     0.278 C 
ENDBRANCH  18  21
BRANCH  20  23
ATOM     23  O   UNL     1       1.037  -1.997  40.265  1.00  0.00    -0.504 OA
ATOM     24  H   UNL     1       1.595  -1.232  40.621  1.00  0.00     0.293 HD
ENDBRANCH  20  23
ENDBRANCH  14  15
ENDBRANCH  12  14
ENDBRANCH   9  10
ENDBRANCH   1   9
TORSDOF 10
ENDMDL
MODEL 5
REMARK VINA RESULT:    -5.435      6.426      9.121
REMARK INTER + INTRA:          -8.956
REMARK INTER:                  -8.063
REMARK INTRA:                  -0.893
REMARK UNBOUND:                -0.502
REMARK SMILES COc1cc(CNC(=O)CCCCC=CC(C)C)ccc1O
REMARK SMILES IDX 11 1 12 2 13 3 14 4 15 5 16 6 17 7 18 8 10 9 8 10 9 11 7 12
REMARK SMILES IDX 6 14 5 15 4 16 19 17 3 18 20 19 21 20 2 21 1 22 22 23
REMARK H PARENT 7 13 22 24
REMARK Flexibility Score: inf
ROOT
ATOM      1  C   UNL     1       1.273  -3.059  41.309  1.00  0.00     0.010 C 
ENDROOT
BRANCH   1   2
ATOM      2  C   UNL     1       0.263  -2.008  40.805  1.00  0.00     0.005 C 
BRANCH   2   3
ATOM      3  C   UNL     1       0.132  -0.773  41.709  1.00  0.00     0.027 C 
BRANCH   3   4
ATOM      4  C   UNL     1       0.483  -1.091  43.138  1.00  0.00    -0.031 C 
ATOM      5  C   UNL     1       0.846  -0.129  44.005  1.00  0.00    -0.028 C 
BRANCH   5   6
ATOM      6  C   UNL     1       1.260  -0.426  45.427  1.00  0.00     0.005 C 
ATOM      7  C   UNL     1       2.784  -0.357  45.588  1.00  0.00     0.012 C 
ATOM      8  C   UNL     1       0.712  -1.778  45.899  1.00  0.00     0.012 C 
ENDBRANCH   5   6
ENDBRANCH   3   4
ENDBRANCH   2   3
ENDBRANCH   1   2
BRANCH   1   9
ATOM      9  C   UNL     1       1.290  -4.362  40.494  1.00  0.00     0.100 C 
BRANCH   9  10
ATOM     10  C   UNL     1       0.256  -5.337  40.977  1.00  0.00     0.220 C 
ATOM     11  O   UNL     1      -0.693  -5.663  40.212  1.00  0.00    -0.275 OA
ATOM     12  N   UNL     1       0.363  -5.916  42.285  1.00  0.00    -0.352 N 
ATOM     13  H   UNL     1       1.174  -5.661  42.892  1.00  0.00     0.163 HD
BRANCH  12  14
ATOM     14  C   UNL     1      -0.619  -6.865  42.804  1.00  0.00     0.151 C 
BRANCH  14  15
ATOM     15  C   UNL     1      -0.303  -7.213  44.233  1.00  0.00    -0.025 A 
ATOM     16  C   UNL     1       0.180  -6.225  45.106  1.00  0.00     0.056 A 
ATOM     17  C   UNL     1      -0.512  -8.515  44.714  1.00  0.00     0.009 A 
ATOM     18  C   UNL     1       0.461  -6.532  46.452  1.00  0.00     0.160 A 
ATOM     19  C   UNL     1      -0.232  -8.825  46.045  1.00  0.00     0.050 A 
ATOM     20  C   UNL     1       0.253  -7.843  46.915  1.00  0.00     0.157 A 
BRANCH  18  21
ATOM     21  O   UNL     1       0.944  -5.565  47.349  1.00  0.00    -0.493 OA
ATOM     22  C   UNL     1       0.132  -4.834  48.262  1.00  0.00     0.278 C 
ENDBRANCH  18  21
BRANCH  20  23
ATOM     23  O   UNL     1       0.519  -8.191  48.240  1.00  0.00    -0.504 OA
ATOM     24  H   UNL     1       1.015  -9.039  48.484  1.00  0.00     0.293 HD
ENDBRANCH  20  23
ENDBRANCH  14  15
ENDBRANCH  12  14
ENDBRANCH   9  10
ENDBRANCH   1   9
TORSDOF 10
ENDMDL
MODEL 6
REMARK VINA RESULT:    -5.354      2.133      3.779
REMARK INTER + INTRA:          -8.830
REMARK INTER:                  -8.194
REMARK INTRA:                  -0.636
REMARK UNBOUND:                -0.502
REMARK SMILES COc1cc(CNC(=O)CCCCC=CC(C)C)ccc1O
REMARK SMILES IDX 11 1 12 2 13 3 14 4 15 5 16 6 17 7 18 8 10 9 8 10 9 11 7 12
REMARK SMILES IDX 6 14 5 15 4 16 19 17 3 18 20 19 21 20 2 21 1 22 22 23
REMARK H PARENT 7 13 22 24
REMARK Flexibility Score: inf
ROOT
ATOM      1  C   UNL     1       0.148  -2.648  46.277  1.00  0.00     0.010 C 
ENDROOT
BRANCH   1   2
ATOM      2  C   UNL     1      -0.273  -1.195  45.980  1.00  0.00     0.005 C 
BRANCH   2   3
ATOM      3  C   UNL     1       0.681  -0.439  45.042  1.00  0.00     0.027 C 
BRANCH   3   4
ATOM      4  C   UNL     1       1.184  -1.323  43.932  1.00  0.00    -0.031 C 
ATOM      5  C   UNL     1       0.493  -1.481  42.790  1.00  0.00    -0.028 C 
BRANCH   5   6
ATOM      6  C   UNL     1       0.944  -2.406  41.684  1.00  0.00     0.005 C 
ATOM      7  C   UNL     1      -0.251  -2.962  40.901  1.00  0.00     0.012 C 
ATOM      8  C   UNL     1       1.828  -3.536  42.226  1.00  0.00     0.012 C 
ENDBRANCH   5   6
ENDBRANCH   3   4
ENDBRANCH   2   3
ENDBRANCH   1   2
BRANCH   1   9
ATOM      9  C   UNL     1      -0.858  -3.437  47.130  1.00  0.00     0.100 C 
BRANCH   9  10
ATOM     10  C   UNL     1      -0.176  -4.241  48.198  1.00  0.00     0.220 C 
ATOM     11  O   UNL     1       0.700  -5.087  47.872  1.00  0.00    -0.275 OA
ATOM     12  N   UNL     1      -0.495  -4.025  49.581  1.00  0.00    -0.352 N 
ATOM     13  H   UNL     1      -1.198  -3.296  49.835  1.00  0.00     0.163 HD
BRANCH  12  14
ATOM     14  C   UNL     1       0.137  -4.784  50.658  1.00  0.00     0.151 C 
BRANCH  14  15
ATOM     15  C   UNL     1      -0.255  -4.216  51.994  1.00  0.00    -0.025 A 
ATOM     16  C   UNL     1      -0.008  -4.946  53.167  1.00  0.00     0.056 A 
ATOM     17  C   UNL     1      -0.843  -2.945  52.085  1.00  0.00     0.009 A 
ATOM     18  C   UNL     1      -0.351  -4.418  54.427  1.00  0.00     0.160 A 
ATOM     19  C   UNL     1      -1.188  -2.418  53.330  1.00  0.00     0.050 A 
ATOM     20  C   UNL     1      -0.946  -3.146  54.499  1.00  0.00     0.157 A 
BRANCH  18  21
ATOM     21  O   UNL     1      -0.115  -5.124  55.618  1.00  0.00    -0.493 OA
ATOM     22  C   UNL     1      -0.198  -6.539  55.747  1.00  0.00     0.278 C 
ENDBRANCH  18  21
BRANCH  20  23
ATOM     23  O   UNL     1      -1.303  -2.585  55.726  1.00  0.00    -0.504 OA
ATOM     24  H   UNL     1      -0.638  -2.089  56.306  1.00  0.00     0.293 HD
ENDBRANCH  20  23
ENDBRANCH  14  15
ENDBRANCH  12  14
ENDBRANCH   9  10
ENDBRANCH   1   9
TORSDOF 10
ENDMDL
MODEL 7
REMARK VINA RESULT:    -5.337      1.823      2.966
REMARK INTER + INTRA:          -8.804
REMARK INTER:                  -8.138
REMARK INTRA:                  -0.666
REMARK UNBOUND:                -0.502
REMARK SMILES COc1cc(CNC(=O)CCCCC=CC(C)C)ccc1O
REMARK SMILES IDX 11 1 12 2 13 3 14 4 15 5 16 6 17 7 18 8 10 9 8 10 9 11 7 12
REMARK SMILES IDX 6 14 5 15 4 16 19 17 3 18 20 19 21 20 2 21 1 22 22 23
REMARK H PARENT 7 13 22 24
REMARK Flexibility Score: inf
ROOT
ATOM      1  C   UNL     1      -1.326  -3.891  46.999  1.00  0.00     0.010 C 
ENDROOT
BRANCH   1   2
ATOM      2  C   UNL     1      -2.102  -2.660  47.507  1.00  0.00     0.005 C 
BRANCH   2   3
ATOM      3  C   UNL     1      -1.860  -1.379  46.694  1.00  0.00     0.027 C 
BRANCH   3   4
ATOM      4  C   UNL     1      -0.617  -1.484  45.851  1.00  0.00    -0.031 C 
ATOM      5  C   UNL     1       0.099  -0.397  45.513  1.00  0.00    -0.028 C 
BRANCH   5   6
ATOM      6  C   UNL     1       1.317  -0.467  44.620  1.00  0.00     0.005 C 
ATOM      7  C   UNL     1       1.295  -1.727  43.747  1.00  0.00     0.012 C 
ATOM      8  C   UNL     1       2.613  -0.376  45.435  1.00  0.00     0.012 C 
ENDBRANCH   5   6
ENDBRANCH   3   4
ENDBRANCH   2   3
ENDBRANCH   1   2
BRANCH   1   9
ATOM      9  C   UNL     1      -1.373  -5.103  47.944  1.00  0.00     0.100 C 
BRANCH   9  10
ATOM     10  C   UNL     1      -0.303  -5.034  48.994  1.00  0.00     0.220 C 
ATOM     11  O   UNL     1       0.834  -5.524  48.753  1.00  0.00    -0.275 OA
ATOM     12  N   UNL     1      -0.563  -4.390  50.250  1.00  0.00    -0.352 N 
ATOM     13  H   UNL     1      -1.499  -3.960  50.419  1.00  0.00     0.163 HD
BRANCH  12  14
ATOM     14  C   UNL     1       0.442  -4.301  51.306  1.00  0.00     0.151 C 
BRANCH  14  15
ATOM     15  C   UNL     1      -0.159  -3.704  52.549  1.00  0.00    -0.025 A 
ATOM     16  C   UNL     1      -0.193  -4.447  53.739  1.00  0.00     0.056 A 
ATOM     17  C   UNL     1      -0.667  -2.396  52.539  1.00  0.00     0.009 A 
ATOM     18  C   UNL     1      -0.735  -3.894  54.916  1.00  0.00     0.160 A 
ATOM     19  C   UNL     1      -1.208  -1.844  53.700  1.00  0.00     0.050 A 
ATOM     20  C   UNL     1      -1.246  -2.583  54.886  1.00  0.00     0.157 A 
BRANCH  18  21
ATOM     21  O   UNL     1      -0.781  -4.612  56.122  1.00  0.00    -0.493 OA
ATOM     22  C   UNL     1      -0.121  -5.852  56.349  1.00  0.00     0.278 C 
ENDBRANCH  18  21
BRANCH  20  23
ATOM     23  O   UNL     1      -1.794  -1.997  56.027  1.00  0.00    -0.504 OA
ATOM     24  H   UNL     1      -1.473  -1.104  56.380  1.00  0.00     0.293 HD
ENDBRANCH  20  23
ENDBRANCH  14  15
ENDBRANCH  12  14
ENDBRANCH   9  10
ENDBRANCH   1   9
TORSDOF 10
ENDMDL
MODEL 8
REMARK VINA RESULT:    -5.310      6.964      8.941
REMARK INTER + INTRA:          -8.762
REMARK INTER:                  -7.602
REMARK INTRA:                  -1.159
REMARK UNBOUND:                -0.502
REMARK SMILES COc1cc(CNC(=O)CCCCC=CC(C)C)ccc1O
REMARK SMILES IDX 11 1 12 2 13 3 14 4 15 5 16 6 17 7 18 8 10 9 8 10 9 11 7 12
REMARK SMILES IDX 6 14 5 15 4 16 19 17 3 18 20 19 21 20 2 21 1 22 22 23
REMARK H PARENT 7 13 22 24
REMARK Flexibility Score: inf
ROOT
ATOM      1  C   UNL     1       0.751   0.023  43.772  1.00  0.00     0.010 C 
ENDROOT
BRANCH   1   2
ATOM      2  C   UNL     1       0.324  -1.251  43.016  1.00  0.00     0.005 C 
BRANCH   2   3
ATOM      3  C   UNL     1       1.450  -2.278  42.819  1.00  0.00     0.027 C 
BRANCH   3   4
ATOM      4  C   UNL     1       1.086  -3.311  41.787  1.00  0.00    -0.031 C 
ATOM      5  C   UNL     1       2.023  -3.929  41.047  1.00  0.00    -0.028 C 
BRANCH   5   6
ATOM      6  C   UNL     1       1.682  -4.926  39.965  1.00  0.00     0.005 C 
ATOM      7  C   UNL     1       2.766  -4.961  38.880  1.00  0.00     0.012 C 
ATOM      8  C   UNL     1       0.300  -4.646  39.361  1.00  0.00     0.012 C 
ENDBRANCH   5   6
ENDBRANCH   3   4
ENDBRANCH   2   3
ENDBRANCH   1   2
BRANCH   1   9
ATOM      9  C   UNL     1       1.143  -0.214  45.240  1.00  0.00     0.100 C 
BRANCH   9  10
ATOM     10  C   UNL     1       0.221  -1.188  45.914  1.00  0.00     0.220 C 
ATOM     11  O   UNL     1      -0.996  -0.891  46.058  1.00  0.00    -0.275 OA
ATOM     12  N   UNL     1       0.714  -2.459  46.361  1.00  0.00    -0.352 N 
ATOM     13  H   UNL     1       1.717  -2.703  46.202  1.00  0.00     0.163 HD
BRANCH  12  14
ATOM     14  C   UNL     1      -0.140  -3.440  47.027  1.00  0.00     0.151 C 
BRANCH  14  15
ATOM     15  C   UNL     1      -0.164  -4.726  46.246  1.00  0.00    -0.025 A 
ATOM     16  C   UNL     1       0.089  -5.945  46.893  1.00  0.00     0.056 A 
ATOM     17  C   UNL     1      -0.464  -4.722  44.875  1.00  0.00     0.009 A 
ATOM     18  C   UNL     1       0.050  -7.159  46.179  1.00  0.00     0.160 A 
ATOM     19  C   UNL     1      -0.500  -5.921  44.161  1.00  0.00     0.050 A 
ATOM     20  C   UNL     1      -0.245  -7.136  44.803  1.00  0.00     0.157 A 
BRANCH  18  21
ATOM     21  O   UNL     1       0.296  -8.394  46.799  1.00  0.00    -0.493 OA
ATOM     22  C   UNL     1       0.129  -8.647  48.190  1.00  0.00     0.278 C 
ENDBRANCH  18  21
BRANCH  20  23
ATOM     23  O   UNL     1      -0.292  -8.314  44.057  1.00  0.00    -0.504 OA
ATOM     24  H   UNL     1      -0.233  -8.314  43.046  1.00  0.00     0.293 HD
ENDBRANCH  20  23
ENDBRANCH  14  15
ENDBRANCH  12  14
ENDBRANCH   9  10
ENDBRANCH   1   9
TORSDOF 10
ENDMDL
MODEL 9
REMARK VINA RESULT:    -5.276      5.062      8.543
REMARK INTER + INTRA:          -8.708
REMARK INTER:                  -7.755
REMARK INTRA:                  -0.953
REMARK UNBOUND:                -0.502
REMARK SMILES COc1cc(CNC(=O)CCCCC=CC(C)C)ccc1O
REMARK SMILES IDX 11 1 12 2 13 3 14 4 15 5 16 6 17 7 18 8 10 9 8 10 9 11 7 12
REMARK SMILES IDX 6 14 5 15 4 16 19 17 3 18 20 19 21 20 2 21 1 22 22 23
REMARK H PARENT 7 13 22 24
REMARK Flexibility Score: inf
ROOT
ATOM      1  C   UNL     1       0.129  -0.717  42.055  1.00  0.00     0.010 C 
ENDROOT
BRANCH   1   2
ATOM      2  C   UNL     1       0.126   0.124  40.762  1.00  0.00     0.005 C 
BRANCH   2   3
ATOM      3  C   UNL     1       0.122  -0.705  39.469  1.00  0.00     0.027 C 
BRANCH   3   4
ATOM      4  C   UNL     1       0.297  -2.174  39.750  1.00  0.00    -0.031 C 
ATOM      5  C   UNL     1       1.219  -2.909  39.105  1.00  0.00    -0.028 C 
BRANCH   5   6
ATOM      6  C   UNL     1       1.378  -4.396  39.324  1.00  0.00     0.005 C 
ATOM      7  C   UNL     1       1.101  -4.775  40.784  1.00  0.00     0.012 C 
ATOM      8  C   UNL     1       2.761  -4.883  38.875  1.00  0.00     0.012 C 
ENDBRANCH   5   6
ENDBRANCH   3   4
ENDBRANCH   2   3
ENDBRANCH   1   2
BRANCH   1   9
ATOM      9  C   UNL     1       0.855  -0.056  43.238  1.00  0.00     0.100 C 
BRANCH   9  10
ATOM     10  C   UNL     1       0.351  -0.565  44.557  1.00  0.00     0.220 C 
ATOM     11  O   UNL     1       0.865  -0.132  45.625  1.00  0.00    -0.275 OA
ATOM     12  N   UNL     1      -0.726  -1.511  44.603  1.00  0.00    -0.352 N 
ATOM     13  H   UNL     1      -1.163  -1.832  43.711  1.00  0.00     0.163 HD
BRANCH  12  14
ATOM     14  C   UNL     1      -1.250  -2.041  45.860  1.00  0.00     0.151 C 
BRANCH  14  15
ATOM     15  C   UNL     1      -0.580  -3.345  46.196  1.00  0.00    -0.025 A 
ATOM     16  C   UNL     1      -0.419  -3.727  47.537  1.00  0.00     0.056 A 
ATOM     17  C   UNL     1      -0.134  -4.201  45.178  1.00  0.00     0.009 A 
ATOM     18  C   UNL     1       0.188  -4.955  47.866  1.00  0.00     0.160 A 
ATOM     19  C   UNL     1       0.473  -5.416  45.497  1.00  0.00     0.050 A 
ATOM     20  C   UNL     1       0.636  -5.798  46.833  1.00  0.00     0.157 A 
BRANCH  18  21
ATOM     21  O   UNL     1       0.361  -5.365  49.198  1.00  0.00    -0.493 OA
ATOM     22  C   UNL     1       0.115  -4.543  50.334  1.00  0.00     0.278 C 
ENDBRANCH  18  21
BRANCH  20  23
ATOM     23  O   UNL     1       1.245  -7.021  47.113  1.00  0.00    -0.504 OA
ATOM     24  H   UNL     1       0.713  -7.875  47.221  1.00  0.00     0.293 HD
ENDBRANCH  20  23
ENDBRANCH  14  15
ENDBRANCH  12  14
ENDBRANCH   9  10
ENDBRANCH   1   9
TORSDOF 10
ENDMDL
