MODEL 1
REMARK VINA RESULT:    -3.636      0.000      0.000
REMARK INTER + INTRA:          -4.354
REMARK INTER:                  -4.273
REMARK INTRA:                  -0.081
REMARK UNBOUND:                -0.081
REMARK SMILES CCCCC(=O)[O-]
REMARK SMILES IDX 4 1 5 2 6 3 7 4 3 5 2 6 1 7
REMARK H PARENT
REMARK Flexibility Score: inf
ROOT
ATOM      1  C   UNL     1       7.587  11.222 -20.979  1.00  0.00     0.053 C 
ENDROOT
BRANCH   1   2
ATOM      2  C   UNL     1       9.027  11.452 -20.632  1.00  0.00     0.041 C 
ATOM      3  O   UNL     1       9.722  12.254 -21.311  1.00  0.00    -0.550 OA
ATOM      4  O   UNL     1       9.610  10.757 -19.580  1.00  0.00    -0.550 OA
ENDBRANCH   1   2
BRANCH   1   5
ATOM      5  C   UNL     1       6.722  12.449 -20.664  1.00  0.00     0.006 C 
BRANCH   5   6
ATOM      6  C   UNL     1       6.807  12.856 -19.186  1.00  0.00    -0.003 C 
ATOM      7  C   UNL     1       5.964  14.096 -18.908  1.00  0.00     0.004 C 
ENDBRANCH   5   6
ENDBRANCH   1   5
TORSDOF 3
ENDMDL
MODEL 2
REMARK VINA RESULT:    -3.612     13.248     14.448
REMARK INTER + INTRA:          -4.326
REMARK INTER:                  -4.308
REMARK INTRA:                  -0.019
REMARK UNBOUND:                -0.081
REMARK SMILES CCCCC(=O)[O-]
REMARK SMILES IDX 4 1 5 2 6 3 7 4 3 5 2 6 1 7
REMARK H PARENT
REMARK Flexibility Score: inf
ROOT
ATOM      1  C   UNL     1       1.080  11.721  -7.852  1.00  0.00     0.053 C 
ENDROOT
BRANCH   1   2
ATOM      2  C   UNL     1      -0.400  11.948  -7.899  1.00  0.00     0.041 C 
ATOM      3  O   UNL     1      -0.893  13.014  -7.443  1.00  0.00    -0.550 OA
ATOM      4  O   UNL     1      -1.240  10.968  -8.415  1.00  0.00    -0.550 OA
ENDBRANCH   1   2
BRANCH   1   5
ATOM      5  C   UNL     1       1.441  10.259  -8.143  1.00  0.00     0.006 C 
BRANCH   5   6
ATOM      6  C   UNL     1       2.960  10.031  -8.176  1.00  0.00    -0.003 C 
ATOM      7  C   UNL     1       3.424   9.620  -9.570  1.00  0.00     0.004 C 
ENDBRANCH   5   6
ENDBRANCH   1   5
TORSDOF 3
ENDMDL
MODEL 3
REMARK VINA RESULT:    -3.535     12.999     13.947
REMARK INTER + INTRA:          -4.236
REMARK INTER:                  -4.188
REMARK INTRA:                  -0.048
REMARK UNBOUND:                -0.081
REMARK SMILES CCCCC(=O)[O-]
REMARK SMILES IDX 4 1 5 2 6 3 7 4 3 5 2 6 1 7
REMARK H PARENT
REMARK Flexibility Score: inf
ROOT
ATOM      1  C   UNL     1       1.285   9.966  -8.140  1.00  0.00     0.053 C 
ENDROOT
BRANCH   1   2
ATOM      2  C   UNL     1       2.769  10.176  -8.161  1.00  0.00     0.041 C 
ATOM      3  O   UNL     1       3.341  10.751  -7.197  1.00  0.00    -0.550 OA
ATOM      4  O   UNL     1       3.516   9.766  -9.258  1.00  0.00    -0.550 OA
ENDBRANCH   1   2
BRANCH   1   5
ATOM      5  C   UNL     1       0.592  10.899  -7.139  1.00  0.00     0.006 C 
BRANCH   5   6
ATOM      6  C   UNL     1      -0.179  12.030  -7.835  1.00  0.00    -0.003 C 
ATOM      7  C   UNL     1      -1.470  11.512  -8.460  1.00  0.00     0.004 C 
ENDBRANCH   5   6
ENDBRANCH   1   5
TORSDOF 3
ENDMDL
MODEL 4
REMARK VINA RESULT:    -3.510      2.332      3.621
REMARK INTER + INTRA:          -4.207
REMARK INTER:                  -4.158
REMARK INTRA:                  -0.049
REMARK UNBOUND:                -0.081
REMARK SMILES CCCCC(=O)[O-]
REMARK SMILES IDX 4 1 5 2 6 3 7 4 3 5 2 6 1 7
REMARK H PARENT
REMARK Flexibility Score: inf
ROOT
ATOM      1  C   UNL     1       6.558  12.631 -20.634  1.00  0.00     0.053 C 
ENDROOT
BRANCH   1   2
ATOM      2  C   UNL     1       6.864  13.090 -19.241  1.00  0.00     0.041 C 
ATOM      3  O   UNL     1       7.857  12.621 -18.624  1.00  0.00    -0.550 OA
ATOM      4  O   UNL     1       6.035  14.011 -18.613  1.00  0.00    -0.550 OA
ENDBRANCH   1   2
BRANCH   1   5
ATOM      5  C   UNL     1       7.702  11.796 -21.223  1.00  0.00     0.006 C 
BRANCH   5   6
ATOM      6  C   UNL     1       7.352  10.303 -21.302  1.00  0.00    -0.003 C 
ATOM      7  C   UNL     1       6.644   9.973 -22.613  1.00  0.00     0.004 C 
ENDBRANCH   5   6
ENDBRANCH   1   5
TORSDOF 3
ENDMDL
MODEL 5
REMARK VINA RESULT:    -3.499     13.559     14.750
REMARK INTER + INTRA:          -4.194
REMARK INTER:                  -4.149
REMARK INTRA:                  -0.044
REMARK UNBOUND:                -0.081
REMARK SMILES CCCCC(=O)[O-]
REMARK SMILES IDX 4 1 5 2 6 3 7 4 3 5 2 6 1 7
REMARK H PARENT
REMARK Flexibility Score: inf
ROOT
ATOM      1  C   UNL     1       1.038  11.636  -7.742  1.00  0.00     0.053 C 
ENDROOT
BRANCH   1   2
ATOM      2  C   UNL     1       1.087  11.900  -6.268  1.00  0.00     0.041 C 
ATOM      3  O   UNL     1       2.098  12.452  -5.756  1.00  0.00    -0.550 OA
ATOM      4  O   UNL     1       0.032  11.507  -5.453  1.00  0.00    -0.550 OA
ENDBRANCH   1   2
BRANCH   1   5
ATOM      5  C   UNL     1       1.550  10.231  -8.085  1.00  0.00     0.006 C 
BRANCH   5   6
ATOM      6  C   UNL     1       3.074  10.196  -8.269  1.00  0.00    -0.003 C 
ATOM      7  C   UNL     1       3.452   9.586  -9.615  1.00  0.00     0.004 C 
ENDBRANCH   5   6
ENDBRANCH   1   5
TORSDOF 3
ENDMDL
MODEL 6
REMARK VINA RESULT:    -3.419     13.182     14.241
REMARK INTER + INTRA:          -4.099
REMARK INTER:                  -3.991
REMARK INTRA:                  -0.108
REMARK UNBOUND:                -0.081
REMARK SMILES CCCCC(=O)[O-]
REMARK SMILES IDX 4 1 5 2 6 3 7 4 3 5 2 6 1 7
REMARK H PARENT
REMARK Flexibility Score: inf
ROOT
ATOM      1  C   UNL     1       0.979  10.324  -7.934  1.00  0.00     0.053 C 
ENDROOT
BRANCH   1   2
ATOM      2  C   UNL     1       2.456  10.168  -8.130  1.00  0.00     0.041 C 
ATOM      3  O   UNL     1       3.261  10.616  -7.270  1.00  0.00    -0.550 OA
ATOM      4  O   UNL     1       2.946   9.557  -9.278  1.00  0.00    -0.550 OA
ENDBRANCH   1   2
BRANCH   1   5
ATOM      5  C   UNL     1       0.570  11.800  -7.842  1.00  0.00     0.006 C 
BRANCH   5   6
ATOM      6  C   UNL     1       0.084  12.181  -6.436  1.00  0.00    -0.003 C 
ATOM      7  C   UNL     1       1.147  12.976  -5.683  1.00  0.00     0.004 C 
ENDBRANCH   5   6
ENDBRANCH   1   5
TORSDOF 3
ENDMDL
MODEL 7
REMARK VINA RESULT:    -3.330      2.636      3.907
REMARK INTER + INTRA:          -3.995
REMARK INTER:                  -3.975
REMARK INTRA:                  -0.020
REMARK UNBOUND:                -0.081
REMARK SMILES CCCCC(=O)[O-]
REMARK SMILES IDX 4 1 5 2 6 3 7 4 3 5 2 6 1 7
REMARK H PARENT
REMARK Flexibility Score: inf
ROOT
ATOM      1  C   UNL     1       7.534  12.677 -18.825  1.00  0.00     0.053 C 
ENDROOT
BRANCH   1   2
ATOM      2  C   UNL     1       6.541  13.166 -19.835  1.00  0.00     0.041 C 
ATOM      3  O   UNL     1       6.465  12.616 -20.966  1.00  0.00    -0.550 OA
ATOM      4  O   UNL     1       5.723  14.249 -19.540  1.00  0.00    -0.550 OA
ENDBRANCH   1   2
BRANCH   1   5
ATOM      5  C   UNL     1       8.738  12.000 -19.491  1.00  0.00     0.006 C 
BRANCH   5   6
ATOM      6  C   UNL     1       9.822  11.610 -18.476  1.00  0.00    -0.003 C 
ATOM      7  C   UNL     1      10.656  10.438 -18.983  1.00  0.00     0.004 C 
ENDBRANCH   5   6
ENDBRANCH   1   5
TORSDOF 3
ENDMDL
MODEL 8
REMARK VINA RESULT:    -3.251     15.651     16.640
REMARK INTER + INTRA:          -3.902
REMARK INTER:                  -3.880
REMARK INTRA:                  -0.022
REMARK UNBOUND:                -0.081
REMARK SMILES CCCCC(=O)[O-]
REMARK SMILES IDX 4 1 5 2 6 3 7 4 3 5 2 6 1 7
REMARK H PARENT
REMARK Flexibility Score: inf
ROOT
ATOM      1  C   UNL     1      -4.043   8.833 -10.624  1.00  0.00     0.053 C 
ENDROOT
BRANCH   1   2
ATOM      2  C   UNL     1      -4.217  10.316 -10.499  1.00  0.00     0.041 C 
ATOM      3  O   UNL     1      -3.255  11.038 -10.121  1.00  0.00    -0.550 OA
ATOM      4  O   UNL     1      -5.449  10.899 -10.766  1.00  0.00    -0.550 OA
ENDBRANCH   1   2
BRANCH   1   5
ATOM      5  C   UNL     1      -5.375   8.089 -10.473  1.00  0.00     0.006 C 
BRANCH   5   6
ATOM      6  C   UNL     1      -5.349   6.708 -11.144  1.00  0.00    -0.003 C 
ATOM      7  C   UNL     1      -6.536   5.859 -10.700  1.00  0.00     0.004 C 
ENDBRANCH   5   6
ENDBRANCH   1   5
TORSDOF 3
ENDMDL
MODEL 9
REMARK VINA RESULT:    -3.188     16.014     16.873
REMARK INTER + INTRA:          -3.828
REMARK INTER:                  -3.714
REMARK INTRA:                  -0.114
REMARK UNBOUND:                -0.081
REMARK SMILES CCCCC(=O)[O-]
REMARK SMILES IDX 4 1 5 2 6 3 7 4 3 5 2 6 1 7
REMARK H PARENT
REMARK Flexibility Score: inf
ROOT
ATOM      1  C   UNL     1      -4.235   7.860 -10.111  1.00  0.00     0.053 C 
ENDROOT
BRANCH   1   2
ATOM      2  C   UNL     1      -5.394   7.097 -10.677  1.00  0.00     0.041 C 
ATOM      3  O   UNL     1      -5.234   6.356 -11.683  1.00  0.00    -0.550 OA
ATOM      4  O   UNL     1      -6.657   7.229 -10.113  1.00  0.00    -0.550 OA
ENDBRANCH   1   2
BRANCH   1   5
ATOM      5  C   UNL     1      -4.109   9.253 -10.741  1.00  0.00     0.006 C 
BRANCH   5   6
ATOM      6  C   UNL     1      -4.761  10.342  -9.878  1.00  0.00    -0.003 C 
ATOM      7  C   UNL     1      -6.083  10.805 -10.483  1.00  0.00     0.004 C 
ENDBRANCH   5   6
ENDBRANCH   1   5
TORSDOF 3
ENDMDL
