MODEL 1
REMARK VINA RESULT:    -4.524      0.000      0.000
REMARK INTER + INTRA:          -5.776
REMARK INTER:                  -5.449
REMARK INTRA:                  -0.327
REMARK UNBOUND:                -0.327
REMARK SMILES NC(=O)C[C@@H]([NH3+])C(=O)[O-]
REMARK SMILES IDX 4 1 5 2 6 3 7 7 8 8 9 9 2 10 3 11 1 12
REMARK H PARENT 6 4 6 5 6 6 1 13 1 14
REMARK Flexibility Score: inf
ROOT
ATOM      1  C   UNL     1      22.542 -37.270 -28.977  1.00  0.00     0.171 C 
ENDROOT
BRANCH   1   2
ATOM      2  C   UNL     1      23.841 -36.474 -28.731  1.00  0.00     0.237 C 
BRANCH   2   3
ATOM      3  N   UNL     1      23.865 -35.229 -29.510  1.00  0.00    -0.350 N 
ATOM      4  H   UNL     1      23.494 -35.401 -30.473  1.00  0.00     0.345 HD
ATOM      5  H   UNL     1      24.850 -34.888 -29.604  1.00  0.00     0.345 HD
ATOM      6  H   UNL     1      23.288 -34.489 -29.047  1.00  0.00     0.345 HD
ENDBRANCH   2   3
BRANCH   2   7
ATOM      7  C   UNL     1      23.985 -36.174 -27.263  1.00  0.00     0.100 C 
ATOM      8  O   UNL     1      23.715 -35.027 -26.816  1.00  0.00    -0.544 OA
ATOM      9  O   UNL     1      24.401 -37.170 -26.389  1.00  0.00    -0.544 OA
ENDBRANCH   2   7
ENDBRANCH   1   2
BRANCH   1  10
ATOM     10  C   UNL     1      21.490 -36.425 -29.636  1.00  0.00     0.223 C 
ATOM     11  O   UNL     1      21.095 -35.368 -29.074  1.00  0.00    -0.275 OA
ATOM     12  N   UNL     1      20.911 -36.825 -30.878  1.00  0.00    -0.369 N 
ATOM     13  H   UNL     1      21.209 -37.709 -31.346  1.00  0.00     0.159 HD
ATOM     14  H   UNL     1      20.172 -36.240 -31.326  1.00  0.00     0.159 HD
ENDBRANCH   1  10
TORSDOF 4
ENDMDL
MODEL 2
REMARK VINA RESULT:    -4.423     17.669     18.280
REMARK INTER + INTRA:          -5.655
REMARK INTER:                  -5.233
REMARK INTRA:                  -0.423
REMARK UNBOUND:                -0.327
REMARK SMILES NC(=O)C[C@@H]([NH3+])C(=O)[O-]
REMARK SMILES IDX 4 1 5 2 6 3 7 7 8 8 9 9 2 10 3 11 1 12
REMARK H PARENT 6 4 6 5 6 6 1 13 1 14
REMARK Flexibility Score: inf
ROOT
ATOM      1  C   UNL     1      17.306 -17.889 -26.630  1.00  0.00     0.171 C 
ENDROOT
BRANCH   1   2
ATOM      2  C   UNL     1      16.276 -18.999 -26.336  1.00  0.00     0.237 C 
BRANCH   2   3
ATOM      3  N   UNL     1      16.229 -19.991 -27.419  1.00  0.00    -0.350 N 
ATOM      4  H   UNL     1      15.408 -19.806 -28.039  1.00  0.00     0.345 HD
ATOM      5  H   UNL     1      16.116 -20.951 -27.016  1.00  0.00     0.345 HD
ATOM      6  H   UNL     1      17.105 -19.960 -27.990  1.00  0.00     0.345 HD
ENDBRANCH   2   3
BRANCH   2   7
ATOM      7  C   UNL     1      16.607 -19.669 -25.029  1.00  0.00     0.100 C 
ATOM      8  O   UNL     1      16.246 -19.154 -23.937  1.00  0.00    -0.544 OA
ATOM      9  O   UNL     1      17.301 -20.872 -25.022  1.00  0.00    -0.544 OA
ENDBRANCH   2   7
ENDBRANCH   1   2
BRANCH   1  10
ATOM     10  C   UNL     1      18.498 -18.421 -27.373  1.00  0.00     0.223 C 
ATOM     11  O   UNL     1      18.577 -18.265 -28.621  1.00  0.00    -0.275 OA
ATOM     12  N   UNL     1      19.526 -19.130 -26.682  1.00  0.00    -0.369 N 
ATOM     13  H   UNL     1      19.466 -19.288 -25.652  1.00  0.00     0.159 HD
ATOM     14  H   UNL     1      20.347 -19.508 -27.205  1.00  0.00     0.159 HD
ENDBRANCH   1  10
TORSDOF 4
ENDMDL
MODEL 3
REMARK VINA RESULT:    -4.338     17.677     18.294
REMARK INTER + INTRA:          -5.553
REMARK INTER:                  -5.417
REMARK INTRA:                  -0.136
REMARK UNBOUND:                -0.327
REMARK SMILES NC(=O)C[C@@H]([NH3+])C(=O)[O-]
REMARK SMILES IDX 4 1 5 2 6 3 7 7 8 8 9 9 2 10 3 11 1 12
REMARK H PARENT 6 4 6 5 6 6 1 13 1 14
REMARK Flexibility Score: inf
ROOT
ATOM      1  C   UNL     1      18.027 -19.693 -26.481  1.00  0.00     0.171 C 
ENDROOT
BRANCH   1   2
ATOM      2  C   UNL     1      16.567 -19.868 -26.011  1.00  0.00     0.237 C 
BRANCH   2   3
ATOM      3  N   UNL     1      16.184 -21.285 -25.958  1.00  0.00    -0.350 N 
ATOM      4  H   UNL     1      17.009 -21.887 -26.184  1.00  0.00     0.345 HD
ATOM      5  H   UNL     1      15.442 -21.479 -26.669  1.00  0.00     0.345 HD
ATOM      6  H   UNL     1      15.824 -21.538 -25.008  1.00  0.00     0.345 HD
ENDBRANCH   2   3
BRANCH   2   7
ATOM      7  C   UNL     1      16.387 -19.228 -24.660  1.00  0.00     0.100 C 
ATOM      8  O   UNL     1      16.522 -19.908 -23.608  1.00  0.00    -0.544 OA
ATOM      9  O   UNL     1      16.086 -17.875 -24.568  1.00  0.00    -0.544 OA
ENDBRANCH   2   7
ENDBRANCH   1   2
BRANCH   1  10
ATOM     10  C   UNL     1      18.131 -18.719 -27.617  1.00  0.00     0.223 C 
ATOM     11  O   UNL     1      17.147 -17.984 -27.902  1.00  0.00    -0.275 OA
ATOM     12  N   UNL     1      19.323 -18.640 -28.399  1.00  0.00    -0.369 N 
ATOM     13  H   UNL     1      20.139 -19.257 -28.192  1.00  0.00     0.159 HD
ATOM     14  H   UNL     1      19.386 -17.968 -29.196  1.00  0.00     0.159 HD
ENDBRANCH   1  10
TORSDOF 4
ENDMDL
MODEL 4
REMARK VINA RESULT:    -4.328      1.753      3.727
REMARK INTER + INTRA:          -5.540
REMARK INTER:                  -5.347
REMARK INTRA:                  -0.193
REMARK UNBOUND:                -0.327
REMARK SMILES NC(=O)C[C@@H]([NH3+])C(=O)[O-]
REMARK SMILES IDX 4 1 5 2 6 3 7 7 8 8 9 9 2 10 3 11 1 12
REMARK H PARENT 6 4 6 5 6 6 1 13 1 14
REMARK Flexibility Score: inf
ROOT
ATOM      1  C   UNL     1      23.540 -37.058 -28.358  1.00  0.00     0.171 C 
ENDROOT
BRANCH   1   2
ATOM      2  C   UNL     1      22.805 -35.763 -28.765  1.00  0.00     0.237 C 
BRANCH   2   3
ATOM      3  N   UNL     1      23.674 -34.875 -29.549  1.00  0.00    -0.350 N 
ATOM      4  H   UNL     1      23.194 -33.962 -29.718  1.00  0.00     0.345 HD
ATOM      5  H   UNL     1      23.876 -35.308 -30.480  1.00  0.00     0.345 HD
ATOM      6  H   UNL     1      24.577 -34.702 -29.048  1.00  0.00     0.345 HD
ENDBRANCH   2   3
BRANCH   2   7
ATOM      7  C   UNL     1      21.566 -36.105 -29.549  1.00  0.00     0.100 C 
ATOM      8  O   UNL     1      20.467 -35.552 -29.280  1.00  0.00    -0.544 OA
ATOM      9  O   UNL     1      21.635 -37.024 -30.588  1.00  0.00    -0.544 OA
ENDBRANCH   2   7
ENDBRANCH   1   2
BRANCH   1  10
ATOM     10  C   UNL     1      24.243 -36.906 -27.040  1.00  0.00     0.223 C 
ATOM     11  O   UNL     1      24.134 -35.829 -26.394  1.00  0.00    -0.275 OA
ATOM     12  N   UNL     1      25.061 -37.958 -26.528  1.00  0.00    -0.369 N 
ATOM     13  H   UNL     1      25.181 -38.848 -27.061  1.00  0.00     0.159 HD
ATOM     14  H   UNL     1      25.556 -37.843 -25.617  1.00  0.00     0.159 HD
ENDBRANCH   1  10
TORSDOF 4
ENDMDL
MODEL 5
REMARK VINA RESULT:    -4.202      9.760     11.114
REMARK INTER + INTRA:          -5.388
REMARK INTER:                  -5.132
REMARK INTRA:                  -0.257
REMARK UNBOUND:                -0.327
REMARK SMILES NC(=O)C[C@@H]([NH3+])C(=O)[O-]
REMARK SMILES IDX 4 1 5 2 6 3 7 7 8 8 9 9 2 10 3 11 1 12
REMARK H PARENT 6 4 6 5 6 6 1 13 1 14
REMARK Flexibility Score: inf
ROOT
ATOM      1  C   UNL     1      15.363 -28.798 -31.561  1.00  0.00     0.171 C 
ENDROOT
BRANCH   1   2
ATOM      2  C   UNL     1      14.900 -30.059 -30.803  1.00  0.00     0.237 C 
BRANCH   2   3
ATOM      3  N   UNL     1      15.436 -31.283 -31.415  1.00  0.00    -0.350 N 
ATOM      4  H   UNL     1      14.701 -32.026 -31.431  1.00  0.00     0.345 HD
ATOM      5  H   UNL     1      16.240 -31.640 -30.848  1.00  0.00     0.345 HD
ATOM      6  H   UNL     1      15.761 -31.098 -32.392  1.00  0.00     0.345 HD
ENDBRANCH   2   3
BRANCH   2   7
ATOM      7  C   UNL     1      15.323 -29.970 -29.360  1.00  0.00     0.100 C 
ATOM      8  O   UNL     1      16.380 -30.531 -28.968  1.00  0.00    -0.544 OA
ATOM      9  O   UNL     1      14.553 -29.250 -28.456  1.00  0.00    -0.544 OA
ENDBRANCH   2   7
ENDBRANCH   1   2
BRANCH   1  10
ATOM     10  C   UNL     1      14.308 -27.731 -31.559  1.00  0.00     0.223 C 
ATOM     11  O   UNL     1      13.521 -27.628 -32.538  1.00  0.00    -0.275 OA
ATOM     12  N   UNL     1      14.209 -26.809 -30.473  1.00  0.00    -0.369 N 
ATOM     13  H   UNL     1      14.868 -26.865 -29.665  1.00  0.00     0.159 HD
ATOM     14  H   UNL     1      13.480 -26.062 -30.481  1.00  0.00     0.159 HD
ENDBRANCH   1  10
TORSDOF 4
ENDMDL
MODEL 6
REMARK VINA RESULT:    -4.171     11.284     12.914
REMARK INTER + INTRA:          -5.351
REMARK INTER:                  -5.097
REMARK INTRA:                  -0.254
REMARK UNBOUND:                -0.327
REMARK SMILES NC(=O)C[C@@H]([NH3+])C(=O)[O-]
REMARK SMILES IDX 4 1 5 2 6 3 7 7 8 8 9 9 2 10 3 11 1 12
REMARK H PARENT 6 4 6 5 6 6 1 13 1 14
REMARK Flexibility Score: inf
ROOT
ATOM      1  C   UNL     1      13.836 -28.954 -31.429  1.00  0.00     0.171 C 
ENDROOT
BRANCH   1   2
ATOM      2  C   UNL     1      13.306 -27.805 -30.546  1.00  0.00     0.237 C 
BRANCH   2   3
ATOM      3  N   UNL     1      14.337 -26.783 -30.316  1.00  0.00    -0.350 N 
ATOM      4  H   UNL     1      15.231 -27.067 -30.778  1.00  0.00     0.345 HD
ATOM      5  H   UNL     1      14.521 -26.690 -29.291  1.00  0.00     0.345 HD
ATOM      6  H   UNL     1      14.033 -25.857 -30.696  1.00  0.00     0.345 HD
ENDBRANCH   2   3
BRANCH   2   7
ATOM      7  C   UNL     1      12.093 -27.186 -31.188  1.00  0.00     0.100 C 
ATOM      8  O   UNL     1      12.104 -26.876 -32.409  1.00  0.00    -0.544 OA
ATOM      9  O   UNL     1      10.944 -26.971 -30.437  1.00  0.00    -0.544 OA
ENDBRANCH   2   7
ENDBRANCH   1   2
BRANCH   1  10
ATOM     10  C   UNL     1      14.661 -29.926 -30.638  1.00  0.00     0.223 C 
ATOM     11  O   UNL     1      14.814 -29.753 -29.399  1.00  0.00    -0.275 OA
ATOM     12  N   UNL     1      15.301 -31.028 -31.282  1.00  0.00    -0.369 N 
ATOM     13  H   UNL     1      15.204 -31.174 -32.311  1.00  0.00     0.159 HD
ATOM     14  H   UNL     1      15.883 -31.695 -30.729  1.00  0.00     0.159 HD
ENDBRANCH   1  10
TORSDOF 4
ENDMDL
MODEL 7
REMARK VINA RESULT:    -4.126      9.635     10.800
REMARK INTER + INTRA:          -5.298
REMARK INTER:                  -4.913
REMARK INTRA:                  -0.385
REMARK UNBOUND:                -0.327
REMARK SMILES NC(=O)C[C@@H]([NH3+])C(=O)[O-]
REMARK SMILES IDX 4 1 5 2 6 3 7 7 8 8 9 9 2 10 3 11 1 12
REMARK H PARENT 6 4 6 5 6 6 1 13 1 14
REMARK Flexibility Score: inf
ROOT
ATOM      1  C   UNL     1      15.013 -29.181 -29.584  1.00  0.00     0.171 C 
ENDROOT
BRANCH   1   2
ATOM      2  C   UNL     1      15.976 -30.105 -30.359  1.00  0.00     0.237 C 
BRANCH   2   3
ATOM      3  N   UNL     1      15.245 -31.032 -31.234  1.00  0.00    -0.350 N 
ATOM      4  H   UNL     1      14.616 -30.497 -31.877  1.00  0.00     0.345 HD
ATOM      5  H   UNL     1      14.647 -31.667 -30.657  1.00  0.00     0.345 HD
ATOM      6  H   UNL     1      15.909 -31.607 -31.803  1.00  0.00     0.345 HD
ENDBRANCH   2   3
BRANCH   2   7
ATOM      7  C   UNL     1      16.938 -29.274 -31.167  1.00  0.00     0.100 C 
ATOM      8  O   UNL     1      16.955 -29.358 -32.424  1.00  0.00    -0.544 OA
ATOM      9  O   UNL     1      17.803 -28.396 -30.527  1.00  0.00    -0.544 OA
ENDBRANCH   2   7
ENDBRANCH   1   2
BRANCH   1  10
ATOM     10  C   UNL     1      14.209 -28.315 -30.509  1.00  0.00     0.223 C 
ATOM     11  O   UNL     1      13.429 -28.847 -31.344  1.00  0.00    -0.275 OA
ATOM     12  N   UNL     1      14.346 -26.894 -30.475  1.00  0.00    -0.369 N 
ATOM     13  H   UNL     1      15.005 -26.437 -29.806  1.00  0.00     0.159 HD
ATOM     14  H   UNL     1      13.793 -26.296 -31.128  1.00  0.00     0.159 HD
ENDBRANCH   1  10
TORSDOF 4
ENDMDL
MODEL 8
REMARK VINA RESULT:    -4.106      9.123     10.377
REMARK INTER + INTRA:          -5.273
REMARK INTER:                  -5.021
REMARK INTRA:                  -0.252
REMARK UNBOUND:                -0.327
REMARK SMILES NC(=O)C[C@@H]([NH3+])C(=O)[O-]
REMARK SMILES IDX 4 1 5 2 6 3 7 7 8 8 9 9 2 10 3 11 1 12
REMARK H PARENT 6 4 6 5 6 6 1 13 1 14
REMARK Flexibility Score: inf
ROOT
ATOM      1  C   UNL     1      14.809 -29.324 -30.141  1.00  0.00     0.171 C 
ENDROOT
BRANCH   1   2
ATOM      2  C   UNL     1      16.125 -29.715 -29.437  1.00  0.00     0.237 C 
BRANCH   2   3
ATOM      3  N   UNL     1      15.874 -30.285 -28.106  1.00  0.00    -0.350 N 
ATOM      4  H   UNL     1      15.167 -31.053 -28.173  1.00  0.00     0.345 HD
ATOM      5  H   UNL     1      15.487 -29.549 -27.471  1.00  0.00     0.345 HD
ATOM      6  H   UNL     1      16.757 -30.666 -27.692  1.00  0.00     0.345 HD
ENDBRANCH   2   3
BRANCH   2   7
ATOM      7  C   UNL     1      16.887 -30.695 -30.289  1.00  0.00     0.100 C 
ATOM      8  O   UNL     1      18.053 -31.048 -29.968  1.00  0.00    -0.544 OA
ATOM      9  O   UNL     1      16.298 -31.228 -31.428  1.00  0.00    -0.544 OA
ENDBRANCH   2   7
ENDBRANCH   1   2
BRANCH   1  10
ATOM     10  C   UNL     1      14.260 -28.031 -29.612  1.00  0.00     0.223 C 
ATOM     11  O   UNL     1      13.770 -27.989 -28.451  1.00  0.00    -0.275 OA
ATOM     12  N   UNL     1      14.257 -26.856 -30.423  1.00  0.00    -0.369 N 
ATOM     13  H   UNL     1      14.638 -26.879 -31.395  1.00  0.00     0.159 HD
ATOM     14  H   UNL     1      13.864 -25.963 -30.054  1.00  0.00     0.159 HD
ENDBRANCH   1  10
TORSDOF 4
ENDMDL
MODEL 9
REMARK VINA RESULT:    -4.103     10.099     11.794
REMARK INTER + INTRA:          -5.270
REMARK INTER:                  -5.034
REMARK INTRA:                  -0.237
REMARK UNBOUND:                -0.327
REMARK SMILES NC(=O)C[C@@H]([NH3+])C(=O)[O-]
REMARK SMILES IDX 4 1 5 2 6 3 7 7 8 8 9 9 2 10 3 11 1 12
REMARK H PARENT 6 4 6 5 6 6 1 13 1 14
REMARK Flexibility Score: inf
ROOT
ATOM      1  C   UNL     1      15.851 -28.794 -30.946  1.00  0.00     0.171 C 
ENDROOT
BRANCH   1   2
ATOM      2  C   UNL     1      14.463 -28.164 -31.187  1.00  0.00     0.237 C 
BRANCH   2   3
ATOM      3  N   UNL     1      14.349 -26.848 -30.543  1.00  0.00    -0.350 N 
ATOM      4  H   UNL     1      13.893 -26.946 -29.607  1.00  0.00     0.345 HD
ATOM      5  H   UNL     1      13.751 -26.218 -31.126  1.00  0.00     0.345 HD
ATOM      6  H   UNL     1      15.292 -26.411 -30.422  1.00  0.00     0.345 HD
ENDBRANCH   2   3
BRANCH   2   7
ATOM      7  C   UNL     1      14.209 -28.043 -32.667  1.00  0.00     0.100 C 
ATOM      8  O   UNL     1      14.917 -28.680 -33.491  1.00  0.00    -0.544 OA
ATOM      9  O   UNL     1      13.175 -27.239 -33.129  1.00  0.00    -0.544 OA
ENDBRANCH   2   7
ENDBRANCH   1   2
BRANCH   1  10
ATOM     10  C   UNL     1      15.743 -30.237 -30.548  1.00  0.00     0.223 C 
ATOM     11  O   UNL     1      15.928 -30.569 -29.346  1.00  0.00    -0.275 OA
ATOM     12  N   UNL     1      15.465 -31.241 -31.525  1.00  0.00    -0.369 N 
ATOM     13  H   UNL     1      15.331 -30.986 -32.528  1.00  0.00     0.159 HD
ATOM     14  H   UNL     1      15.402 -32.244 -31.245  1.00  0.00     0.159 HD
ENDBRANCH   1  10
TORSDOF 4
ENDMDL
