MODEL 1
REMARK VINA RESULT:    -4.761      0.000      0.000
REMARK INTER + INTRA:         -10.361
REMARK INTER:                  -8.101
REMARK INTRA:                  -2.260
REMARK UNBOUND:                -2.260
REMARK SMILES CCCCCCCCCCCCCC(=O)[O-]
REMARK SMILES IDX 8 1 9 2 10 3 11 4 12 5 13 6 14 7 15 8 16 9 7 10 6 11 5 12
REMARK SMILES IDX 4 13 3 14 2 15 1 16
REMARK H PARENT
REMARK Flexibility Score: inf
ROOT
ATOM      1  C   UNL     1      10.981  14.638  72.185  1.00  0.00     0.000 C 
ENDROOT
BRANCH   1   2
ATOM      2  C   UNL     1      12.046  15.746  72.216  1.00  0.00     0.000 C 
BRANCH   2   3
ATOM      3  C   UNL     1      11.740  16.891  71.237  1.00  0.00     0.000 C 
BRANCH   3   4
ATOM      4  C   UNL     1      10.227  17.086  71.077  1.00  0.00     0.000 C 
BRANCH   4   5
ATOM      5  C   UNL     1       9.839  17.199  69.598  1.00  0.00     0.006 C 
BRANCH   5   6
ATOM      6  C   UNL     1      10.963  17.843  68.782  1.00  0.00     0.053 C 
BRANCH   6   7
ATOM      7  C   UNL     1      11.013  17.259  67.406  1.00  0.00     0.041 C 
ATOM      8  O   UNL     1      10.189  16.370  67.065  1.00  0.00    -0.550 OA
ATOM      9  O   UNL     1      12.002  17.660  66.516  1.00  0.00    -0.550 OA
ENDBRANCH   6   7
ENDBRANCH   5   6
ENDBRANCH   4   5
ENDBRANCH   3   4
ENDBRANCH   2   3
ENDBRANCH   1   2
BRANCH   1  10
ATOM     10  C   UNL     1      11.359  13.482  71.241  1.00  0.00     0.000 C 
BRANCH  10  11
ATOM     11  C   UNL     1      10.599  13.539  69.905  1.00  0.00    -0.000 C 
BRANCH  11  12
ATOM     12  C   UNL     1      11.542  13.533  68.689  1.00  0.00    -0.000 C 
BRANCH  12  13
ATOM     13  C   UNL     1      13.022  13.648  69.090  1.00  0.00    -0.000 C 
BRANCH  13  14
ATOM     14  C   UNL     1      13.627  15.017  68.736  1.00  0.00    -0.000 C 
BRANCH  14  15
ATOM     15  C   UNL     1      14.720  15.452  69.725  1.00  0.00    -0.003 C 
ATOM     16  C   UNL     1      15.260  14.289  70.555  1.00  0.00     0.004 C 
ENDBRANCH  14  15
ENDBRANCH  13  14
ENDBRANCH  12  13
ENDBRANCH  11  12
ENDBRANCH  10  11
ENDBRANCH   1  10
TORSDOF 12
ENDMDL
MODEL 2
REMARK VINA RESULT:    -4.680      1.111      2.563
REMARK INTER + INTRA:         -10.224
REMARK INTER:                  -8.107
REMARK INTRA:                  -2.117
REMARK UNBOUND:                -2.260
REMARK SMILES CCCCCCCCCCCCCC(=O)[O-]
REMARK SMILES IDX 8 1 9 2 10 3 11 4 12 5 13 6 14 7 15 8 16 9 7 10 6 11 5 12
REMARK SMILES IDX 4 13 3 14 2 15 1 16
REMARK H PARENT
REMARK Flexibility Score: inf
ROOT
ATOM      1  C   UNL     1      12.135  16.023  72.002  1.00  0.00     0.000 C 
ENDROOT
BRANCH   1   2
ATOM      2  C   UNL     1      10.632  16.339  71.949  1.00  0.00     0.000 C 
BRANCH   2   3
ATOM      3  C   UNL     1      10.268  17.300  70.805  1.00  0.00     0.000 C 
BRANCH   3   4
ATOM      4  C   UNL     1       9.358  16.613  69.779  1.00  0.00     0.000 C 
BRANCH   4   5
ATOM      5  C   UNL     1       9.977  16.656  68.377  1.00  0.00     0.006 C 
BRANCH   5   6
ATOM      6  C   UNL     1      10.967  17.817  68.248  1.00  0.00     0.053 C 
BRANCH   6   7
ATOM      7  C   UNL     1      11.678  17.756  66.934  1.00  0.00     0.041 C 
ATOM      8  O   UNL     1      12.258  16.697  66.575  1.00  0.00    -0.550 OA
ATOM      9  O   UNL     1      11.742  18.884  66.125  1.00  0.00    -0.550 OA
ENDBRANCH   6   7
ENDBRANCH   5   6
ENDBRANCH   4   5
ENDBRANCH   3   4
ENDBRANCH   2   3
ENDBRANCH   1   2
BRANCH   1  10
ATOM     10  C   UNL     1      12.955  16.887  71.027  1.00  0.00     0.000 C 
BRANCH  10  11
ATOM     11  C   UNL     1      13.797  16.043  70.055  1.00  0.00    -0.000 C 
BRANCH  11  12
ATOM     12  C   UNL     1      14.173  14.670  70.637  1.00  0.00    -0.000 C 
BRANCH  12  13
ATOM     13  C   UNL     1      13.517  13.507  69.874  1.00  0.00    -0.000 C 
BRANCH  13  14
ATOM     14  C   UNL     1      12.758  13.973  68.620  1.00  0.00    -0.000 C 
BRANCH  14  15
ATOM     15  C   UNL     1      11.343  13.381  68.534  1.00  0.00    -0.003 C 
ATOM     16  C   UNL     1      10.731  13.115  69.908  1.00  0.00     0.004 C 
ENDBRANCH  14  15
ENDBRANCH  13  14
ENDBRANCH  12  13
ENDBRANCH  11  12
ENDBRANCH  10  11
ENDBRANCH   1  10
TORSDOF 12
ENDMDL
MODEL 3
REMARK VINA RESULT:    -4.583      1.801      3.728
REMARK INTER + INTRA:         -10.057
REMARK INTER:                  -8.499
REMARK INTRA:                  -1.558
REMARK UNBOUND:                -2.260
REMARK SMILES CCCCCCCCCCCCCC(=O)[O-]
REMARK SMILES IDX 8 1 9 2 10 3 11 4 12 5 13 6 14 7 15 8 16 9 7 10 6 11 5 12
REMARK SMILES IDX 4 13 3 14 2 15 1 16
REMARK H PARENT
REMARK Flexibility Score: inf
ROOT
ATOM      1  C   UNL     1      13.797  15.375  68.928  1.00  0.00     0.000 C 
ENDROOT
BRANCH   1   2
ATOM      2  C   UNL     1      14.017  15.679  70.419  1.00  0.00     0.000 C 
BRANCH   2   3
ATOM      3  C   UNL     1      13.253  16.927  70.889  1.00  0.00     0.000 C 
BRANCH   3   4
ATOM      4  C   UNL     1      12.098  16.544  71.823  1.00  0.00     0.000 C 
BRANCH   4   5
ATOM      5  C   UNL     1      10.748  16.977  71.239  1.00  0.00     0.006 C 
BRANCH   5   6
ATOM      6  C   UNL     1      10.926  17.613  69.857  1.00  0.00     0.053 C 
BRANCH   6   7
ATOM      7  C   UNL     1      10.087  16.904  68.842  1.00  0.00     0.041 C 
ATOM      8  O   UNL     1      10.454  16.856  67.638  1.00  0.00    -0.550 OA
ATOM      9  O   UNL     1       8.874  16.337  69.215  1.00  0.00    -0.550 OA
ENDBRANCH   6   7
ENDBRANCH   5   6
ENDBRANCH   4   5
ENDBRANCH   3   4
ENDBRANCH   2   3
ENDBRANCH   1   2
BRANCH   1  10
ATOM     10  C   UNL     1      12.951  14.109  68.702  1.00  0.00     0.000 C 
BRANCH  10  11
ATOM     11  C   UNL     1      12.397  13.528  70.014  1.00  0.00    -0.000 C 
BRANCH  11  12
ATOM     12  C   UNL     1      10.886  13.251  69.945  1.00  0.00    -0.000 C 
BRANCH  12  13
ATOM     13  C   UNL     1      10.338  13.320  68.510  1.00  0.00    -0.000 C 
BRANCH  13  14
ATOM     14  C   UNL     1      10.092  11.928  67.902  1.00  0.00    -0.000 C 
BRANCH  14  15
ATOM     15  C   UNL     1       9.325  10.997  68.853  1.00  0.00    -0.003 C 
ATOM     16  C   UNL     1       8.888   9.697  68.181  1.00  0.00     0.004 C 
ENDBRANCH  14  15
ENDBRANCH  13  14
ENDBRANCH  12  13
ENDBRANCH  11  12
ENDBRANCH  10  11
ENDBRANCH   1  10
TORSDOF 12
ENDMDL
MODEL 4
REMARK VINA RESULT:    -4.565      2.297      4.794
REMARK INTER + INTRA:         -10.028
REMARK INTER:                  -8.084
REMARK INTRA:                  -1.943
REMARK UNBOUND:                -2.260
REMARK SMILES CCCCCCCCCCCCCC(=O)[O-]
REMARK SMILES IDX 8 1 9 2 10 3 11 4 12 5 13 6 14 7 15 8 16 9 7 10 6 11 5 12
REMARK SMILES IDX 4 13 3 14 2 15 1 16
REMARK H PARENT
REMARK Flexibility Score: inf
ROOT
ATOM      1  C   UNL     1       9.247  15.496  68.518  1.00  0.00     0.000 C 
ENDROOT
BRANCH   1   2
ATOM      2  C   UNL     1       9.729  14.097  68.939  1.00  0.00     0.000 C 
BRANCH   2   3
ATOM      3  C   UNL     1      10.812  13.536  68.004  1.00  0.00     0.000 C 
BRANCH   3   4
ATOM      4  C   UNL     1      12.005  13.001  68.806  1.00  0.00     0.000 C 
BRANCH   4   5
ATOM      5  C   UNL     1      13.152  14.018  68.832  1.00  0.00     0.006 C 
BRANCH   5   6
ATOM      6  C   UNL     1      13.958  13.904  70.130  1.00  0.00     0.053 C 
BRANCH   6   7
ATOM      7  C   UNL     1      15.209  14.719  70.042  1.00  0.00     0.041 C 
ATOM      8  O   UNL     1      16.321  14.156  69.856  1.00  0.00    -0.550 OA
ATOM      9  O   UNL     1      15.156  16.097  70.216  1.00  0.00    -0.550 OA
ENDBRANCH   6   7
ENDBRANCH   5   6
ENDBRANCH   4   5
ENDBRANCH   3   4
ENDBRANCH   2   3
ENDBRANCH   1   2
BRANCH   1  10
ATOM     10  C   UNL     1      10.346  16.311  67.814  1.00  0.00     0.000 C 
BRANCH  10  11
ATOM     11  C   UNL     1      10.646  17.639  68.529  1.00  0.00    -0.000 C 
BRANCH  11  12
ATOM     12  C   UNL     1      10.723  17.483  70.058  1.00  0.00    -0.000 C 
BRANCH  12  13
ATOM     13  C   UNL     1      12.154  17.209  70.550  1.00  0.00    -0.000 C 
BRANCH  13  14
ATOM     14  C   UNL     1      12.186  16.510  71.920  1.00  0.00    -0.000 C 
BRANCH  14  15
ATOM     15  C   UNL     1      10.890  15.740  72.219  1.00  0.00    -0.003 C 
ATOM     16  C   UNL     1      11.100  14.228  72.266  1.00  0.00     0.004 C 
ENDBRANCH  14  15
ENDBRANCH  13  14
ENDBRANCH  12  13
ENDBRANCH  11  12
ENDBRANCH  10  11
ENDBRANCH   1  10
TORSDOF 12
ENDMDL
MODEL 5
REMARK VINA RESULT:    -4.518      1.912      4.552
REMARK INTER + INTRA:          -9.947
REMARK INTER:                  -8.277
REMARK INTRA:                  -1.669
REMARK UNBOUND:                -2.260
REMARK SMILES CCCCCCCCCCCCCC(=O)[O-]
REMARK SMILES IDX 8 1 9 2 10 3 11 4 12 5 13 6 14 7 15 8 16 9 7 10 6 11 5 12
REMARK SMILES IDX 4 13 3 14 2 15 1 16
REMARK H PARENT
REMARK Flexibility Score: inf
ROOT
ATOM      1  C   UNL     1      13.136  16.922  70.794  1.00  0.00     0.000 C 
ENDROOT
BRANCH   1   2
ATOM      2  C   UNL     1      14.262  15.964  70.373  1.00  0.00     0.000 C 
BRANCH   2   3
ATOM      3  C   UNL     1      13.874  15.080  69.178  1.00  0.00     0.000 C 
BRANCH   3   4
ATOM      4  C   UNL     1      13.537  13.655  69.636  1.00  0.00     0.000 C 
BRANCH   4   5
ATOM      5  C   UNL     1      12.021  13.451  69.737  1.00  0.00     0.006 C 
BRANCH   5   6
ATOM      6  C   UNL     1      11.464  12.823  68.457  1.00  0.00     0.053 C 
BRANCH   6   7
ATOM      7  C   UNL     1       9.994  12.578  68.590  1.00  0.00     0.041 C 
ATOM      8  O   UNL     1       9.212  13.533  68.839  1.00  0.00    -0.550 OA
ATOM      9  O   UNL     1       9.493  11.286  68.488  1.00  0.00    -0.550 OA
ENDBRANCH   6   7
ENDBRANCH   5   6
ENDBRANCH   4   5
ENDBRANCH   3   4
ENDBRANCH   2   3
ENDBRANCH   1   2
BRANCH   1  10
ATOM     10  C   UNL     1      12.425  16.467  72.081  1.00  0.00     0.000 C 
BRANCH  10  11
ATOM     11  C   UNL     1      10.945  16.120  71.847  1.00  0.00    -0.000 C 
BRANCH  11  12
ATOM     12  C   UNL     1      10.142  17.304  71.282  1.00  0.00    -0.000 C 
BRANCH  12  13
ATOM     13  C   UNL     1       9.781  17.117  69.799  1.00  0.00    -0.000 C 
BRANCH  13  14
ATOM     14  C   UNL     1      10.412  18.191  68.895  1.00  0.00    -0.000 C 
BRANCH  14  15
ATOM     15  C   UNL     1      11.279  17.587  67.780  1.00  0.00    -0.003 C 
ATOM     16  C   UNL     1      10.751  16.241  67.286  1.00  0.00     0.004 C 
ENDBRANCH  14  15
ENDBRANCH  13  14
ENDBRANCH  12  13
ENDBRANCH  11  12
ENDBRANCH  10  11
ENDBRANCH   1  10
TORSDOF 12
ENDMDL
MODEL 6
REMARK VINA RESULT:    -4.515      2.435      4.413
REMARK INTER + INTRA:          -9.942
REMARK INTER:                  -8.031
REMARK INTRA:                  -1.911
REMARK UNBOUND:                -2.260
REMARK SMILES CCCCCCCCCCCCCC(=O)[O-]
REMARK SMILES IDX 8 1 9 2 10 3 11 4 12 5 13 6 14 7 15 8 16 9 7 10 6 11 5 12
REMARK SMILES IDX 4 13 3 14 2 15 1 16
REMARK H PARENT
REMARK Flexibility Score: inf
ROOT
ATOM      1  C   UNL     1      12.537  16.132  67.017  1.00  0.00     0.000 C 
ENDROOT
BRANCH   1   2
ATOM      2  C   UNL     1      11.308  16.410  67.898  1.00  0.00     0.000 C 
BRANCH   2   3
ATOM      3  C   UNL     1      10.952  17.904  67.965  1.00  0.00     0.000 C 
BRANCH   3   4
ATOM      4  C   UNL     1      10.869  18.384  69.420  1.00  0.00     0.000 C 
BRANCH   4   5
ATOM      5  C   UNL     1      11.315  17.283  70.390  1.00  0.00     0.006 C 
BRANCH   5   6
ATOM      6  C   UNL     1      10.163  16.855  71.303  1.00  0.00     0.053 C 
BRANCH   6   7
ATOM      7  C   UNL     1      10.692  16.238  72.559  1.00  0.00     0.041 C 
ATOM      8  O   UNL     1      11.880  15.823  72.610  1.00  0.00    -0.550 OA
ATOM      9  O   UNL     1       9.858  16.076  73.659  1.00  0.00    -0.550 OA
ENDBRANCH   6   7
ENDBRANCH   5   6
ENDBRANCH   4   5
ENDBRANCH   3   4
ENDBRANCH   2   3
ENDBRANCH   1   2
BRANCH   1  10
ATOM     10  C   UNL     1      13.451  15.044  67.606  1.00  0.00     0.000 C 
BRANCH  10  11
ATOM     11  C   UNL     1      13.917  15.373  69.034  1.00  0.00    -0.000 C 
BRANCH  11  12
ATOM     12  C   UNL     1      13.643  14.228  70.024  1.00  0.00    -0.000 C 
BRANCH  12  13
ATOM     13  C   UNL     1      12.593  13.234  69.499  1.00  0.00    -0.000 C 
BRANCH  13  14
ATOM     14  C   UNL     1      11.199  13.469  70.107  1.00  0.00    -0.000 C 
BRANCH  14  15
ATOM     15  C   UNL     1      10.066  13.025  69.169  1.00  0.00    -0.003 C 
ATOM     16  C   UNL     1      10.562  12.688  67.764  1.00  0.00     0.004 C 
ENDBRANCH  14  15
ENDBRANCH  13  14
ENDBRANCH  12  13
ENDBRANCH  11  12
ENDBRANCH  10  11
ENDBRANCH   1  10
TORSDOF 12
ENDMDL
MODEL 7
REMARK VINA RESULT:    -4.468      1.878      3.541
REMARK INTER + INTRA:          -9.862
REMARK INTER:                  -7.963
REMARK INTRA:                  -1.898
REMARK UNBOUND:                -2.260
REMARK SMILES CCCCCCCCCCCCCC(=O)[O-]
REMARK SMILES IDX 8 1 9 2 10 3 11 4 12 5 13 6 14 7 15 8 16 9 7 10 6 11 5 12
REMARK SMILES IDX 4 13 3 14 2 15 1 16
REMARK H PARENT
REMARK Flexibility Score: inf
ROOT
ATOM      1  C   UNL     1      10.268  17.243  70.526  1.00  0.00     0.000 C 
ENDROOT
BRANCH   1   2
ATOM      2  C   UNL     1      10.606  16.507  71.833  1.00  0.00     0.000 C 
BRANCH   2   3
ATOM      3  C   UNL     1      11.719  15.462  71.655  1.00  0.00     0.000 C 
BRANCH   3   4
ATOM      4  C   UNL     1      11.173  14.042  71.848  1.00  0.00     0.000 C 
BRANCH   4   5
ATOM      5  C   UNL     1      11.306  13.220  70.560  1.00  0.00     0.006 C 
BRANCH   5   6
ATOM      6  C   UNL     1      10.151  13.515  69.599  1.00  0.00     0.053 C 
BRANCH   6   7
ATOM      7  C   UNL     1      10.054  12.449  68.554  1.00  0.00     0.041 C 
ATOM      8  O   UNL     1       9.479  11.359  68.811  1.00  0.00    -0.550 OA
ATOM      9  O   UNL     1      10.643  12.640  67.310  1.00  0.00    -0.550 OA
ENDBRANCH   6   7
ENDBRANCH   5   6
ENDBRANCH   4   5
ENDBRANCH   3   4
ENDBRANCH   2   3
ENDBRANCH   1   2
BRANCH   1  10
ATOM     10  C   UNL     1      11.511  17.502  69.656  1.00  0.00     0.000 C 
BRANCH  10  11
ATOM     11  C   UNL     1      11.192  17.489  68.152  1.00  0.00    -0.000 C 
BRANCH  11  12
ATOM     12  C   UNL     1      11.417  16.108  67.512  1.00  0.00    -0.000 C 
BRANCH  12  13
ATOM     13  C   UNL     1      12.908  15.779  67.331  1.00  0.00    -0.000 C 
BRANCH  13  14
ATOM     14  C   UNL     1      13.409  14.725  68.334  1.00  0.00    -0.000 C 
BRANCH  14  15
ATOM     15  C   UNL     1      14.429  15.298  69.330  1.00  0.00    -0.003 C 
ATOM     16  C   UNL     1      15.058  14.223  70.214  1.00  0.00     0.004 C 
ENDBRANCH  14  15
ENDBRANCH  13  14
ENDBRANCH  12  13
ENDBRANCH  11  12
ENDBRANCH  10  11
ENDBRANCH   1  10
TORSDOF 12
ENDMDL
MODEL 8
REMARK VINA RESULT:    -4.439      2.605      4.237
REMARK INTER + INTRA:          -9.812
REMARK INTER:                  -8.020
REMARK INTRA:                  -1.792
REMARK UNBOUND:                -2.260
REMARK SMILES CCCCCCCCCCCCCC(=O)[O-]
REMARK SMILES IDX 8 1 9 2 10 3 11 4 12 5 13 6 14 7 15 8 16 9 7 10 6 11 5 12
REMARK SMILES IDX 4 13 3 14 2 15 1 16
REMARK H PARENT
REMARK Flexibility Score: inf
ROOT
ATOM      1  C   UNL     1      12.418  13.526  69.874  1.00  0.00     0.000 C 
ENDROOT
BRANCH   1   2
ATOM      2  C   UNL     1      13.918  13.857  69.794  1.00  0.00     0.000 C 
BRANCH   2   3
ATOM      3  C   UNL     1      14.281  15.151  70.539  1.00  0.00     0.000 C 
BRANCH   3   4
ATOM      4  C   UNL     1      13.162  16.192  70.407  1.00  0.00     0.000 C 
BRANCH   4   5
ATOM      5  C   UNL     1      12.619  16.596  71.783  1.00  0.00     0.006 C 
BRANCH   5   6
ATOM      6  C   UNL     1      11.088  16.614  71.786  1.00  0.00     0.053 C 
BRANCH   6   7
ATOM      7  C   UNL     1      10.556  15.664  72.812  1.00  0.00     0.041 C 
ATOM      8  O   UNL     1       9.817  16.083  73.742  1.00  0.00    -0.550 OA
ATOM      9  O   UNL     1      10.915  14.322  72.770  1.00  0.00    -0.550 OA
ENDBRANCH   6   7
ENDBRANCH   5   6
ENDBRANCH   4   5
ENDBRANCH   3   4
ENDBRANCH   2   3
ENDBRANCH   1   2
BRANCH   1  10
ATOM     10  C   UNL     1      11.899  12.831  68.603  1.00  0.00     0.000 C 
BRANCH  10  11
ATOM     11  C   UNL     1      10.418  13.140  68.324  1.00  0.00    -0.000 C 
BRANCH  11  12
ATOM     12  C   UNL     1       9.912  14.363  69.108  1.00  0.00    -0.000 C 
BRANCH  12  13
ATOM     13  C   UNL     1       9.469  15.512  68.187  1.00  0.00    -0.000 C 
BRANCH  13  14
ATOM     14  C   UNL     1      10.176  16.839  68.512  1.00  0.00    -0.000 C 
BRANCH  14  15
ATOM     15  C   UNL     1      11.109  17.301  67.382  1.00  0.00    -0.003 C 
ATOM     16  C   UNL     1      12.141  16.242  66.999  1.00  0.00     0.004 C 
ENDBRANCH  14  15
ENDBRANCH  13  14
ENDBRANCH  12  13
ENDBRANCH  11  12
ENDBRANCH  10  11
ENDBRANCH   1  10
TORSDOF 12
ENDMDL
MODEL 9
REMARK VINA RESULT:    -4.397      2.109      3.477
REMARK INTER + INTRA:          -9.742
REMARK INTER:                  -8.179
REMARK INTRA:                  -1.563
REMARK UNBOUND:                -2.260
REMARK SMILES CCCCCCCCCCCCCC(=O)[O-]
REMARK SMILES IDX 8 1 9 2 10 3 11 4 12 5 13 6 14 7 15 8 16 9 7 10 6 11 5 12
REMARK SMILES IDX 4 13 3 14 2 15 1 16
REMARK H PARENT
REMARK Flexibility Score: inf
ROOT
ATOM      1  C   UNL     1      10.066  16.928  71.217  1.00  0.00     0.000 C 
ENDROOT
BRANCH   1   2
ATOM      2  C   UNL     1      10.631  17.881  70.151  1.00  0.00     0.000 C 
BRANCH   2   3
ATOM      3  C   UNL     1      10.563  17.294  68.732  1.00  0.00     0.000 C 
BRANCH   3   4
ATOM      4  C   UNL     1       9.556  16.139  68.664  1.00  0.00     0.000 C 
BRANCH   4   5
ATOM      5  C   UNL     1      10.229  14.846  68.190  1.00  0.00     0.006 C 
BRANCH   5   6
ATOM      6  C   UNL     1       9.564  13.618  68.817  1.00  0.00     0.053 C 
BRANCH   6   7
ATOM      7  C   UNL     1      10.348  12.382  68.508  1.00  0.00     0.041 C 
ATOM      8  O   UNL     1      11.589  12.453  68.303  1.00  0.00    -0.550 OA
ATOM      9  O   UNL     1       9.701  11.157  68.398  1.00  0.00    -0.550 OA
ENDBRANCH   6   7
ENDBRANCH   5   6
ENDBRANCH   4   5
ENDBRANCH   3   4
ENDBRANCH   2   3
ENDBRANCH   1   2
BRANCH   1  10
ATOM     10  C   UNL     1      11.154  16.387  72.161  1.00  0.00     0.000 C 
BRANCH  10  11
ATOM     11  C   UNL     1      11.333  14.864  72.046  1.00  0.00    -0.000 C 
BRANCH  11  12
ATOM     12  C   UNL     1      12.383  14.470  70.993  1.00  0.00    -0.000 C 
BRANCH  12  13
ATOM     13  C   UNL     1      13.438  15.568  70.774  1.00  0.00    -0.000 C 
BRANCH  13  14
ATOM     14  C   UNL     1      14.482  15.183  69.711  1.00  0.00    -0.000 C 
BRANCH  14  15
ATOM     15  C   UNL     1      15.603  14.299  70.279  1.00  0.00    -0.003 C 
ATOM     16  C   UNL     1      16.954  14.562  69.617  1.00  0.00     0.004 C 
ENDBRANCH  14  15
ENDBRANCH  13  14
ENDBRANCH  12  13
ENDBRANCH  11  12
ENDBRANCH  10  11
ENDBRANCH   1  10
TORSDOF 12
ENDMDL
