MODEL 1
REMARK VINA RESULT:    -3.163      0.000      0.000
REMARK INTER + INTRA:          -9.959
REMARK INTER:                  -6.861
REMARK INTRA:                  -3.098
REMARK UNBOUND:                -3.098
REMARK SMILES CCCCCCCCCCCCCCCCCCCCCC(=O)[O-]
REMARK SMILES IDX 12 1 11 2 10 3 9 4 8 5 7 6 6 7 5 8 4 9 3 10 2 11 1 12 13 13
REMARK SMILES IDX 14 14 15 15 16 16 17 17 18 18 19 19 20 20 21 21 22 22 23 23
REMARK SMILES IDX 24 24
REMARK H PARENT
REMARK Flexibility Score: inf
ROOT
ATOM      1  C   UNL     1      12.944  -2.743  17.419  1.00  0.00     0.000 C 
ENDROOT
BRANCH   1   2
ATOM      2  C   UNL     1      12.357  -1.500  16.728  1.00  0.00     0.000 C 
BRANCH   2   3
ATOM      3  C   UNL     1      12.986  -0.187  17.227  1.00  0.00     0.000 C 
BRANCH   3   4
ATOM      4  C   UNL     1      12.181   1.092  16.915  1.00  0.00    -0.000 C 
BRANCH   4   5
ATOM      5  C   UNL     1      13.011   2.386  16.841  1.00  0.00    -0.000 C 
BRANCH   5   6
ATOM      6  C   UNL     1      14.524   2.124  16.787  1.00  0.00    -0.000 C 
BRANCH   6   7
ATOM      7  C   UNL     1      15.261   3.291  16.113  1.00  0.00    -0.000 C 
BRANCH   7   8
ATOM      8  C   UNL     1      16.001   2.850  14.831  1.00  0.00    -0.000 C 
BRANCH   8   9
ATOM      9  C   UNL     1      16.061   3.939  13.747  1.00  0.00    -0.000 C 
BRANCH   9  10
ATOM     10  C   UNL     1      16.689   5.249  14.250  1.00  0.00    -0.000 C 
BRANCH  10  11
ATOM     11  C   UNL     1      15.731   6.445  14.132  1.00  0.00    -0.003 C 
ATOM     12  C   UNL     1      16.062   7.355  12.948  1.00  0.00     0.004 C 
ENDBRANCH  10  11
ENDBRANCH   9  10
ENDBRANCH   8   9
ENDBRANCH   7   8
ENDBRANCH   6   7
ENDBRANCH   5   6
ENDBRANCH   4   5
ENDBRANCH   3   4
ENDBRANCH   2   3
ENDBRANCH   1   2
BRANCH   1  13
ATOM     13  C   UNL     1      14.383  -2.528  17.922  1.00  0.00     0.000 C 
BRANCH  13  14
ATOM     14  C   UNL     1      15.428  -3.525  17.386  1.00  0.00     0.000 C 
BRANCH  14  15
ATOM     15  C   UNL     1      15.119  -4.012  15.960  1.00  0.00     0.000 C 
BRANCH  15  16
ATOM     16  C   UNL     1      16.028  -3.366  14.903  1.00  0.00     0.000 C 
BRANCH  16  17
ATOM     17  C   UNL     1      15.345  -2.204  14.163  1.00  0.00     0.000 C 
BRANCH  17  18
ATOM     18  C   UNL     1      15.752  -0.827  14.715  1.00  0.00     0.000 C 
BRANCH  18  19
ATOM     19  C   UNL     1      17.150  -0.772  15.362  1.00  0.00     0.000 C 
BRANCH  19  20
ATOM     20  C   UNL     1      17.134  -0.326  16.841  1.00  0.00     0.006 C 
BRANCH  20  21
ATOM     21  C   UNL     1      18.512  -0.407  17.520  1.00  0.00     0.053 C 
BRANCH  21  22
ATOM     22  C   UNL     1      18.643  -1.627  18.383  1.00  0.00     0.041 C 
ATOM     23  O   UNL     1      19.079  -2.704  17.896  1.00  0.00    -0.550 OA
ATOM     24  O   UNL     1      18.306  -1.568  19.730  1.00  0.00    -0.550 OA
ENDBRANCH  21  22
ENDBRANCH  20  21
ENDBRANCH  19  20
ENDBRANCH  18  19
ENDBRANCH  17  18
ENDBRANCH  16  17
ENDBRANCH  15  16
ENDBRANCH  14  15
ENDBRANCH  13  14
ENDBRANCH   1  13
TORSDOF 20
ENDMDL
MODEL 2
REMARK VINA RESULT:    -3.153      5.277      7.558
REMARK INTER + INTRA:          -9.937
REMARK INTER:                  -7.952
REMARK INTRA:                  -1.984
REMARK UNBOUND:                -3.098
REMARK SMILES CCCCCCCCCCCCCCCCCCCCCC(=O)[O-]
REMARK SMILES IDX 12 1 11 2 10 3 9 4 8 5 7 6 6 7 5 8 4 9 3 10 2 11 1 12 13 13
REMARK SMILES IDX 14 14 15 15 16 16 17 17 18 18 19 19 20 20 21 21 22 22 23 23
REMARK SMILES IDX 24 24
REMARK H PARENT
REMARK Flexibility Score: inf
ROOT
ATOM      1  C   UNL     1      16.565  -5.667  13.608  1.00  0.00     0.000 C 
ENDROOT
BRANCH   1   2
ATOM      2  C   UNL     1      15.768  -5.550  14.919  1.00  0.00     0.000 C 
BRANCH   2   3
ATOM      3  C   UNL     1      15.604  -4.093  15.390  1.00  0.00     0.000 C 
BRANCH   3   4
ATOM      4  C   UNL     1      16.328  -3.035  14.531  1.00  0.00    -0.000 C 
BRANCH   4   5
ATOM      5  C   UNL     1      15.485  -1.801  14.164  1.00  0.00    -0.000 C 
BRANCH   5   6
ATOM      6  C   UNL     1      16.195  -0.476  14.483  1.00  0.00    -0.000 C 
BRANCH   6   7
ATOM      7  C   UNL     1      16.956  -0.567  15.814  1.00  0.00    -0.000 C 
BRANCH   7   8
ATOM      8  C   UNL     1      16.216   0.158  16.959  1.00  0.00    -0.000 C 
BRANCH   8   9
ATOM      9  C   UNL     1      16.038  -0.701  18.222  1.00  0.00    -0.000 C 
BRANCH   9  10
ATOM     10  C   UNL     1      14.702  -1.459  18.246  1.00  0.00    -0.000 C 
BRANCH  10  11
ATOM     11  C   UNL     1      13.558  -0.658  17.605  1.00  0.00    -0.003 C 
ATOM     12  C   UNL     1      12.763  -1.473  16.584  1.00  0.00     0.004 C 
ENDBRANCH  10  11
ENDBRANCH   9  10
ENDBRANCH   8   9
ENDBRANCH   7   8
ENDBRANCH   6   7
ENDBRANCH   5   6
ENDBRANCH   4   5
ENDBRANCH   3   4
ENDBRANCH   2   3
ENDBRANCH   1   2
BRANCH   1  13
ATOM     13  C   UNL     1      15.797  -6.414  12.502  1.00  0.00     0.000 C 
BRANCH  13  14
ATOM     14  C   UNL     1      15.597  -5.632  11.190  1.00  0.00     0.000 C 
BRANCH  14  15
ATOM     15  C   UNL     1      15.021  -6.496  10.056  1.00  0.00     0.000 C 
BRANCH  15  16
ATOM     16  C   UNL     1      15.899  -6.481   8.796  1.00  0.00     0.000 C 
BRANCH  16  17
ATOM     17  C   UNL     1      17.161  -5.618   8.961  1.00  0.00     0.000 C 
BRANCH  17  18
ATOM     18  C   UNL     1      17.452  -4.750   7.725  1.00  0.00     0.000 C 
BRANCH  18  19
ATOM     19  C   UNL     1      18.913  -4.785   7.235  1.00  0.00     0.000 C 
BRANCH  19  20
ATOM     20  C   UNL     1      19.855  -3.841   8.016  1.00  0.00     0.006 C 
BRANCH  20  21
ATOM     21  C   UNL     1      21.160  -4.516   8.471  1.00  0.00     0.053 C 
BRANCH  21  22
ATOM     22  C   UNL     1      22.118  -3.537   9.079  1.00  0.00     0.041 C 
ATOM     23  O   UNL     1      22.998  -2.984   8.366  1.00  0.00    -0.550 OA
ATOM     24  O   UNL     1      22.027  -3.217  10.428  1.00  0.00    -0.550 OA
ENDBRANCH  21  22
ENDBRANCH  20  21
ENDBRANCH  19  20
ENDBRANCH  18  19
ENDBRANCH  17  18
ENDBRANCH  16  17
ENDBRANCH  15  16
ENDBRANCH  14  15
ENDBRANCH  13  14
ENDBRANCH   1  13
TORSDOF 20
ENDMDL
MODEL 3
REMARK VINA RESULT:    -3.141     11.675     14.446
REMARK INTER + INTRA:          -9.912
REMARK INTER:                  -6.356
REMARK INTRA:                  -3.556
REMARK UNBOUND:                -3.098
REMARK SMILES CCCCCCCCCCCCCCCCCCCCCC(=O)[O-]
REMARK SMILES IDX 12 1 11 2 10 3 9 4 8 5 7 6 6 7 5 8 4 9 3 10 2 11 1 12 13 13
REMARK SMILES IDX 14 14 15 15 16 16 17 17 18 18 19 19 20 20 21 21 22 22 23 23
REMARK SMILES IDX 24 24
REMARK H PARENT
REMARK Flexibility Score: inf
ROOT
ATOM      1  C   UNL     1      26.789  -1.486   8.271  1.00  0.00     0.000 C 
ENDROOT
BRANCH   1   2
ATOM      2  C   UNL     1      25.952  -1.777   7.013  1.00  0.00     0.000 C 
BRANCH   2   3
ATOM      3  C   UNL     1      24.491  -1.309   7.149  1.00  0.00     0.000 C 
BRANCH   3   4
ATOM      4  C   UNL     1      23.592  -1.587   5.926  1.00  0.00    -0.000 C 
BRANCH   4   5
ATOM      5  C   UNL     1      22.758  -2.878   6.006  1.00  0.00    -0.000 C 
BRANCH   5   6
ATOM      6  C   UNL     1      21.251  -2.610   6.143  1.00  0.00    -0.000 C 
BRANCH   6   7
ATOM      7  C   UNL     1      20.875  -2.321   7.604  1.00  0.00    -0.000 C 
BRANCH   7   8
ATOM      8  C   UNL     1      21.313  -3.458   8.554  1.00  0.00    -0.000 C 
BRANCH   8   9
ATOM      9  C   UNL     1      22.243  -2.993   9.687  1.00  0.00    -0.000 C 
BRANCH   9  10
ATOM     10  C   UNL     1      23.098  -4.133  10.263  1.00  0.00    -0.000 C 
BRANCH  10  11
ATOM     11  C   UNL     1      24.545  -4.103   9.746  1.00  0.00    -0.003 C 
ATOM     12  C   UNL     1      24.733  -4.917   8.465  1.00  0.00     0.004 C 
ENDBRANCH  10  11
ENDBRANCH   9  10
ENDBRANCH   8   9
ENDBRANCH   7   8
ENDBRANCH   6   7
ENDBRANCH   5   6
ENDBRANCH   4   5
ENDBRANCH   3   4
ENDBRANCH   2   3
ENDBRANCH   1   2
BRANCH   1  13
ATOM     13  C   UNL     1      26.092  -0.524   9.249  1.00  0.00     0.000 C 
BRANCH  13  14
ATOM     14  C   UNL     1      26.983   0.587   9.834  1.00  0.00     0.000 C 
BRANCH  14  15
ATOM     15  C   UNL     1      27.270   1.719   8.833  1.00  0.00     0.000 C 
BRANCH  15  16
ATOM     16  C   UNL     1      28.751   1.793   8.430  1.00  0.00     0.000 C 
BRANCH  16  17
ATOM     17  C   UNL     1      28.949   1.884   6.908  1.00  0.00     0.000 C 
BRANCH  17  18
ATOM     18  C   UNL     1      27.839   1.168   6.120  1.00  0.00     0.000 C 
BRANCH  18  19
ATOM     19  C   UNL     1      26.978   2.085   5.229  1.00  0.00     0.000 C 
BRANCH  19  20
ATOM     20  C   UNL     1      25.471   1.745   5.257  1.00  0.00     0.006 C 
BRANCH  20  21
ATOM     21  C   UNL     1      24.683   2.542   6.310  1.00  0.00     0.053 C 
BRANCH  21  22
ATOM     22  C   UNL     1      23.295   2.868   5.847  1.00  0.00     0.041 C 
ATOM     23  O   UNL     1      22.296   2.401   6.458  1.00  0.00    -0.550 OA
ATOM     24  O   UNL     1      23.102   3.705   4.754  1.00  0.00    -0.550 OA
ENDBRANCH  21  22
ENDBRANCH  20  21
ENDBRANCH  19  20
ENDBRANCH  18  19
ENDBRANCH  17  18
ENDBRANCH  16  17
ENDBRANCH  15  16
ENDBRANCH  14  15
ENDBRANCH  13  14
ENDBRANCH   1  13
TORSDOF 20
ENDMDL
MODEL 4
REMARK VINA RESULT:    -3.134      5.144      7.526
REMARK INTER + INTRA:          -9.895
REMARK INTER:                  -8.016
REMARK INTRA:                  -1.879
REMARK UNBOUND:                -3.098
REMARK SMILES CCCCCCCCCCCCCCCCCCCCCC(=O)[O-]
REMARK SMILES IDX 12 1 11 2 10 3 9 4 8 5 7 6 6 7 5 8 4 9 3 10 2 11 1 12 13 13
REMARK SMILES IDX 14 14 15 15 16 16 17 17 18 18 19 19 20 20 21 21 22 22 23 23
REMARK SMILES IDX 24 24
REMARK H PARENT
REMARK Flexibility Score: inf
ROOT
ATOM      1  C   UNL     1      16.244  -5.239  13.137  1.00  0.00     0.000 C 
ENDROOT
BRANCH   1   2
ATOM      2  C   UNL     1      16.803  -5.916  14.401  1.00  0.00     0.000 C 
BRANCH   2   3
ATOM      3  C   UNL     1      16.345  -5.226  15.699  1.00  0.00     0.000 C 
BRANCH   3   4
ATOM      4  C   UNL     1      14.962  -5.659  16.226  1.00  0.00    -0.000 C 
BRANCH   4   5
ATOM      5  C   UNL     1      14.221  -4.603  17.065  1.00  0.00    -0.000 C 
BRANCH   5   6
ATOM      6  C   UNL     1      15.001  -3.285  17.192  1.00  0.00    -0.000 C 
BRANCH   6   7
ATOM      7  C   UNL     1      14.053  -2.078  17.126  1.00  0.00    -0.000 C 
BRANCH   7   8
ATOM      8  C   UNL     1      14.061  -1.406  15.736  1.00  0.00    -0.000 C 
BRANCH   8   9
ATOM      9  C   UNL     1      15.226  -1.858  14.838  1.00  0.00    -0.000 C 
BRANCH   9  10
ATOM     10  C   UNL     1      16.288  -0.764  14.644  1.00  0.00    -0.000 C 
BRANCH  10  11
ATOM     11  C   UNL     1      17.535  -0.991  15.515  1.00  0.00    -0.003 C 
ATOM     12  C   UNL     1      17.418  -0.346  16.896  1.00  0.00     0.004 C 
ENDBRANCH  10  11
ENDBRANCH   9  10
ENDBRANCH   8   9
ENDBRANCH   7   8
ENDBRANCH   6   7
ENDBRANCH   5   6
ENDBRANCH   4   5
ENDBRANCH   3   4
ENDBRANCH   2   3
ENDBRANCH   1   2
BRANCH   1  13
ATOM     13  C   UNL     1      15.633  -6.239  12.139  1.00  0.00     0.000 C 
BRANCH  13  14
ATOM     14  C   UNL     1      15.355  -5.683  10.730  1.00  0.00     0.000 C 
BRANCH  14  15
ATOM     15  C   UNL     1      15.028  -6.781   9.703  1.00  0.00     0.000 C 
BRANCH  15  16
ATOM     16  C   UNL     1      15.982  -6.769   8.499  1.00  0.00     0.000 C 
BRANCH  16  17
ATOM     17  C   UNL     1      16.910  -5.543   8.488  1.00  0.00     0.000 C 
BRANCH  17  18
ATOM     18  C   UNL     1      18.385  -5.912   8.722  1.00  0.00     0.000 C 
BRANCH  18  19
ATOM     19  C   UNL     1      19.404  -4.855   8.253  1.00  0.00     0.000 C 
BRANCH  19  20
ATOM     20  C   UNL     1      20.875  -5.254   8.505  1.00  0.00     0.006 C 
BRANCH  20  21
ATOM     21  C   UNL     1      21.281  -5.195   9.987  1.00  0.00     0.053 C 
BRANCH  21  22
ATOM     22  C   UNL     1      22.101  -3.979  10.299  1.00  0.00     0.041 C 
ATOM     23  O   UNL     1      22.690  -3.879  11.408  1.00  0.00    -0.550 OA
ATOM     24  O   UNL     1      22.233  -2.966   9.356  1.00  0.00    -0.550 OA
ENDBRANCH  21  22
ENDBRANCH  20  21
ENDBRANCH  19  20
ENDBRANCH  18  19
ENDBRANCH  17  18
ENDBRANCH  16  17
ENDBRANCH  15  16
ENDBRANCH  14  15
ENDBRANCH  13  14
ENDBRANCH   1  13
TORSDOF 20
ENDMDL
MODEL 5
REMARK VINA RESULT:    -3.130     11.181     13.943
REMARK INTER + INTRA:          -9.888
REMARK INTER:                  -6.453
REMARK INTRA:                  -3.434
REMARK UNBOUND:                -3.098
REMARK SMILES CCCCCCCCCCCCCCCCCCCCCC(=O)[O-]
REMARK SMILES IDX 12 1 11 2 10 3 9 4 8 5 7 6 6 7 5 8 4 9 3 10 2 11 1 12 13 13
REMARK SMILES IDX 14 14 15 15 16 16 17 17 18 18 19 19 20 20 21 21 22 22 23 23
REMARK SMILES IDX 24 24
REMARK H PARENT
REMARK Flexibility Score: inf
ROOT
ATOM      1  C   UNL     1      21.809  -0.367   5.057  1.00  0.00     0.000 C 
ENDROOT
BRANCH   1   2
ATOM      2  C   UNL     1      23.046  -1.024   5.694  1.00  0.00     0.000 C 
BRANCH   2   3
ATOM      3  C   UNL     1      24.174  -1.283   4.679  1.00  0.00     0.000 C 
BRANCH   3   4
ATOM      4  C   UNL     1      25.534  -1.679   5.288  1.00  0.00    -0.000 C 
BRANCH   4   5
ATOM      5  C   UNL     1      25.472  -2.755   6.387  1.00  0.00    -0.000 C 
BRANCH   5   6
ATOM      6  C   UNL     1      25.739  -2.193   7.791  1.00  0.00    -0.000 C 
BRANCH   6   7
ATOM      7  C   UNL     1      24.533  -2.423   8.714  1.00  0.00    -0.000 C 
BRANCH   7   8
ATOM      8  C   UNL     1      24.109  -3.907   8.759  1.00  0.00    -0.000 C 
BRANCH   8   9
ATOM      9  C   UNL     1      22.627  -4.137   8.418  1.00  0.00    -0.000 C 
BRANCH   9  10
ATOM     10  C   UNL     1      21.696  -3.109   9.079  1.00  0.00    -0.000 C 
BRANCH  10  11
ATOM     11  C   UNL     1      20.771  -2.414   8.067  1.00  0.00    -0.003 C 
ATOM     12  C   UNL     1      19.590  -3.289   7.646  1.00  0.00     0.004 C 
ENDBRANCH  10  11
ENDBRANCH   9  10
ENDBRANCH   8   9
ENDBRANCH   7   8
ENDBRANCH   6   7
ENDBRANCH   5   6
ENDBRANCH   4   5
ENDBRANCH   3   4
ENDBRANCH   2   3
ENDBRANCH   1   2
BRANCH   1  13
ATOM     13  C   UNL     1      21.216   0.762   5.920  1.00  0.00     0.000 C 
BRANCH  13  14
ATOM     14  C   UNL     1      20.829   2.044   5.159  1.00  0.00     0.000 C 
BRANCH  14  15
ATOM     15  C   UNL     1      21.905   3.140   5.241  1.00  0.00     0.000 C 
BRANCH  15  16
ATOM     16  C   UNL     1      22.958   3.020   4.130  1.00  0.00     0.000 C 
BRANCH  16  17
ATOM     17  C   UNL     1      24.292   2.443   4.634  1.00  0.00     0.000 C 
BRANCH  17  18
ATOM     18  C   UNL     1      24.503   2.665   6.141  1.00  0.00     0.000 C 
BRANCH  18  19
ATOM     19  C   UNL     1      25.310   1.563   6.855  1.00  0.00     0.000 C 
BRANCH  19  20
ATOM     20  C   UNL     1      26.825   1.856   6.941  1.00  0.00     0.006 C 
BRANCH  20  21
ATOM     21  C   UNL     1      27.580   0.907   7.887  1.00  0.00     0.053 C 
BRANCH  21  22
ATOM     22  C   UNL     1      27.330   1.234   9.329  1.00  0.00     0.041 C 
ATOM     23  O   UNL     1      27.897   2.225   9.862  1.00  0.00    -0.550 OA
ATOM     24  O   UNL     1      26.454   0.458  10.079  1.00  0.00    -0.550 OA
ENDBRANCH  21  22
ENDBRANCH  20  21
ENDBRANCH  19  20
ENDBRANCH  18  19
ENDBRANCH  17  18
ENDBRANCH  16  17
ENDBRANCH  15  16
ENDBRANCH  14  15
ENDBRANCH  13  14
ENDBRANCH   1  13
TORSDOF 20
ENDMDL
MODEL 6
REMARK VINA RESULT:    -3.122      5.242      8.886
REMARK INTER + INTRA:          -9.869
REMARK INTER:                  -8.456
REMARK INTRA:                  -1.414
REMARK UNBOUND:                -3.098
REMARK SMILES CCCCCCCCCCCCCCCCCCCCCC(=O)[O-]
REMARK SMILES IDX 12 1 11 2 10 3 9 4 8 5 7 6 6 7 5 8 4 9 3 10 2 11 1 12 13 13
REMARK SMILES IDX 14 14 15 15 16 16 17 17 18 18 19 19 20 20 21 21 22 22 23 23
REMARK SMILES IDX 24 24
REMARK H PARENT
REMARK Flexibility Score: inf
ROOT
ATOM      1  C   UNL     1      15.619  -2.861  13.767  1.00  0.00     0.000 C 
ENDROOT
BRANCH   1   2
ATOM      2  C   UNL     1      15.978  -4.080  14.634  1.00  0.00     0.000 C 
BRANCH   2   3
ATOM      3  C   UNL     1      16.611  -5.224  13.822  1.00  0.00     0.000 C 
BRANCH   3   4
ATOM      4  C   UNL     1      15.682  -6.420  13.529  1.00  0.00    -0.000 C 
BRANCH   4   5
ATOM      5  C   UNL     1      15.553  -6.802  12.044  1.00  0.00    -0.000 C 
BRANCH   5   6
ATOM      6  C   UNL     1      15.548  -5.581  11.111  1.00  0.00    -0.000 C 
BRANCH   6   7
ATOM      7  C   UNL     1      16.220  -5.911   9.769  1.00  0.00    -0.000 C 
BRANCH   7   8
ATOM      8  C   UNL     1      17.738  -6.148   9.921  1.00  0.00    -0.000 C 
BRANCH   8   9
ATOM      9  C   UNL     1      18.543  -5.830   8.649  1.00  0.00    -0.000 C 
BRANCH   9  10
ATOM     10  C   UNL     1      17.952  -4.663   7.844  1.00  0.00    -0.000 C 
BRANCH  10  11
ATOM     11  C   UNL     1      18.000  -4.908   6.328  1.00  0.00    -0.003 C 
ATOM     12  C   UNL     1      17.678  -6.354   5.951  1.00  0.00     0.004 C 
ENDBRANCH  10  11
ENDBRANCH   9  10
ENDBRANCH   8   9
ENDBRANCH   7   8
ENDBRANCH   6   7
ENDBRANCH   5   6
ENDBRANCH   4   5
ENDBRANCH   3   4
ENDBRANCH   2   3
ENDBRANCH   1   2
BRANCH   1  13
ATOM     13  C   UNL     1      15.332  -1.596  14.597  1.00  0.00     0.000 C 
BRANCH  13  14
ATOM     14  C   UNL     1      16.409  -0.497  14.525  1.00  0.00     0.000 C 
BRANCH  14  15
ATOM     15  C   UNL     1      16.659   0.190  15.878  1.00  0.00     0.000 C 
BRANCH  15  16
ATOM     16  C   UNL     1      15.357   0.582  16.593  1.00  0.00     0.000 C 
BRANCH  16  17
ATOM     17  C   UNL     1      14.744   1.880  16.040  1.00  0.00     0.000 C 
BRANCH  17  18
ATOM     18  C   UNL     1      15.798   2.967  15.770  1.00  0.00     0.000 C 
BRANCH  18  19
ATOM     19  C   UNL     1      16.019   3.304  14.282  1.00  0.00     0.000 C 
BRANCH  19  20
ATOM     20  C   UNL     1      16.715   4.664  14.048  1.00  0.00     0.006 C 
BRANCH  20  21
ATOM     21  C   UNL     1      16.085   5.819  14.845  1.00  0.00     0.053 C 
BRANCH  21  22
ATOM     22  C   UNL     1      15.350   6.779  13.958  1.00  0.00     0.041 C 
ATOM     23  O   UNL     1      14.181   7.145  14.251  1.00  0.00    -0.550 OA
ATOM     24  O   UNL     1      15.964   7.288  12.820  1.00  0.00    -0.550 OA
ENDBRANCH  21  22
ENDBRANCH  20  21
ENDBRANCH  19  20
ENDBRANCH  18  19
ENDBRANCH  17  18
ENDBRANCH  16  17
ENDBRANCH  15  16
ENDBRANCH  14  15
ENDBRANCH  13  14
ENDBRANCH   1  13
TORSDOF 20
ENDMDL
MODEL 7
REMARK VINA RESULT:    -3.087     11.786     14.566
REMARK INTER + INTRA:          -9.794
REMARK INTER:                  -5.928
REMARK INTRA:                  -3.866
REMARK UNBOUND:                -3.098
REMARK SMILES CCCCCCCCCCCCCCCCCCCCCC(=O)[O-]
REMARK SMILES IDX 12 1 11 2 10 3 9 4 8 5 7 6 6 7 5 8 4 9 3 10 2 11 1 12 13 13
REMARK SMILES IDX 14 14 15 15 16 16 17 17 18 18 19 19 20 20 21 21 22 22 23 23
REMARK SMILES IDX 24 24
REMARK H PARENT
REMARK Flexibility Score: inf
ROOT
ATOM      1  C   UNL     1      25.518   0.552   5.660  1.00  0.00     0.000 C 
ENDROOT
BRANCH   1   2
ATOM      2  C   UNL     1      26.733   1.315   5.102  1.00  0.00     0.000 C 
BRANCH   2   3
ATOM      3  C   UNL     1      28.054   0.909   5.780  1.00  0.00     0.000 C 
BRANCH   3   4
ATOM      4  C   UNL     1      28.510   1.820   6.939  1.00  0.00    -0.000 C 
BRANCH   4   5
ATOM      5  C   UNL     1      28.474   1.171   8.335  1.00  0.00    -0.000 C 
BRANCH   5   6
ATOM      6  C   UNL     1      27.315   1.683   9.203  1.00  0.00    -0.000 C 
BRANCH   6   7
ATOM      7  C   UNL     1      26.552   0.515   9.845  1.00  0.00    -0.000 C 
BRANCH   7   8
ATOM      8  C   UNL     1      26.844  -0.828   9.142  1.00  0.00    -0.000 C 
BRANCH   8   9
ATOM      9  C   UNL     1      25.578  -1.592   8.717  1.00  0.00    -0.000 C 
BRANCH   9  10
ATOM     10  C   UNL     1      25.832  -2.572   7.561  1.00  0.00    -0.000 C 
BRANCH  10  11
ATOM     11  C   UNL     1      27.274  -2.501   7.034  1.00  0.00    -0.003 C 
ATOM     12  C   UNL     1      27.823  -3.869   6.625  1.00  0.00     0.004 C 
ENDBRANCH  10  11
ENDBRANCH   9  10
ENDBRANCH   8   9
ENDBRANCH   7   8
ENDBRANCH   6   7
ENDBRANCH   5   6
ENDBRANCH   4   5
ENDBRANCH   3   4
ENDBRANCH   2   3
ENDBRANCH   1   2
BRANCH   1  13
ATOM     13  C   UNL     1      24.657   1.405   6.609  1.00  0.00     0.000 C 
BRANCH  13  14
ATOM     14  C   UNL     1      24.489   2.882   6.205  1.00  0.00     0.000 C 
BRANCH  14  15
ATOM     15  C   UNL     1      23.299   3.115   5.257  1.00  0.00     0.000 C 
BRANCH  15  16
ATOM     16  C   UNL     1      21.951   2.755   5.900  1.00  0.00     0.000 C 
BRANCH  16  17
ATOM     17  C   UNL     1      21.094   1.839   5.011  1.00  0.00     0.000 C 
BRANCH  17  18
ATOM     18  C   UNL     1      21.939   0.866   4.172  1.00  0.00     0.000 C 
BRANCH  18  19
ATOM     19  C   UNL     1      21.898  -0.602   4.639  1.00  0.00     0.000 C 
BRANCH  19  20
ATOM     20  C   UNL     1      21.685  -0.766   6.160  1.00  0.00     0.006 C 
BRANCH  20  21
ATOM     21  C   UNL     1      22.315  -2.048   6.732  1.00  0.00     0.053 C 
BRANCH  21  22
ATOM     22  C   UNL     1      21.478  -2.649   7.821  1.00  0.00     0.041 C 
ATOM     23  O   UNL     1      22.000  -3.418   8.672  1.00  0.00    -0.550 OA
ATOM     24  O   UNL     1      20.125  -2.341   7.912  1.00  0.00    -0.550 OA
ENDBRANCH  21  22
ENDBRANCH  20  21
ENDBRANCH  19  20
ENDBRANCH  18  19
ENDBRANCH  17  18
ENDBRANCH  16  17
ENDBRANCH  15  16
ENDBRANCH  14  15
ENDBRANCH  13  14
ENDBRANCH   1  13
TORSDOF 20
ENDMDL
MODEL 8
REMARK VINA RESULT:    -2.977     11.903     14.458
REMARK INTER + INTRA:          -9.555
REMARK INTER:                  -5.718
REMARK INTRA:                  -3.837
REMARK UNBOUND:                -3.098
REMARK SMILES CCCCCCCCCCCCCCCCCCCCCC(=O)[O-]
REMARK SMILES IDX 12 1 11 2 10 3 9 4 8 5 7 6 6 7 5 8 4 9 3 10 2 11 1 12 13 13
REMARK SMILES IDX 14 14 15 15 16 16 17 17 18 18 19 19 20 20 21 21 22 22 23 23
REMARK SMILES IDX 24 24
REMARK H PARENT
REMARK Flexibility Score: inf
ROOT
ATOM      1  C   UNL     1      24.234   2.446   6.134  1.00  0.00     0.000 C 
ENDROOT
BRANCH   1   2
ATOM      2  C   UNL     1      25.411   2.130   5.194  1.00  0.00     0.000 C 
BRANCH   2   3
ATOM      3  C   UNL     1      26.673   1.677   5.951  1.00  0.00     0.000 C 
BRANCH   3   4
ATOM      4  C   UNL     1      26.498   1.480   7.471  1.00  0.00    -0.000 C 
BRANCH   4   5
ATOM      5  C   UNL     1      27.732   1.826   8.323  1.00  0.00    -0.000 C 
BRANCH   5   6
ATOM      6  C   UNL     1      27.661   1.243   9.743  1.00  0.00    -0.000 C 
BRANCH   6   7
ATOM      7  C   UNL     1      26.422   0.350   9.909  1.00  0.00    -0.000 C 
BRANCH   7   8
ATOM      8  C   UNL     1      26.797  -1.130  10.136  1.00  0.00    -0.000 C 
BRANCH   8   9
ATOM      9  C   UNL     1      28.313  -1.388  10.156  1.00  0.00    -0.000 C 
BRANCH   9  10
ATOM     10  C   UNL     1      28.780  -2.293   9.005  1.00  0.00    -0.000 C 
BRANCH  10  11
ATOM     11  C   UNL     1      28.894  -1.539   7.671  1.00  0.00    -0.003 C 
ATOM     12  C   UNL     1      27.956  -2.091   6.597  1.00  0.00     0.004 C 
ENDBRANCH  10  11
ENDBRANCH   9  10
ENDBRANCH   8   9
ENDBRANCH   7   8
ENDBRANCH   6   7
ENDBRANCH   5   6
ENDBRANCH   4   5
ENDBRANCH   3   4
ENDBRANCH   2   3
ENDBRANCH   1   2
BRANCH   1  13
ATOM     13  C   UNL     1      23.149   3.311   5.468  1.00  0.00     0.000 C 
BRANCH  13  14
ATOM     14  C   UNL     1      21.698   2.848   5.698  1.00  0.00     0.000 C 
BRANCH  14  15
ATOM     15  C   UNL     1      21.579   1.330   5.915  1.00  0.00     0.000 C 
BRANCH  15  16
ATOM     16  C   UNL     1      21.489   0.548   4.596  1.00  0.00     0.000 C 
BRANCH  16  17
ATOM     17  C   UNL     1      22.066  -0.873   4.707  1.00  0.00     0.000 C 
BRANCH  17  18
ATOM     18  C   UNL     1      23.531  -0.958   4.247  1.00  0.00     0.000 C 
BRANCH  18  19
ATOM     19  C   UNL     1      24.488  -1.640   5.243  1.00  0.00     0.000 C 
BRANCH  19  20
ATOM     20  C   UNL     1      24.281  -1.196   6.709  1.00  0.00     0.006 C 
BRANCH  20  21
ATOM     21  C   UNL     1      24.240  -2.368   7.704  1.00  0.00     0.053 C 
BRANCH  21  22
ATOM     22  C   UNL     1      23.001  -3.197   7.546  1.00  0.00     0.041 C 
ATOM     23  O   UNL     1      21.867  -2.692   7.766  1.00  0.00    -0.550 OA
ATOM     24  O   UNL     1      23.095  -4.521   7.132  1.00  0.00    -0.550 OA
ENDBRANCH  21  22
ENDBRANCH  20  21
ENDBRANCH  19  20
ENDBRANCH  18  19
ENDBRANCH  17  18
ENDBRANCH  16  17
ENDBRANCH  15  16
ENDBRANCH  14  15
ENDBRANCH  13  14
ENDBRANCH   1  13
TORSDOF 20
ENDMDL
MODEL 9
REMARK VINA RESULT:    -2.948     11.142     14.325
REMARK INTER + INTRA:          -9.493
REMARK INTER:                  -6.751
REMARK INTRA:                  -2.742
REMARK UNBOUND:                -3.098
REMARK SMILES CCCCCCCCCCCCCCCCCCCCCC(=O)[O-]
REMARK SMILES IDX 12 1 11 2 10 3 9 4 8 5 7 6 6 7 5 8 4 9 3 10 2 11 1 12 13 13
REMARK SMILES IDX 14 14 15 15 16 16 17 17 18 18 19 19 20 20 21 21 22 22 23 23
REMARK SMILES IDX 24 24
REMARK H PARENT
REMARK Flexibility Score: inf
ROOT
ATOM      1  C   UNL     1      25.499  -0.521   4.730  1.00  0.00     0.000 C 
ENDROOT
BRANCH   1   2
ATOM      2  C   UNL     1      24.377  -1.145   3.883  1.00  0.00     0.000 C 
BRANCH   2   3
ATOM      3  C   UNL     1      23.123  -0.255   3.804  1.00  0.00     0.000 C 
BRANCH   3   4
ATOM      4  C   UNL     1      21.827  -0.889   4.349  1.00  0.00    -0.000 C 
BRANCH   4   5
ATOM      5  C   UNL     1      21.642  -0.792   5.874  1.00  0.00    -0.000 C 
BRANCH   5   6
ATOM      6  C   UNL     1      21.889  -2.127   6.593  1.00  0.00    -0.000 C 
BRANCH   6   7
ATOM      7  C   UNL     1      20.853  -2.354   7.704  1.00  0.00    -0.000 C 
BRANCH   7   8
ATOM      8  C   UNL     1      21.095  -3.674   8.466  1.00  0.00    -0.000 C 
BRANCH   8   9
ATOM      9  C   UNL     1      19.966  -4.704   8.293  1.00  0.00    -0.000 C 
BRANCH   9  10
ATOM     10  C   UNL     1      18.885  -4.244   7.302  1.00  0.00    -0.000 C 
BRANCH  10  11
ATOM     11  C   UNL     1      17.500  -4.824   7.630  1.00  0.00    -0.003 C 
ATOM     12  C   UNL     1      17.484  -5.615   8.939  1.00  0.00     0.004 C 
ENDBRANCH  10  11
ENDBRANCH   9  10
ENDBRANCH   8   9
ENDBRANCH   7   8
ENDBRANCH   6   7
ENDBRANCH   5   6
ENDBRANCH   4   5
ENDBRANCH   3   4
ENDBRANCH   2   3
ENDBRANCH   1   2
BRANCH   1  13
ATOM     13  C   UNL     1      25.257  -0.659   6.245  1.00  0.00     0.000 C 
BRANCH  13  14
ATOM     14  C   UNL     1      25.240   0.663   7.036  1.00  0.00     0.000 C 
BRANCH  14  15
ATOM     15  C   UNL     1      25.622   1.882   6.179  1.00  0.00     0.000 C 
BRANCH  15  16
ATOM     16  C   UNL     1      24.553   2.984   6.208  1.00  0.00     0.000 C 
BRANCH  16  17
ATOM     17  C   UNL     1      23.121   2.425   6.157  1.00  0.00     0.000 C 
BRANCH  17  18
ATOM     18  C   UNL     1      22.147   3.356   5.415  1.00  0.00     0.000 C 
BRANCH  18  19
ATOM     19  C   UNL     1      22.229   3.293   3.877  1.00  0.00     0.000 C 
BRANCH  19  20
ATOM     20  C   UNL     1      20.933   2.787   3.204  1.00  0.00     0.006 C 
BRANCH  20  21
ATOM     21  C   UNL     1      19.778   2.558   4.194  1.00  0.00     0.053 C 
BRANCH  21  22
ATOM     22  C   UNL     1      18.786   3.681   4.171  1.00  0.00     0.041 C 
ATOM     23  O   UNL     1      18.258   4.040   3.084  1.00  0.00    -0.550 OA
ATOM     24  O   UNL     1      18.426   4.318   5.352  1.00  0.00    -0.550 OA
ENDBRANCH  21  22
ENDBRANCH  20  21
ENDBRANCH  19  20
ENDBRANCH  18  19
ENDBRANCH  17  18
ENDBRANCH  16  17
ENDBRANCH  15  16
ENDBRANCH  14  15
ENDBRANCH  13  14
ENDBRANCH   1  13
TORSDOF 20
ENDMDL
