MODEL 1
REMARK VINA RESULT:    -5.852      0.000      0.000
REMARK INTER + INTRA:         -13.828
REMARK INTER:                 -10.983
REMARK INTRA:                  -2.845
REMARK UNBOUND:                -2.845
REMARK SMILES CCCCCCCCC=CCCCCCCCC(=O)[O-]
REMARK SMILES IDX 10 1 9 2 11 3 12 4 13 5 14 6 15 7 16 8 17 9 18 10 19 11
REMARK SMILES IDX 20 12 8 13 7 14 6 15 5 16 4 17 3 18 2 19 1 20
REMARK H PARENT
REMARK Flexibility Score: inf
ROOT
ATOM      1  C   UNL     1      11.291 -14.714  36.650  1.00  0.00    -0.031 C 
ATOM      2  C   UNL     1      10.168 -15.278  37.135  1.00  0.00    -0.031 C 
ENDROOT
BRANCH   1   3
ATOM      3  C   UNL     1      12.110 -13.681  37.384  1.00  0.00     0.027 C 
BRANCH   3   4
ATOM      4  C   UNL     1      13.470 -13.473  36.700  1.00  0.00     0.004 C 
BRANCH   4   5
ATOM      5  C   UNL     1      13.333 -13.143  35.205  1.00  0.00     0.000 C 
BRANCH   5   6
ATOM      6  C   UNL     1      13.823 -11.721  34.875  1.00  0.00     0.000 C 
BRANCH   6   7
ATOM      7  C   UNL     1      12.820 -10.635  35.297  1.00  0.00     0.000 C 
BRANCH   7   8
ATOM      8  C   UNL     1      13.315  -9.803  36.492  1.00  0.00     0.006 C 
BRANCH   8   9
ATOM      9  C   UNL     1      12.175  -9.438  37.454  1.00  0.00     0.053 C 
BRANCH   9  10
ATOM     10  C   UNL     1      12.238 -10.232  38.722  1.00  0.00     0.041 C 
ATOM     11  O   UNL     1      13.353 -10.520  39.234  1.00  0.00    -0.550 OA
ATOM     12  O   UNL     1      11.067 -10.627  39.357  1.00  0.00    -0.550 OA
ENDBRANCH   9  10
ENDBRANCH   8   9
ENDBRANCH   7   8
ENDBRANCH   6   7
ENDBRANCH   5   6
ENDBRANCH   4   5
ENDBRANCH   3   4
ENDBRANCH   1   3
BRANCH   2  13
ATOM     13  C   UNL     1       9.603 -15.006  38.506  1.00  0.00     0.027 C 
BRANCH  13  14
ATOM     14  C   UNL     1       8.288 -14.218  38.411  1.00  0.00     0.004 C 
BRANCH  14  15
ATOM     15  C   UNL     1       8.506 -12.700  38.510  1.00  0.00     0.000 C 
BRANCH  15  16
ATOM     16  C   UNL     1       8.072 -11.959  37.232  1.00  0.00     0.000 C 
BRANCH  16  17
ATOM     17  C   UNL     1       9.260 -11.571  36.339  1.00  0.00    -0.000 C 
BRANCH  17  18
ATOM     18  C   UNL     1       9.239 -12.292  34.983  1.00  0.00    -0.000 C 
BRANCH  18  19
ATOM     19  C   UNL     1       7.913 -13.035  34.780  1.00  0.00    -0.003 C 
ATOM     20  C   UNL     1       7.793 -13.569  33.354  1.00  0.00     0.004 C 
ENDBRANCH  18  19
ENDBRANCH  17  18
ENDBRANCH  16  17
ENDBRANCH  15  16
ENDBRANCH  14  15
ENDBRANCH  13  14
ENDBRANCH   2  13
TORSDOF 15
ENDMDL
MODEL 2
REMARK VINA RESULT:    -5.850      2.478      6.035
REMARK INTER + INTRA:         -13.824
REMARK INTER:                 -11.570
REMARK INTRA:                  -2.254
REMARK UNBOUND:                -2.845
REMARK SMILES CCCCCCCCC=CCCCCCCCC(=O)[O-]
REMARK SMILES IDX 10 1 9 2 11 3 12 4 13 5 14 6 15 7 16 8 17 9 18 10 19 11
REMARK SMILES IDX 20 12 8 13 7 14 6 15 5 16 4 17 3 18 2 19 1 20
REMARK H PARENT
REMARK Flexibility Score: inf
ROOT
ATOM      1  C   UNL     1      12.596 -10.769  38.804  1.00  0.00    -0.031 C 
ATOM      2  C   UNL     1      13.309 -10.229  37.797  1.00  0.00    -0.031 C 
ENDROOT
BRANCH   1   3
ATOM      3  C   UNL     1      11.091 -10.722  38.900  1.00  0.00     0.027 C 
BRANCH   3   4
ATOM      4  C   UNL     1      10.458 -11.937  38.204  1.00  0.00     0.004 C 
BRANCH   4   5
ATOM      5  C   UNL     1       8.922 -11.897  38.230  1.00  0.00     0.000 C 
BRANCH   5   6
ATOM      6  C   UNL     1       8.311 -13.239  38.672  1.00  0.00     0.000 C 
BRANCH   6   7
ATOM      7  C   UNL     1       7.304 -13.797  37.654  1.00  0.00     0.000 C 
BRANCH   7   8
ATOM      8  C   UNL     1       7.344 -13.048  36.311  1.00  0.00     0.006 C 
BRANCH   8   9
ATOM      9  C   UNL     1       8.188 -13.786  35.262  1.00  0.00     0.053 C 
BRANCH   9  10
ATOM     10  C   UNL     1       8.067 -13.160  33.906  1.00  0.00     0.041 C 
ATOM     11  O   UNL     1       7.378 -13.717  33.011  1.00  0.00    -0.550 OA
ATOM     12  O   UNL     1       8.687 -11.945  33.641  1.00  0.00    -0.550 OA
ENDBRANCH   9  10
ENDBRANCH   8   9
ENDBRANCH   7   8
ENDBRANCH   6   7
ENDBRANCH   5   6
ENDBRANCH   4   5
ENDBRANCH   3   4
ENDBRANCH   1   3
BRANCH   2  13
ATOM     13  C   UNL     1      12.705  -9.558  36.589  1.00  0.00     0.027 C 
BRANCH  13  14
ATOM     14  C   UNL     1      12.613 -10.536  35.408  1.00  0.00     0.004 C 
BRANCH  14  15
ATOM     15  C   UNL     1      13.984 -11.104  35.009  1.00  0.00     0.000 C 
BRANCH  15  16
ATOM     16  C   UNL     1      13.949 -12.630  34.798  1.00  0.00     0.000 C 
BRANCH  16  17
ATOM     17  C   UNL     1      12.819 -13.311  35.584  1.00  0.00    -0.000 C 
BRANCH  17  18
ATOM     18  C   UNL     1      13.298 -13.885  36.926  1.00  0.00    -0.000 C 
BRANCH  18  19
ATOM     19  C   UNL     1      12.233 -14.800  37.542  1.00  0.00    -0.003 C 
ATOM     20  C   UNL     1      11.128 -15.113  36.536  1.00  0.00     0.004 C 
ENDBRANCH  18  19
ENDBRANCH  17  18
ENDBRANCH  16  17
ENDBRANCH  15  16
ENDBRANCH  14  15
ENDBRANCH  13  14
ENDBRANCH   2  13
TORSDOF 15
ENDMDL
MODEL 3
REMARK VINA RESULT:    -5.819      2.335      5.666
REMARK INTER + INTRA:         -13.767
REMARK INTER:                 -11.240
REMARK INTRA:                  -2.527
REMARK UNBOUND:                -2.845
REMARK SMILES CCCCCCCCC=CCCCCCCCC(=O)[O-]
REMARK SMILES IDX 10 1 9 2 11 3 12 4 13 5 14 6 15 7 16 8 17 9 18 10 19 11
REMARK SMILES IDX 20 12 8 13 7 14 6 15 5 16 4 17 3 18 2 19 1 20
REMARK H PARENT
REMARK Flexibility Score: inf
ROOT
ATOM      1  C   UNL     1      12.618 -14.401  37.390  1.00  0.00    -0.031 C 
ATOM      2  C   UNL     1      13.401 -13.446  36.854  1.00  0.00    -0.031 C 
ENDROOT
BRANCH   1   3
ATOM      3  C   UNL     1      11.580 -15.180  36.622  1.00  0.00     0.027 C 
BRANCH   3   4
ATOM      4  C   UNL     1      10.176 -14.600  36.854  1.00  0.00     0.004 C 
BRANCH   4   5
ATOM      5  C   UNL     1       9.716 -14.737  38.315  1.00  0.00     0.000 C 
BRANCH   5   6
ATOM      6  C   UNL     1       8.216 -14.437  38.484  1.00  0.00     0.000 C 
BRANCH   6   7
ATOM      7  C   UNL     1       7.809 -13.085  37.874  1.00  0.00     0.000 C 
BRANCH   7   8
ATOM      8  C   UNL     1       7.119 -13.235  36.508  1.00  0.00     0.006 C 
BRANCH   8   9
ATOM      9  C   UNL     1       7.448 -12.070  35.563  1.00  0.00     0.053 C 
BRANCH   9  10
ATOM     10  C   UNL     1       8.083 -12.545  34.292  1.00  0.00     0.041 C 
ATOM     11  O   UNL     1       9.134 -11.998  33.866  1.00  0.00    -0.550 OA
ATOM     12  O   UNL     1       7.532 -13.613  33.593  1.00  0.00    -0.550 OA
ENDBRANCH   9  10
ENDBRANCH   8   9
ENDBRANCH   7   8
ENDBRANCH   6   7
ENDBRANCH   5   6
ENDBRANCH   4   5
ENDBRANCH   3   4
ENDBRANCH   1   3
BRANCH   2  13
ATOM     13  C   UNL     1      13.398 -13.060  35.396  1.00  0.00     0.027 C 
BRANCH  13  14
ATOM     14  C   UNL     1      13.579 -11.545  35.230  1.00  0.00     0.004 C 
BRANCH  14  15
ATOM     15  C   UNL     1      12.261 -10.829  34.898  1.00  0.00     0.000 C 
BRANCH  15  16
ATOM     16  C   UNL     1      11.662 -10.106  36.119  1.00  0.00     0.000 C 
BRANCH  16  17
ATOM     17  C   UNL     1      10.765 -11.018  36.968  1.00  0.00    -0.000 C 
BRANCH  17  18
ATOM     18  C   UNL     1      11.200 -11.069  38.440  1.00  0.00    -0.000 C 
BRANCH  18  19
ATOM     19  C   UNL     1      12.440 -10.198  38.674  1.00  0.00    -0.003 C 
ATOM     20  C   UNL     1      13.101 -10.527  40.010  1.00  0.00     0.004 C 
ENDBRANCH  18  19
ENDBRANCH  17  18
ENDBRANCH  16  17
ENDBRANCH  15  16
ENDBRANCH  14  15
ENDBRANCH  13  14
ENDBRANCH   2  13
TORSDOF 15
ENDMDL
MODEL 4
REMARK VINA RESULT:    -5.816      2.475      5.582
REMARK INTER + INTRA:         -13.760
REMARK INTER:                 -11.235
REMARK INTRA:                  -2.525
REMARK UNBOUND:                -2.845
REMARK SMILES CCCCCCCCC=CCCCCCCCC(=O)[O-]
REMARK SMILES IDX 10 1 9 2 11 3 12 4 13 5 14 6 15 7 16 8 17 9 18 10 19 11
REMARK SMILES IDX 20 12 8 13 7 14 6 15 5 16 4 17 3 18 2 19 1 20
REMARK H PARENT
REMARK Flexibility Score: inf
ROOT
ATOM      1  C   UNL     1      10.522 -15.352  37.224  1.00  0.00    -0.031 C 
ATOM      2  C   UNL     1      11.634 -15.063  36.522  1.00  0.00    -0.031 C 
ENDROOT
BRANCH   1   3
ATOM      3  C   UNL     1      10.119 -14.658  38.501  1.00  0.00     0.027 C 
BRANCH   3   4
ATOM      4  C   UNL     1       8.680 -15.027  38.896  1.00  0.00     0.004 C 
BRANCH   4   5
ATOM      5  C   UNL     1       7.690 -13.876  38.656  1.00  0.00     0.000 C 
BRANCH   5   6
ATOM      6  C   UNL     1       8.393 -12.509  38.579  1.00  0.00     0.000 C 
BRANCH   6   7
ATOM      7  C   UNL     1       8.324 -11.883  37.176  1.00  0.00     0.000 C 
BRANCH   7   8
ATOM      8  C   UNL     1       7.297 -12.581  36.268  1.00  0.00     0.006 C 
BRANCH   8   9
ATOM      9  C   UNL     1       7.957 -13.593  35.320  1.00  0.00     0.053 C 
BRANCH   9  10
ATOM     10  C   UNL     1       7.981 -13.100  33.906  1.00  0.00     0.041 C 
ATOM     11  O   UNL     1       8.520 -11.996  33.629  1.00  0.00    -0.550 OA
ATOM     12  O   UNL     1       7.437 -13.874  32.888  1.00  0.00    -0.550 OA
ENDBRANCH   9  10
ENDBRANCH   8   9
ENDBRANCH   7   8
ENDBRANCH   6   7
ENDBRANCH   5   6
ENDBRANCH   4   5
ENDBRANCH   3   4
ENDBRANCH   1   3
BRANCH   2  13
ATOM     13  C   UNL     1      12.602 -13.961  36.874  1.00  0.00     0.027 C 
BRANCH  13  14
ATOM     14  C   UNL     1      12.795 -13.003  35.690  1.00  0.00     0.004 C 
BRANCH  14  15
ATOM     15  C   UNL     1      11.502 -12.260  35.319  1.00  0.00     0.000 C 
BRANCH  15  16
ATOM     16  C   UNL     1      11.730 -10.751  35.111  1.00  0.00     0.000 C 
BRANCH  16  17
ATOM     17  C   UNL     1      11.547  -9.940  36.403  1.00  0.00    -0.000 C 
BRANCH  17  18
ATOM     18  C   UNL     1      12.867  -9.736  37.162  1.00  0.00    -0.000 C 
BRANCH  18  19
ATOM     19  C   UNL     1      12.878 -10.542  38.466  1.00  0.00    -0.003 C 
ATOM     20  C   UNL     1      11.505 -10.529  39.134  1.00  0.00     0.004 C 
ENDBRANCH  18  19
ENDBRANCH  17  18
ENDBRANCH  16  17
ENDBRANCH  15  16
ENDBRANCH  14  15
ENDBRANCH  13  14
ENDBRANCH   2  13
TORSDOF 15
ENDMDL
MODEL 5
REMARK VINA RESULT:    -5.762      1.011      1.963
REMARK INTER + INTRA:         -13.660
REMARK INTER:                 -11.087
REMARK INTRA:                  -2.573
REMARK UNBOUND:                -2.845
REMARK SMILES CCCCCCCCC=CCCCCCCCC(=O)[O-]
REMARK SMILES IDX 10 1 9 2 11 3 12 4 13 5 14 6 15 7 16 8 17 9 18 10 19 11
REMARK SMILES IDX 20 12 8 13 7 14 6 15 5 16 4 17 3 18 2 19 1 20
REMARK H PARENT
REMARK Flexibility Score: inf
ROOT
ATOM      1  C   UNL     1      13.270 -13.960  36.698  1.00  0.00    -0.031 C 
ATOM      2  C   UNL     1      12.417 -14.745  37.384  1.00  0.00    -0.031 C 
ENDROOT
BRANCH   1   3
ATOM      3  C   UNL     1      12.973 -13.361  35.346  1.00  0.00     0.027 C 
BRANCH   3   4
ATOM      4  C   UNL     1      14.207 -12.636  34.784  1.00  0.00     0.004 C 
BRANCH   4   5
ATOM      5  C   UNL     1      13.929 -11.157  34.472  1.00  0.00     0.000 C 
BRANCH   5   6
ATOM      6  C   UNL     1      12.434 -10.807  34.592  1.00  0.00     0.000 C 
BRANCH   6   7
ATOM      7  C   UNL     1      12.166  -9.695  35.620  1.00  0.00     0.000 C 
BRANCH   7   8
ATOM      8  C   UNL     1      11.722 -10.246  36.986  1.00  0.00     0.006 C 
BRANCH   8   9
ATOM      9  C   UNL     1      12.915 -10.540  37.906  1.00  0.00     0.053 C 
BRANCH   9  10
ATOM     10  C   UNL     1      12.568 -10.344  39.350  1.00  0.00     0.041 C 
ATOM     11  O   UNL     1      11.372 -10.445  39.733  1.00  0.00    -0.550 OA
ATOM     12  O   UNL     1      13.567 -10.082  40.278  1.00  0.00    -0.550 OA
ENDBRANCH   9  10
ENDBRANCH   8   9
ENDBRANCH   7   8
ENDBRANCH   6   7
ENDBRANCH   5   6
ENDBRANCH   4   5
ENDBRANCH   3   4
ENDBRANCH   1   3
BRANCH   2  13
ATOM     13  C   UNL     1      11.019 -15.084  36.931  1.00  0.00     0.027 C 
BRANCH  13  14
ATOM     14  C   UNL     1       9.991 -14.730  38.015  1.00  0.00     0.004 C 
BRANCH  14  15
ATOM     15  C   UNL     1       9.843 -13.213  38.210  1.00  0.00     0.000 C 
BRANCH  15  16
ATOM     16  C   UNL     1       8.369 -12.768  38.262  1.00  0.00     0.000 C 
BRANCH  16  17
ATOM     17  C   UNL     1       7.459 -13.627  37.372  1.00  0.00    -0.000 C 
BRANCH  17  18
ATOM     18  C   UNL     1       7.132 -12.948  36.034  1.00  0.00    -0.000 C 
BRANCH  18  19
ATOM     19  C   UNL     1       8.074 -13.438  34.928  1.00  0.00    -0.003 C 
ATOM     20  C   UNL     1       9.111 -12.373  34.576  1.00  0.00     0.004 C 
ENDBRANCH  18  19
ENDBRANCH  17  18
ENDBRANCH  16  17
ENDBRANCH  15  16
ENDBRANCH  14  15
ENDBRANCH  13  14
ENDBRANCH   2  13
TORSDOF 15
ENDMDL
MODEL 6
REMARK VINA RESULT:    -5.563      1.022      3.709
REMARK INTER + INTRA:         -13.286
REMARK INTER:                 -10.623
REMARK INTRA:                  -2.663
REMARK UNBOUND:                -2.845
REMARK SMILES CCCCCCCCC=CCCCCCCCC(=O)[O-]
REMARK SMILES IDX 10 1 9 2 11 3 12 4 13 5 14 6 15 7 16 8 17 9 18 10 19 11
REMARK SMILES IDX 20 12 8 13 7 14 6 15 5 16 4 17 3 18 2 19 1 20
REMARK H PARENT
REMARK Flexibility Score: inf
ROOT
ATOM      1  C   UNL     1       7.502 -13.501  36.278  1.00  0.00    -0.031 C 
ATOM      2  C   UNL     1       7.849 -13.507  37.579  1.00  0.00    -0.031 C 
ENDROOT
BRANCH   1   3
ATOM      3  C   UNL     1       8.486 -13.484  35.135  1.00  0.00     0.027 C 
BRANCH   3   4
ATOM      4  C   UNL     1       8.758 -12.046  34.666  1.00  0.00     0.004 C 
BRANCH   4   5
ATOM      5  C   UNL     1      10.237 -11.651  34.803  1.00  0.00     0.000 C 
BRANCH   5   6
ATOM      6  C   UNL     1      10.524 -10.916  36.126  1.00  0.00     0.000 C 
BRANCH   6   7
ATOM      7  C   UNL     1      11.279  -9.594  35.917  1.00  0.00     0.000 C 
BRANCH   7   8
ATOM      8  C   UNL     1      12.480  -9.442  36.867  1.00  0.00     0.006 C 
BRANCH   8   9
ATOM      9  C   UNL     1      12.663 -10.672  37.768  1.00  0.00     0.053 C 
BRANCH   9  10
ATOM     10  C   UNL     1      12.357 -10.363  39.202  1.00  0.00     0.041 C 
ATOM     11  O   UNL     1      11.163 -10.333  39.603  1.00  0.00    -0.550 OA
ATOM     12  O   UNL     1      13.390 -10.140  40.103  1.00  0.00    -0.550 OA
ENDBRANCH   9  10
ENDBRANCH   8   9
ENDBRANCH   7   8
ENDBRANCH   6   7
ENDBRANCH   5   6
ENDBRANCH   4   5
ENDBRANCH   3   4
ENDBRANCH   1   3
BRANCH   2  13
ATOM     13  C   UNL     1       9.270 -13.563  38.081  1.00  0.00     0.027 C 
BRANCH  13  14
ATOM     14  C   UNL     1       9.700 -15.013  38.347  1.00  0.00     0.004 C 
BRANCH  14  15
ATOM     15  C   UNL     1      10.617 -15.565  37.244  1.00  0.00     0.000 C 
BRANCH  15  16
ATOM     16  C   UNL     1      11.516 -14.478  36.628  1.00  0.00     0.000 C 
BRANCH  16  17
ATOM     17  C   UNL     1      12.864 -14.342  37.353  1.00  0.00    -0.000 C 
BRANCH  17  18
ATOM     18  C   UNL     1      13.956 -13.737  36.457  1.00  0.00    -0.000 C 
BRANCH  18  19
ATOM     19  C   UNL     1      13.352 -13.159  35.172  1.00  0.00    -0.003 C 
ATOM     20  C   UNL     1      14.177 -11.983  34.655  1.00  0.00     0.004 C 
ENDBRANCH  18  19
ENDBRANCH  17  18
ENDBRANCH  16  17
ENDBRANCH  15  16
ENDBRANCH  14  15
ENDBRANCH  13  14
ENDBRANCH   2  13
TORSDOF 15
ENDMDL
MODEL 7
REMARK VINA RESULT:    -5.527      1.076      3.375
REMARK INTER + INTRA:         -13.218
REMARK INTER:                 -10.708
REMARK INTRA:                  -2.510
REMARK UNBOUND:                -2.845
REMARK SMILES CCCCCCCCC=CCCCCCCCC(=O)[O-]
REMARK SMILES IDX 10 1 9 2 11 3 12 4 13 5 14 6 15 7 16 8 17 9 18 10 19 11
REMARK SMILES IDX 20 12 8 13 7 14 6 15 5 16 4 17 3 18 2 19 1 20
REMARK H PARENT
REMARK Flexibility Score: inf
ROOT
ATOM      1  C   UNL     1       8.143 -13.322  34.205  1.00  0.00    -0.031 C 
ATOM      2  C   UNL     1       7.393 -13.659  35.272  1.00  0.00    -0.031 C 
ENDROOT
BRANCH   1   3
ATOM      3  C   UNL     1       8.841 -11.995  34.041  1.00  0.00     0.027 C 
BRANCH   3   4
ATOM      4  C   UNL     1      10.215 -12.008  34.730  1.00  0.00     0.004 C 
BRANCH   4   5
ATOM      5  C   UNL     1      10.396 -10.832  35.703  1.00  0.00     0.000 C 
BRANCH   5   6
ATOM      6  C   UNL     1      11.598  -9.945  35.327  1.00  0.00     0.000 C 
BRANCH   6   7
ATOM      7  C   UNL     1      12.272  -9.309  36.553  1.00  0.00     0.000 C 
BRANCH   7   8
ATOM      8  C   UNL     1      13.516 -10.088  37.015  1.00  0.00     0.006 C 
BRANCH   8   9
ATOM      9  C   UNL     1      13.186 -11.103  38.118  1.00  0.00     0.053 C 
BRANCH   9  10
ATOM     10  C   UNL     1      12.682 -10.434  39.360  1.00  0.00     0.041 C 
ATOM     11  O   UNL     1      11.444 -10.338  39.570  1.00  0.00    -0.550 OA
ATOM     12  O   UNL     1      13.579  -9.945  40.302  1.00  0.00    -0.550 OA
ENDBRANCH   9  10
ENDBRANCH   8   9
ENDBRANCH   7   8
ENDBRANCH   6   7
ENDBRANCH   5   6
ENDBRANCH   4   5
ENDBRANCH   3   4
ENDBRANCH   1   3
BRANCH   2  13
ATOM     13  C   UNL     1       7.196 -12.784  36.484  1.00  0.00     0.027 C 
BRANCH  13  14
ATOM     14  C   UNL     1       7.613 -13.520  37.765  1.00  0.00     0.004 C 
BRANCH  14  15
ATOM     15  C   UNL     1       8.778 -12.825  38.488  1.00  0.00     0.000 C 
BRANCH  15  16
ATOM     16  C   UNL     1      10.148 -13.394  38.076  1.00  0.00     0.000 C 
BRANCH  16  17
ATOM     17  C   UNL     1      10.051 -14.810  37.490  1.00  0.00    -0.000 C 
BRANCH  17  18
ATOM     18  C   UNL     1      11.287 -15.190  36.660  1.00  0.00    -0.000 C 
BRANCH  18  19
ATOM     19  C   UNL     1      12.474 -14.280  36.997  1.00  0.00    -0.003 C 
ATOM     20  C   UNL     1      13.073 -13.665  35.734  1.00  0.00     0.004 C 
ENDBRANCH  18  19
ENDBRANCH  17  18
ENDBRANCH  16  17
ENDBRANCH  15  16
ENDBRANCH  14  15
ENDBRANCH  13  14
ENDBRANCH   2  13
TORSDOF 15
ENDMDL
MODEL 8
REMARK VINA RESULT:    -5.475      1.886      3.840
REMARK INTER + INTRA:         -13.122
REMARK INTER:                 -10.728
REMARK INTRA:                  -2.394
REMARK UNBOUND:                -2.845
REMARK SMILES CCCCCCCCC=CCCCCCCCC(=O)[O-]
REMARK SMILES IDX 10 1 9 2 11 3 12 4 13 5 14 6 15 7 16 8 17 9 18 10 19 11
REMARK SMILES IDX 20 12 8 13 7 14 6 15 5 16 4 17 3 18 2 19 1 20
REMARK H PARENT
REMARK Flexibility Score: inf
ROOT
ATOM      1  C   UNL     1      13.650 -10.232  37.435  1.00  0.00    -0.031 C 
ATOM      2  C   UNL     1      12.973 -10.559  38.553  1.00  0.00    -0.031 C 
ENDROOT
BRANCH   1   3
ATOM      3  C   UNL     1      13.028  -9.581  36.224  1.00  0.00     0.027 C 
BRANCH   3   4
ATOM      4  C   UNL     1      12.742 -10.620  35.129  1.00  0.00     0.004 C 
BRANCH   4   5
ATOM      5  C   UNL     1      14.019 -11.315  34.628  1.00  0.00     0.000 C 
BRANCH   5   6
ATOM      6  C   UNL     1      13.995 -12.833  34.883  1.00  0.00     0.000 C 
BRANCH   6   7
ATOM      7  C   UNL     1      12.709 -13.296  35.587  1.00  0.00     0.000 C 
BRANCH   7   8
ATOM      8  C   UNL     1      12.973 -13.854  36.996  1.00  0.00     0.006 C 
BRANCH   8   9
ATOM      9  C   UNL     1      12.290 -15.211  37.218  1.00  0.00     0.053 C 
BRANCH   9  10
ATOM     10  C   UNL     1      10.802 -15.075  37.327  1.00  0.00     0.041 C 
ATOM     11  O   UNL     1      10.260 -14.939  38.456  1.00  0.00    -0.550 OA
ATOM     12  O   UNL     1      10.016 -15.066  36.181  1.00  0.00    -0.550 OA
ENDBRANCH   9  10
ENDBRANCH   8   9
ENDBRANCH   7   8
ENDBRANCH   6   7
ENDBRANCH   5   6
ENDBRANCH   4   5
ENDBRANCH   3   4
ENDBRANCH   1   3
BRANCH   2  13
ATOM     13  C   UNL     1      11.512 -10.264  38.780  1.00  0.00     0.027 C 
BRANCH  13  14
ATOM     14  C   UNL     1      10.667 -11.537  38.629  1.00  0.00     0.004 C 
BRANCH  14  15
ATOM     15  C   UNL     1       9.900 -11.578  37.298  1.00  0.00     0.000 C 
BRANCH  15  16
ATOM     16  C   UNL     1       8.428 -11.993  37.480  1.00  0.00     0.000 C 
BRANCH  16  17
ATOM     17  C   UNL     1       7.602 -11.829  36.196  1.00  0.00    -0.000 C 
BRANCH  17  18
ATOM     18  C   UNL     1       7.154 -13.175  35.607  1.00  0.00    -0.000 C 
BRANCH  18  19
ATOM     19  C   UNL     1       7.786 -13.407  34.229  1.00  0.00    -0.003 C 
ATOM     20  C   UNL     1       8.629 -12.208  33.801  1.00  0.00     0.004 C 
ENDBRANCH  18  19
ENDBRANCH  17  18
ENDBRANCH  16  17
ENDBRANCH  15  16
ENDBRANCH  14  15
ENDBRANCH  13  14
ENDBRANCH   2  13
TORSDOF 15
ENDMDL
MODEL 9
REMARK VINA RESULT:    -5.372      2.355      5.432
REMARK INTER + INTRA:         -12.928
REMARK INTER:                 -10.501
REMARK INTRA:                  -2.427
REMARK UNBOUND:                -2.845
REMARK SMILES CCCCCCCCC=CCCCCCCCC(=O)[O-]
REMARK SMILES IDX 10 1 9 2 11 3 12 4 13 5 14 6 15 7 16 8 17 9 18 10 19 11
REMARK SMILES IDX 20 12 8 13 7 14 6 15 5 16 4 17 3 18 2 19 1 20
REMARK H PARENT
REMARK Flexibility Score: inf
ROOT
ATOM      1  C   UNL     1      10.764 -12.713  36.375  1.00  0.00    -0.031 C 
ATOM      2  C   UNL     1      10.396 -11.584  37.012  1.00  0.00    -0.031 C 
ENDROOT
BRANCH   1   3
ATOM      3  C   UNL     1      11.510 -13.851  37.025  1.00  0.00     0.027 C 
BRANCH   3   4
ATOM      4  C   UNL     1      10.912 -15.206  36.612  1.00  0.00     0.004 C 
BRANCH   4   5
ATOM      5  C   UNL     1      10.136 -15.879  37.756  1.00  0.00     0.000 C 
BRANCH   5   6
ATOM      6  C   UNL     1       9.565 -14.856  38.754  1.00  0.00     0.000 C 
BRANCH   6   7
ATOM      7  C   UNL     1       8.033 -14.744  38.679  1.00  0.00     0.000 C 
BRANCH   7   8
ATOM      8  C   UNL     1       7.568 -13.435  38.018  1.00  0.00     0.006 C 
BRANCH   8   9
ATOM      9  C   UNL     1       7.173 -13.639  36.548  1.00  0.00     0.053 C 
BRANCH   9  10
ATOM     10  C   UNL     1       7.208 -12.354  35.778  1.00  0.00     0.041 C 
ATOM     11  O   UNL     1       7.601 -12.344  34.581  1.00  0.00    -0.550 OA
ATOM     12  O   UNL     1       6.778 -11.173  36.370  1.00  0.00    -0.550 OA
ENDBRANCH   9  10
ENDBRANCH   8   9
ENDBRANCH   7   8
ENDBRANCH   6   7
ENDBRANCH   5   6
ENDBRANCH   4   5
ENDBRANCH   3   4
ENDBRANCH   1   3
BRANCH   2  13
ATOM     13  C   UNL     1      10.619 -11.324  38.480  1.00  0.00     0.027 C 
BRANCH  13  14
ATOM     14  C   UNL     1      11.546 -10.116  38.688  1.00  0.00     0.004 C 
BRANCH  14  15
ATOM     15  C   UNL     1      13.009 -10.531  38.910  1.00  0.00     0.000 C 
BRANCH  15  16
ATOM     16  C   UNL     1      13.747 -10.813  37.588  1.00  0.00     0.000 C 
BRANCH  16  17
ATOM     17  C   UNL     1      13.394  -9.805  36.484  1.00  0.00    -0.000 C 
BRANCH  17  18
ATOM     18  C   UNL     1      13.167 -10.477  35.122  1.00  0.00    -0.000 C 
BRANCH  18  19
ATOM     19  C   UNL     1      14.403 -11.277  34.694  1.00  0.00    -0.003 C 
ATOM     20  C   UNL     1      14.109 -12.775  34.666  1.00  0.00     0.004 C 
ENDBRANCH  18  19
ENDBRANCH  17  18
ENDBRANCH  16  17
ENDBRANCH  15  16
ENDBRANCH  14  15
ENDBRANCH  13  14
ENDBRANCH   2  13
TORSDOF 15
ENDMDL
