MODEL 1
REMARK VINA RESULT:    -4.867      0.000      0.000
REMARK INTER + INTRA:         -14.977
REMARK INTER:                 -12.834
REMARK INTRA:                  -2.142
REMARK UNBOUND:                -2.142
REMARK SMILES CCCCCCCCCCCCCCCCCCCCCCCCCCCCCC(=O)[O-]
REMARK SMILES IDX 16 1 17 2 18 3 19 4 20 5 21 6 22 7 23 8 24 9 25 10 26 11
REMARK SMILES IDX 27 12 28 13 29 14 30 15 31 16 32 17 15 18 14 19 13 20 12 21
REMARK SMILES IDX 11 22 10 23 9 24 8 25 7 26 6 27 5 28 4 29 3 30 2 31 1 32
REMARK H PARENT
REMARK Flexibility Score: inf
ROOT
ATOM      1  C   UNL     1       3.094  55.807  24.683  1.00  0.00     0.000 C 
ENDROOT
BRANCH   1   2
ATOM      2  C   UNL     1       3.203  54.412  24.039  1.00  0.00     0.000 C 
BRANCH   2   3
ATOM      3  C   UNL     1       2.133  54.168  22.961  1.00  0.00     0.000 C 
BRANCH   3   4
ATOM      4  C   UNL     1       2.378  52.876  22.163  1.00  0.00     0.000 C 
BRANCH   4   5
ATOM      5  C   UNL     1       1.576  51.648  22.637  1.00  0.00     0.000 C 
BRANCH   5   6
ATOM      6  C   UNL     1       2.439  50.393  22.882  1.00  0.00     0.000 C 
BRANCH   6   7
ATOM      7  C   UNL     1       1.625  49.093  22.763  1.00  0.00     0.000 C 
BRANCH   7   8
ATOM      8  C   UNL     1       2.484  47.895  22.326  1.00  0.00     0.000 C 
BRANCH   8   9
ATOM      9  C   UNL     1       2.712  46.888  23.463  1.00  0.00     0.000 C 
BRANCH   9  10
ATOM     10  C   UNL     1       2.155  47.417  24.790  1.00  0.00     0.000 C 
BRANCH  10  11
ATOM     11  C   UNL     1       3.262  47.501  25.853  1.00  0.00     0.000 C 
BRANCH  11  12
ATOM     12  C   UNL     1       4.304  48.594  25.553  1.00  0.00     0.000 C 
BRANCH  12  13
ATOM     13  C   UNL     1       5.730  48.078  25.292  1.00  0.00     0.006 C 
BRANCH  13  14
ATOM     14  C   UNL     1       6.710  49.193  24.896  1.00  0.00     0.053 C 
BRANCH  14  15
ATOM     15  C   UNL     1       7.824  49.312  25.892  1.00  0.00     0.041 C 
ATOM     16  O   UNL     1       7.659  48.906  27.074  1.00  0.00    -0.550 OA
ATOM     17  O   UNL     1       9.055  49.835  25.510  1.00  0.00    -0.550 OA
ENDBRANCH  14  15
ENDBRANCH  13  14
ENDBRANCH  12  13
ENDBRANCH  11  12
ENDBRANCH  10  11
ENDBRANCH   9  10
ENDBRANCH   8   9
ENDBRANCH   7   8
ENDBRANCH   6   7
ENDBRANCH   5   6
ENDBRANCH   4   5
ENDBRANCH   3   4
ENDBRANCH   2   3
ENDBRANCH   1   2
BRANCH   1  18
ATOM     18  C   UNL     1       3.880  56.919  23.964  1.00  0.00     0.000 C 
BRANCH  18  19
ATOM     19  C   UNL     1       3.019  58.048  23.364  1.00  0.00     0.000 C 
BRANCH  19  20
ATOM     20  C   UNL     1       1.848  57.543  22.491  1.00  0.00     0.000 C 
BRANCH  20  21
ATOM     21  C   UNL     1       0.476  57.954  23.054  1.00  0.00     0.000 C 
BRANCH  21  22
ATOM     22  C   UNL     1       0.256  57.458  24.499  1.00  0.00     0.000 C 
BRANCH  22  23
ATOM     23  C   UNL     1      -0.002  58.587  25.513  1.00  0.00     0.000 C 
BRANCH  23  24
ATOM     24  C   UNL     1       0.550  59.966  25.105  1.00  0.00    -0.000 C 
BRANCH  24  25
ATOM     25  C   UNL     1      -0.492  61.100  25.058  1.00  0.00    -0.000 C 
BRANCH  25  26
ATOM     26  C   UNL     1      -0.560  61.786  23.683  1.00  0.00    -0.000 C 
BRANCH  26  27
ATOM     27  C   UNL     1      -0.611  63.320  23.785  1.00  0.00    -0.000 C 
BRANCH  27  28
ATOM     28  C   UNL     1      -1.615  63.942  22.797  1.00  0.00    -0.000 C 
BRANCH  28  29
ATOM     29  C   UNL     1      -1.527  65.476  22.754  1.00  0.00    -0.000 C 
BRANCH  29  30
ATOM     30  C   UNL     1      -2.859  66.156  23.120  1.00  0.00    -0.000 C 
BRANCH  30  31
ATOM     31  C   UNL     1      -4.073  65.247  22.873  1.00  0.00    -0.003 C 
ATOM     32  C   UNL     1      -5.009  65.794  21.796  1.00  0.00     0.004 C 
ENDBRANCH  30  31
ENDBRANCH  29  30
ENDBRANCH  28  29
ENDBRANCH  27  28
ENDBRANCH  26  27
ENDBRANCH  25  26
ENDBRANCH  24  25
ENDBRANCH  23  24
ENDBRANCH  22  23
ENDBRANCH  21  22
ENDBRANCH  20  21
ENDBRANCH  19  20
ENDBRANCH  18  19
ENDBRANCH   1  18
TORSDOF 28
ENDMDL
MODEL 2
REMARK VINA RESULT:    -4.692      5.369     14.855
REMARK INTER + INTRA:         -14.514
REMARK INTER:                 -12.370
REMARK INTRA:                  -2.144
REMARK UNBOUND:                -2.142
REMARK SMILES CCCCCCCCCCCCCCCCCCCCCCCCCCCCCC(=O)[O-]
REMARK SMILES IDX 16 1 17 2 18 3 19 4 20 5 21 6 22 7 23 8 24 9 25 10 26 11
REMARK SMILES IDX 27 12 28 13 29 14 30 15 31 16 32 17 15 18 14 19 13 20 12 21
REMARK SMILES IDX 11 22 10 23 9 24 8 25 7 26 6 27 5 28 4 29 3 30 2 31 1 32
REMARK H PARENT
REMARK Flexibility Score: inf
ROOT
ATOM      1  C   UNL     1       2.913  54.065  23.555  1.00  0.00     0.000 C 
ENDROOT
BRANCH   1   2
ATOM      2  C   UNL     1       2.728  55.588  23.700  1.00  0.00     0.000 C 
BRANCH   2   3
ATOM      3  C   UNL     1       2.028  56.222  22.487  1.00  0.00     0.000 C 
BRANCH   3   4
ATOM      4  C   UNL     1       0.707  56.917  22.860  1.00  0.00     0.000 C 
BRANCH   4   5
ATOM      5  C   UNL     1       0.728  57.697  24.189  1.00  0.00     0.000 C 
BRANCH   5   6
ATOM      6  C   UNL     1       1.153  59.173  24.042  1.00  0.00     0.000 C 
BRANCH   6   7
ATOM      7  C   UNL     1       0.158  60.136  24.714  1.00  0.00     0.000 C 
BRANCH   7   8
ATOM      8  C   UNL     1      -0.536  61.066  23.706  1.00  0.00     0.000 C 
BRANCH   8   9
ATOM      9  C   UNL     1      -0.217  62.547  23.955  1.00  0.00     0.000 C 
BRANCH   9  10
ATOM     10  C   UNL     1      -1.133  63.457  23.127  1.00  0.00     0.000 C 
BRANCH  10  11
ATOM     11  C   UNL     1      -0.933  64.931  23.513  1.00  0.00     0.000 C 
BRANCH  11  12
ATOM     12  C   UNL     1      -1.149  65.898  22.334  1.00  0.00     0.000 C 
BRANCH  12  13
ATOM     13  C   UNL     1      -2.321  66.880  22.505  1.00  0.00     0.006 C 
BRANCH  13  14
ATOM     14  C   UNL     1      -3.465  66.310  23.357  1.00  0.00     0.053 C 
BRANCH  14  15
ATOM     15  C   UNL     1      -4.407  65.497  22.521  1.00  0.00     0.041 C 
ATOM     16  O   UNL     1      -4.974  66.017  21.524  1.00  0.00    -0.550 OA
ATOM     17  O   UNL     1      -4.632  64.157  22.818  1.00  0.00    -0.550 OA
ENDBRANCH  14  15
ENDBRANCH  13  14
ENDBRANCH  12  13
ENDBRANCH  11  12
ENDBRANCH  10  11
ENDBRANCH   9  10
ENDBRANCH   8   9
ENDBRANCH   7   8
ENDBRANCH   6   7
ENDBRANCH   5   6
ENDBRANCH   4   5
ENDBRANCH   3   4
ENDBRANCH   2   3
ENDBRANCH   1   2
BRANCH   1  18
ATOM     18  C   UNL     1       2.292  53.453  22.286  1.00  0.00     0.000 C 
BRANCH  18  19
ATOM     19  C   UNL     1       1.520  52.136  22.504  1.00  0.00     0.000 C 
BRANCH  19  20
ATOM     20  C   UNL     1       2.422  50.939  22.880  1.00  0.00     0.000 C 
BRANCH  20  21
ATOM     21  C   UNL     1       1.686  49.592  22.769  1.00  0.00     0.000 C 
BRANCH  21  22
ATOM     22  C   UNL     1       2.250  48.527  23.734  1.00  0.00     0.000 C 
BRANCH  22  23
ATOM     23  C   UNL     1       2.341  47.118  23.121  1.00  0.00     0.000 C 
BRANCH  23  24
ATOM     24  C   UNL     1       2.509  47.083  21.591  1.00  0.00    -0.000 C 
BRANCH  24  25
ATOM     25  C   UNL     1       3.921  47.429  21.080  1.00  0.00    -0.000 C 
BRANCH  25  26
ATOM     26  C   UNL     1       5.030  46.949  22.033  1.00  0.00    -0.000 C 
BRANCH  26  27
ATOM     27  C   UNL     1       6.203  47.940  22.128  1.00  0.00    -0.000 C 
BRANCH  27  28
ATOM     28  C   UNL     1       6.851  47.951  23.524  1.00  0.00    -0.000 C 
BRANCH  28  29
ATOM     29  C   UNL     1       6.495  49.211  24.330  1.00  0.00    -0.000 C 
BRANCH  29  30
ATOM     30  C   UNL     1       5.467  48.932  25.442  1.00  0.00    -0.000 C 
BRANCH  30  31
ATOM     31  C   UNL     1       5.867  47.747  26.332  1.00  0.00    -0.003 C 
ATOM     32  C   UNL     1       6.978  48.100  27.319  1.00  0.00     0.004 C 
ENDBRANCH  30  31
ENDBRANCH  29  30
ENDBRANCH  28  29
ENDBRANCH  27  28
ENDBRANCH  26  27
ENDBRANCH  25  26
ENDBRANCH  24  25
ENDBRANCH  23  24
ENDBRANCH  22  23
ENDBRANCH  21  22
ENDBRANCH  20  21
ENDBRANCH  19  20
ENDBRANCH  18  19
ENDBRANCH   1  18
TORSDOF 28
ENDMDL
MODEL 3
REMARK VINA RESULT:    -4.647      5.322     14.591
REMARK INTER + INTRA:         -14.395
REMARK INTER:                 -12.515
REMARK INTRA:                  -1.880
REMARK UNBOUND:                -2.142
REMARK SMILES CCCCCCCCCCCCCCCCCCCCCCCCCCCCCC(=O)[O-]
REMARK SMILES IDX 16 1 17 2 18 3 19 4 20 5 21 6 22 7 23 8 24 9 25 10 26 11
REMARK SMILES IDX 27 12 28 13 29 14 30 15 31 16 32 17 15 18 14 19 13 20 12 21
REMARK SMILES IDX 11 22 10 23 9 24 8 25 7 26 6 27 5 28 4 29 3 30 2 31 1 32
REMARK H PARENT
REMARK Flexibility Score: inf
ROOT
ATOM      1  C   UNL     1       3.213  54.504  24.335  1.00  0.00     0.000 C 
ENDROOT
BRANCH   1   2
ATOM      2  C   UNL     1       3.118  55.701  25.300  1.00  0.00     0.000 C 
BRANCH   2   3
ATOM      3  C   UNL     1       2.306  56.872  24.721  1.00  0.00     0.000 C 
BRANCH   3   4
ATOM      4  C   UNL     1       3.182  57.885  23.964  1.00  0.00     0.000 C 
BRANCH   4   5
ATOM      5  C   UNL     1       2.431  58.779  22.958  1.00  0.00     0.000 C 
BRANCH   5   6
ATOM      6  C   UNL     1       1.996  60.143  23.534  1.00  0.00     0.000 C 
BRANCH   6   7
ATOM      7  C   UNL     1       0.625  60.073  24.229  1.00  0.00     0.000 C 
BRANCH   7   8
ATOM      8  C   UNL     1      -0.411  61.012  23.589  1.00  0.00     0.000 C 
BRANCH   8   9
ATOM      9  C   UNL     1      -0.166  62.486  23.942  1.00  0.00     0.000 C 
BRANCH   9  10
ATOM     10  C   UNL     1      -1.048  63.411  23.094  1.00  0.00     0.000 C 
BRANCH  10  11
ATOM     11  C   UNL     1      -1.020  64.847  23.643  1.00  0.00     0.000 C 
BRANCH  11  12
ATOM     12  C   UNL     1      -0.985  65.915  22.535  1.00  0.00     0.000 C 
BRANCH  12  13
ATOM     13  C   UNL     1      -2.199  66.859  22.503  1.00  0.00     0.006 C 
BRANCH  13  14
ATOM     14  C   UNL     1      -3.374  66.301  21.687  1.00  0.00     0.053 C 
BRANCH  14  15
ATOM     15  C   UNL     1      -4.342  65.568  22.568  1.00  0.00     0.041 C 
ATOM     16  O   UNL     1      -4.977  64.576  22.119  1.00  0.00    -0.550 OA
ATOM     17  O   UNL     1      -4.518  65.954  23.892  1.00  0.00    -0.550 OA
ENDBRANCH  14  15
ENDBRANCH  13  14
ENDBRANCH  12  13
ENDBRANCH  11  12
ENDBRANCH  10  11
ENDBRANCH   9  10
ENDBRANCH   8   9
ENDBRANCH   7   8
ENDBRANCH   6   7
ENDBRANCH   5   6
ENDBRANCH   4   5
ENDBRANCH   3   4
ENDBRANCH   2   3
ENDBRANCH   1   2
BRANCH   1  18
ATOM     18  C   UNL     1       2.344  54.619  23.069  1.00  0.00     0.000 C 
BRANCH  18  19
ATOM     19  C   UNL     1       2.473  53.445  22.077  1.00  0.00     0.000 C 
BRANCH  19  20
ATOM     20  C   UNL     1       1.631  52.208  22.461  1.00  0.00     0.000 C 
BRANCH  20  21
ATOM     21  C   UNL     1       2.470  50.919  22.509  1.00  0.00     0.000 C 
BRANCH  21  22
ATOM     22  C   UNL     1       1.695  49.731  23.118  1.00  0.00     0.000 C 
BRANCH  22  23
ATOM     23  C   UNL     1       1.724  48.459  22.250  1.00  0.00     0.000 C 
BRANCH  23  24
ATOM     24  C   UNL     1       1.024  47.234  22.868  1.00  0.00    -0.000 C 
BRANCH  24  25
ATOM     25  C   UNL     1       1.275  47.028  24.374  1.00  0.00    -0.000 C 
BRANCH  25  26
ATOM     26  C   UNL     1       2.769  46.877  24.711  1.00  0.00    -0.000 C 
BRANCH  26  27
ATOM     27  C   UNL     1       3.163  47.604  26.007  1.00  0.00    -0.000 C 
BRANCH  27  28
ATOM     28  C   UNL     1       4.628  48.077  25.993  1.00  0.00    -0.000 C 
BRANCH  28  29
ATOM     29  C   UNL     1       4.935  49.015  24.815  1.00  0.00    -0.000 C 
BRANCH  29  30
ATOM     30  C   UNL     1       6.403  49.481  24.794  1.00  0.00    -0.000 C 
BRANCH  30  31
ATOM     31  C   UNL     1       7.284  48.614  23.882  1.00  0.00    -0.003 C 
ATOM     32  C   UNL     1       6.499  47.974  22.739  1.00  0.00     0.004 C 
ENDBRANCH  30  31
ENDBRANCH  29  30
ENDBRANCH  28  29
ENDBRANCH  27  28
ENDBRANCH  26  27
ENDBRANCH  25  26
ENDBRANCH  24  25
ENDBRANCH  23  24
ENDBRANCH  22  23
ENDBRANCH  21  22
ENDBRANCH  20  21
ENDBRANCH  19  20
ENDBRANCH  18  19
ENDBRANCH   1  18
TORSDOF 28
ENDMDL
MODEL 4
REMARK VINA RESULT:    -4.598      3.276     11.869
REMARK INTER + INTRA:         -14.267
REMARK INTER:                 -11.765
REMARK INTRA:                  -2.502
REMARK UNBOUND:                -2.142
REMARK SMILES CCCCCCCCCCCCCCCCCCCCCCCCCCCCCC(=O)[O-]
REMARK SMILES IDX 16 1 17 2 18 3 19 4 20 5 21 6 22 7 23 8 24 9 25 10 26 11
REMARK SMILES IDX 27 12 28 13 29 14 30 15 31 16 32 17 15 18 14 19 13 20 12 21
REMARK SMILES IDX 11 22 10 23 9 24 8 25 7 26 6 27 5 28 4 29 3 30 2 31 1 32
REMARK H PARENT
REMARK Flexibility Score: inf
ROOT
ATOM      1  C   UNL     1       2.500  53.620  21.029  1.00  0.00     0.000 C 
ENDROOT
BRANCH   1   2
ATOM      2  C   UNL     1       2.375  55.134  20.771  1.00  0.00     0.000 C 
BRANCH   2   3
ATOM      3  C   UNL     1       1.971  55.922  22.028  1.00  0.00     0.000 C 
BRANCH   3   4
ATOM      4  C   UNL     1       1.932  57.441  21.790  1.00  0.00     0.000 C 
BRANCH   4   5
ATOM      5  C   UNL     1       3.292  58.158  21.898  1.00  0.00     0.000 C 
BRANCH   5   6
ATOM      6  C   UNL     1       3.353  59.219  23.017  1.00  0.00     0.000 C 
BRANCH   6   7
ATOM      7  C   UNL     1       2.660  60.533  22.614  1.00  0.00     0.000 C 
BRANCH   7   8
ATOM      8  C   UNL     1       1.553  60.943  23.598  1.00  0.00     0.000 C 
BRANCH   8   9
ATOM      9  C   UNL     1       0.406  59.923  23.653  1.00  0.00     0.000 C 
BRANCH   9  10
ATOM     10  C   UNL     1      -0.273  59.929  25.029  1.00  0.00     0.000 C 
BRANCH  10  11
ATOM     11  C   UNL     1      -0.041  58.597  25.759  1.00  0.00     0.000 C 
BRANCH  11  12
ATOM     12  C   UNL     1       0.961  57.679  25.034  1.00  0.00     0.000 C 
BRANCH  12  13
ATOM     13  C   UNL     1       2.113  57.154  25.910  1.00  0.00     0.006 C 
BRANCH  13  14
ATOM     14  C   UNL     1       3.270  56.563  25.091  1.00  0.00     0.053 C 
BRANCH  14  15
ATOM     15  C   UNL     1       3.395  55.087  25.322  1.00  0.00     0.041 C 
ATOM     16  O   UNL     1       2.840  54.555  26.320  1.00  0.00    -0.550 OA
ATOM     17  O   UNL     1       4.092  54.291  24.418  1.00  0.00    -0.550 OA
ENDBRANCH  14  15
ENDBRANCH  13  14
ENDBRANCH  12  13
ENDBRANCH  11  12
ENDBRANCH  10  11
ENDBRANCH   9  10
ENDBRANCH   8   9
ENDBRANCH   7   8
ENDBRANCH   6   7
ENDBRANCH   5   6
ENDBRANCH   4   5
ENDBRANCH   3   4
ENDBRANCH   2   3
ENDBRANCH   1   2
BRANCH   1  18
ATOM     18  C   UNL     1       2.035  53.157  22.422  1.00  0.00     0.000 C 
BRANCH  18  19
ATOM     19  C   UNL     1       1.231  51.841  22.441  1.00  0.00     0.000 C 
BRANCH  19  20
ATOM     20  C   UNL     1       2.066  50.606  22.845  1.00  0.00     0.000 C 
BRANCH  20  21
ATOM     21  C   UNL     1       1.230  49.313  22.862  1.00  0.00     0.000 C 
BRANCH  21  22
ATOM     22  C   UNL     1       2.022  48.089  22.354  1.00  0.00     0.000 C 
BRANCH  22  23
ATOM     23  C   UNL     1       2.043  46.908  23.341  1.00  0.00     0.000 C 
BRANCH  23  24
ATOM     24  C   UNL     1       1.623  47.256  24.781  1.00  0.00    -0.000 C 
BRANCH  24  25
ATOM     25  C   UNL     1       2.775  47.311  25.802  1.00  0.00    -0.000 C 
BRANCH  25  26
ATOM     26  C   UNL     1       3.714  48.508  25.573  1.00  0.00    -0.000 C 
BRANCH  26  27
ATOM     27  C   UNL     1       5.200  48.109  25.587  1.00  0.00    -0.000 C 
BRANCH  27  28
ATOM     28  C   UNL     1       6.099  49.168  24.924  1.00  0.00    -0.000 C 
BRANCH  28  29
ATOM     29  C   UNL     1       7.259  48.545  24.130  1.00  0.00    -0.000 C 
BRANCH  29  30
ATOM     30  C   UNL     1       6.929  48.370  22.637  1.00  0.00    -0.000 C 
BRANCH  30  31
ATOM     31  C   UNL     1       5.537  47.763  22.407  1.00  0.00    -0.003 C 
ATOM     32  C   UNL     1       5.088  47.851  20.950  1.00  0.00     0.004 C 
ENDBRANCH  30  31
ENDBRANCH  29  30
ENDBRANCH  28  29
ENDBRANCH  27  28
ENDBRANCH  26  27
ENDBRANCH  25  26
ENDBRANCH  24  25
ENDBRANCH  23  24
ENDBRANCH  22  23
ENDBRANCH  21  22
ENDBRANCH  20  21
ENDBRANCH  19  20
ENDBRANCH  18  19
ENDBRANCH   1  18
TORSDOF 28
ENDMDL
MODEL 5
REMARK VINA RESULT:    -4.594      0.826      1.838
REMARK INTER + INTRA:         -14.258
REMARK INTER:                 -12.520
REMARK INTRA:                  -1.738
REMARK UNBOUND:                -2.142
REMARK SMILES CCCCCCCCCCCCCCCCCCCCCCCCCCCCCC(=O)[O-]
REMARK SMILES IDX 16 1 17 2 18 3 19 4 20 5 21 6 22 7 23 8 24 9 25 10 26 11
REMARK SMILES IDX 27 12 28 13 29 14 30 15 31 16 32 17 15 18 14 19 13 20 12 21
REMARK SMILES IDX 11 22 10 23 9 24 8 25 7 26 6 27 5 28 4 29 3 30 2 31 1 32
REMARK H PARENT
REMARK Flexibility Score: inf
ROOT
ATOM      1  C   UNL     1       2.949  56.458  24.373  1.00  0.00     0.000 C 
ENDROOT
BRANCH   1   2
ATOM      2  C   UNL     1       2.918  54.953  24.043  1.00  0.00     0.000 C 
BRANCH   2   3
ATOM      3  C   UNL     1       1.996  54.622  22.856  1.00  0.00     0.000 C 
BRANCH   3   4
ATOM      4  C   UNL     1       2.426  53.348  22.108  1.00  0.00     0.000 C 
BRANCH   4   5
ATOM      5  C   UNL     1       1.645  52.073  22.482  1.00  0.00     0.000 C 
BRANCH   5   6
ATOM      6  C   UNL     1       2.541  50.900  22.932  1.00  0.00     0.000 C 
BRANCH   6   7
ATOM      7  C   UNL     1       1.803  49.551  22.887  1.00  0.00     0.000 C 
BRANCH   7   8
ATOM      8  C   UNL     1       2.727  48.383  22.505  1.00  0.00     0.000 C 
BRANCH   8   9
ATOM      9  C   UNL     1       2.504  47.144  23.384  1.00  0.00     0.000 C 
BRANCH   9  10
ATOM     10  C   UNL     1       2.141  47.543  24.820  1.00  0.00     0.000 C 
BRANCH  10  11
ATOM     11  C   UNL     1       3.344  47.358  25.759  1.00  0.00     0.000 C 
BRANCH  11  12
ATOM     12  C   UNL     1       4.371  48.500  25.654  1.00  0.00     0.000 C 
BRANCH  12  13
ATOM     13  C   UNL     1       5.718  48.108  25.022  1.00  0.00     0.006 C 
BRANCH  13  14
ATOM     14  C   UNL     1       6.650  49.308  24.798  1.00  0.00     0.053 C 
BRANCH  14  15
ATOM     15  C   UNL     1       7.639  49.440  25.916  1.00  0.00     0.041 C 
ATOM     16  O   UNL     1       8.617  50.226  25.804  1.00  0.00    -0.550 OA
ATOM     17  O   UNL     1       7.465  48.724  27.096  1.00  0.00    -0.550 OA
ENDBRANCH  14  15
ENDBRANCH  13  14
ENDBRANCH  12  13
ENDBRANCH  11  12
ENDBRANCH  10  11
ENDBRANCH   9  10
ENDBRANCH   8   9
ENDBRANCH   7   8
ENDBRANCH   6   7
ENDBRANCH   5   6
ENDBRANCH   4   5
ENDBRANCH   3   4
ENDBRANCH   2   3
ENDBRANCH   1   2
BRANCH   1  18
ATOM     18  C   UNL     1       3.077  57.389  23.153  1.00  0.00     0.000 C 
BRANCH  18  19
ATOM     19  C   UNL     1       2.250  58.688  23.232  1.00  0.00     0.000 C 
BRANCH  19  20
ATOM     20  C   UNL     1       0.801  58.477  23.725  1.00  0.00     0.000 C 
BRANCH  20  21
ATOM     21  C   UNL     1       0.426  59.435  24.870  1.00  0.00     0.000 C 
BRANCH  21  22
ATOM     22  C   UNL     1       0.314  60.902  24.402  1.00  0.00     0.000 C 
BRANCH  22  23
ATOM     23  C   UNL     1      -0.701  61.117  23.264  1.00  0.00     0.000 C 
BRANCH  23  24
ATOM     24  C   UNL     1      -1.288  62.538  23.176  1.00  0.00    -0.000 C 
BRANCH  24  25
ATOM     25  C   UNL     1      -0.427  63.642  23.820  1.00  0.00    -0.000 C 
BRANCH  25  26
ATOM     26  C   UNL     1      -1.031  65.046  23.641  1.00  0.00    -0.000 C 
BRANCH  26  27
ATOM     27  C   UNL     1      -0.063  66.028  22.960  1.00  0.00    -0.000 C 
BRANCH  27  28
ATOM     28  C   UNL     1      -0.775  66.960  21.963  1.00  0.00    -0.000 C 
BRANCH  28  29
ATOM     29  C   UNL     1      -2.043  66.329  21.366  1.00  0.00    -0.000 C 
BRANCH  29  30
ATOM     30  C   UNL     1      -3.281  66.525  22.261  1.00  0.00    -0.000 C 
BRANCH  30  31
ATOM     31  C   UNL     1      -4.516  65.782  21.731  1.00  0.00    -0.003 C 
ATOM     32  C   UNL     1      -4.738  64.438  22.422  1.00  0.00     0.004 C 
ENDBRANCH  30  31
ENDBRANCH  29  30
ENDBRANCH  28  29
ENDBRANCH  27  28
ENDBRANCH  26  27
ENDBRANCH  25  26
ENDBRANCH  24  25
ENDBRANCH  23  24
ENDBRANCH  22  23
ENDBRANCH  21  22
ENDBRANCH  20  21
ENDBRANCH  19  20
ENDBRANCH  18  19
ENDBRANCH   1  18
TORSDOF 28
ENDMDL
MODEL 6
REMARK VINA RESULT:    -4.585      2.697      5.440
REMARK INTER + INTRA:         -14.231
REMARK INTER:                 -10.881
REMARK INTRA:                  -3.351
REMARK UNBOUND:                -2.142
REMARK SMILES CCCCCCCCCCCCCCCCCCCCCCCCCCCCCC(=O)[O-]
REMARK SMILES IDX 16 1 17 2 18 3 19 4 20 5 21 6 22 7 23 8 24 9 25 10 26 11
REMARK SMILES IDX 27 12 28 13 29 14 30 15 31 16 32 17 15 18 14 19 13 20 12 21
REMARK SMILES IDX 11 22 10 23 9 24 8 25 7 26 6 27 5 28 4 29 3 30 2 31 1 32
REMARK H PARENT
REMARK Flexibility Score: inf
ROOT
ATOM      1  C   UNL     1       2.593  54.914  22.150  1.00  0.00     0.000 C 
ENDROOT
BRANCH   1   2
ATOM      2  C   UNL     1       2.261  53.478  21.701  1.00  0.00     0.000 C 
BRANCH   2   3
ATOM      3  C   UNL     1       1.781  52.588  22.860  1.00  0.00     0.000 C 
BRANCH   3   4
ATOM      4  C   UNL     1       1.593  51.119  22.442  1.00  0.00     0.000 C 
BRANCH   4   5
ATOM      5  C   UNL     1       2.454  50.101  23.216  1.00  0.00     0.000 C 
BRANCH   5   6
ATOM      6  C   UNL     1       2.653  48.761  22.478  1.00  0.00     0.000 C 
BRANCH   6   7
ATOM      7  C   UNL     1       1.510  47.768  22.752  1.00  0.00     0.000 C 
BRANCH   7   8
ATOM      8  C   UNL     1       1.445  47.332  24.225  1.00  0.00     0.000 C 
BRANCH   8   9
ATOM      9  C   UNL     1       2.809  46.875  24.764  1.00  0.00     0.000 C 
BRANCH   9  10
ATOM     10  C   UNL     1       3.097  47.496  26.137  1.00  0.00     0.000 C 
BRANCH  10  11
ATOM     11  C   UNL     1       4.391  48.325  26.101  1.00  0.00     0.000 C 
BRANCH  11  12
ATOM     12  C   UNL     1       5.545  47.610  25.376  1.00  0.00     0.000 C 
BRANCH  12  13
ATOM     13  C   UNL     1       6.239  48.440  24.282  1.00  0.00     0.006 C 
BRANCH  13  14
ATOM     14  C   UNL     1       6.700  49.820  24.775  1.00  0.00     0.053 C 
BRANCH  14  15
ATOM     15  C   UNL     1       8.034  49.732  25.452  1.00  0.00     0.041 C 
ATOM     16  O   UNL     1       8.905  48.925  25.030  1.00  0.00    -0.550 OA
ATOM     17  O   UNL     1       8.333  50.565  26.526  1.00  0.00    -0.550 OA
ENDBRANCH  14  15
ENDBRANCH  13  14
ENDBRANCH  12  13
ENDBRANCH  11  12
ENDBRANCH  10  11
ENDBRANCH   9  10
ENDBRANCH   8   9
ENDBRANCH   7   8
ENDBRANCH   6   7
ENDBRANCH   5   6
ENDBRANCH   4   5
ENDBRANCH   3   4
ENDBRANCH   2   3
ENDBRANCH   1   2
BRANCH   1  18
ATOM     18  C   UNL     1       2.295  56.007  21.107  1.00  0.00     0.000 C 
BRANCH  18  19
ATOM     19  C   UNL     1       1.955  57.393  21.689  1.00  0.00     0.000 C 
BRANCH  19  20
ATOM     20  C   UNL     1       3.173  58.140  22.276  1.00  0.00     0.000 C 
BRANCH  20  21
ATOM     21  C   UNL     1       3.609  59.329  21.401  1.00  0.00     0.000 C 
BRANCH  21  22
ATOM     22  C   UNL     1       3.222  60.691  22.017  1.00  0.00     0.000 C 
BRANCH  22  23
ATOM     23  C   UNL     1       2.681  60.592  23.455  1.00  0.00     0.000 C 
BRANCH  23  24
ATOM     24  C   UNL     1       1.276  61.189  23.665  1.00  0.00    -0.000 C 
BRANCH  24  25
ATOM     25  C   UNL     1       0.136  60.158  23.760  1.00  0.00    -0.000 C 
BRANCH  25  26
ATOM     26  C   UNL     1       0.157  59.370  25.081  1.00  0.00    -0.000 C 
BRANCH  26  27
ATOM     27  C   UNL     1       0.642  57.922  24.902  1.00  0.00    -0.000 C 
BRANCH  27  28
ATOM     28  C   UNL     1       2.075  57.712  25.423  1.00  0.00    -0.000 C 
BRANCH  28  29
ATOM     29  C   UNL     1       2.336  56.265  25.870  1.00  0.00    -0.000 C 
BRANCH  29  30
ATOM     30  C   UNL     1       3.451  55.584  25.056  1.00  0.00    -0.000 C 
BRANCH  30  31
ATOM     31  C   UNL     1       3.883  54.238  25.657  1.00  0.00    -0.003 C 
ATOM     32  C   UNL     1       4.745  53.415  24.702  1.00  0.00     0.004 C 
ENDBRANCH  30  31
ENDBRANCH  29  30
ENDBRANCH  28  29
ENDBRANCH  27  28
ENDBRANCH  26  27
ENDBRANCH  25  26
ENDBRANCH  24  25
ENDBRANCH  23  24
ENDBRANCH  22  23
ENDBRANCH  21  22
ENDBRANCH  20  21
ENDBRANCH  19  20
ENDBRANCH  18  19
ENDBRANCH   1  18
TORSDOF 28
ENDMDL
MODEL 7
REMARK VINA RESULT:    -4.512      1.220      2.112
REMARK INTER + INTRA:         -14.041
REMARK INTER:                 -11.915
REMARK INTRA:                  -2.126
REMARK UNBOUND:                -2.142
REMARK SMILES CCCCCCCCCCCCCCCCCCCCCCCCCCCCCC(=O)[O-]
REMARK SMILES IDX 16 1 17 2 18 3 19 4 20 5 21 6 22 7 23 8 24 9 25 10 26 11
REMARK SMILES IDX 27 12 28 13 29 14 30 15 31 16 32 17 15 18 14 19 13 20 12 21
REMARK SMILES IDX 11 22 10 23 9 24 8 25 7 26 6 27 5 28 4 29 3 30 2 31 1 32
REMARK H PARENT
REMARK Flexibility Score: inf
ROOT
ATOM      1  C   UNL     1       3.110  54.202  24.136  1.00  0.00     0.000 C 
ENDROOT
BRANCH   1   2
ATOM      2  C   UNL     1       2.345  54.462  22.825  1.00  0.00     0.000 C 
BRANCH   2   3
ATOM      3  C   UNL     1       2.307  53.231  21.902  1.00  0.00     0.000 C 
BRANCH   3   4
ATOM      4  C   UNL     1       1.570  52.038  22.534  1.00  0.00     0.000 C 
BRANCH   4   5
ATOM      5  C   UNL     1       2.421  50.767  22.724  1.00  0.00     0.000 C 
BRANCH   5   6
ATOM      6  C   UNL     1       1.591  49.484  22.937  1.00  0.00     0.000 C 
BRANCH   6   7
ATOM      7  C   UNL     1       2.280  48.239  22.351  1.00  0.00     0.000 C 
BRANCH   7   8
ATOM      8  C   UNL     1       2.332  47.068  23.346  1.00  0.00     0.000 C 
BRANCH   8   9
ATOM      9  C   UNL     1       1.866  47.470  24.753  1.00  0.00     0.000 C 
BRANCH   9  10
ATOM     10  C   UNL     1       2.985  47.271  25.783  1.00  0.00     0.000 C 
BRANCH  10  11
ATOM     11  C   UNL     1       4.159  48.223  25.506  1.00  0.00     0.000 C 
BRANCH  11  12
ATOM     12  C   UNL     1       5.412  47.498  24.982  1.00  0.00     0.000 C 
BRANCH  12  13
ATOM     13  C   UNL     1       6.398  48.386  24.203  1.00  0.00     0.006 C 
BRANCH  13  14
ATOM     14  C   UNL     1       6.840  49.628  24.991  1.00  0.00     0.053 C 
BRANCH  14  15
ATOM     15  C   UNL     1       7.938  49.293  25.955  1.00  0.00     0.041 C 
ATOM     16  O   UNL     1       7.659  48.963  27.139  1.00  0.00    -0.550 OA
ATOM     17  O   UNL     1       9.266  49.309  25.541  1.00  0.00    -0.550 OA
ENDBRANCH  14  15
ENDBRANCH  13  14
ENDBRANCH  12  13
ENDBRANCH  11  12
ENDBRANCH  10  11
ENDBRANCH   9  10
ENDBRANCH   8   9
ENDBRANCH   7   8
ENDBRANCH   6   7
ENDBRANCH   5   6
ENDBRANCH   4   5
ENDBRANCH   3   4
ENDBRANCH   2   3
ENDBRANCH   1   2
BRANCH   1  18
ATOM     18  C   UNL     1       3.356  55.450  25.004  1.00  0.00     0.000 C 
BRANCH  18  19
ATOM     19  C   UNL     1       2.546  56.698  24.602  1.00  0.00     0.000 C 
BRANCH  19  20
ATOM     20  C   UNL     1       3.391  57.797  23.921  1.00  0.00     0.000 C 
BRANCH  20  21
ATOM     21  C   UNL     1       2.796  58.245  22.574  1.00  0.00     0.000 C 
BRANCH  21  22
ATOM     22  C   UNL     1       3.203  59.685  22.196  1.00  0.00     0.000 C 
BRANCH  22  23
ATOM     23  C   UNL     1       3.098  60.687  23.360  1.00  0.00     0.000 C 
BRANCH  23  24
ATOM     24  C   UNL     1       1.859  61.602  23.322  1.00  0.00    -0.000 C 
BRANCH  24  25
ATOM     25  C   UNL     1       0.534  60.924  23.719  1.00  0.00    -0.000 C 
BRANCH  25  26
ATOM     26  C   UNL     1      -0.482  61.913  24.317  1.00  0.00    -0.000 C 
BRANCH  26  27
ATOM     27  C   UNL     1      -1.315  62.633  23.244  1.00  0.00    -0.000 C 
BRANCH  27  28
ATOM     28  C   UNL     1      -0.935  64.118  23.103  1.00  0.00    -0.000 C 
BRANCH  28  29
ATOM     29  C   UNL     1      -2.143  65.007  22.764  1.00  0.00    -0.000 C 
BRANCH  29  30
ATOM     30  C   UNL     1      -2.230  66.256  23.660  1.00  0.00    -0.000 C 
BRANCH  30  31
ATOM     31  C   UNL     1      -0.854  66.716  24.164  1.00  0.00    -0.003 C 
ATOM     32  C   UNL     1      -0.794  66.838  25.686  1.00  0.00     0.004 C 
ENDBRANCH  30  31
ENDBRANCH  29  30
ENDBRANCH  28  29
ENDBRANCH  27  28
ENDBRANCH  26  27
ENDBRANCH  25  26
ENDBRANCH  24  25
ENDBRANCH  23  24
ENDBRANCH  22  23
ENDBRANCH  21  22
ENDBRANCH  20  21
ENDBRANCH  19  20
ENDBRANCH  18  19
ENDBRANCH   1  18
TORSDOF 28
ENDMDL
MODEL 8
REMARK VINA RESULT:    -4.360      1.709      2.956
REMARK INTER + INTRA:         -13.640
REMARK INTER:                 -10.255
REMARK INTRA:                  -3.385
REMARK UNBOUND:                -2.142
REMARK SMILES CCCCCCCCCCCCCCCCCCCCCCCCCCCCCC(=O)[O-]
REMARK SMILES IDX 16 1 17 2 18 3 19 4 20 5 21 6 22 7 23 8 24 9 25 10 26 11
REMARK SMILES IDX 27 12 28 13 29 14 30 15 31 16 32 17 15 18 14 19 13 20 12 21
REMARK SMILES IDX 11 22 10 23 9 24 8 25 7 26 6 27 5 28 4 29 3 30 2 31 1 32
REMARK H PARENT
REMARK Flexibility Score: inf
ROOT
ATOM      1  C   UNL     1       2.858  53.982  24.501  1.00  0.00     0.000 C 
ENDROOT
BRANCH   1   2
ATOM      2  C   UNL     1       3.196  54.378  23.051  1.00  0.00     0.000 C 
BRANCH   2   3
ATOM      3  C   UNL     1       2.350  53.622  22.013  1.00  0.00     0.000 C 
BRANCH   3   4
ATOM      4  C   UNL     1       1.650  52.386  22.604  1.00  0.00     0.000 C 
BRANCH   4   5
ATOM      5  C   UNL     1       2.435  51.065  22.478  1.00  0.00     0.000 C 
BRANCH   5   6
ATOM      6  C   UNL     1       1.644  49.822  22.936  1.00  0.00     0.000 C 
BRANCH   6   7
ATOM      7  C   UNL     1       2.285  48.511  22.449  1.00  0.00     0.000 C 
BRANCH   7   8
ATOM      8  C   UNL     1       1.581  47.264  23.010  1.00  0.00     0.000 C 
BRANCH   8   9
ATOM      9  C   UNL     1       1.604  47.216  24.545  1.00  0.00     0.000 C 
BRANCH   9  10
ATOM     10  C   UNL     1       3.010  46.891  25.066  1.00  0.00     0.000 C 
BRANCH  10  11
ATOM     11  C   UNL     1       3.571  48.062  25.890  1.00  0.00     0.000 C 
BRANCH  11  12
ATOM     12  C   UNL     1       4.637  48.874  25.134  1.00  0.00     0.000 C 
BRANCH  12  13
ATOM     13  C   UNL     1       6.013  48.194  25.019  1.00  0.00     0.006 C 
BRANCH  13  14
ATOM     14  C   UNL     1       7.140  49.174  24.661  1.00  0.00     0.053 C 
BRANCH  14  15
ATOM     15  C   UNL     1       7.940  49.544  25.873  1.00  0.00     0.041 C 
ATOM     16  O   UNL     1       7.722  48.968  26.973  1.00  0.00    -0.550 OA
ATOM     17  O   UNL     1       8.950  50.496  25.785  1.00  0.00    -0.550 OA
ENDBRANCH  14  15
ENDBRANCH  13  14
ENDBRANCH  12  13
ENDBRANCH  11  12
ENDBRANCH  10  11
ENDBRANCH   9  10
ENDBRANCH   8   9
ENDBRANCH   7   8
ENDBRANCH   6   7
ENDBRANCH   5   6
ENDBRANCH   4   5
ENDBRANCH   3   4
ENDBRANCH   2   3
ENDBRANCH   1   2
BRANCH   1  18
ATOM     18  C   UNL     1       2.775  55.156  25.494  1.00  0.00     0.000 C 
BRANCH  18  19
ATOM     19  C   UNL     1       3.537  56.428  25.070  1.00  0.00     0.000 C 
BRANCH  19  20
ATOM     20  C   UNL     1       2.669  57.706  25.073  1.00  0.00     0.000 C 
BRANCH  20  21
ATOM     21  C   UNL     1       1.163  57.392  25.023  1.00  0.00     0.000 C 
BRANCH  21  22
ATOM     22  C   UNL     1       0.710  56.882  23.638  1.00  0.00     0.000 C 
BRANCH  22  23
ATOM     23  C   UNL     1       0.995  57.866  22.488  1.00  0.00     0.000 C 
BRANCH  23  24
ATOM     24  C   UNL     1       2.295  57.595  21.707  1.00  0.00    -0.000 C 
BRANCH  24  25
ATOM     25  C   UNL     1       3.476  58.516  22.065  1.00  0.00    -0.000 C 
BRANCH  25  26
ATOM     26  C   UNL     1       3.146  60.006  21.874  1.00  0.00    -0.000 C 
BRANCH  26  27
ATOM     27  C   UNL     1       2.993  60.758  23.207  1.00  0.00    -0.000 C 
BRANCH  27  28
ATOM     28  C   UNL     1       1.627  61.455  23.336  1.00  0.00    -0.000 C 
BRANCH  28  29
ATOM     29  C   UNL     1       0.904  61.100  24.645  1.00  0.00    -0.000 C 
BRANCH  29  30
ATOM     30  C   UNL     1      -0.549  60.644  24.416  1.00  0.00    -0.000 C 
BRANCH  30  31
ATOM     31  C   UNL     1      -1.036  60.925  22.987  1.00  0.00    -0.003 C 
ATOM     32  C   UNL     1      -1.793  62.247  22.872  1.00  0.00     0.004 C 
ENDBRANCH  30  31
ENDBRANCH  29  30
ENDBRANCH  28  29
ENDBRANCH  27  28
ENDBRANCH  26  27
ENDBRANCH  25  26
ENDBRANCH  24  25
ENDBRANCH  23  24
ENDBRANCH  22  23
ENDBRANCH  21  22
ENDBRANCH  20  21
ENDBRANCH  19  20
ENDBRANCH  18  19
ENDBRANCH   1  18
TORSDOF 28
ENDMDL
MODEL 9
REMARK VINA RESULT:    -4.324      5.434     14.285
REMARK INTER + INTRA:         -13.545
REMARK INTER:                 -11.223
REMARK INTRA:                  -2.322
REMARK UNBOUND:                -2.142
REMARK SMILES CCCCCCCCCCCCCCCCCCCCCCCCCCCCCC(=O)[O-]
REMARK SMILES IDX 16 1 17 2 18 3 19 4 20 5 21 6 22 7 23 8 24 9 25 10 26 11
REMARK SMILES IDX 27 12 28 13 29 14 30 15 31 16 32 17 15 18 14 19 13 20 12 21
REMARK SMILES IDX 11 22 10 23 9 24 8 25 7 26 6 27 5 28 4 29 3 30 2 31 1 32
REMARK H PARENT
REMARK Flexibility Score: inf
ROOT
ATOM      1  C   UNL     1       1.956  56.079  21.974  1.00  0.00     0.000 C 
ENDROOT
BRANCH   1   2
ATOM      2  C   UNL     1       2.758  57.380  21.779  1.00  0.00     0.000 C 
BRANCH   2   3
ATOM      3  C   UNL     1       3.368  57.907  23.089  1.00  0.00     0.000 C 
BRANCH   3   4
ATOM      4  C   UNL     1       2.850  57.157  24.329  1.00  0.00     0.000 C 
BRANCH   4   5
ATOM      5  C   UNL     1       1.821  57.928  25.179  1.00  0.00     0.000 C 
BRANCH   5   6
ATOM      6  C   UNL     1       0.403  57.956  24.571  1.00  0.00     0.000 C 
BRANCH   6   7
ATOM      7  C   UNL     1       0.172  59.193  23.685  1.00  0.00     0.000 C 
BRANCH   7   8
ATOM      8  C   UNL     1       0.932  60.431  24.189  1.00  0.00     0.000 C 
BRANCH   8   9
ATOM      9  C   UNL     1       0.194  61.741  23.877  1.00  0.00     0.000 C 
BRANCH   9  10
ATOM     10  C   UNL     1      -1.134  61.470  23.159  1.00  0.00     0.000 C 
BRANCH  10  11
ATOM     11  C   UNL     1      -1.904  62.779  22.921  1.00  0.00     0.000 C 
BRANCH  11  12
ATOM     12  C   UNL     1      -1.109  64.030  23.339  1.00  0.00     0.000 C 
BRANCH  12  13
ATOM     13  C   UNL     1      -1.442  65.307  22.546  1.00  0.00     0.006 C 
BRANCH  13  14
ATOM     14  C   UNL     1      -2.363  66.267  23.312  1.00  0.00     0.053 C 
BRANCH  14  15
ATOM     15  C   UNL     1      -3.806  65.972  23.029  1.00  0.00     0.041 C 
ATOM     16  O   UNL     1      -4.644  65.962  23.970  1.00  0.00    -0.550 OA
ATOM     17  O   UNL     1      -4.234  65.745  21.725  1.00  0.00    -0.550 OA
ENDBRANCH  14  15
ENDBRANCH  13  14
ENDBRANCH  12  13
ENDBRANCH  11  12
ENDBRANCH  10  11
ENDBRANCH   9  10
ENDBRANCH   8   9
ENDBRANCH   7   8
ENDBRANCH   6   7
ENDBRANCH   5   6
ENDBRANCH   4   5
ENDBRANCH   3   4
ENDBRANCH   2   3
ENDBRANCH   1   2
BRANCH   1  18
ATOM     18  C   UNL     1       2.191  55.002  20.900  1.00  0.00     0.000 C 
BRANCH  18  19
ATOM     19  C   UNL     1       2.753  53.665  21.425  1.00  0.00     0.000 C 
BRANCH  19  20
ATOM     20  C   UNL     1       1.770  52.887  22.328  1.00  0.00     0.000 C 
BRANCH  20  21
ATOM     21  C   UNL     1       2.367  51.564  22.841  1.00  0.00     0.000 C 
BRANCH  21  22
ATOM     22  C   UNL     1       1.467  50.349  22.531  1.00  0.00     0.000 C 
BRANCH  22  23
ATOM     23  C   UNL     1       1.967  49.030  23.149  1.00  0.00     0.000 C 
BRANCH  23  24
ATOM     24  C   UNL     1       1.853  47.797  22.233  1.00  0.00    -0.000 C 
BRANCH  24  25
ATOM     25  C   UNL     1       3.194  47.224  21.738  1.00  0.00    -0.000 C 
BRANCH  25  26
ATOM     26  C   UNL     1       4.373  48.184  21.972  1.00  0.00    -0.000 C 
BRANCH  26  27
ATOM     27  C   UNL     1       5.692  47.449  22.261  1.00  0.00    -0.000 C 
BRANCH  27  28
ATOM     28  C   UNL     1       5.943  47.262  23.769  1.00  0.00    -0.000 C 
BRANCH  28  29
ATOM     29  C   UNL     1       5.363  48.409  24.611  1.00  0.00    -0.000 C 
BRANCH  29  30
ATOM     30  C   UNL     1       6.366  49.560  24.816  1.00  0.00    -0.000 C 
BRANCH  30  31
ATOM     31  C   UNL     1       7.456  49.216  25.842  1.00  0.00    -0.003 C 
ATOM     32  C   UNL     1       8.861  49.257  25.246  1.00  0.00     0.004 C 
ENDBRANCH  30  31
ENDBRANCH  29  30
ENDBRANCH  28  29
ENDBRANCH  27  28
ENDBRANCH  26  27
ENDBRANCH  25  26
ENDBRANCH  24  25
ENDBRANCH  23  24
ENDBRANCH  22  23
ENDBRANCH  21  22
ENDBRANCH  20  21
ENDBRANCH  19  20
ENDBRANCH  18  19
ENDBRANCH   1  18
TORSDOF 28
ENDMDL
