MODEL 1
REMARK VINA RESULT:    -4.796      0.000      0.000
REMARK INTER + INTRA:          -5.092
REMARK INTER:                  -5.076
REMARK INTRA:                  -0.016
REMARK UNBOUND:                -0.016
REMARK SMILES O=C([O-])c1cccnc1
REMARK SMILES IDX 4 1 5 2 9 3 6 4 8 5 7 6 2 7 1 8 3 9
REMARK H PARENT
REMARK Flexibility Score: inf
ROOT
ATOM      1  C   UNL     1      47.025  43.806  79.097  1.00  0.00     0.016 A 
ATOM      2  C   UNL     1      47.282  43.559  80.455  1.00  0.00     0.013 A 
ATOM      3  C   UNL     1      45.769  44.326  78.738  1.00  0.00     0.120 A 
ATOM      4  C   UNL     1      46.303  43.827  81.413  1.00  0.00     0.021 A 
ATOM      5  N   UNL     1      44.833  44.579  79.691  1.00  0.00    -0.264 NA
ATOM      6  C   UNL     1      45.071  44.343  81.008  1.00  0.00     0.111 A 
ENDROOT
BRANCH   1   7
ATOM      7  C   UNL     1      48.054  43.526  78.072  1.00  0.00     0.073 C 
ATOM      8  O   UNL     1      48.860  44.425  77.711  1.00  0.00    -0.545 OA
ATOM      9  O   UNL     1      48.146  42.266  77.493  1.00  0.00    -0.545 OA
ENDBRANCH   1   7
TORSDOF 1
ENDMDL
MODEL 2
REMARK VINA RESULT:    -4.567      2.717      3.663
REMARK INTER + INTRA:          -4.850
REMARK INTER:                  -4.828
REMARK INTRA:                  -0.022
REMARK UNBOUND:                -0.016
REMARK SMILES O=C([O-])c1cccnc1
REMARK SMILES IDX 4 1 5 2 9 3 6 4 8 5 7 6 2 7 1 8 3 9
REMARK H PARENT
REMARK Flexibility Score: inf
ROOT
ATOM      1  C   UNL     1      46.498  44.193  79.258  1.00  0.00     0.016 A 
ATOM      2  C   UNL     1      47.900  44.281  79.275  1.00  0.00     0.013 A 
ATOM      3  C   UNL     1      45.858  43.961  78.028  1.00  0.00     0.120 A 
ATOM      4  C   UNL     1      48.625  44.140  78.092  1.00  0.00     0.021 A 
ATOM      5  N   UNL     1      46.589  43.828  76.888  1.00  0.00    -0.264 NA
ATOM      6  C   UNL     1      47.945  43.911  76.894  1.00  0.00     0.111 A 
ENDROOT
BRANCH   1   7
ATOM      7  C   UNL     1      45.718  44.340  80.505  1.00  0.00     0.073 C 
ATOM      8  O   UNL     1      46.204  43.979  81.611  1.00  0.00    -0.545 OA
ATOM      9  O   UNL     1      44.437  44.878  80.475  1.00  0.00    -0.545 OA
ENDBRANCH   1   7
TORSDOF 1
ENDMDL
MODEL 3
REMARK VINA RESULT:    -4.552      2.731      3.657
REMARK INTER + INTRA:          -4.834
REMARK INTER:                  -4.813
REMARK INTRA:                  -0.021
REMARK UNBOUND:                -0.016
REMARK SMILES O=C([O-])c1cccnc1
REMARK SMILES IDX 4 1 5 2 9 3 6 4 8 5 7 6 2 7 1 8 3 9
REMARK H PARENT
REMARK Flexibility Score: inf
ROOT
ATOM      1  C   UNL     1      46.493  44.204  79.199  1.00  0.00     0.016 A 
ATOM      2  C   UNL     1      47.888  44.329  79.305  1.00  0.00     0.013 A 
ATOM      3  C   UNL     1      45.939  43.943  77.933  1.00  0.00     0.120 A 
ATOM      4  C   UNL     1      48.691  44.197  78.171  1.00  0.00     0.021 A 
ATOM      5  N   UNL     1      46.745  43.819  76.844  1.00  0.00    -0.264 NA
ATOM      6  C   UNL     1      48.095  43.939  76.936  1.00  0.00     0.111 A 
ENDROOT
BRANCH   1   7
ATOM      7  C   UNL     1      45.631  44.342  80.393  1.00  0.00     0.073 C 
ATOM      8  O   UNL     1      44.473  44.829  80.294  1.00  0.00    -0.545 OA
ATOM      9  O   UNL     1      46.087  43.935  81.641  1.00  0.00    -0.545 OA
ENDBRANCH   1   7
TORSDOF 1
ENDMDL
MODEL 4
REMARK VINA RESULT:    -4.509     10.883     11.616
REMARK INTER + INTRA:          -4.788
REMARK INTER:                  -4.765
REMARK INTRA:                  -0.023
REMARK UNBOUND:                -0.016
REMARK SMILES O=C([O-])c1cccnc1
REMARK SMILES IDX 4 1 5 2 9 3 6 4 8 5 7 6 2 7 1 8 3 9
REMARK H PARENT
REMARK Flexibility Score: inf
ROOT
ATOM      1  C   UNL     1      38.113  38.007  75.505  1.00  0.00     0.016 A 
ATOM      2  C   UNL     1      37.305  38.686  74.578  1.00  0.00     0.013 A 
ATOM      3  C   UNL     1      37.498  37.115  76.401  1.00  0.00     0.120 A 
ATOM      4  C   UNL     1      35.926  38.470  74.560  1.00  0.00     0.021 A 
ATOM      5  N   UNL     1      36.152  36.924  76.363  1.00  0.00    -0.264 NA
ATOM      6  C   UNL     1      35.361  37.575  75.470  1.00  0.00     0.111 A 
ENDROOT
BRANCH   1   7
ATOM      7  C   UNL     1      39.575  38.227  75.533  1.00  0.00     0.073 C 
ATOM      8  O   UNL     1      40.165  38.742  74.545  1.00  0.00    -0.545 OA
ATOM      9  O   UNL     1      40.319  37.868  76.650  1.00  0.00    -0.545 OA
ENDBRANCH   1   7
TORSDOF 1
ENDMDL
MODEL 5
REMARK VINA RESULT:    -4.478      2.881      3.955
REMARK INTER + INTRA:          -4.756
REMARK INTER:                  -4.735
REMARK INTRA:                  -0.021
REMARK UNBOUND:                -0.016
REMARK SMILES O=C([O-])c1cccnc1
REMARK SMILES IDX 4 1 5 2 9 3 6 4 8 5 7 6 2 7 1 8 3 9
REMARK H PARENT
REMARK Flexibility Score: inf
ROOT
ATOM      1  C   UNL     1      46.521  44.187  79.280  1.00  0.00     0.016 A 
ATOM      2  C   UNL     1      45.948  43.922  78.026  1.00  0.00     0.013 A 
ATOM      3  C   UNL     1      47.919  44.311  79.363  1.00  0.00     0.120 A 
ATOM      4  C   UNL     1      46.759  43.787  76.899  1.00  0.00     0.021 A 
ATOM      5  N   UNL     1      48.688  44.174  78.249  1.00  0.00    -0.264 NA
ATOM      6  C   UNL     1      48.143  43.918  77.031  1.00  0.00     0.111 A 
ENDROOT
BRANCH   1   7
ATOM      7  C   UNL     1      45.671  44.334  80.482  1.00  0.00     0.073 C 
ATOM      8  O   UNL     1      46.095  43.976  81.613  1.00  0.00    -0.545 OA
ATOM      9  O   UNL     1      44.393  44.868  80.378  1.00  0.00    -0.545 OA
ENDBRANCH   1   7
TORSDOF 1
ENDMDL
MODEL 6
REMARK VINA RESULT:    -4.373     11.916     12.674
REMARK INTER + INTRA:          -4.645
REMARK INTER:                  -4.622
REMARK INTRA:                  -0.023
REMARK UNBOUND:                -0.016
REMARK SMILES O=C([O-])c1cccnc1
REMARK SMILES IDX 4 1 5 2 9 3 6 4 8 5 7 6 2 7 1 8 3 9
REMARK H PARENT
REMARK Flexibility Score: inf
ROOT
ATOM      1  C   UNL     1      36.786  37.226  75.885  1.00  0.00     0.016 A 
ATOM      2  C   UNL     1      38.065  37.160  76.461  1.00  0.00     0.013 A 
ATOM      3  C   UNL     1      36.566  38.153  74.851  1.00  0.00     0.120 A 
ATOM      4  C   UNL     1      39.082  38.001  76.008  1.00  0.00     0.021 A 
ATOM      5  N   UNL     1      37.575  38.962  74.428  1.00  0.00    -0.264 NA
ATOM      6  C   UNL     1      38.816  38.905  74.978  1.00  0.00     0.111 A 
ENDROOT
BRANCH   1   7
ATOM      7  C   UNL     1      35.700  36.340  76.356  1.00  0.00     0.073 C 
ATOM      8  O   UNL     1      34.496  36.609  76.098  1.00  0.00    -0.545 OA
ATOM      9  O   UNL     1      35.993  35.198  77.092  1.00  0.00    -0.545 OA
ENDBRANCH   1   7
TORSDOF 1
ENDMDL
MODEL 7
REMARK VINA RESULT:    -4.240     12.662     13.379
REMARK INTER + INTRA:          -4.504
REMARK INTER:                  -4.486
REMARK INTRA:                  -0.018
REMARK UNBOUND:                -0.016
REMARK SMILES O=C([O-])c1cccnc1
REMARK SMILES IDX 4 1 5 2 9 3 6 4 8 5 7 6 2 7 1 8 3 9
REMARK H PARENT
REMARK Flexibility Score: inf
ROOT
ATOM      1  C   UNL     1      36.896  37.063  73.494  1.00  0.00     0.016 A 
ATOM      2  C   UNL     1      36.116  36.260  74.342  1.00  0.00     0.013 A 
ATOM      3  C   UNL     1      37.880  37.885  74.070  1.00  0.00     0.120 A 
ATOM      4  C   UNL     1      36.324  36.290  75.722  1.00  0.00     0.021 A 
ATOM      5  N   UNL     1      38.062  37.896  75.418  1.00  0.00    -0.264 NA
ATOM      6  C   UNL     1      37.313  37.123  76.248  1.00  0.00     0.111 A 
ENDROOT
BRANCH   1   7
ATOM      7  C   UNL     1      36.686  37.039  72.030  1.00  0.00     0.073 C 
ATOM      8  O   UNL     1      36.840  35.972  71.378  1.00  0.00    -0.545 OA
ATOM      9  O   UNL     1      36.315  38.195  71.354  1.00  0.00    -0.545 OA
ENDBRANCH   1   7
TORSDOF 1
ENDMDL
MODEL 8
REMARK VINA RESULT:    -4.203      2.799      4.030
REMARK INTER + INTRA:          -4.465
REMARK INTER:                  -4.446
REMARK INTRA:                  -0.019
REMARK UNBOUND:                -0.016
REMARK SMILES O=C([O-])c1cccnc1
REMARK SMILES IDX 4 1 5 2 9 3 6 4 8 5 7 6 2 7 1 8 3 9
REMARK H PARENT
REMARK Flexibility Score: inf
ROOT
ATOM      1  C   UNL     1      47.386  44.003  78.739  1.00  0.00     0.016 A 
ATOM      2  C   UNL     1      47.287  43.108  77.661  1.00  0.00     0.013 A 
ATOM      3  C   UNL     1      48.615  44.649  78.961  1.00  0.00     0.120 A 
ATOM      4  C   UNL     1      48.391  42.876  76.840  1.00  0.00     0.021 A 
ATOM      5  N   UNL     1      49.676  44.405  78.145  1.00  0.00    -0.264 NA
ATOM      6  C   UNL     1      49.591  43.541  77.100  1.00  0.00     0.111 A 
ENDROOT
BRANCH   1   7
ATOM      7  C   UNL     1      46.223  44.257  79.617  1.00  0.00     0.073 C 
ATOM      8  O   UNL     1      45.119  44.619  79.128  1.00  0.00    -0.545 OA
ATOM      9  O   UNL     1      46.333  44.101  80.993  1.00  0.00    -0.545 OA
ENDBRANCH   1   7
TORSDOF 1
ENDMDL
MODEL 9
REMARK VINA RESULT:    -4.102     12.858     13.721
REMARK INTER + INTRA:          -4.358
REMARK INTER:                  -4.342
REMARK INTRA:                  -0.016
REMARK UNBOUND:                -0.016
REMARK SMILES O=C([O-])c1cccnc1
REMARK SMILES IDX 4 1 5 2 9 3 6 4 8 5 7 6 2 7 1 8 3 9
REMARK H PARENT
REMARK Flexibility Score: inf
ROOT
ATOM      1  C   UNL     1      36.543  37.310  74.279  1.00  0.00     0.016 A 
ATOM      2  C   UNL     1      36.586  36.176  73.452  1.00  0.00     0.013 A 
ATOM      3  C   UNL     1      36.451  38.576  73.673  1.00  0.00     0.120 A 
ATOM      4  C   UNL     1      36.538  36.318  72.064  1.00  0.00     0.021 A 
ATOM      5  N   UNL     1      36.407  38.687  72.318  1.00  0.00    -0.264 NA
ATOM      6  C   UNL     1      36.448  37.596  71.509  1.00  0.00     0.111 A 
ENDROOT
BRANCH   1   7
ATOM      7  C   UNL     1      36.592  37.173  75.750  1.00  0.00     0.073 C 
ATOM      8  O   UNL     1      37.689  37.258  76.365  1.00  0.00    -0.545 OA
ATOM      9  O   UNL     1      35.429  36.947  76.475  1.00  0.00    -0.545 OA
ENDBRANCH   1   7
TORSDOF 1
ENDMDL
