MODEL 1
REMARK VINA RESULT:    -5.145      0.000      0.000
REMARK INTER + INTRA:         -15.469
REMARK INTER:                 -11.762
REMARK INTRA:                  -3.708
REMARK UNBOUND:                -3.708
REMARK SMILES CCCCCCCCCCCCCCCCCCCCCCCC(=O)[O-]
REMARK SMILES IDX 13 1 14 2 15 3 16 4 17 5 18 6 19 7 20 8 21 9 22 10 23 11
REMARK SMILES IDX 24 12 25 13 26 14 12 15 11 16 10 17 9 18 8 19 7 20 6 21 5 22
REMARK SMILES IDX 4 23 3 24 2 25 1 26
REMARK H PARENT
REMARK Flexibility Score: inf
ROOT
ATOM      1  C   UNL     1     249.739 258.195 247.323  1.00  0.00     0.000 C 
ENDROOT
BRANCH   1   2
ATOM      2  C   UNL     1     250.284 259.615 247.118  1.00  0.00     0.000 C 
BRANCH   2   3
ATOM      3  C   UNL     1     251.819 259.601 247.073  1.00  0.00     0.000 C 
BRANCH   3   4
ATOM      4  C   UNL     1     252.442 261.003 247.193  1.00  0.00     0.000 C 
BRANCH   4   5
ATOM      5  C   UNL     1     253.947 261.026 247.520  1.00  0.00     0.000 C 
BRANCH   5   6
ATOM      6  C   UNL     1     254.676 259.741 247.088  1.00  0.00     0.000 C 
BRANCH   6   7
ATOM      7  C   UNL     1     255.350 259.004 248.261  1.00  0.00     0.000 C 
BRANCH   7   8
ATOM      8  C   UNL     1     255.100 259.615 249.655  1.00  0.00     0.000 C 
BRANCH   8   9
ATOM      9  C   UNL     1     254.998 258.604 250.813  1.00  0.00     0.000 C 
BRANCH   9  10
ATOM     10  C   UNL     1     255.223 259.190 252.222  1.00  0.00     0.006 C 
BRANCH  10  11
ATOM     11  C   UNL     1     254.949 260.701 252.322  1.00  0.00     0.053 C 
BRANCH  11  12
ATOM     12  C   UNL     1     254.219 261.070 253.577  1.00  0.00     0.041 C 
ATOM     13  O   UNL     1     254.610 262.039 254.279  1.00  0.00    -0.550 OA
ATOM     14  O   UNL     1     253.085 260.362 253.956  1.00  0.00    -0.550 OA
ENDBRANCH  11  12
ENDBRANCH  10  11
ENDBRANCH   9  10
ENDBRANCH   8   9
ENDBRANCH   7   8
ENDBRANCH   6   7
ENDBRANCH   5   6
ENDBRANCH   4   5
ENDBRANCH   3   4
ENDBRANCH   2   3
ENDBRANCH   1   2
BRANCH   1  15
ATOM     15  C   UNL     1     248.666 257.845 246.279  1.00  0.00     0.000 C 
BRANCH  15  16
ATOM     16  C   UNL     1     248.625 256.338 245.947  1.00  0.00     0.000 C 
BRANCH  16  17
ATOM     17  C   UNL     1     249.921 255.570 246.276  1.00  0.00     0.000 C 
BRANCH  17  18
ATOM     18  C   UNL     1     250.805 255.199 245.073  1.00  0.00    -0.000 C 
BRANCH  18  19
ATOM     19  C   UNL     1     252.326 255.247 245.322  1.00  0.00    -0.000 C 
BRANCH  19  20
ATOM     20  C   UNL     1     252.789 256.411 246.227  1.00  0.00    -0.000 C 
BRANCH  20  21
ATOM     21  C   UNL     1     253.486 255.978 247.531  1.00  0.00    -0.000 C 
BRANCH  21  22
ATOM     22  C   UNL     1     252.709 256.384 248.795  1.00  0.00    -0.000 C 
BRANCH  22  23
ATOM     23  C   UNL     1     251.843 255.220 249.301  1.00  0.00    -0.000 C 
BRANCH  23  24
ATOM     24  C   UNL     1     252.507 253.846 249.104  1.00  0.00    -0.000 C 
BRANCH  24  25
ATOM     25  C   UNL     1     251.731 252.877 248.194  1.00  0.00    -0.003 C 
ATOM     26  C   UNL     1     252.638 252.065 247.271  1.00  0.00     0.004 C 
ENDBRANCH  24  25
ENDBRANCH  23  24
ENDBRANCH  22  23
ENDBRANCH  21  22
ENDBRANCH  20  21
ENDBRANCH  19  20
ENDBRANCH  18  19
ENDBRANCH  17  18
ENDBRANCH  16  17
ENDBRANCH  15  16
ENDBRANCH   1  15
TORSDOF 22
ENDMDL
MODEL 2
REMARK VINA RESULT:    -5.036      3.339      6.812
REMARK INTER + INTRA:         -15.220
REMARK INTER:                 -11.135
REMARK INTRA:                  -4.086
REMARK UNBOUND:                -3.708
REMARK SMILES CCCCCCCCCCCCCCCCCCCCCCCC(=O)[O-]
REMARK SMILES IDX 13 1 14 2 15 3 16 4 17 5 18 6 19 7 20 8 21 9 22 10 23 11
REMARK SMILES IDX 24 12 25 13 26 14 12 15 11 16 10 17 9 18 8 19 7 20 6 21 5 22
REMARK SMILES IDX 4 23 3 24 2 25 1 26
REMARK H PARENT
REMARK Flexibility Score: inf
ROOT
ATOM      1  C   UNL     1     253.684 261.273 246.609  1.00  0.00     0.000 C 
ENDROOT
BRANCH   1   2
ATOM      2  C   UNL     1     252.682 260.316 247.268  1.00  0.00     0.000 C 
BRANCH   2   3
ATOM      3  C   UNL     1     252.730 258.937 246.593  1.00  0.00     0.000 C 
BRANCH   3   4
ATOM      4  C   UNL     1     251.923 257.865 247.346  1.00  0.00     0.000 C 
BRANCH   4   5
ATOM      5  C   UNL     1     252.737 256.999 248.326  1.00  0.00     0.000 C 
BRANCH   5   6
ATOM      6  C   UNL     1     254.248 257.012 248.028  1.00  0.00     0.000 C 
BRANCH   6   7
ATOM      7  C   UNL     1     255.075 257.705 249.127  1.00  0.00     0.000 C 
BRANCH   7   8
ATOM      8  C   UNL     1     256.155 258.684 248.621  1.00  0.00     0.000 C 
BRANCH   8   9
ATOM      9  C   UNL     1     256.116 260.093 249.242  1.00  0.00     0.000 C 
BRANCH   9  10
ATOM     10  C   UNL     1     254.971 260.342 250.244  1.00  0.00     0.006 C 
BRANCH  10  11
ATOM     11  C   UNL     1     255.419 260.357 251.716  1.00  0.00     0.053 C 
BRANCH  11  12
ATOM     12  C   UNL     1     255.749 261.735 252.201  1.00  0.00     0.041 C 
ATOM     13  O   UNL     1     255.139 262.226 253.187  1.00  0.00    -0.550 OA
ATOM     14  O   UNL     1     256.756 262.469 251.585  1.00  0.00    -0.550 OA
ENDBRANCH  11  12
ENDBRANCH  10  11
ENDBRANCH   9  10
ENDBRANCH   8   9
ENDBRANCH   7   8
ENDBRANCH   6   7
ENDBRANCH   5   6
ENDBRANCH   4   5
ENDBRANCH   3   4
ENDBRANCH   2   3
ENDBRANCH   1   2
BRANCH   1  15
ATOM     15  C   UNL     1     254.741 260.511 245.793  1.00  0.00     0.000 C 
BRANCH  15  16
ATOM     16  C   UNL     1     256.119 261.207 245.802  1.00  0.00     0.000 C 
BRANCH  16  17
ATOM     17  C   UNL     1     257.039 260.828 244.624  1.00  0.00     0.000 C 
BRANCH  17  18
ATOM     18  C   UNL     1     258.236 261.762 244.380  1.00  0.00    -0.000 C 
BRANCH  18  19
ATOM     19  C   UNL     1     258.180 263.124 245.101  1.00  0.00    -0.000 C 
BRANCH  19  20
ATOM     20  C   UNL     1     259.281 263.328 246.166  1.00  0.00    -0.000 C 
BRANCH  20  21
ATOM     21  C   UNL     1     258.760 263.669 247.575  1.00  0.00    -0.000 C 
BRANCH  21  22
ATOM     22  C   UNL     1     258.425 262.423 248.413  1.00  0.00    -0.000 C 
BRANCH  22  23
ATOM     23  C   UNL     1     259.640 261.977 249.240  1.00  0.00    -0.000 C 
BRANCH  23  24
ATOM     24  C   UNL     1     260.150 260.578 248.854  1.00  0.00    -0.000 C 
BRANCH  24  25
ATOM     25  C   UNL     1     259.507 259.980 247.590  1.00  0.00    -0.003 C 
ATOM     26  C   UNL     1     260.518 259.699 246.479  1.00  0.00     0.004 C 
ENDBRANCH  24  25
ENDBRANCH  23  24
ENDBRANCH  22  23
ENDBRANCH  21  22
ENDBRANCH  20  21
ENDBRANCH  19  20
ENDBRANCH  18  19
ENDBRANCH  17  18
ENDBRANCH  16  17
ENDBRANCH  15  16
ENDBRANCH   1  15
TORSDOF 22
ENDMDL
MODEL 3
REMARK VINA RESULT:    -4.985      3.664      7.781
REMARK INTER + INTRA:         -15.104
REMARK INTER:                 -11.766
REMARK INTRA:                  -3.338
REMARK UNBOUND:                -3.708
REMARK SMILES CCCCCCCCCCCCCCCCCCCCCCCC(=O)[O-]
REMARK SMILES IDX 13 1 14 2 15 3 16 4 17 5 18 6 19 7 20 8 21 9 22 10 23 11
REMARK SMILES IDX 24 12 25 13 26 14 12 15 11 16 10 17 9 18 8 19 7 20 6 21 5 22
REMARK SMILES IDX 4 23 3 24 2 25 1 26
REMARK H PARENT
REMARK Flexibility Score: inf
ROOT
ATOM      1  C   UNL     1     254.307 260.885 247.654  1.00  0.00     0.000 C 
ENDROOT
BRANCH   1   2
ATOM      2  C   UNL     1     254.492 260.525 249.134  1.00  0.00     0.000 C 
BRANCH   2   3
ATOM      3  C   UNL     1     255.464 259.345 249.284  1.00  0.00     0.000 C 
BRANCH   3   4
ATOM      4  C   UNL     1     255.033 258.338 250.365  1.00  0.00     0.000 C 
BRANCH   4   5
ATOM      5  C   UNL     1     255.061 256.860 249.932  1.00  0.00     0.000 C 
BRANCH   5   6
ATOM      6  C   UNL     1     255.327 256.678 248.426  1.00  0.00     0.000 C 
BRANCH   6   7
ATOM      7  C   UNL     1     254.569 255.485 247.817  1.00  0.00     0.000 C 
BRANCH   7   8
ATOM      8  C   UNL     1     253.430 255.853 246.845  1.00  0.00     0.000 C 
BRANCH   8   9
ATOM      9  C   UNL     1     253.074 257.350 246.776  1.00  0.00     0.000 C 
BRANCH   9  10
ATOM     10  C   UNL     1     251.881 257.786 247.651  1.00  0.00     0.006 C 
BRANCH  10  11
ATOM     11  C   UNL     1     250.647 258.233 246.848  1.00  0.00     0.053 C 
BRANCH  11  12
ATOM     12  C   UNL     1     250.280 259.662 247.109  1.00  0.00     0.041 C 
ATOM     13  O   UNL     1     249.141 259.954 247.561  1.00  0.00    -0.550 OA
ATOM     14  O   UNL     1     251.208 260.672 246.885  1.00  0.00    -0.550 OA
ENDBRANCH  11  12
ENDBRANCH  10  11
ENDBRANCH   9  10
ENDBRANCH   8   9
ENDBRANCH   7   8
ENDBRANCH   6   7
ENDBRANCH   5   6
ENDBRANCH   4   5
ENDBRANCH   3   4
ENDBRANCH   2   3
ENDBRANCH   1   2
BRANCH   1  15
ATOM     15  C   UNL     1     255.409 260.267 246.779  1.00  0.00     0.000 C 
BRANCH  15  16
ATOM     16  C   UNL     1     256.417 261.312 246.257  1.00  0.00     0.000 C 
BRANCH  16  17
ATOM     17  C   UNL     1     257.065 260.962 244.903  1.00  0.00     0.000 C 
BRANCH  17  18
ATOM     18  C   UNL     1     258.359 261.722 244.561  1.00  0.00    -0.000 C 
BRANCH  18  19
ATOM     19  C   UNL     1     258.920 262.623 245.680  1.00  0.00    -0.000 C 
BRANCH  19  20
ATOM     20  C   UNL     1     260.189 262.071 246.368  1.00  0.00    -0.000 C 
BRANCH  20  21
ATOM     21  C   UNL     1     260.227 260.538 246.516  1.00  0.00    -0.000 C 
BRANCH  21  22
ATOM     22  C   UNL     1     259.827 260.056 247.921  1.00  0.00    -0.000 C 
BRANCH  22  23
ATOM     23  C   UNL     1     259.643 261.246 248.875  1.00  0.00    -0.000 C 
BRANCH  23  24
ATOM     24  C   UNL     1     258.192 261.409 249.361  1.00  0.00    -0.000 C 
BRANCH  24  25
ATOM     25  C   UNL     1     257.926 262.679 250.189  1.00  0.00    -0.003 C 
ATOM     26  C   UNL     1     256.972 262.442 251.359  1.00  0.00     0.004 C 
ENDBRANCH  24  25
ENDBRANCH  23  24
ENDBRANCH  22  23
ENDBRANCH  21  22
ENDBRANCH  20  21
ENDBRANCH  19  20
ENDBRANCH  18  19
ENDBRANCH  17  18
ENDBRANCH  16  17
ENDBRANCH  15  16
ENDBRANCH   1  15
TORSDOF 22
ENDMDL
MODEL 4
REMARK VINA RESULT:    -4.966      3.166      5.528
REMARK INTER + INTRA:         -15.061
REMARK INTER:                 -11.772
REMARK INTRA:                  -3.289
REMARK UNBOUND:                -3.708
REMARK SMILES CCCCCCCCCCCCCCCCCCCCCCCC(=O)[O-]
REMARK SMILES IDX 13 1 14 2 15 3 16 4 17 5 18 6 19 7 20 8 21 9 22 10 23 11
REMARK SMILES IDX 24 12 25 13 26 14 12 15 11 16 10 17 9 18 8 19 7 20 6 21 5 22
REMARK SMILES IDX 4 23 3 24 2 25 1 26
REMARK H PARENT
REMARK Flexibility Score: inf
ROOT
ATOM      1  C   UNL     1     258.609 261.394 244.741  1.00  0.00     0.000 C 
ENDROOT
BRANCH   1   2
ATOM      2  C   UNL     1     258.788 262.670 245.574  1.00  0.00     0.000 C 
BRANCH   2   3
ATOM      3  C   UNL     1     260.032 262.561 246.468  1.00  0.00     0.000 C 
BRANCH   3   4
ATOM      4  C   UNL     1     260.295 261.130 246.969  1.00  0.00     0.000 C 
BRANCH   4   5
ATOM      5  C   UNL     1     259.498 260.717 248.220  1.00  0.00     0.000 C 
BRANCH   5   6
ATOM      6  C   UNL     1     259.167 261.904 249.143  1.00  0.00     0.000 C 
BRANCH   6   7
ATOM      7  C   UNL     1     257.692 261.933 249.586  1.00  0.00     0.000 C 
BRANCH   7   8
ATOM      8  C   UNL     1     256.866 260.685 249.213  1.00  0.00     0.000 C 
BRANCH   8   9
ATOM      9  C   UNL     1     255.451 260.621 249.819  1.00  0.00     0.000 C 
BRANCH   9  10
ATOM     10  C   UNL     1     255.284 259.648 251.004  1.00  0.00     0.006 C 
BRANCH  10  11
ATOM     11  C   UNL     1     254.681 260.295 252.263  1.00  0.00     0.053 C 
BRANCH  11  12
ATOM     12  C   UNL     1     255.037 261.745 252.390  1.00  0.00     0.041 C 
ATOM     13  O   UNL     1     254.169 262.634 252.186  1.00  0.00    -0.550 OA
ATOM     14  O   UNL     1     256.322 262.116 252.766  1.00  0.00    -0.550 OA
ENDBRANCH  11  12
ENDBRANCH  10  11
ENDBRANCH   9  10
ENDBRANCH   8   9
ENDBRANCH   7   8
ENDBRANCH   6   7
ENDBRANCH   5   6
ENDBRANCH   4   5
ENDBRANCH   3   4
ENDBRANCH   2   3
ENDBRANCH   1   2
BRANCH   1  15
ATOM     15  C   UNL     1     257.126 261.023 244.586  1.00  0.00     0.000 C 
BRANCH  15  16
ATOM     16  C   UNL     1     256.304 261.289 245.865  1.00  0.00     0.000 C 
BRANCH  16  17
ATOM     17  C   UNL     1     254.814 260.904 245.765  1.00  0.00     0.000 C 
BRANCH  17  18
ATOM     18  C   UNL     1     254.476 259.440 246.098  1.00  0.00    -0.000 C 
BRANCH  18  19
ATOM     19  C   UNL     1     253.220 259.225 246.967  1.00  0.00    -0.000 C 
BRANCH  19  20
ATOM     20  C   UNL     1     252.575 257.829 246.822  1.00  0.00    -0.000 C 
BRANCH  20  21
ATOM     21  C   UNL     1     253.352 256.684 247.498  1.00  0.00    -0.000 C 
BRANCH  21  22
ATOM     22  C   UNL     1     253.470 256.852 249.023  1.00  0.00    -0.000 C 
BRANCH  22  23
ATOM     23  C   UNL     1     254.757 256.198 249.547  1.00  0.00    -0.000 C 
BRANCH  23  24
ATOM     24  C   UNL     1     256.028 256.757 248.884  1.00  0.00    -0.000 C 
BRANCH  24  25
ATOM     25  C   UNL     1     257.120 255.711 248.595  1.00  0.00    -0.003 C 
ATOM     26  C   UNL     1     256.584 254.281 248.551  1.00  0.00     0.004 C 
ENDBRANCH  24  25
ENDBRANCH  23  24
ENDBRANCH  22  23
ENDBRANCH  21  22
ENDBRANCH  20  21
ENDBRANCH  19  20
ENDBRANCH  18  19
ENDBRANCH  17  18
ENDBRANCH  16  17
ENDBRANCH  15  16
ENDBRANCH   1  15
TORSDOF 22
ENDMDL
MODEL 5
REMARK VINA RESULT:    -4.930      3.651      7.844
REMARK INTER + INTRA:         -14.979
REMARK INTER:                 -11.742
REMARK INTRA:                  -3.237
REMARK UNBOUND:                -3.708
REMARK SMILES CCCCCCCCCCCCCCCCCCCCCCCC(=O)[O-]
REMARK SMILES IDX 13 1 14 2 15 3 16 4 17 5 18 6 19 7 20 8 21 9 22 10 23 11
REMARK SMILES IDX 24 12 25 13 26 14 12 15 11 16 10 17 9 18 8 19 7 20 6 21 5 22
REMARK SMILES IDX 4 23 3 24 2 25 1 26
REMARK H PARENT
REMARK Flexibility Score: inf
ROOT
ATOM      1  C   UNL     1     253.409 258.467 246.517  1.00  0.00     0.000 C 
ENDROOT
BRANCH   1   2
ATOM      2  C   UNL     1     252.927 259.763 247.183  1.00  0.00     0.000 C 
BRANCH   2   3
ATOM      3  C   UNL     1     251.393 259.838 247.168  1.00  0.00     0.000 C 
BRANCH   3   4
ATOM      4  C   UNL     1     250.728 258.560 246.627  1.00  0.00     0.000 C 
BRANCH   4   5
ATOM      5  C   UNL     1     249.738 257.879 247.590  1.00  0.00     0.000 C 
BRANCH   5   6
ATOM      6  C   UNL     1     249.365 256.449 247.157  1.00  0.00     0.000 C 
BRANCH   6   7
ATOM      7  C   UNL     1     249.631 256.180 245.665  1.00  0.00     0.000 C 
BRANCH   7   8
ATOM      8  C   UNL     1     250.477 254.926 245.361  1.00  0.00     0.000 C 
BRANCH   8   9
ATOM      9  C   UNL     1     252.002 255.113 245.467  1.00  0.00     0.000 C 
BRANCH   9  10
ATOM     10  C   UNL     1     252.637 254.626 246.786  1.00  0.00     0.006 C 
BRANCH  10  11
ATOM     11  C   UNL     1     251.776 253.610 247.556  1.00  0.00     0.053 C 
BRANCH  11  12
ATOM     12  C   UNL     1     252.099 252.193 247.194  1.00  0.00     0.041 C 
ATOM     13  O   UNL     1     251.184 251.399 246.850  1.00  0.00    -0.550 OA
ATOM     14  O   UNL     1     253.418 251.755 247.205  1.00  0.00    -0.550 OA
ENDBRANCH  11  12
ENDBRANCH  10  11
ENDBRANCH   9  10
ENDBRANCH   8   9
ENDBRANCH   7   8
ENDBRANCH   6   7
ENDBRANCH   5   6
ENDBRANCH   4   5
ENDBRANCH   3   4
ENDBRANCH   2   3
ENDBRANCH   1   2
BRANCH   1  15
ATOM     15  C   UNL     1     254.276 257.630 247.472  1.00  0.00     0.000 C 
BRANCH  15  16
ATOM     16  C   UNL     1     253.965 257.902 248.958  1.00  0.00     0.000 C 
BRANCH  16  17
ATOM     17  C   UNL     1     255.205 258.140 249.843  1.00  0.00     0.000 C 
BRANCH  17  18
ATOM     18  C   UNL     1     254.947 258.847 251.185  1.00  0.00    -0.000 C 
BRANCH  18  19
ATOM     19  C   UNL     1     255.174 260.372 251.192  1.00  0.00    -0.000 C 
BRANCH  19  20
ATOM     20  C   UNL     1     255.568 260.965 249.821  1.00  0.00    -0.000 C 
BRANCH  20  21
ATOM     21  C   UNL     1     257.043 261.390 249.701  1.00  0.00    -0.000 C 
BRANCH  21  22
ATOM     22  C   UNL     1     257.520 261.517 248.244  1.00  0.00    -0.000 C 
BRANCH  22  23
ATOM     23  C   UNL     1     256.712 260.590 247.323  1.00  0.00    -0.000 C 
BRANCH  23  24
ATOM     24  C   UNL     1     256.245 261.284 246.031  1.00  0.00    -0.000 C 
BRANCH  24  25
ATOM     25  C   UNL     1     257.325 262.116 245.317  1.00  0.00    -0.003 C 
ATOM     26  C   UNL     1     258.367 261.257 244.602  1.00  0.00     0.004 C 
ENDBRANCH  24  25
ENDBRANCH  23  24
ENDBRANCH  22  23
ENDBRANCH  21  22
ENDBRANCH  20  21
ENDBRANCH  19  20
ENDBRANCH  18  19
ENDBRANCH  17  18
ENDBRANCH  16  17
ENDBRANCH  15  16
ENDBRANCH   1  15
TORSDOF 22
ENDMDL
MODEL 6
REMARK VINA RESULT:    -4.928      2.446      3.336
REMARK INTER + INTRA:         -14.974
REMARK INTER:                 -11.389
REMARK INTRA:                  -3.585
REMARK UNBOUND:                -3.708
REMARK SMILES CCCCCCCCCCCCCCCCCCCCCCCC(=O)[O-]
REMARK SMILES IDX 13 1 14 2 15 3 16 4 17 5 18 6 19 7 20 8 21 9 22 10 23 11
REMARK SMILES IDX 24 12 25 13 26 14 12 15 11 16 10 17 9 18 8 19 7 20 6 21 5 22
REMARK SMILES IDX 4 23 3 24 2 25 1 26
REMARK H PARENT
REMARK Flexibility Score: inf
ROOT
ATOM      1  C   UNL     1     249.833 257.373 247.663  1.00  0.00     0.000 C 
ENDROOT
BRANCH   1   2
ATOM      2  C   UNL     1     249.515 258.767 247.106  1.00  0.00     0.000 C 
BRANCH   2   3
ATOM      3  C   UNL     1     250.801 259.592 246.955  1.00  0.00     0.000 C 
BRANCH   3   4
ATOM      4  C   UNL     1     252.082 258.757 247.128  1.00  0.00     0.000 C 
BRANCH   4   5
ATOM      5  C   UNL     1     253.293 259.237 246.306  1.00  0.00     0.000 C 
BRANCH   5   6
ATOM      6  C   UNL     1     253.690 260.692 246.612  1.00  0.00     0.000 C 
BRANCH   6   7
ATOM      7  C   UNL     1     253.993 260.936 248.102  1.00  0.00     0.000 C 
BRANCH   7   8
ATOM      8  C   UNL     1     255.428 260.589 248.549  1.00  0.00     0.000 C 
BRANCH   8   9
ATOM      9  C   UNL     1     255.548 259.420 249.546  1.00  0.00     0.000 C 
BRANCH   9  10
ATOM     10  C   UNL     1     255.478 258.011 248.924  1.00  0.00     0.006 C 
BRANCH  10  11
ATOM     11  C   UNL     1     254.395 257.109 249.539  1.00  0.00     0.053 C 
BRANCH  11  12
ATOM     12  C   UNL     1     254.960 255.849 250.121  1.00  0.00     0.041 C 
ATOM     13  O   UNL     1     254.433 255.325 251.138  1.00  0.00    -0.550 OA
ATOM     14  O   UNL     1     256.051 255.233 249.521  1.00  0.00    -0.550 OA
ENDBRANCH  11  12
ENDBRANCH  10  11
ENDBRANCH   9  10
ENDBRANCH   8   9
ENDBRANCH   7   8
ENDBRANCH   6   7
ENDBRANCH   5   6
ENDBRANCH   4   5
ENDBRANCH   3   4
ENDBRANCH   2   3
ENDBRANCH   1   2
BRANCH   1  15
ATOM     15  C   UNL     1     249.143 256.267 246.847  1.00  0.00     0.000 C 
BRANCH  15  16
ATOM     16  C   UNL     1     249.822 256.017 245.484  1.00  0.00     0.000 C 
BRANCH  16  17
ATOM     17  C   UNL     1     250.858 254.874 245.481  1.00  0.00     0.000 C 
BRANCH  17  18
ATOM     18  C   UNL     1     252.331 255.304 245.380  1.00  0.00    -0.000 C 
BRANCH  18  19
ATOM     19  C   UNL     1     253.141 255.228 246.690  1.00  0.00    -0.000 C 
BRANCH  19  20
ATOM     20  C   UNL     1     253.916 253.905 246.886  1.00  0.00    -0.000 C 
BRANCH  20  21
ATOM     21  C   UNL     1     253.182 252.847 247.731  1.00  0.00    -0.000 C 
BRANCH  21  22
ATOM     22  C   UNL     1     252.395 253.452 248.907  1.00  0.00    -0.000 C 
BRANCH  22  23
ATOM     23  C   UNL     1     250.895 253.152 248.773  1.00  0.00    -0.000 C 
BRANCH  23  24
ATOM     24  C   UNL     1     250.600 251.663 248.518  1.00  0.00    -0.000 C 
BRANCH  24  25
ATOM     25  C   UNL     1     249.946 250.922 249.698  1.00  0.00    -0.003 C 
ATOM     26  C   UNL     1     250.709 251.094 251.011  1.00  0.00     0.004 C 
ENDBRANCH  24  25
ENDBRANCH  23  24
ENDBRANCH  22  23
ENDBRANCH  21  22
ENDBRANCH  20  21
ENDBRANCH  19  20
ENDBRANCH  18  19
ENDBRANCH  17  18
ENDBRANCH  16  17
ENDBRANCH  15  16
ENDBRANCH   1  15
TORSDOF 22
ENDMDL
MODEL 7
REMARK VINA RESULT:    -4.920      3.159      6.526
REMARK INTER + INTRA:         -14.956
REMARK INTER:                 -12.086
REMARK INTRA:                  -2.869
REMARK UNBOUND:                -3.708
REMARK SMILES CCCCCCCCCCCCCCCCCCCCCCCC(=O)[O-]
REMARK SMILES IDX 13 1 14 2 15 3 16 4 17 5 18 6 19 7 20 8 21 9 22 10 23 11
REMARK SMILES IDX 24 12 25 13 26 14 12 15 11 16 10 17 9 18 8 19 7 20 6 21 5 22
REMARK SMILES IDX 4 23 3 24 2 25 1 26
REMARK H PARENT
REMARK Flexibility Score: inf
ROOT
ATOM      1  C   UNL     1     249.871 257.343 246.953  1.00  0.00     0.000 C 
ENDROOT
BRANCH   1   2
ATOM      2  C   UNL     1     249.267 256.597 245.756  1.00  0.00     0.000 C 
BRANCH   2   3
ATOM      3  C   UNL     1     250.204 255.471 245.295  1.00  0.00     0.000 C 
BRANCH   3   4
ATOM      4  C   UNL     1     251.077 254.906 246.429  1.00  0.00     0.000 C 
BRANCH   4   5
ATOM      5  C   UNL     1     252.597 254.983 246.187  1.00  0.00     0.000 C 
BRANCH   5   6
ATOM      6  C   UNL     1     253.072 256.392 245.791  1.00  0.00     0.000 C 
BRANCH   6   7
ATOM      7  C   UNL     1     253.809 257.124 246.928  1.00  0.00     0.000 C 
BRANCH   7   8
ATOM      8  C   UNL     1     254.160 256.256 248.153  1.00  0.00     0.000 C 
BRANCH   8   9
ATOM      9  C   UNL     1     255.664 256.080 248.434  1.00  0.00     0.000 C 
BRANCH   9  10
ATOM     10  C   UNL     1     256.271 254.740 247.969  1.00  0.00     0.006 C 
BRANCH  10  11
ATOM     11  C   UNL     1     256.432 253.703 249.094  1.00  0.00     0.053 C 
BRANCH  11  12
ATOM     12  C   UNL     1     255.124 253.107 249.516  1.00  0.00     0.041 C 
ATOM     13  O   UNL     1     254.818 253.043 250.736  1.00  0.00    -0.550 OA
ATOM     14  O   UNL     1     254.225 252.650 248.559  1.00  0.00    -0.550 OA
ENDBRANCH  11  12
ENDBRANCH  10  11
ENDBRANCH   9  10
ENDBRANCH   8   9
ENDBRANCH   7   8
ENDBRANCH   6   7
ENDBRANCH   5   6
ENDBRANCH   4   5
ENDBRANCH   3   4
ENDBRANCH   2   3
ENDBRANCH   1   2
BRANCH   1  15
ATOM     15  C   UNL     1     249.057 258.599 247.306  1.00  0.00     0.000 C 
BRANCH  15  16
ATOM     16  C   UNL     1     249.847 259.906 247.080  1.00  0.00     0.000 C 
BRANCH  16  17
ATOM     17  C   UNL     1     251.379 259.737 247.057  1.00  0.00     0.000 C 
BRANCH  17  18
ATOM     18  C   UNL     1     252.198 261.039 247.066  1.00  0.00    -0.000 C 
BRANCH  18  19
ATOM     19  C   UNL     1     253.730 260.865 247.111  1.00  0.00    -0.000 C 
BRANCH  19  20
ATOM     20  C   UNL     1     254.344 260.977 248.525  1.00  0.00    -0.000 C 
BRANCH  20  21
ATOM     21  C   UNL     1     255.212 259.777 248.948  1.00  0.00    -0.000 C 
BRANCH  21  22
ATOM     22  C   UNL     1     256.638 259.831 248.373  1.00  0.00    -0.000 C 
BRANCH  22  23
ATOM     23  C   UNL     1     257.193 261.262 248.420  1.00  0.00    -0.000 C 
BRANCH  23  24
ATOM     24  C   UNL     1     257.819 261.709 247.088  1.00  0.00    -0.000 C 
BRANCH  24  25
ATOM     25  C   UNL     1     257.068 261.238 245.829  1.00  0.00    -0.003 C 
ATOM     26  C   UNL     1     257.839 261.505 244.537  1.00  0.00     0.004 C 
ENDBRANCH  24  25
ENDBRANCH  23  24
ENDBRANCH  22  23
ENDBRANCH  21  22
ENDBRANCH  20  21
ENDBRANCH  19  20
ENDBRANCH  18  19
ENDBRANCH  17  18
ENDBRANCH  16  17
ENDBRANCH  15  16
ENDBRANCH   1  15
TORSDOF 22
ENDMDL
MODEL 8
REMARK VINA RESULT:    -4.917      3.821      6.686
REMARK INTER + INTRA:         -14.948
REMARK INTER:                 -12.075
REMARK INTRA:                  -2.873
REMARK UNBOUND:                -3.708
REMARK SMILES CCCCCCCCCCCCCCCCCCCCCCCC(=O)[O-]
REMARK SMILES IDX 13 1 14 2 15 3 16 4 17 5 18 6 19 7 20 8 21 9 22 10 23 11
REMARK SMILES IDX 24 12 25 13 26 14 12 15 11 16 10 17 9 18 8 19 7 20 6 21 5 22
REMARK SMILES IDX 4 23 3 24 2 25 1 26
REMARK H PARENT
REMARK Flexibility Score: inf
ROOT
ATOM      1  C   UNL     1     258.593 261.671 248.619  1.00  0.00     0.000 C 
ENDROOT
BRANCH   1   2
ATOM      2  C   UNL     1     258.906 260.324 247.953  1.00  0.00     0.000 C 
BRANCH   2   3
ATOM      3  C   UNL     1     259.535 260.541 246.569  1.00  0.00     0.000 C 
BRANCH   3   4
ATOM      4  C   UNL     1     258.919 261.724 245.801  1.00  0.00     0.000 C 
BRANCH   4   5
ATOM      5  C   UNL     1     257.813 261.349 244.796  1.00  0.00     0.000 C 
BRANCH   5   6
ATOM      6  C   UNL     1     256.411 261.310 245.431  1.00  0.00     0.000 C 
BRANCH   6   7
ATOM      7  C   UNL     1     255.476 260.281 244.770  1.00  0.00     0.000 C 
BRANCH   7   8
ATOM      8  C   UNL     1     254.262 259.851 245.619  1.00  0.00     0.000 C 
BRANCH   8   9
ATOM      9  C   UNL     1     253.721 260.917 246.591  1.00  0.00     0.000 C 
BRANCH   9  10
ATOM     10  C   UNL     1     252.342 260.608 247.208  1.00  0.00     0.006 C 
BRANCH  10  11
ATOM     11  C   UNL     1     251.951 259.121 247.153  1.00  0.00     0.053 C 
BRANCH  11  12
ATOM     12  C   UNL     1     250.468 258.920 247.079  1.00  0.00     0.041 C 
ATOM     13  O   UNL     1     249.683 259.836 247.440  1.00  0.00    -0.550 OA
ATOM     14  O   UNL     1     249.951 257.731 246.580  1.00  0.00    -0.550 OA
ENDBRANCH  11  12
ENDBRANCH  10  11
ENDBRANCH   9  10
ENDBRANCH   8   9
ENDBRANCH   7   8
ENDBRANCH   6   7
ENDBRANCH   5   6
ENDBRANCH   4   5
ENDBRANCH   3   4
ENDBRANCH   2   3
ENDBRANCH   1   2
BRANCH   1  15
ATOM     15  C   UNL     1     257.516 261.527 249.706  1.00  0.00     0.000 C 
BRANCH  15  16
ATOM     16  C   UNL     1     256.226 260.859 249.186  1.00  0.00     0.000 C 
BRANCH  16  17
ATOM     17  C   UNL     1     255.456 260.038 250.240  1.00  0.00     0.000 C 
BRANCH  17  18
ATOM     18  C   UNL     1     254.785 258.751 249.730  1.00  0.00    -0.000 C 
BRANCH  18  19
ATOM     19  C   UNL     1     255.522 258.020 248.590  1.00  0.00    -0.000 C 
BRANCH  19  20
ATOM     20  C   UNL     1     254.938 256.633 248.239  1.00  0.00    -0.000 C 
BRANCH  20  21
ATOM     21  C   UNL     1     255.978 255.500 248.141  1.00  0.00    -0.000 C 
BRANCH  21  22
ATOM     22  C   UNL     1     256.818 255.340 249.419  1.00  0.00    -0.000 C 
BRANCH  22  23
ATOM     23  C   UNL     1     255.914 255.146 250.646  1.00  0.00    -0.000 C 
BRANCH  23  24
ATOM     24  C   UNL     1     256.403 254.029 251.584  1.00  0.00    -0.000 C 
BRANCH  24  25
ATOM     25  C   UNL     1     256.502 254.426 253.068  1.00  0.00    -0.003 C 
ATOM     26  C   UNL     1     256.491 253.224 254.011  1.00  0.00     0.004 C 
ENDBRANCH  24  25
ENDBRANCH  23  24
ENDBRANCH  22  23
ENDBRANCH  21  22
ENDBRANCH  20  21
ENDBRANCH  19  20
ENDBRANCH  18  19
ENDBRANCH  17  18
ENDBRANCH  16  17
ENDBRANCH  15  16
ENDBRANCH   1  15
TORSDOF 22
ENDMDL
MODEL 9
REMARK VINA RESULT:    -4.855      2.585      3.952
REMARK INTER + INTRA:         -14.806
REMARK INTER:                 -11.779
REMARK INTRA:                  -3.027
REMARK UNBOUND:                -3.708
REMARK SMILES CCCCCCCCCCCCCCCCCCCCCCCC(=O)[O-]
REMARK SMILES IDX 13 1 14 2 15 3 16 4 17 5 18 6 19 7 20 8 21 9 22 10 23 11
REMARK SMILES IDX 24 12 25 13 26 14 12 15 11 16 10 17 9 18 8 19 7 20 6 21 5 22
REMARK SMILES IDX 4 23 3 24 2 25 1 26
REMARK H PARENT
REMARK Flexibility Score: inf
ROOT
ATOM      1  C   UNL     1     249.971 256.210 245.799  1.00  0.00     0.000 C 
ENDROOT
BRANCH   1   2
ATOM      2  C   UNL     1     250.335 257.118 246.981  1.00  0.00     0.000 C 
BRANCH   2   3
ATOM      3  C   UNL     1     249.450 258.372 246.989  1.00  0.00     0.000 C 
BRANCH   3   4
ATOM      4  C   UNL     1     250.251 259.681 246.876  1.00  0.00     0.000 C 
BRANCH   4   5
ATOM      5  C   UNL     1     251.767 259.543 247.111  1.00  0.00     0.000 C 
BRANCH   5   6
ATOM      6  C   UNL     1     252.492 260.900 247.174  1.00  0.00     0.000 C 
BRANCH   6   7
ATOM      7  C   UNL     1     253.895 260.808 247.803  1.00  0.00     0.000 C 
BRANCH   7   8
ATOM      8  C   UNL     1     255.036 260.464 246.825  1.00  0.00     0.000 C 
BRANCH   8   9
ATOM      9  C   UNL     1     256.433 260.972 247.229  1.00  0.00     0.000 C 
BRANCH   9  10
ATOM     10  C   UNL     1     256.734 260.944 248.741  1.00  0.00     0.006 C 
BRANCH  10  11
ATOM     11  C   UNL     1     258.162 261.389 249.103  1.00  0.00     0.053 C 
BRANCH  11  12
ATOM     12  C   UNL     1     258.192 262.331 250.267  1.00  0.00     0.041 C 
ATOM     13  O   UNL     1     259.252 262.943 250.563  1.00  0.00    -0.550 OA
ATOM     14  O   UNL     1     257.039 262.560 251.008  1.00  0.00    -0.550 OA
ENDBRANCH  11  12
ENDBRANCH  10  11
ENDBRANCH   9  10
ENDBRANCH   8   9
ENDBRANCH   7   8
ENDBRANCH   6   7
ENDBRANCH   5   6
ENDBRANCH   4   5
ENDBRANCH   3   4
ENDBRANCH   2   3
ENDBRANCH   1   2
BRANCH   1  15
ATOM     15  C   UNL     1     250.958 255.040 245.659  1.00  0.00     0.000 C 
BRANCH  15  16
ATOM     16  C   UNL     1     252.430 255.501 245.611  1.00  0.00     0.000 C 
BRANCH  16  17
ATOM     17  C   UNL     1     253.382 254.712 246.533  1.00  0.00     0.000 C 
BRANCH  17  18
ATOM     18  C   UNL     1     253.172 254.911 248.044  1.00  0.00    -0.000 C 
BRANCH  18  19
ATOM     19  C   UNL     1     253.449 256.332 248.576  1.00  0.00    -0.000 C 
BRANCH  19  20
ATOM     20  C   UNL     1     254.722 256.992 247.999  1.00  0.00    -0.000 C 
BRANCH  20  21
ATOM     21  C   UNL     1     255.969 256.884 248.897  1.00  0.00    -0.000 C 
BRANCH  21  22
ATOM     22  C   UNL     1     256.762 255.584 248.676  1.00  0.00    -0.000 C 
BRANCH  22  23
ATOM     23  C   UNL     1     256.418 254.544 249.754  1.00  0.00    -0.000 C 
BRANCH  23  24
ATOM     24  C   UNL     1     256.451 255.122 251.179  1.00  0.00    -0.000 C 
BRANCH  24  25
ATOM     25  C   UNL     1     255.095 255.124 251.909  1.00  0.00    -0.003 C 
ATOM     26  C   UNL     1     254.182 253.976 251.480  1.00  0.00     0.004 C 
ENDBRANCH  24  25
ENDBRANCH  23  24
ENDBRANCH  22  23
ENDBRANCH  21  22
ENDBRANCH  20  21
ENDBRANCH  19  20
ENDBRANCH  18  19
ENDBRANCH  17  18
ENDBRANCH  16  17
ENDBRANCH  15  16
ENDBRANCH   1  15
TORSDOF 22
ENDMDL
