MODEL 1
REMARK VINA RESULT:    -5.719      0.000      0.000
REMARK INTER + INTRA:          -7.218
REMARK INTER:                  -6.889
REMARK INTRA:                  -0.329
REMARK UNBOUND:                -0.329
REMARK SMILES O=c1c(O)c(-c2ccc(O)c(O)c2)oc2cc(O)cc(O)c12
REMARK SMILES IDX 5 1 3 2 2 3 1 4 22 5 20 6 19 7 17 8 16 9 15 10 14 11 6 12
REMARK SMILES IDX 7 13 8 14 9 15 13 16 11 17 10 18 12 20 4 22 21 24 18 26
REMARK H PARENT 10 19 12 21 4 23 21 25 18 27
REMARK Flexibility Score: inf
ROOT
ATOM      1  C   UNL     1     -14.230  70.881  74.474  1.00  0.00     0.180 A 
ATOM      2  C   UNL     1     -13.694  71.103  73.194  1.00  0.00     0.208 A 
ATOM      3  C   UNL     1     -13.580  72.421  72.723  1.00  0.00     0.238 A 
ATOM      4  O   UNL     1     -13.050  72.618  71.599  1.00  0.00    -0.285 OA
ATOM      5  C   UNL     1     -14.019  73.498  73.531  1.00  0.00     0.111 A 
ATOM      6  C   UNL     1     -13.989  74.870  73.139  1.00  0.00     0.134 A 
ATOM      7  C   UNL     1     -14.325  75.862  74.068  1.00  0.00     0.093 A 
ATOM      8  C   UNL     1     -14.754  75.529  75.353  1.00  0.00     0.123 A 
ATOM      9  C   UNL     1     -14.845  74.188  75.728  1.00  0.00     0.094 A 
ATOM     10  C   UNL     1     -14.481  73.177  74.834  1.00  0.00     0.146 A 
ATOM     11  O   UNL     1     -14.571  71.915  75.233  1.00  0.00    -0.452 OA
ENDROOT
BRANCH   1  12
ATOM     12  C   UNL     1     -14.403  69.518  75.029  1.00  0.00     0.025 A 
ATOM     13  C   UNL     1     -15.549  68.754  74.749  1.00  0.00     0.016 A 
ATOM     14  C   UNL     1     -15.703  67.481  75.304  1.00  0.00     0.051 A 
ATOM     15  C   UNL     1     -14.721  66.958  76.156  1.00  0.00     0.157 A 
ATOM     16  C   UNL     1     -13.432  68.999  75.901  1.00  0.00     0.062 A 
ATOM     17  C   UNL     1     -13.582  67.724  76.458  1.00  0.00     0.158 A 
BRANCH  15  18
ATOM     18  O   UNL     1     -14.877  65.687  76.707  1.00  0.00    -0.504 OA
ATOM     19  H   UNL     1     -15.792  65.278  76.849  1.00  0.00     0.293 HD
ENDBRANCH  15  18
BRANCH  17  20
ATOM     20  O   UNL     1     -12.591  67.235  77.308  1.00  0.00    -0.504 OA
ATOM     21  H   UNL     1     -12.011  67.848  77.867  1.00  0.00     0.293 HD
ENDBRANCH  17  20
ENDBRANCH   1  12
BRANCH   2  22
ATOM     22  O   UNL     1     -13.247  70.027  72.422  1.00  0.00    -0.502 OA
ATOM     23  H   UNL     1     -12.390  70.064  71.882  1.00  0.00     0.293 HD
ENDBRANCH   2  22
BRANCH   6  24
ATOM     24  O   UNL     1     -13.664  75.307  71.851  1.00  0.00    -0.507 OA
ATOM     25  H   UNL     1     -13.725  76.263  71.536  1.00  0.00     0.293 HD
ENDBRANCH   6  24
BRANCH   8  26
ATOM     26  O   UNL     1     -15.096  76.541  76.247  1.00  0.00    -0.508 OA
ATOM     27  H   UNL     1     -14.965  76.433  77.246  1.00  0.00     0.293 HD
ENDBRANCH   8  26
TORSDOF 6
ENDMDL
MODEL 2
REMARK VINA RESULT:    -5.639     14.033     16.665
REMARK INTER + INTRA:          -7.122
REMARK INTER:                  -6.832
REMARK INTRA:                  -0.289
REMARK UNBOUND:                -0.329
REMARK SMILES O=c1c(O)c(-c2ccc(O)c(O)c2)oc2cc(O)cc(O)c12
REMARK SMILES IDX 5 1 3 2 2 3 1 4 22 5 20 6 19 7 17 8 16 9 15 10 14 11 6 12
REMARK SMILES IDX 7 13 8 14 9 15 13 16 11 17 10 18 12 20 4 22 21 24 18 26
REMARK H PARENT 10 19 12 21 4 23 21 25 18 27
REMARK Flexibility Score: inf
ROOT
ATOM      1  C   UNL     1     -17.777  79.318  88.248  1.00  0.00     0.180 A 
ATOM      2  C   UNL     1     -18.901  79.190  89.082  1.00  0.00     0.208 A 
ATOM      3  C   UNL     1     -20.177  79.123  88.500  1.00  0.00     0.238 A 
ATOM      4  O   UNL     1     -21.175  78.954  89.249  1.00  0.00    -0.285 OA
ATOM      5  C   UNL     1     -20.315  79.202  87.094  1.00  0.00     0.111 A 
ATOM      6  C   UNL     1     -21.562  79.186  86.399  1.00  0.00     0.134 A 
ATOM      7  C   UNL     1     -21.573  79.136  85.000  1.00  0.00     0.093 A 
ATOM      8  C   UNL     1     -20.386  79.170  84.269  1.00  0.00     0.123 A 
ATOM      9  C   UNL     1     -19.163  79.247  84.936  1.00  0.00     0.094 A 
ATOM     10  C   UNL     1     -19.118  79.260  86.333  1.00  0.00     0.146 A 
ATOM     11  O   UNL     1     -17.935  79.323  86.930  1.00  0.00    -0.452 OA
ENDROOT
BRANCH   1  12
ATOM     12  C   UNL     1     -16.403  79.419  88.789  1.00  0.00     0.025 A 
ATOM     13  C   UNL     1     -15.736  80.653  88.869  1.00  0.00     0.016 A 
ATOM     14  C   UNL     1     -14.429  80.721  89.359  1.00  0.00     0.051 A 
ATOM     15  C   UNL     1     -13.766  79.556  89.766  1.00  0.00     0.157 A 
ATOM     16  C   UNL     1     -15.726  78.251  89.177  1.00  0.00     0.062 A 
ATOM     17  C   UNL     1     -14.418  78.314  89.670  1.00  0.00     0.158 A 
BRANCH  15  18
ATOM     18  O   UNL     1     -12.463  79.627  90.257  1.00  0.00    -0.504 OA
ATOM     19  H   UNL     1     -12.269  79.909  91.209  1.00  0.00     0.293 HD
ENDBRANCH  15  18
BRANCH  17  20
ATOM     20  O   UNL     1     -13.782  77.136  90.060  1.00  0.00    -0.504 OA
ATOM     21  H   UNL     1     -13.200  77.087  90.887  1.00  0.00     0.293 HD
ENDBRANCH  17  20
ENDBRANCH   1  12
BRANCH   2  22
ATOM     22  O   UNL     1     -18.741  79.092  90.467  1.00  0.00    -0.502 OA
ATOM     23  H   UNL     1     -18.345  78.273  90.912  1.00  0.00     0.293 HD
ENDBRANCH   2  22
BRANCH   6  24
ATOM     24  O   UNL     1     -22.808  79.243  87.031  1.00  0.00    -0.507 OA
ATOM     25  H   UNL     1     -23.004  79.768  87.870  1.00  0.00     0.293 HD
ENDBRANCH   6  24
BRANCH   8  26
ATOM     26  O   UNL     1     -20.434  79.136  82.877  1.00  0.00    -0.508 OA
ATOM     27  H   UNL     1     -20.768  79.927  82.338  1.00  0.00     0.293 HD
ENDBRANCH   8  26
TORSDOF 6
ENDMDL
MODEL 3
REMARK VINA RESULT:    -5.533      3.206      8.889
REMARK INTER + INTRA:          -6.994
REMARK INTER:                  -6.731
REMARK INTRA:                  -0.263
REMARK UNBOUND:                -0.329
REMARK SMILES O=c1c(O)c(-c2ccc(O)c(O)c2)oc2cc(O)cc(O)c12
REMARK SMILES IDX 5 1 3 2 2 3 1 4 22 5 20 6 19 7 17 8 16 9 15 10 14 11 6 12
REMARK SMILES IDX 7 13 8 14 9 15 13 16 11 17 10 18 12 20 4 22 21 24 18 26
REMARK H PARENT 10 19 12 21 4 23 21 25 18 27
REMARK Flexibility Score: inf
ROOT
ATOM      1  C   UNL     1     -14.744  66.087  75.744  1.00  0.00     0.180 A 
ATOM      2  C   UNL     1     -13.928  65.067  75.224  1.00  0.00     0.208 A 
ATOM      3  C   UNL     1     -14.286  63.728  75.448  1.00  0.00     0.238 A 
ATOM      4  O   UNL     1     -13.581  62.820  74.935  1.00  0.00    -0.285 OA
ATOM      5  C   UNL     1     -15.444  63.425  76.203  1.00  0.00     0.111 A 
ATOM      6  C   UNL     1     -15.879  62.104  76.526  1.00  0.00     0.134 A 
ATOM      7  C   UNL     1     -17.111  61.920  77.166  1.00  0.00     0.093 A 
ATOM      8  C   UNL     1     -17.891  63.008  77.553  1.00  0.00     0.123 A 
ATOM      9  C   UNL     1     -17.448  64.306  77.296  1.00  0.00     0.094 A 
ATOM     10  C   UNL     1     -16.240  64.521  76.626  1.00  0.00     0.146 A 
ATOM     11  O   UNL     1     -15.859  65.771  76.391  1.00  0.00    -0.452 OA
ENDROOT
BRANCH   1  12
ATOM     12  C   UNL     1     -14.419  67.521  75.569  1.00  0.00     0.025 A 
ATOM     13  C   UNL     1     -13.920  68.294  76.632  1.00  0.00     0.016 A 
ATOM     14  C   UNL     1     -13.644  69.651  76.451  1.00  0.00     0.051 A 
ATOM     15  C   UNL     1     -13.875  70.260  75.210  1.00  0.00     0.157 A 
ATOM     16  C   UNL     1     -14.669  68.141  74.333  1.00  0.00     0.062 A 
ATOM     17  C   UNL     1     -14.393  69.500  74.147  1.00  0.00     0.158 A 
BRANCH  15  18
ATOM     18  O   UNL     1     -13.596  71.614  75.032  1.00  0.00    -0.504 OA
ATOM     19  H   UNL     1     -14.182  72.334  75.437  1.00  0.00     0.293 HD
ENDBRANCH  15  18
BRANCH  17  20
ATOM     20  O   UNL     1     -14.639  70.077  72.903  1.00  0.00    -0.504 OA
ATOM     21  H   UNL     1     -15.530  69.979  72.431  1.00  0.00     0.293 HD
ENDBRANCH  17  20
ENDBRANCH   1  12
BRANCH   2  22
ATOM     22  O   UNL     1     -12.800  65.388  74.463  1.00  0.00    -0.502 OA
ATOM     23  H   UNL     1     -12.817  65.413  73.450  1.00  0.00     0.293 HD
ENDBRANCH   2  22
BRANCH   6  24
ATOM     24  O   UNL     1     -15.132  60.951  76.266  1.00  0.00    -0.507 OA
ATOM     25  H   UNL     1     -15.526  60.046  76.060  1.00  0.00     0.293 HD
ENDBRANCH   6  24
BRANCH   8  26
ATOM     26  O   UNL     1     -19.104  62.788  78.202  1.00  0.00    -0.508 OA
ATOM     27  H   UNL     1     -19.865  63.456  78.146  1.00  0.00     0.293 HD
ENDBRANCH   8  26
TORSDOF 6
ENDMDL
MODEL 4
REMARK VINA RESULT:    -5.303      1.544      6.447
REMARK INTER + INTRA:          -6.717
REMARK INTER:                  -6.651
REMARK INTRA:                  -0.065
REMARK UNBOUND:                -0.329
REMARK SMILES O=c1c(O)c(-c2ccc(O)c(O)c2)oc2cc(O)cc(O)c12
REMARK SMILES IDX 5 1 3 2 2 3 1 4 22 5 20 6 19 7 17 8 16 9 15 10 14 11 6 12
REMARK SMILES IDX 7 13 8 14 9 15 13 16 11 17 10 18 12 20 4 22 21 24 18 26
REMARK H PARENT 10 19 12 21 4 23 21 25 18 27
REMARK Flexibility Score: inf
ROOT
ATOM      1  C   UNL     1     -14.100  72.631  74.365  1.00  0.00     0.180 A 
ATOM      2  C   UNL     1     -14.146  72.522  72.965  1.00  0.00     0.208 A 
ATOM      3  C   UNL     1     -13.883  71.277  72.370  1.00  0.00     0.238 A 
ATOM      4  O   UNL     1     -13.979  71.173  71.119  1.00  0.00    -0.285 OA
ATOM      5  C   UNL     1     -13.558  70.164  73.180  1.00  0.00     0.111 A 
ATOM      6  C   UNL     1     -13.233  68.866  72.683  1.00  0.00     0.134 A 
ATOM      7  C   UNL     1     -13.058  67.806  73.581  1.00  0.00     0.093 A 
ATOM      8  C   UNL     1     -13.130  68.009  74.958  1.00  0.00     0.123 A 
ATOM      9  C   UNL     1     -13.388  69.286  75.458  1.00  0.00     0.094 A 
ATOM     10  C   UNL     1     -13.604  70.357  74.586  1.00  0.00     0.146 A 
ATOM     11  O   UNL     1     -13.858  71.553  75.101  1.00  0.00    -0.452 OA
ENDROOT
BRANCH   1  12
ATOM     12  C   UNL     1     -14.343  73.914  75.063  1.00  0.00     0.025 A 
ATOM     13  C   UNL     1     -13.622  75.075  74.733  1.00  0.00     0.016 A 
ATOM     14  C   UNL     1     -13.851  76.269  75.422  1.00  0.00     0.051 A 
ATOM     15  C   UNL     1     -14.792  76.318  76.459  1.00  0.00     0.157 A 
ATOM     16  C   UNL     1     -15.270  73.963  76.117  1.00  0.00     0.062 A 
ATOM     17  C   UNL     1     -15.503  75.157  76.809  1.00  0.00     0.158 A 
BRANCH  15  18
ATOM     18  O   UNL     1     -15.019  77.511  77.143  1.00  0.00    -0.504 OA
ATOM     19  H   UNL     1     -14.269  78.162  77.338  1.00  0.00     0.293 HD
ENDBRANCH  15  18
BRANCH  17  20
ATOM     20  O   UNL     1     -16.441  75.171  77.840  1.00  0.00    -0.504 OA
ATOM     21  H   UNL     1     -17.291  75.720  77.787  1.00  0.00     0.293 HD
ENDBRANCH  17  20
ENDBRANCH   1  12
BRANCH   2  22
ATOM     22  O   UNL     1     -14.490  73.629  72.184  1.00  0.00    -0.502 OA
ATOM     23  H   UNL     1     -14.011  73.855  71.320  1.00  0.00     0.293 HD
ENDBRANCH   2  22
BRANCH   6  24
ATOM     24  O   UNL     1     -13.046  68.574  71.328  1.00  0.00    -0.507 OA
ATOM     25  H   UNL     1     -12.328  67.964  70.966  1.00  0.00     0.293 HD
ENDBRANCH   6  24
BRANCH   8  26
ATOM     26  O   UNL     1     -12.934  66.935  75.823  1.00  0.00    -0.508 OA
ATOM     27  H   UNL     1     -13.672  66.606  76.435  1.00  0.00     0.293 HD
ENDBRANCH   8  26
TORSDOF 6
ENDMDL
MODEL 5
REMARK VINA RESULT:    -5.259      3.634      9.476
REMARK INTER + INTRA:          -6.665
REMARK INTER:                  -6.375
REMARK INTRA:                  -0.290
REMARK UNBOUND:                -0.329
REMARK SMILES O=c1c(O)c(-c2ccc(O)c(O)c2)oc2cc(O)cc(O)c12
REMARK SMILES IDX 5 1 3 2 2 3 1 4 22 5 20 6 19 7 17 8 16 9 15 10 14 11 6 12
REMARK SMILES IDX 7 13 8 14 9 15 13 16 11 17 10 18 12 20 4 22 21 24 18 26
REMARK H PARENT 10 19 12 21 4 23 21 25 18 27
REMARK Flexibility Score: inf
ROOT
ATOM      1  C   UNL     1     -15.729  65.782  76.146  1.00  0.00     0.180 A 
ATOM      2  C   UNL     1     -16.377  65.201  77.249  1.00  0.00     0.208 A 
ATOM      3  C   UNL     1     -16.604  63.815  77.254  1.00  0.00     0.238 A 
ATOM      4  O   UNL     1     -17.136  63.293  78.268  1.00  0.00    -0.285 OA
ATOM      5  C   UNL     1     -16.195  63.031  76.149  1.00  0.00     0.111 A 
ATOM      6  C   UNL     1     -16.410  61.625  76.029  1.00  0.00     0.134 A 
ATOM      7  C   UNL     1     -15.846  60.929  74.952  1.00  0.00     0.093 A 
ATOM      8  C   UNL     1     -15.133  61.597  73.958  1.00  0.00     0.123 A 
ATOM      9  C   UNL     1     -14.968  62.980  74.033  1.00  0.00     0.094 A 
ATOM     10  C   UNL     1     -15.487  63.697  75.115  1.00  0.00     0.146 A 
ATOM     11  O   UNL     1     -15.299  65.010  75.155  1.00  0.00    -0.452 OA
ENDROOT
BRANCH   1  12
ATOM     12  C   UNL     1     -15.477  67.238  76.058  1.00  0.00     0.025 A 
ATOM     13  C   UNL     1     -16.280  68.074  75.263  1.00  0.00     0.016 A 
ATOM     14  C   UNL     1     -16.008  69.442  75.176  1.00  0.00     0.051 A 
ATOM     15  C   UNL     1     -14.922  69.993  75.871  1.00  0.00     0.157 A 
ATOM     16  C   UNL     1     -14.377  67.791  76.736  1.00  0.00     0.062 A 
ATOM     17  C   UNL     1     -14.102  69.161  76.652  1.00  0.00     0.158 A 
BRANCH  15  18
ATOM     18  O   UNL     1     -14.655  71.358  75.783  1.00  0.00    -0.504 OA
ATOM     19  H   UNL     1     -13.761  71.742  76.063  1.00  0.00     0.293 HD
ENDBRANCH  15  18
BRANCH  17  20
ATOM     20  O   UNL     1     -13.010  69.677  77.349  1.00  0.00    -0.504 OA
ATOM     21  H   UNL     1     -12.294  70.230  76.895  1.00  0.00     0.293 HD
ENDBRANCH  17  20
ENDBRANCH   1  12
BRANCH   2  22
ATOM     22  O   UNL     1     -16.753  65.991  78.340  1.00  0.00    -0.502 OA
ATOM     23  H   UNL     1     -17.627  65.854  78.835  1.00  0.00     0.293 HD
ENDBRANCH   2  22
BRANCH   6  24
ATOM     24  O   UNL     1     -17.185  60.875  76.919  1.00  0.00    -0.507 OA
ATOM     25  H   UNL     1     -18.152  60.625  76.770  1.00  0.00     0.293 HD
ENDBRANCH   6  24
BRANCH   8  26
ATOM     26  O   UNL     1     -14.600  60.876  72.892  1.00  0.00    -0.508 OA
ATOM     27  H   UNL     1     -15.070  60.061  72.515  1.00  0.00     0.293 HD
ENDBRANCH   8  26
TORSDOF 6
ENDMDL
MODEL 6
REMARK VINA RESULT:    -5.162      3.145      9.223
REMARK INTER + INTRA:          -6.547
REMARK INTER:                  -6.261
REMARK INTRA:                  -0.286
REMARK UNBOUND:                -0.329
REMARK SMILES O=c1c(O)c(-c2ccc(O)c(O)c2)oc2cc(O)cc(O)c12
REMARK SMILES IDX 5 1 3 2 2 3 1 4 22 5 20 6 19 7 17 8 16 9 15 10 14 11 6 12
REMARK SMILES IDX 7 13 8 14 9 15 13 16 11 17 10 18 12 20 4 22 21 24 18 26
REMARK H PARENT 10 19 12 21 4 23 21 25 18 27
REMARK Flexibility Score: inf
ROOT
ATOM      1  C   UNL     1     -14.914  66.239  75.978  1.00  0.00     0.180 A 
ATOM      2  C   UNL     1     -16.145  65.850  76.535  1.00  0.00     0.208 A 
ATOM      3  C   UNL     1     -16.413  64.483  76.707  1.00  0.00     0.238 A 
ATOM      4  O   UNL     1     -17.494  64.143  77.256  1.00  0.00    -0.285 OA
ATOM      5  C   UNL     1     -15.456  63.521  76.305  1.00  0.00     0.111 A 
ATOM      6  C   UNL     1     -15.638  62.108  76.396  1.00  0.00     0.134 A 
ATOM      7  C   UNL     1     -14.571  61.253  76.092  1.00  0.00     0.093 A 
ATOM      8  C   UNL     1     -13.353  61.756  75.637  1.00  0.00     0.123 A 
ATOM      9  C   UNL     1     -13.183  63.132  75.488  1.00  0.00     0.094 A 
ATOM     10  C   UNL     1     -14.216  64.013  75.819  1.00  0.00     0.146 A 
ATOM     11  O   UNL     1     -14.011  65.316  75.672  1.00  0.00    -0.452 OA
ENDROOT
BRANCH   1  12
ATOM     12  C   UNL     1     -14.571  67.660  75.743  1.00  0.00     0.025 A 
ATOM     13  C   UNL     1     -14.148  68.494  76.792  1.00  0.00     0.016 A 
ATOM     14  C   UNL     1     -13.853  69.839  76.552  1.00  0.00     0.051 A 
ATOM     15  C   UNL     1     -13.988  70.373  75.263  1.00  0.00     0.157 A 
ATOM     16  C   UNL     1     -14.725  68.205  74.457  1.00  0.00     0.062 A 
ATOM     17  C   UNL     1     -14.430  69.551  74.212  1.00  0.00     0.158 A 
BRANCH  15  18
ATOM     18  O   UNL     1     -13.691  71.714  75.026  1.00  0.00    -0.504 OA
ATOM     19  H   UNL     1     -12.755  72.079  75.145  1.00  0.00     0.293 HD
ENDBRANCH  15  18
BRANCH  17  20
ATOM     20  O   UNL     1     -14.582  70.053  72.921  1.00  0.00    -0.504 OA
ATOM     21  H   UNL     1     -14.238  69.559  72.107  1.00  0.00     0.293 HD
ENDBRANCH  17  20
ENDBRANCH   1  12
BRANCH   2  22
ATOM     22  O   UNL     1     -17.068  66.817  76.945  1.00  0.00    -0.502 OA
ATOM     23  H   UNL     1     -17.148  67.720  76.491  1.00  0.00     0.293 HD
ENDBRANCH   2  22
BRANCH   6  24
ATOM     24  O   UNL     1     -16.845  61.498  76.751  1.00  0.00    -0.507 OA
ATOM     25  H   UNL     1     -16.973  60.505  76.870  1.00  0.00     0.293 HD
ENDBRANCH   6  24
BRANCH   8  26
ATOM     26  O   UNL     1     -12.318  60.875  75.328  1.00  0.00    -0.508 OA
ATOM     27  H   UNL     1     -12.075  60.107  75.943  1.00  0.00     0.293 HD
ENDBRANCH   8  26
TORSDOF 6
ENDMDL
MODEL 7
REMARK VINA RESULT:    -5.063      3.013      7.989
REMARK INTER + INTRA:          -6.429
REMARK INTER:                  -6.100
REMARK INTRA:                  -0.329
REMARK UNBOUND:                -0.329
REMARK SMILES O=c1c(O)c(-c2ccc(O)c(O)c2)oc2cc(O)cc(O)c12
REMARK SMILES IDX 5 1 3 2 2 3 1 4 22 5 20 6 19 7 17 8 16 9 15 10 14 11 6 12
REMARK SMILES IDX 7 13 8 14 9 15 13 16 11 17 10 18 12 20 4 22 21 24 18 26
REMARK H PARENT 10 19 12 21 4 23 21 25 18 27
REMARK Flexibility Score: inf
ROOT
ATOM      1  C   UNL     1     -14.246  67.886  74.785  1.00  0.00     0.180 A 
ATOM      2  C   UNL     1     -15.578  67.914  75.235  1.00  0.00     0.208 A 
ATOM      3  C   UNL     1     -16.080  66.813  75.946  1.00  0.00     0.238 A 
ATOM      4  O   UNL     1     -17.256  66.866  76.392  1.00  0.00    -0.285 OA
ATOM      5  C   UNL     1     -15.251  65.690  76.183  1.00  0.00     0.111 A 
ATOM      6  C   UNL     1     -15.668  64.502  76.857  1.00  0.00     0.134 A 
ATOM      7  C   UNL     1     -14.726  63.509  77.151  1.00  0.00     0.093 A 
ATOM      8  C   UNL     1     -13.399  63.629  76.739  1.00  0.00     0.123 A 
ATOM      9  C   UNL     1     -12.994  64.759  76.028  1.00  0.00     0.094 A 
ATOM     10  C   UNL     1     -13.903  65.784  75.751  1.00  0.00     0.146 A 
ATOM     11  O   UNL     1     -13.475  66.847  75.081  1.00  0.00    -0.452 OA
ENDROOT
BRANCH   1  12
ATOM     12  C   UNL     1     -13.654  68.999  74.009  1.00  0.00     0.025 A 
ATOM     13  C   UNL     1     -13.684  69.010  72.604  1.00  0.00     0.016 A 
ATOM     14  C   UNL     1     -13.096  70.058  71.891  1.00  0.00     0.051 A 
ATOM     15  C   UNL     1     -12.459  71.105  72.571  1.00  0.00     0.157 A 
ATOM     16  C   UNL     1     -12.995  70.039  74.685  1.00  0.00     0.062 A 
ATOM     17  C   UNL     1     -12.406  71.092  73.976  1.00  0.00     0.158 A 
BRANCH  15  18
ATOM     18  O   UNL     1     -11.875  72.150  71.858  1.00  0.00    -0.504 OA
ATOM     19  H   UNL     1     -10.916  72.103  71.536  1.00  0.00     0.293 HD
ENDBRANCH  15  18
BRANCH  17  20
ATOM     20  O   UNL     1     -11.773  72.115  74.681  1.00  0.00    -0.504 OA
ATOM     21  H   UNL     1     -10.919  72.547  74.352  1.00  0.00     0.293 HD
ENDBRANCH  17  20
ENDBRANCH   1  12
BRANCH   2  22
ATOM     22  O   UNL     1     -16.372  69.042  75.008  1.00  0.00    -0.502 OA
ATOM     23  H   UNL     1     -17.213  69.010  74.443  1.00  0.00     0.293 HD
ENDBRANCH   2  22
BRANCH   6  24
ATOM     24  O   UNL     1     -16.989  64.240  77.231  1.00  0.00    -0.507 OA
ATOM     25  H   UNL     1     -17.598  64.901  77.691  1.00  0.00     0.293 HD
ENDBRANCH   6  24
BRANCH   8  26
ATOM     26  O   UNL     1     -12.493  62.614  77.036  1.00  0.00    -0.508 OA
ATOM     27  H   UNL     1     -11.729  62.758  77.687  1.00  0.00     0.293 HD
ENDBRANCH   8  26
TORSDOF 6
ENDMDL
MODEL 8
REMARK VINA RESULT:    -5.055      6.402      8.967
REMARK INTER + INTRA:          -6.418
REMARK INTER:                  -6.271
REMARK INTRA:                  -0.147
REMARK UNBOUND:                -0.329
REMARK SMILES O=c1c(O)c(-c2ccc(O)c(O)c2)oc2cc(O)cc(O)c12
REMARK SMILES IDX 5 1 3 2 2 3 1 4 22 5 20 6 19 7 17 8 16 9 15 10 14 11 6 12
REMARK SMILES IDX 7 13 8 14 9 15 13 16 11 17 10 18 12 20 4 22 21 24 18 26
REMARK H PARENT 10 19 12 21 4 23 21 25 18 27
REMARK Flexibility Score: inf
ROOT
ATOM      1  C   UNL     1     -12.528  64.124  75.370  1.00  0.00     0.180 A 
ATOM      2  C   UNL     1     -12.647  65.506  75.594  1.00  0.00     0.208 A 
ATOM      3  C   UNL     1     -13.859  66.013  76.090  1.00  0.00     0.238 A 
ATOM      4  O   UNL     1     -13.942  67.244  76.340  1.00  0.00    -0.285 OA
ATOM      5  C   UNL     1     -14.941  65.135  76.338  1.00  0.00     0.111 A 
ATOM      6  C   UNL     1     -16.228  65.544  76.802  1.00  0.00     0.134 A 
ATOM      7  C   UNL     1     -17.181  64.576  77.139  1.00  0.00     0.093 A 
ATOM      8  C   UNL     1     -16.919  63.217  76.967  1.00  0.00     0.123 A 
ATOM      9  C   UNL     1     -15.686  62.808  76.457  1.00  0.00     0.094 A 
ATOM     10  C   UNL     1     -14.701  63.749  76.147  1.00  0.00     0.146 A 
ATOM     11  O   UNL     1     -13.538  63.319  75.675  1.00  0.00    -0.452 OA
ENDROOT
BRANCH   1  12
ATOM     12  C   UNL     1     -11.290  63.519  74.827  1.00  0.00     0.025 A 
ATOM     13  C   UNL     1     -10.787  63.886  73.566  1.00  0.00     0.016 A 
ATOM     14  C   UNL     1      -9.631  63.283  73.063  1.00  0.00     0.051 A 
ATOM     15  C   UNL     1      -8.968  62.296  73.805  1.00  0.00     0.157 A 
ATOM     16  C   UNL     1     -10.634  62.514  75.557  1.00  0.00     0.062 A 
ATOM     17  C   UNL     1      -9.475  61.909  75.057  1.00  0.00     0.158 A 
BRANCH  15  18
ATOM     18  O   UNL     1      -7.815  61.699  73.301  1.00  0.00    -0.504 OA
ATOM     19  H   UNL     1      -6.920  61.794  73.766  1.00  0.00     0.293 HD
ENDBRANCH  15  18
BRANCH  17  20
ATOM     20  O   UNL     1      -8.843  60.925  75.816  1.00  0.00    -0.504 OA
ATOM     21  H   UNL     1      -8.529  61.095  76.764  1.00  0.00     0.293 HD
ENDBRANCH  17  20
ENDBRANCH   1  12
BRANCH   2  22
ATOM     22  O   UNL     1     -11.559  66.353  75.363  1.00  0.00    -0.502 OA
ATOM     23  H   UNL     1     -11.002  66.741  76.115  1.00  0.00     0.293 HD
ENDBRANCH   2  22
BRANCH   6  24
ATOM     24  O   UNL     1     -16.625  66.880  76.923  1.00  0.00    -0.507 OA
ATOM     25  H   UNL     1     -16.385  67.612  76.271  1.00  0.00     0.293 HD
ENDBRANCH   6  24
BRANCH   8  26
ATOM     26  O   UNL     1     -17.896  62.281  77.297  1.00  0.00    -0.508 OA
ATOM     27  H   UNL     1     -18.432  61.800  76.585  1.00  0.00     0.293 HD
ENDBRANCH   8  26
TORSDOF 6
ENDMDL
MODEL 9
REMARK VINA RESULT:    -5.010      7.553      9.546
REMARK INTER + INTRA:          -6.364
REMARK INTER:                  -6.047
REMARK INTRA:                  -0.317
REMARK UNBOUND:                -0.329
REMARK SMILES O=c1c(O)c(-c2ccc(O)c(O)c2)oc2cc(O)cc(O)c12
REMARK SMILES IDX 5 1 3 2 2 3 1 4 22 5 20 6 19 7 17 8 16 9 15 10 14 11 6 12
REMARK SMILES IDX 7 13 8 14 9 15 13 16 11 17 10 18 12 20 4 22 21 24 18 26
REMARK H PARENT 10 19 12 21 4 23 21 25 18 27
REMARK Flexibility Score: inf
ROOT
ATOM      1  C   UNL     1     -14.030  63.493  75.574  1.00  0.00     0.180 A 
ATOM      2  C   UNL     1     -13.832  64.464  74.577  1.00  0.00     0.208 A 
ATOM      3  C   UNL     1     -12.568  64.574  73.976  1.00  0.00     0.238 A 
ATOM      4  O   UNL     1     -12.412  65.408  73.046  1.00  0.00    -0.285 OA
ATOM      5  C   UNL     1     -11.514  63.726  74.391  1.00  0.00     0.111 A 
ATOM      6  C   UNL     1     -10.182  63.778  73.880  1.00  0.00     0.134 A 
ATOM      7  C   UNL     1      -9.255  62.803  74.268  1.00  0.00     0.093 A 
ATOM      8  C   UNL     1      -9.590  61.819  75.198  1.00  0.00     0.123 A 
ATOM      9  C   UNL     1     -10.872  61.795  75.750  1.00  0.00     0.094 A 
ATOM     10  C   UNL     1     -11.830  62.732  75.354  1.00  0.00     0.146 A 
ATOM     11  O   UNL     1     -13.041  62.669  75.894  1.00  0.00    -0.452 OA
ENDROOT
BRANCH   1  12
ATOM     12  C   UNL     1     -15.328  63.333  76.269  1.00  0.00     0.025 A 
ATOM     13  C   UNL     1     -15.693  64.167  77.340  1.00  0.00     0.016 A 
ATOM     14  C   UNL     1     -16.911  63.981  77.998  1.00  0.00     0.051 A 
ATOM     15  C   UNL     1     -17.777  62.951  77.605  1.00  0.00     0.157 A 
ATOM     16  C   UNL     1     -16.189  62.288  75.893  1.00  0.00     0.062 A 
ATOM     17  C   UNL     1     -17.411  62.100  76.549  1.00  0.00     0.158 A 
BRANCH  15  18
ATOM     18  O   UNL     1     -18.993  62.770  78.262  1.00  0.00    -0.504 OA
ATOM     19  H   UNL     1     -19.051  62.741  79.272  1.00  0.00     0.293 HD
ENDBRANCH  15  18
BRANCH  17  20
ATOM     20  O   UNL     1     -18.247  61.062  76.138  1.00  0.00    -0.504 OA
ATOM     21  H   UNL     1     -19.250  61.179  76.056  1.00  0.00     0.293 HD
ENDBRANCH  17  20
ENDBRANCH   1  12
BRANCH   2  22
ATOM     22  O   UNL     1     -14.893  65.277  74.167  1.00  0.00    -0.502 OA
ATOM     23  H   UNL     1     -14.807  66.283  74.088  1.00  0.00     0.293 HD
ENDBRANCH   2  22
BRANCH   6  24
ATOM     24  O   UNL     1      -9.716  64.773  73.016  1.00  0.00    -0.507 OA
ATOM     25  H   UNL     1      -9.624  64.670  72.016  1.00  0.00     0.293 HD
ENDBRANCH   6  24
BRANCH   8  26
ATOM     26  O   UNL     1      -8.638  60.875  75.574  1.00  0.00    -0.508 OA
ATOM     27  H   UNL     1      -7.645  61.054  75.473  1.00  0.00     0.293 HD
ENDBRANCH   8  26
TORSDOF 6
ENDMDL
