MODEL 1
REMARK VINA RESULT:    -7.129      0.000      0.000
REMARK INTER + INTRA:          -9.133
REMARK INTER:                  -8.796
REMARK INTRA:                  -0.337
REMARK UNBOUND:                -0.337
REMARK SMILES O=C1c2c(O)cc(O)cc2O[C@@H](c2cc(O)c(O)c(O)c2)[C@@H]1O
REMARK SMILES IDX 12 1 22 2 2 3 1 4 3 5 4 6 6 7 7 8 9 9 10 10 11 11 13 12
REMARK SMILES IDX 14 13 15 14 21 15 17 16 19 17 16 18 18 20 20 22 23 24 5 26
REMARK SMILES IDX 8 28
REMARK H PARENT 16 19 18 21 20 23 23 25 5 27 8 29
REMARK Flexibility Score: inf
ROOT
ATOM      1  C   UNL     1       3.795  -0.608 -24.342  1.00  0.00     0.240 C 
ATOM      2  C   UNL     1       3.451  -0.068 -25.746  1.00  0.00     0.231 C 
ATOM      3  C   UNL     1       4.295   1.149 -26.033  1.00  0.00     0.202 C 
ATOM      4  O   UNL     1       4.858   1.272 -27.153  1.00  0.00    -0.291 OA
ATOM      5  C   UNL     1       4.477   2.157 -24.957  1.00  0.00     0.105 A 
ATOM      6  C   UNL     1       4.910   3.491 -25.183  1.00  0.00     0.133 A 
ATOM      7  C   UNL     1       5.120   4.342 -24.091  1.00  0.00     0.093 A 
ATOM      8  C   UNL     1       4.852   3.916 -22.788  1.00  0.00     0.123 A 
ATOM      9  C   UNL     1       4.378   2.620 -22.566  1.00  0.00     0.093 A 
ATOM     10  C   UNL     1       4.201   1.741 -23.636  1.00  0.00     0.138 A 
ATOM     11  O   UNL     1       3.737   0.444 -23.375  1.00  0.00    -0.481 OA
ENDROOT
BRANCH   1  12
ATOM     12  C   UNL     1       2.854  -1.720 -23.944  1.00  0.00     0.003 A 
ATOM     13  C   UNL     1       1.472  -1.596 -24.160  1.00  0.00     0.058 A 
ATOM     14  C   UNL     1       0.601  -2.639 -23.816  1.00  0.00     0.161 A 
ATOM     15  C   UNL     1       3.358  -2.912 -23.402  1.00  0.00     0.058 A 
ATOM     16  C   UNL     1       1.113  -3.826 -23.261  1.00  0.00     0.200 A 
ATOM     17  C   UNL     1       2.497  -3.958 -23.057  1.00  0.00     0.161 A 
BRANCH  14  18
ATOM     18  O   UNL     1      -0.770  -2.503 -24.028  1.00  0.00    -0.504 OA
ATOM     19  H   UNL     1      -1.360  -3.305 -24.219  1.00  0.00     0.293 HD
ENDBRANCH  14  18
BRANCH  16  20
ATOM     20  O   UNL     1       0.260  -4.873 -22.913  1.00  0.00    -0.502 OA
ATOM     21  H   UNL     1       0.229  -5.741 -23.435  1.00  0.00     0.293 HD
ENDBRANCH  16  20
BRANCH  17  22
ATOM     22  O   UNL     1       3.036  -5.125 -22.514  1.00  0.00    -0.504 OA
ATOM     23  H   UNL     1       2.455  -5.898 -22.214  1.00  0.00     0.293 HD
ENDBRANCH  17  22
ENDBRANCH   1  12
BRANCH   2  24
ATOM     24  O   UNL     1       3.627  -1.060 -26.729  1.00  0.00    -0.381 OA
ATOM     25  H   UNL     1       4.474  -0.862 -27.211  1.00  0.00     0.211 HD
ENDBRANCH   2  24
BRANCH   6  26
ATOM     26  O   UNL     1       5.107   4.025 -26.458  1.00  0.00    -0.507 OA
ATOM     27  H   UNL     1       5.193   5.013 -26.651  1.00  0.00     0.293 HD
ENDBRANCH   6  26
BRANCH   8  28
ATOM     28  O   UNL     1       5.053   4.792 -21.724  1.00  0.00    -0.508 OA
ATOM     29  H   UNL     1       5.859   4.709 -21.115  1.00  0.00     0.293 HD
ENDBRANCH   8  28
TORSDOF 7
ENDMDL
MODEL 2
REMARK VINA RESULT:    -7.117      0.072      1.757
REMARK INTER + INTRA:          -9.118
REMARK INTER:                  -8.775
REMARK INTRA:                  -0.343
REMARK UNBOUND:                -0.337
REMARK SMILES O=C1c2c(O)cc(O)cc2O[C@@H](c2cc(O)c(O)c(O)c2)[C@@H]1O
REMARK SMILES IDX 12 1 22 2 2 3 1 4 3 5 4 6 6 7 7 8 9 9 10 10 11 11 13 12
REMARK SMILES IDX 14 13 15 14 21 15 17 16 19 17 16 18 18 20 20 22 23 24 5 26
REMARK SMILES IDX 8 28
REMARK H PARENT 16 19 18 21 20 23 23 25 5 27 8 29
REMARK Flexibility Score: inf
ROOT
ATOM      1  C   UNL     1       3.814  -0.625 -24.443  1.00  0.00     0.240 C 
ATOM      2  C   UNL     1       3.440  -0.057 -25.829  1.00  0.00     0.231 C 
ATOM      3  C   UNL     1       4.275   1.169 -26.106  1.00  0.00     0.202 C 
ATOM      4  O   UNL     1       4.816   1.316 -27.234  1.00  0.00    -0.291 OA
ATOM      5  C   UNL     1       4.474   2.154 -25.013  1.00  0.00     0.105 A 
ATOM      6  C   UNL     1       4.898   3.495 -25.220  1.00  0.00     0.133 A 
ATOM      7  C   UNL     1       5.126   4.323 -24.114  1.00  0.00     0.093 A 
ATOM      8  C   UNL     1       4.885   3.870 -22.816  1.00  0.00     0.123 A 
ATOM      9  C   UNL     1       4.420   2.568 -22.611  1.00  0.00     0.093 A 
ATOM     10  C   UNL     1       4.225   1.710 -23.696  1.00  0.00     0.138 A 
ATOM     11  O   UNL     1       3.771   0.407 -23.453  1.00  0.00    -0.481 OA
ENDROOT
BRANCH   1  12
ATOM     12  C   UNL     1       2.884  -1.749 -24.050  1.00  0.00     0.003 A 
ATOM     13  C   UNL     1       3.391  -2.926 -23.476  1.00  0.00     0.058 A 
ATOM     14  C   UNL     1       2.527  -3.958 -23.085  1.00  0.00     0.161 A 
ATOM     15  C   UNL     1       1.497  -1.606 -24.207  1.00  0.00     0.058 A 
ATOM     16  C   UNL     1       1.139  -3.812 -23.258  1.00  0.00     0.200 A 
ATOM     17  C   UNL     1       0.627  -2.629 -23.819  1.00  0.00     0.161 A 
BRANCH  14  18
ATOM     18  O   UNL     1       3.041  -5.125 -22.524  1.00  0.00    -0.504 OA
ATOM     19  H   UNL     1       3.799  -5.636 -22.962  1.00  0.00     0.293 HD
ENDBRANCH  14  18
BRANCH  16  20
ATOM     20  O   UNL     1       0.264  -4.829 -22.876  1.00  0.00    -0.502 OA
ATOM     21  H   UNL     1      -0.123  -5.487 -23.541  1.00  0.00     0.293 HD
ENDBRANCH  16  20
BRANCH  17  22
ATOM     22  O   UNL     1      -0.745  -2.452 -23.997  1.00  0.00    -0.504 OA
ATOM     23  H   UNL     1      -1.308  -1.916 -23.348  1.00  0.00     0.293 HD
ENDBRANCH  17  22
ENDBRANCH   1  12
BRANCH   2  24
ATOM     24  O   UNL     1       3.601  -1.028 -26.835  1.00  0.00    -0.381 OA
ATOM     25  H   UNL     1       3.421  -1.918 -26.429  1.00  0.00     0.211 HD
ENDBRANCH   2  24
BRANCH   6  26
ATOM     26  O   UNL     1       5.069   4.056 -26.487  1.00  0.00    -0.507 OA
ATOM     27  H   UNL     1       5.842   3.844 -27.100  1.00  0.00     0.293 HD
ENDBRANCH   6  26
BRANCH   8  28
ATOM     28  O   UNL     1       5.104   4.725 -21.738  1.00  0.00    -0.508 OA
ATOM     29  H   UNL     1       5.795   4.513 -21.026  1.00  0.00     0.293 HD
ENDBRANCH   8  28
TORSDOF 7
ENDMDL
MODEL 3
REMARK VINA RESULT:    -6.954      1.640      3.569
REMARK INTER + INTRA:          -8.917
REMARK INTER:                  -8.544
REMARK INTRA:                  -0.372
REMARK UNBOUND:                -0.337
REMARK SMILES O=C1c2c(O)cc(O)cc2O[C@@H](c2cc(O)c(O)c(O)c2)[C@@H]1O
REMARK SMILES IDX 12 1 22 2 2 3 1 4 3 5 4 6 6 7 7 8 9 9 10 10 11 11 13 12
REMARK SMILES IDX 14 13 15 14 21 15 17 16 19 17 16 18 18 20 20 22 23 24 5 26
REMARK SMILES IDX 8 28
REMARK H PARENT 16 19 18 21 20 23 23 25 5 27 8 29
REMARK Flexibility Score: inf
ROOT
ATOM      1  C   UNL     1       3.388   0.795 -23.441  1.00  0.00     0.240 C 
ATOM      2  C   UNL     1       4.389   1.395 -22.432  1.00  0.00     0.231 C 
ATOM      3  C   UNL     1       4.518   2.878 -22.681  1.00  0.00     0.202 C 
ATOM      4  O   UNL     1       4.502   3.680 -21.710  1.00  0.00    -0.291 OA
ATOM      5  C   UNL     1       4.617   3.356 -24.084  1.00  0.00     0.105 A 
ATOM      6  C   UNL     1       5.109   4.638 -24.454  1.00  0.00     0.133 A 
ATOM      7  C   UNL     1       5.092   5.019 -25.801  1.00  0.00     0.093 A 
ATOM      8  C   UNL     1       4.655   4.137 -26.791  1.00  0.00     0.123 A 
ATOM      9  C   UNL     1       4.218   2.858 -26.436  1.00  0.00     0.093 A 
ATOM     10  C   UNL     1       4.187   2.470 -25.095  1.00  0.00     0.138 A 
ATOM     11  O   UNL     1       3.729   1.185 -24.775  1.00  0.00    -0.481 OA
ENDROOT
BRANCH   1  12
ATOM     12  C   UNL     1       3.358  -0.712 -23.342  1.00  0.00     0.003 A 
ATOM     13  C   UNL     1       4.458  -1.477 -23.765  1.00  0.00     0.058 A 
ATOM     14  C   UNL     1       4.442  -2.874 -23.647  1.00  0.00     0.161 A 
ATOM     15  C   UNL     1       2.250  -1.361 -22.777  1.00  0.00     0.058 A 
ATOM     16  C   UNL     1       3.321  -3.517 -23.092  1.00  0.00     0.200 A 
ATOM     17  C   UNL     1       2.225  -2.754 -22.655  1.00  0.00     0.161 A 
BRANCH  14  18
ATOM     18  O   UNL     1       5.535  -3.623 -24.077  1.00  0.00    -0.504 OA
ATOM     19  H   UNL     1       5.657  -4.591 -23.800  1.00  0.00     0.293 HD
ENDBRANCH  14  18
BRANCH  16  20
ATOM     20  O   UNL     1       3.288  -4.906 -22.968  1.00  0.00    -0.502 OA
ATOM     21  H   UNL     1       2.717  -5.488 -23.569  1.00  0.00     0.293 HD
ENDBRANCH  16  20
BRANCH  17  22
ATOM     22  O   UNL     1       1.102  -3.362 -22.094  1.00  0.00    -0.504 OA
ATOM     23  H   UNL     1       0.948  -4.362 -22.147  1.00  0.00     0.293 HD
ENDBRANCH  17  22
ENDBRANCH   1  12
BRANCH   2  24
ATOM     24  O   UNL     1       3.997   1.128 -21.107  1.00  0.00    -0.381 OA
ATOM     25  H   UNL     1       4.816   1.120 -20.545  1.00  0.00     0.211 HD
ENDBRANCH   2  24
BRANCH   6  26
ATOM     26  O   UNL     1       5.652   5.541 -23.538  1.00  0.00    -0.507 OA
ATOM     27  H   UNL     1       6.640   5.723 -23.441  1.00  0.00     0.293 HD
ENDBRANCH   6  26
BRANCH   8  28
ATOM     28  O   UNL     1       4.668   4.541 -28.124  1.00  0.00    -0.508 OA
ATOM     29  H   UNL     1       3.957   4.232 -28.778  1.00  0.00     0.293 HD
ENDBRANCH   8  28
TORSDOF 7
ENDMDL
MODEL 4
REMARK VINA RESULT:    -6.901      1.307      7.085
REMARK INTER + INTRA:          -8.852
REMARK INTER:                  -8.504
REMARK INTRA:                  -0.348
REMARK UNBOUND:                -0.337
REMARK SMILES O=C1c2c(O)cc(O)cc2O[C@@H](c2cc(O)c(O)c(O)c2)[C@@H]1O
REMARK SMILES IDX 12 1 22 2 2 3 1 4 3 5 4 6 6 7 7 8 9 9 10 10 11 11 13 12
REMARK SMILES IDX 14 13 15 14 21 15 17 16 19 17 16 18 18 20 20 22 23 24 5 26
REMARK SMILES IDX 8 28
REMARK H PARENT 16 19 18 21 20 23 23 25 5 27 8 29
REMARK Flexibility Score: inf
ROOT
ATOM      1  C   UNL     1       3.949   0.004 -24.238  1.00  0.00     0.240 C 
ATOM      2  C   UNL     1       4.713  -0.862 -23.214  1.00  0.00     0.231 C 
ATOM      3  C   UNL     1       4.202  -2.281 -23.283  1.00  0.00     0.202 C 
ATOM      4  O   UNL     1       5.018  -3.240 -23.293  1.00  0.00    -0.291 OA
ATOM      5  C   UNL     1       2.738  -2.505 -23.385  1.00  0.00     0.105 A 
ATOM      6  C   UNL     1       2.100  -3.739 -23.084  1.00  0.00     0.133 A 
ATOM      7  C   UNL     1       0.720  -3.867 -23.283  1.00  0.00     0.093 A 
ATOM      8  C   UNL     1      -0.047  -2.782 -23.715  1.00  0.00     0.123 A 
ATOM      9  C   UNL     1       0.569  -1.553 -23.963  1.00  0.00     0.093 A 
ATOM     10  C   UNL     1       1.951  -1.413 -23.812  1.00  0.00     0.138 A 
ATOM     11  O   UNL     1       2.537  -0.169 -24.083  1.00  0.00    -0.481 OA
ENDROOT
BRANCH   1  12
ATOM     12  C   UNL     1       4.304   1.464 -24.084  1.00  0.00     0.003 A 
ATOM     13  C   UNL     1       4.573   2.255 -25.212  1.00  0.00     0.058 A 
ATOM     14  C   UNL     1       4.876   3.616 -25.072  1.00  0.00     0.161 A 
ATOM     15  C   UNL     1       4.318   2.057 -22.812  1.00  0.00     0.058 A 
ATOM     16  C   UNL     1       4.900   4.201 -23.793  1.00  0.00     0.200 A 
ATOM     17  C   UNL     1       4.618   3.414 -22.662  1.00  0.00     0.161 A 
BRANCH  14  18
ATOM     18  O   UNL     1       5.148   4.391 -26.198  1.00  0.00    -0.504 OA
ATOM     19  H   UNL     1       4.424   4.927 -26.662  1.00  0.00     0.293 HD
ENDBRANCH  14  18
BRANCH  16  20
ATOM     20  O   UNL     1       5.201   5.554 -23.635  1.00  0.00    -0.502 OA
ATOM     21  H   UNL     1       5.121   6.217 -24.396  1.00  0.00     0.293 HD
ENDBRANCH  16  20
BRANCH  17  22
ATOM     22  O   UNL     1       4.629   3.966 -21.381  1.00  0.00    -0.504 OA
ATOM     23  H   UNL     1       3.818   4.429 -20.987  1.00  0.00     0.293 HD
ENDBRANCH  17  22
ENDBRANCH   1  12
BRANCH   2  24
ATOM     24  O   UNL     1       6.102  -0.803 -23.435  1.00  0.00    -0.381 OA
ATOM     25  H   UNL     1       6.246  -0.562 -24.389  1.00  0.00     0.211 HD
ENDBRANCH   2  24
BRANCH   6  26
ATOM     26  O   UNL     1       2.776  -4.841 -22.558  1.00  0.00    -0.507 OA
ATOM     27  H   UNL     1       3.384  -5.441 -23.096  1.00  0.00     0.293 HD
ENDBRANCH   6  26
BRANCH   8  28
ATOM     28  O   UNL     1      -1.421  -2.937 -23.885  1.00  0.00    -0.508 OA
ATOM     29  H   UNL     1      -1.830  -3.060 -24.805  1.00  0.00     0.293 HD
ENDBRANCH   8  28
TORSDOF 7
ENDMDL
MODEL 5
REMARK VINA RESULT:    -6.789      1.961      2.711
REMARK INTER + INTRA:          -8.714
REMARK INTER:                  -8.324
REMARK INTRA:                  -0.390
REMARK UNBOUND:                -0.337
REMARK SMILES O=C1c2c(O)cc(O)cc2O[C@@H](c2cc(O)c(O)c(O)c2)[C@@H]1O
REMARK SMILES IDX 12 1 22 2 2 3 1 4 3 5 4 6 6 7 7 8 9 9 10 10 11 11 13 12
REMARK SMILES IDX 14 13 15 14 21 15 17 16 19 17 16 18 18 20 20 22 23 24 5 26
REMARK SMILES IDX 8 28
REMARK H PARENT 16 19 18 21 20 23 23 25 5 27 8 29
REMARK Flexibility Score: inf
ROOT
ATOM      1  C   UNL     1       4.351   0.933 -24.952  1.00  0.00     0.240 C 
ATOM      2  C   UNL     1       3.039   1.484 -25.548  1.00  0.00     0.231 C 
ATOM      3  C   UNL     1       3.225   2.938 -25.904  1.00  0.00     0.202 C 
ATOM      4  O   UNL     1       2.809   3.370 -27.012  1.00  0.00    -0.291 OA
ATOM      5  C   UNL     1       3.942   3.817 -24.946  1.00  0.00     0.105 A 
ATOM      6  C   UNL     1       3.867   5.237 -24.960  1.00  0.00     0.133 A 
ATOM      7  C   UNL     1       4.641   5.976 -24.058  1.00  0.00     0.093 A 
ATOM      8  C   UNL     1       5.439   5.339 -23.106  1.00  0.00     0.123 A 
ATOM      9  C   UNL     1       5.478   3.943 -23.057  1.00  0.00     0.093 A 
ATOM     10  C   UNL     1       4.746   3.184 -23.973  1.00  0.00     0.138 A 
ATOM     11  O   UNL     1       4.819   1.786 -23.903  1.00  0.00    -0.481 OA
ENDROOT
BRANCH   1  12
ATOM     12  C   UNL     1       4.159  -0.469 -24.422  1.00  0.00     0.003 A 
ATOM     13  C   UNL     1       4.852  -1.548 -24.995  1.00  0.00     0.058 A 
ATOM     14  C   UNL     1       4.696  -2.845 -24.486  1.00  0.00     0.161 A 
ATOM     15  C   UNL     1       3.324  -0.699 -23.319  1.00  0.00     0.058 A 
ATOM     16  C   UNL     1       3.847  -3.069 -23.387  1.00  0.00     0.200 A 
ATOM     17  C   UNL     1       3.162  -1.989 -22.804  1.00  0.00     0.161 A 
BRANCH  14  18
ATOM     18  O   UNL     1       5.383  -3.910 -25.066  1.00  0.00    -0.504 OA
ATOM     19  H   UNL     1       5.414  -4.037 -26.071  1.00  0.00     0.293 HD
ENDBRANCH  14  18
BRANCH  16  20
ATOM     20  O   UNL     1       3.679  -4.353 -22.869  1.00  0.00    -0.502 OA
ATOM     21  H   UNL     1       3.308  -5.115 -23.424  1.00  0.00     0.293 HD
ENDBRANCH  16  20
BRANCH  17  22
ATOM     22  O   UNL     1       2.318  -2.178 -21.710  1.00  0.00    -0.504 OA
ATOM     23  H   UNL     1       2.631  -2.634 -20.861  1.00  0.00     0.293 HD
ENDBRANCH  17  22
ENDBRANCH   1  12
BRANCH   2  24
ATOM     24  O   UNL     1       2.632   0.728 -26.665  1.00  0.00    -0.381 OA
ATOM     25  H   UNL     1       1.733   0.355 -26.466  1.00  0.00     0.211 HD
ENDBRANCH   2  24
BRANCH   6  26
ATOM     26  O   UNL     1       3.022   5.949 -25.813  1.00  0.00    -0.507 OA
ATOM     27  H   UNL     1       2.913   5.750 -26.797  1.00  0.00     0.293 HD
ENDBRANCH   6  26
BRANCH   8  28
ATOM     28  O   UNL     1       6.183   6.103 -22.210  1.00  0.00    -0.508 OA
ATOM     29  H   UNL     1       5.786   6.914 -21.749  1.00  0.00     0.293 HD
ENDBRANCH   8  28
TORSDOF 7
ENDMDL
MODEL 6
REMARK VINA RESULT:    -6.779      1.948      2.421
REMARK INTER + INTRA:          -8.701
REMARK INTER:                  -8.317
REMARK INTRA:                  -0.384
REMARK UNBOUND:                -0.337
REMARK SMILES O=C1c2c(O)cc(O)cc2O[C@@H](c2cc(O)c(O)c(O)c2)[C@@H]1O
REMARK SMILES IDX 12 1 22 2 2 3 1 4 3 5 4 6 6 7 7 8 9 9 10 10 11 11 13 12
REMARK SMILES IDX 14 13 15 14 21 15 17 16 19 17 16 18 18 20 20 22 23 24 5 26
REMARK SMILES IDX 8 28
REMARK H PARENT 16 19 18 21 20 23 23 25 5 27 8 29
REMARK Flexibility Score: inf
ROOT
ATOM      1  C   UNL     1       4.456   0.937 -24.871  1.00  0.00     0.240 C 
ATOM      2  C   UNL     1       3.154   1.484 -25.493  1.00  0.00     0.231 C 
ATOM      3  C   UNL     1       3.347   2.936 -25.854  1.00  0.00     0.202 C 
ATOM      4  O   UNL     1       2.949   3.361 -26.971  1.00  0.00    -0.291 OA
ATOM      5  C   UNL     1       4.047   3.821 -24.890  1.00  0.00     0.105 A 
ATOM      6  C   UNL     1       3.972   5.240 -24.913  1.00  0.00     0.133 A 
ATOM      7  C   UNL     1       4.731   5.985 -24.003  1.00  0.00     0.093 A 
ATOM      8  C   UNL     1       5.513   5.354 -23.034  1.00  0.00     0.123 A 
ATOM      9  C   UNL     1       5.551   3.958 -22.975  1.00  0.00     0.093 A 
ATOM     10  C   UNL     1       4.835   3.194 -23.900  1.00  0.00     0.138 A 
ATOM     11  O   UNL     1       4.906   1.797 -23.819  1.00  0.00    -0.481 OA
ENDROOT
BRANCH   1  12
ATOM     12  C   UNL     1       4.255  -0.462 -24.336  1.00  0.00     0.003 A 
ATOM     13  C   UNL     1       3.385  -0.695 -23.259  1.00  0.00     0.058 A 
ATOM     14  C   UNL     1       3.177  -1.996 -22.781  1.00  0.00     0.161 A 
ATOM     15  C   UNL     1       4.897  -1.550 -24.946  1.00  0.00     0.058 A 
ATOM     16  C   UNL     1       3.834  -3.080 -23.389  1.00  0.00     0.200 A 
ATOM     17  C   UNL     1       4.695  -2.851 -24.477  1.00  0.00     0.161 A 
BRANCH  14  18
ATOM     18  O   UNL     1       2.317  -2.216 -21.706  1.00  0.00    -0.504 OA
ATOM     19  H   UNL     1       1.630  -1.525 -21.426  1.00  0.00     0.293 HD
ENDBRANCH  14  18
BRANCH  16  20
ATOM     20  O   UNL     1       3.639  -4.381 -22.926  1.00  0.00    -0.502 OA
ATOM     21  H   UNL     1       3.837  -4.649 -21.969  1.00  0.00     0.293 HD
ENDBRANCH  16  20
BRANCH  17  22
ATOM     22  O   UNL     1       5.356  -3.906 -25.105  1.00  0.00    -0.504 OA
ATOM     23  H   UNL     1       5.582  -3.889 -26.093  1.00  0.00     0.293 HD
ENDBRANCH  17  22
ENDBRANCH   1  12
BRANCH   2  24
ATOM     24  O   UNL     1       2.766   0.722 -26.611  1.00  0.00    -0.381 OA
ATOM     25  H   UNL     1       3.305  -0.114 -26.610  1.00  0.00     0.211 HD
ENDBRANCH   2  24
BRANCH   6  26
ATOM     26  O   UNL     1       3.142   5.947 -25.785  1.00  0.00    -0.507 OA
ATOM     27  H   UNL     1       3.118   5.804 -26.784  1.00  0.00     0.293 HD
ENDBRANCH   6  26
BRANCH   8  28
ATOM     28  O   UNL     1       6.242   6.124 -22.130  1.00  0.00    -0.508 OA
ATOM     29  H   UNL     1       7.162   5.838 -21.813  1.00  0.00     0.293 HD
ENDBRANCH   8  28
TORSDOF 7
ENDMDL
MODEL 7
REMARK VINA RESULT:    -6.695      1.843      7.023
REMARK INTER + INTRA:          -8.598
REMARK INTER:                  -8.223
REMARK INTRA:                  -0.375
REMARK UNBOUND:                -0.337
REMARK SMILES O=C1c2c(O)cc(O)cc2O[C@@H](c2cc(O)c(O)c(O)c2)[C@@H]1O
REMARK SMILES IDX 12 1 22 2 2 3 1 4 3 5 4 6 6 7 7 8 9 9 10 10 11 11 13 12
REMARK SMILES IDX 14 13 15 14 21 15 17 16 19 17 16 18 18 20 20 22 23 24 5 26
REMARK SMILES IDX 8 28
REMARK H PARENT 16 19 18 21 20 23 23 25 5 27 8 29
REMARK Flexibility Score: inf
ROOT
ATOM      1  C   UNL     1       3.747   1.416 -24.930  1.00  0.00     0.240 C 
ATOM      2  C   UNL     1       4.986   0.743 -25.557  1.00  0.00     0.231 C 
ATOM      3  C   UNL     1       4.746  -0.743 -25.661  1.00  0.00     0.202 C 
ATOM      4  O   UNL     1       5.045  -1.353 -26.722  1.00  0.00    -0.291 OA
ATOM      5  C   UNL     1       4.116  -1.443 -24.513  1.00  0.00     0.105 A 
ATOM      6  C   UNL     1       4.171  -2.849 -24.312  1.00  0.00     0.133 A 
ATOM      7  C   UNL     1       3.480  -3.419 -23.236  1.00  0.00     0.093 A 
ATOM      8  C   UNL     1       2.789  -2.620 -22.324  1.00  0.00     0.123 A 
ATOM      9  C   UNL     1       2.774  -1.232 -22.489  1.00  0.00     0.093 A 
ATOM     10  C   UNL     1       3.421  -0.645 -23.579  1.00  0.00     0.138 A 
ATOM     11  O   UNL     1       3.374   0.748 -23.721  1.00  0.00    -0.481 OA
ENDROOT
BRANCH   1  12
ATOM     12  C   UNL     1       4.008   2.876 -24.648  1.00  0.00     0.003 A 
ATOM     13  C   UNL     1       5.130   3.267 -23.898  1.00  0.00     0.058 A 
ATOM     14  C   UNL     1       5.389   4.624 -23.659  1.00  0.00     0.161 A 
ATOM     15  C   UNL     1       3.160   3.861 -25.176  1.00  0.00     0.058 A 
ATOM     16  C   UNL     1       4.527   5.605 -24.182  1.00  0.00     0.200 A 
ATOM     17  C   UNL     1       3.411   5.217 -24.943  1.00  0.00     0.161 A 
BRANCH  14  18
ATOM     18  O   UNL     1       6.501   5.001 -22.908  1.00  0.00    -0.504 OA
ATOM     19  H   UNL     1       7.439   4.719 -23.170  1.00  0.00     0.293 HD
ENDBRANCH  14  18
BRANCH  16  20
ATOM     20  O   UNL     1       4.769   6.959 -23.953  1.00  0.00    -0.502 OA
ATOM     21  H   UNL     1       4.271   7.485 -23.245  1.00  0.00     0.293 HD
ENDBRANCH  16  20
BRANCH  17  22
ATOM     22  O   UNL     1       2.541   6.166 -25.480  1.00  0.00    -0.504 OA
ATOM     23  H   UNL     1       2.254   6.145 -26.451  1.00  0.00     0.293 HD
ENDBRANCH  17  22
ENDBRANCH   1  12
BRANCH   2  24
ATOM     24  O   UNL     1       5.290   1.305 -26.811  1.00  0.00    -0.381 OA
ATOM     25  H   UNL     1       4.456   1.708 -27.172  1.00  0.00     0.211 HD
ENDBRANCH   2  24
BRANCH   6  26
ATOM     26  O   UNL     1       4.917  -3.708 -25.121  1.00  0.00    -0.507 OA
ATOM     27  H   UNL     1       4.851  -3.738 -26.128  1.00  0.00     0.293 HD
ENDBRANCH   6  26
BRANCH   8  28
ATOM     28  O   UNL     1       2.127  -3.215 -21.252  1.00  0.00    -0.508 OA
ATOM     29  H   UNL     1       2.362  -2.988 -20.292  1.00  0.00     0.293 HD
ENDBRANCH   8  28
TORSDOF 7
ENDMDL
MODEL 8
REMARK VINA RESULT:    -6.661      1.853      6.808
REMARK INTER + INTRA:          -8.555
REMARK INTER:                  -8.179
REMARK INTRA:                  -0.376
REMARK UNBOUND:                -0.337
REMARK SMILES O=C1c2c(O)cc(O)cc2O[C@@H](c2cc(O)c(O)c(O)c2)[C@@H]1O
REMARK SMILES IDX 12 1 22 2 2 3 1 4 3 5 4 6 6 7 7 8 9 9 10 10 11 11 13 12
REMARK SMILES IDX 14 13 15 14 21 15 17 16 19 17 16 18 18 20 20 22 23 24 5 26
REMARK SMILES IDX 8 28
REMARK H PARENT 16 19 18 21 20 23 23 25 5 27 8 29
REMARK Flexibility Score: inf
ROOT
ATOM      1  C   UNL     1       3.761   1.443 -24.992  1.00  0.00     0.240 C 
ATOM      2  C   UNL     1       4.997   0.758 -25.612  1.00  0.00     0.231 C 
ATOM      3  C   UNL     1       4.750  -0.728 -25.699  1.00  0.00     0.202 C 
ATOM      4  O   UNL     1       5.045  -1.352 -26.753  1.00  0.00    -0.291 OA
ATOM      5  C   UNL     1       4.118  -1.413 -24.542  1.00  0.00     0.105 A 
ATOM      6  C   UNL     1       4.167  -2.817 -24.325  1.00  0.00     0.133 A 
ATOM      7  C   UNL     1       3.475  -3.371 -23.242  1.00  0.00     0.093 A 
ATOM      8  C   UNL     1       2.788  -2.558 -22.338  1.00  0.00     0.123 A 
ATOM      9  C   UNL     1       2.779  -1.173 -22.520  1.00  0.00     0.093 A 
ATOM     10  C   UNL     1       3.427  -0.601 -23.617  1.00  0.00     0.138 A 
ATOM     11  O   UNL     1       3.386   0.791 -23.775  1.00  0.00    -0.481 OA
ENDROOT
BRANCH   1  12
ATOM     12  C   UNL     1       4.029   2.905 -24.726  1.00  0.00     0.003 A 
ATOM     13  C   UNL     1       3.141   3.889 -25.189  1.00  0.00     0.058 A 
ATOM     14  C   UNL     1       3.374   5.245 -24.919  1.00  0.00     0.161 A 
ATOM     15  C   UNL     1       5.144   3.293 -23.968  1.00  0.00     0.058 A 
ATOM     16  C   UNL     1       4.501   5.625 -24.169  1.00  0.00     0.200 A 
ATOM     17  C   UNL     1       5.386   4.642 -23.692  1.00  0.00     0.161 A 
BRANCH  14  18
ATOM     18  O   UNL     1       2.490   6.213 -25.390  1.00  0.00    -0.504 OA
ATOM     19  H   UNL     1       2.406   6.421 -26.379  1.00  0.00     0.293 HD
ENDBRANCH  14  18
BRANCH  16  20
ATOM     20  O   UNL     1       4.750   6.970 -23.892  1.00  0.00    -0.502 OA
ATOM     21  H   UNL     1       4.726   7.682 -24.611  1.00  0.00     0.293 HD
ENDBRANCH  16  20
BRANCH  17  22
ATOM     22  O   UNL     1       6.508   4.987 -22.940  1.00  0.00    -0.504 OA
ATOM     23  H   UNL     1       7.337   4.405 -22.910  1.00  0.00     0.293 HD
ENDBRANCH  17  22
ENDBRANCH   1  12
BRANCH   2  24
ATOM     24  O   UNL     1       5.302   1.304 -26.873  1.00  0.00    -0.381 OA
ATOM     25  H   UNL     1       4.549   1.089 -27.486  1.00  0.00     0.211 HD
ENDBRANCH   2  24
BRANCH   6  26
ATOM     26  O   UNL     1       4.909  -3.688 -25.125  1.00  0.00    -0.507 OA
ATOM     27  H   UNL     1       5.622  -3.391 -25.776  1.00  0.00     0.293 HD
ENDBRANCH   6  26
BRANCH   8  28
ATOM     28  O   UNL     1       2.125  -3.139 -21.259  1.00  0.00    -0.508 OA
ATOM     29  H   UNL     1       1.663  -2.573 -20.556  1.00  0.00     0.293 HD
ENDBRANCH   8  28
TORSDOF 7
ENDMDL
