MODEL 1
REMARK VINA RESULT:    -5.417      0.000      0.000
REMARK INTER + INTRA:          -6.074
REMARK INTER:                  -5.892
REMARK INTRA:                  -0.182
REMARK UNBOUND:                -0.182
REMARK SMILES CC(=O)[C@@H]1CC[C@@H]2[C@H]3CC=C4C[C@@H](O)CC[C@]4(C)[C@H]3CC[C@@]21C
REMARK SMILES IDX 4 1 5 2 6 3 7 4 22 5 21 6 20 7 19 8 8 9 9 10 10 11 11 12
REMARK SMILES IDX 17 13 16 14 15 15 13 16 12 17 18 18 23 19 2 20 1 21 3 22
REMARK SMILES IDX 14 23
REMARK H PARENT 14 24
REMARK Flexibility Score: inf
ROOT
ATOM      1  C   UNL     1      18.053  -4.278  43.610  1.00  0.00     0.062 C 
ATOM      2  C   UNL     1      17.397  -4.175  42.217  1.00  0.00     0.012 C 
ATOM      3  C   UNL     1      15.994  -4.758  42.324  1.00  0.00     0.005 C 
ATOM      4  C   UNL     1      15.834  -5.281  43.753  1.00  0.00    -0.001 C 
ATOM      5  C   UNL     1      16.883  -4.523  44.618  1.00  0.00    -0.020 C 
ATOM      6  C   UNL     1      16.314  -3.159  45.117  1.00  0.00     0.008 C 
ATOM      7  C   UNL     1      14.910  -3.249  45.722  1.00  0.00     0.005 C 
ATOM      8  C   UNL     1      13.897  -3.814  44.691  1.00  0.00     0.003 C 
ATOM      9  C   UNL     1      14.350  -5.229  44.244  1.00  0.00     0.000 C 
ATOM     10  C   UNL     1      14.083  -6.242  45.370  1.00  0.00     0.031 C 
ATOM     11  C   UNL     1      12.647  -6.230  45.780  1.00  0.00    -0.027 C 
ATOM     12  C   UNL     1      11.885  -5.118  45.753  1.00  0.00    -0.065 C 
ATOM     13  C   UNL     1      12.364  -3.792  45.129  1.00  0.00    -0.008 C 
ATOM     14  C   UNL     1      11.491  -3.560  43.852  1.00  0.00     0.014 C 
ATOM     15  C   UNL     1       9.970  -3.700  44.085  1.00  0.00     0.033 C 
ATOM     16  C   UNL     1       9.614  -5.047  44.746  1.00  0.00     0.118 C 
ATOM     17  C   UNL     1      10.405  -5.260  46.048  1.00  0.00     0.063 C 
ATOM     18  C   UNL     1      12.095  -2.630  46.125  1.00  0.00     0.016 C 
ATOM     19  C   UNL     1      17.357  -5.408  45.818  1.00  0.00     0.012 C 
ENDROOT
BRANCH   1  20
ATOM     20  C   UNL     1      18.976  -3.092  43.927  1.00  0.00     0.133 C 
ATOM     21  C   UNL     1      19.052  -1.875  43.043  1.00  0.00     0.088 C 
ATOM     22  O   UNL     1      19.662  -3.097  44.947  1.00  0.00    -0.300 OA
ENDBRANCH   1  20
BRANCH  16  23
ATOM     23  O   UNL     1       8.231  -5.135  44.981  1.00  0.00    -0.393 OA
ATOM     24  H   UNL     1       7.864  -5.821  44.367  1.00  0.00     0.210 HD
ENDBRANCH  16  23
TORSDOF 2
ENDMDL
MODEL 2
REMARK VINA RESULT:    -5.400      4.824      6.986
REMARK INTER + INTRA:          -6.055
REMARK INTER:                  -6.075
REMARK INTRA:                   0.020
REMARK UNBOUND:                -0.182
REMARK SMILES CC(=O)[C@@H]1CC[C@@H]2[C@H]3CC=C4C[C@@H](O)CC[C@]4(C)[C@H]3CC[C@@]21C
REMARK SMILES IDX 4 1 5 2 6 3 7 4 22 5 21 6 20 7 19 8 8 9 9 10 10 11 11 12
REMARK SMILES IDX 17 13 16 14 15 15 13 16 12 17 18 18 23 19 2 20 1 21 3 22
REMARK SMILES IDX 14 23
REMARK H PARENT 14 24
REMARK Flexibility Score: inf
ROOT
ATOM      1  C   UNL     1      11.879  -4.482  44.436  1.00  0.00     0.062 C 
ATOM      2  C   UNL     1      12.953  -4.431  43.328  1.00  0.00     0.012 C 
ATOM      3  C   UNL     1      12.863  -5.730  42.539  1.00  0.00     0.005 C 
ATOM      4  C   UNL     1      11.794  -6.592  43.216  1.00  0.00    -0.001 C 
ATOM      5  C   UNL     1      10.886  -5.615  44.019  1.00  0.00    -0.020 C 
ATOM      6  C   UNL     1       9.758  -5.031  43.115  1.00  0.00     0.008 C 
ATOM      7  C   UNL     1       9.014  -6.080  42.283  1.00  0.00     0.005 C 
ATOM      8  C   UNL     1       9.992  -6.845  41.351  1.00  0.00     0.003 C 
ATOM      9  C   UNL     1      11.076  -7.549  42.209  1.00  0.00     0.000 C 
ATOM     10  C   UNL     1      10.468  -8.773  42.916  1.00  0.00     0.031 C 
ATOM     11  C   UNL     1       9.847  -9.712  41.934  1.00  0.00    -0.027 C 
ATOM     12  C   UNL     1       9.259  -9.299  40.794  1.00  0.00    -0.065 C 
ATOM     13  C   UNL     1       9.326  -7.841  40.300  1.00  0.00    -0.008 C 
ATOM     14  C   UNL     1      10.204  -7.848  39.004  1.00  0.00     0.014 C 
ATOM     15  C   UNL     1       9.791  -8.909  37.961  1.00  0.00     0.033 C 
ATOM     16  C   UNL     1       9.722 -10.322  38.576  1.00  0.00     0.118 C 
ATOM     17  C   UNL     1       8.800 -10.353  39.806  1.00  0.00     0.063 C 
ATOM     18  C   UNL     1       7.897  -7.362  39.921  1.00  0.00     0.016 C 
ATOM     19  C   UNL     1      10.287  -6.323  45.278  1.00  0.00     0.012 C 
ENDROOT
BRANCH   1  20
ATOM     20  C   UNL     1      11.250  -3.110  44.724  1.00  0.00     0.133 C 
ATOM     21  C   UNL     1      10.974  -2.632  46.125  1.00  0.00     0.088 C 
ATOM     22  O   UNL     1      10.983  -2.345  43.800  1.00  0.00    -0.300 OA
ENDBRANCH   1  20
BRANCH  16  23
ATOM     23  O   UNL     1       9.308 -11.262  37.616  1.00  0.00    -0.393 OA
ATOM     24  H   UNL     1       9.387 -12.162  38.023  1.00  0.00     0.210 HD
ENDBRANCH  16  23
TORSDOF 2
ENDMDL
MODEL 3
REMARK VINA RESULT:    -5.394      1.791      2.917
REMARK INTER + INTRA:          -6.049
REMARK INTER:                  -5.893
REMARK INTRA:                  -0.155
REMARK UNBOUND:                -0.182
REMARK SMILES CC(=O)[C@@H]1CC[C@@H]2[C@H]3CC=C4C[C@@H](O)CC[C@]4(C)[C@H]3CC[C@@]21C
REMARK SMILES IDX 4 1 5 2 6 3 7 4 22 5 21 6 20 7 19 8 8 9 9 10 10 11 11 12
REMARK SMILES IDX 17 13 16 14 15 15 13 16 12 17 18 18 23 19 2 20 1 21 3 22
REMARK SMILES IDX 14 23
REMARK H PARENT 14 24
REMARK Flexibility Score: inf
ROOT
ATOM      1  C   UNL     1      19.418  -4.952  43.999  1.00  0.00     0.062 C 
ATOM      2  C   UNL     1      19.351  -3.495  44.504  1.00  0.00     0.012 C 
ATOM      3  C   UNL     1      17.967  -2.955  44.170  1.00  0.00     0.005 C 
ATOM      4  C   UNL     1      17.231  -4.054  43.399  1.00  0.00    -0.001 C 
ATOM      5  C   UNL     1      17.937  -5.393  43.763  1.00  0.00    -0.020 C 
ATOM      6  C   UNL     1      17.345  -5.998  45.073  1.00  0.00     0.008 C 
ATOM      7  C   UNL     1      15.814  -6.034  45.111  1.00  0.00     0.005 C 
ATOM      8  C   UNL     1      15.221  -4.607  44.961  1.00  0.00     0.003 C 
ATOM      9  C   UNL     1      15.683  -3.996  43.612  1.00  0.00     0.000 C 
ATOM     10  C   UNL     1      14.920  -4.657  42.451  1.00  0.00     0.031 C 
ATOM     11  C   UNL     1      13.442  -4.533  42.634  1.00  0.00    -0.027 C 
ATOM     12  C   UNL     1      12.850  -4.532  43.845  1.00  0.00    -0.065 C 
ATOM     13  C   UNL     1      13.645  -4.477  45.164  1.00  0.00    -0.008 C 
ATOM     14  C   UNL     1      13.346  -3.082  45.808  1.00  0.00     0.014 C 
ATOM     15  C   UNL     1      11.844  -2.730  45.894  1.00  0.00     0.033 C 
ATOM     16  C   UNL     1      11.146  -2.855  44.525  1.00  0.00     0.118 C 
ATOM     17  C   UNL     1      11.362  -4.248  43.911  1.00  0.00     0.063 C 
ATOM     18  C   UNL     1      13.123  -5.582  46.124  1.00  0.00     0.016 C 
ATOM     19  C   UNL     1      17.839  -6.411  42.579  1.00  0.00     0.012 C 
ENDROOT
BRANCH   1  20
ATOM     20  C   UNL     1      20.253  -5.864  44.910  1.00  0.00     0.133 C 
ATOM     21  C   UNL     1      20.932  -7.107  44.397  1.00  0.00     0.088 C 
ATOM     22  O   UNL     1      20.415  -5.576  46.094  1.00  0.00    -0.300 OA
ENDBRANCH   1  20
BRANCH  16  23
ATOM     23  O   UNL     1       9.775  -2.566  44.639  1.00  0.00    -0.393 OA
ATOM     24  H   UNL     1       9.670  -1.582  44.585  1.00  0.00     0.210 HD
ENDBRANCH  16  23
TORSDOF 2
ENDMDL
MODEL 4
REMARK VINA RESULT:    -5.378      4.224      8.145
REMARK INTER + INTRA:          -6.032
REMARK INTER:                  -5.827
REMARK INTRA:                  -0.205
REMARK UNBOUND:                -0.182
REMARK SMILES CC(=O)[C@@H]1CC[C@@H]2[C@H]3CC=C4C[C@@H](O)CC[C@]4(C)[C@H]3CC[C@@]21C
REMARK SMILES IDX 4 1 5 2 6 3 7 4 22 5 21 6 20 7 19 8 8 9 9 10 10 11 11 12
REMARK SMILES IDX 17 13 16 14 15 15 13 16 12 17 18 18 23 19 2 20 1 21 3 22
REMARK SMILES IDX 14 23
REMARK H PARENT 14 24
REMARK Flexibility Score: inf
ROOT
ATOM      1  C   UNL     1       7.506  -8.299  40.359  1.00  0.00     0.062 C 
ATOM      2  C   UNL     1       8.006  -7.130  39.483  1.00  0.00     0.012 C 
ATOM      3  C   UNL     1       8.530  -6.046  40.415  1.00  0.00     0.005 C 
ATOM      4  C   UNL     1       8.275  -6.526  41.847  1.00  0.00    -0.001 C 
ATOM      5  C   UNL     1       8.135  -8.074  41.773  1.00  0.00    -0.020 C 
ATOM      6  C   UNL     1       9.530  -8.766  41.852  1.00  0.00     0.008 C 
ATOM      7  C   UNL     1      10.425  -8.244  42.980  1.00  0.00     0.005 C 
ATOM      8  C   UNL     1      10.681  -6.721  42.826  1.00  0.00     0.003 C 
ATOM      9  C   UNL     1       9.328  -5.964  42.859  1.00  0.00     0.000 C 
ATOM     10  C   UNL     1       8.781  -5.935  44.296  1.00  0.00     0.031 C 
ATOM     11  C   UNL     1       9.770  -5.332  45.239  1.00  0.00    -0.027 C 
ATOM     12  C   UNL     1      11.103  -5.459  45.085  1.00  0.00    -0.065 C 
ATOM     13  C   UNL     1      11.743  -6.082  43.829  1.00  0.00    -0.008 C 
ATOM     14  C   UNL     1      12.487  -4.923  43.086  1.00  0.00     0.014 C 
ATOM     15  C   UNL     1      13.418  -4.082  43.987  1.00  0.00     0.033 C 
ATOM     16  C   UNL     1      12.680  -3.543  45.229  1.00  0.00     0.118 C 
ATOM     17  C   UNL     1      12.007  -4.678  46.018  1.00  0.00     0.063 C 
ATOM     18  C   UNL     1      12.795  -7.141  44.261  1.00  0.00     0.016 C 
ATOM     19  C   UNL     1       7.182  -8.599  42.897  1.00  0.00     0.012 C 
ENDROOT
BRANCH   1  20
ATOM     20  C   UNL     1       7.757  -9.674  39.723  1.00  0.00     0.133 C 
ATOM     21  C   UNL     1       8.696  -9.862  38.561  1.00  0.00     0.088 C 
ATOM     22  O   UNL     1       7.211 -10.676  40.179  1.00  0.00    -0.300 OA
ENDBRANCH   1  20
BRANCH  16  23
ATOM     23  O   UNL     1      13.557  -2.814  46.050  1.00  0.00    -0.393 OA
ATOM     24  H   UNL     1      14.450  -3.241  45.991  1.00  0.00     0.210 HD
ENDBRANCH  16  23
TORSDOF 2
ENDMDL
MODEL 5
REMARK VINA RESULT:    -5.336     12.192     15.003
REMARK INTER + INTRA:          -5.986
REMARK INTER:                  -5.809
REMARK INTRA:                  -0.177
REMARK UNBOUND:                -0.182
REMARK SMILES CC(=O)[C@@H]1CC[C@@H]2[C@H]3CC=C4C[C@@H](O)CC[C@]4(C)[C@H]3CC[C@@]21C
REMARK SMILES IDX 4 1 5 2 6 3 7 4 22 5 21 6 20 7 19 8 8 9 9 10 10 11 11 12
REMARK SMILES IDX 17 13 16 14 15 15 13 16 12 17 18 18 23 19 2 20 1 21 3 22
REMARK SMILES IDX 14 23
REMARK H PARENT 14 24
REMARK Flexibility Score: inf
ROOT
ATOM      1  C   UNL     1      16.168 -19.112  42.512  1.00  0.00     0.062 C 
ATOM      2  C   UNL     1      16.083 -19.194  44.051  1.00  0.00     0.012 C 
ATOM      3  C   UNL     1      17.467 -18.887  44.606  1.00  0.00     0.005 C 
ATOM      4  C   UNL     1      18.399 -18.697  43.406  1.00  0.00    -0.001 C 
ATOM      5  C   UNL     1      17.488 -18.336  42.196  1.00  0.00    -0.020 C 
ATOM      6  C   UNL     1      17.208 -16.803  42.145  1.00  0.00     0.008 C 
ATOM      7  C   UNL     1      18.457 -15.932  42.305  1.00  0.00     0.005 C 
ATOM      8  C   UNL     1      19.165 -16.220  43.656  1.00  0.00     0.003 C 
ATOM      9  C   UNL     1      19.576 -17.714  43.715  1.00  0.00     0.000 C 
ATOM     10  C   UNL     1      20.784 -17.960  42.795  1.00  0.00     0.031 C 
ATOM     11  C   UNL     1      21.924 -17.062  43.147  1.00  0.00    -0.027 C 
ATOM     12  C   UNL     1      21.755 -15.815  43.629  1.00  0.00    -0.065 C 
ATOM     13  C   UNL     1      20.377 -15.255  44.033  1.00  0.00    -0.008 C 
ATOM     14  C   UNL     1      20.404 -15.084  45.589  1.00  0.00     0.014 C 
ATOM     15  C   UNL     1      21.638 -14.326  46.125  1.00  0.00     0.033 C 
ATOM     16  C   UNL     1      22.957 -14.952  45.626  1.00  0.00     0.118 C 
ATOM     17  C   UNL     1      22.983 -15.056  44.093  1.00  0.00     0.063 C 
ATOM     18  C   UNL     1      20.184 -13.854  43.390  1.00  0.00     0.016 C 
ATOM     19  C   UNL     1      18.122 -18.837  40.856  1.00  0.00     0.012 C 
ENDROOT
BRANCH   1  20
ATOM     20  C   UNL     1      14.889 -18.551  41.871  1.00  0.00     0.133 C 
ATOM     21  C   UNL     1      14.556 -18.771  40.419  1.00  0.00     0.088 C 
ATOM     22  O   UNL     1      14.079 -17.924  42.550  1.00  0.00    -0.300 OA
ENDBRANCH   1  20
BRANCH  16  23
ATOM     23  O   UNL     1      24.062 -14.222  46.097  1.00  0.00    -0.393 OA
ATOM     24  H   UNL     1      24.517 -14.775  46.783  1.00  0.00     0.210 HD
ENDBRANCH  16  23
TORSDOF 2
ENDMDL
MODEL 6
REMARK VINA RESULT:    -5.053     12.760     15.645
REMARK INTER + INTRA:          -5.678
REMARK INTER:                  -5.526
REMARK INTRA:                  -0.152
REMARK UNBOUND:                -0.182
REMARK SMILES CC(=O)[C@@H]1CC[C@@H]2[C@H]3CC=C4C[C@@H](O)CC[C@]4(C)[C@H]3CC[C@@]21C
REMARK SMILES IDX 4 1 5 2 6 3 7 4 22 5 21 6 20 7 19 8 8 9 9 10 10 11 11 12
REMARK SMILES IDX 17 13 16 14 15 15 13 16 12 17 18 18 23 19 2 20 1 21 3 22
REMARK SMILES IDX 14 23
REMARK H PARENT 14 24
REMARK Flexibility Score: inf
ROOT
ATOM      1  C   UNL     1       5.528  -8.191  32.102  1.00  0.00     0.062 C 
ATOM      2  C   UNL     1       5.844  -8.446  33.591  1.00  0.00     0.012 C 
ATOM      3  C   UNL     1       7.262  -8.996  33.673  1.00  0.00     0.005 C 
ATOM      4  C   UNL     1       7.768  -9.145  32.236  1.00  0.00    -0.001 C 
ATOM      5  C   UNL     1       6.906  -8.184  31.365  1.00  0.00    -0.020 C 
ATOM      6  C   UNL     1       7.504  -6.744  31.364  1.00  0.00     0.008 C 
ATOM      7  C   UNL     1       9.012  -6.692  31.099  1.00  0.00     0.005 C 
ATOM      8  C   UNL     1       9.792  -7.506  32.165  1.00  0.00     0.003 C 
ATOM      9  C   UNL     1       9.320  -8.983  32.132  1.00  0.00     0.000 C 
ATOM     10  C   UNL     1       9.887  -9.684  30.885  1.00  0.00     0.031 C 
ATOM     11  C   UNL     1      11.376  -9.581  30.836  1.00  0.00    -0.027 C 
ATOM     12  C   UNL     1      12.055  -8.518  31.313  1.00  0.00    -0.065 C 
ATOM     13  C   UNL     1      11.381  -7.388  32.115  1.00  0.00    -0.008 C 
ATOM     14  C   UNL     1      11.929  -7.491  33.577  1.00  0.00     0.014 C 
ATOM     15  C   UNL     1      13.467  -7.582  33.677  1.00  0.00     0.033 C 
ATOM     16  C   UNL     1      14.031  -8.723  32.806  1.00  0.00     0.118 C 
ATOM     17  C   UNL     1      13.569  -8.594  31.345  1.00  0.00     0.063 C 
ATOM     18  C   UNL     1      11.810  -6.015  31.527  1.00  0.00     0.016 C 
ATOM     19  C   UNL     1       6.763  -8.735  29.908  1.00  0.00     0.012 C 
ENDROOT
BRANCH   1  20
ATOM     20  C   UNL     1       4.642  -6.955  31.881  1.00  0.00     0.133 C 
ATOM     21  C   UNL     1       4.240  -6.044  33.011  1.00  0.00     0.088 C 
ATOM     22  O   UNL     1       4.263  -6.659  30.750  1.00  0.00    -0.300 OA
ENDBRANCH   1  20
BRANCH  16  23
ATOM     23  O   UNL     1      15.434  -8.760  32.884  1.00  0.00    -0.393 OA
ATOM     24  H   UNL     1      15.678  -8.940  33.828  1.00  0.00     0.210 HD
ENDBRANCH  16  23
TORSDOF 2
ENDMDL
MODEL 7
REMARK VINA RESULT:    -4.997     11.383     13.107
REMARK INTER + INTRA:          -5.617
REMARK INTER:                  -5.461
REMARK INTRA:                  -0.156
REMARK UNBOUND:                -0.182
REMARK SMILES CC(=O)[C@@H]1CC[C@@H]2[C@H]3CC=C4C[C@@H](O)CC[C@]4(C)[C@H]3CC[C@@]21C
REMARK SMILES IDX 4 1 5 2 6 3 7 4 22 5 21 6 20 7 19 8 8 9 9 10 10 11 11 12
REMARK SMILES IDX 17 13 16 14 15 15 13 16 12 17 18 18 23 19 2 20 1 21 3 22
REMARK SMILES IDX 14 23
REMARK H PARENT 14 24
REMARK Flexibility Score: inf
ROOT
ATOM      1  C   UNL     1      24.062 -11.962  42.054  1.00  0.00     0.062 C 
ATOM      2  C   UNL     1      24.125 -12.373  40.568  1.00  0.00     0.012 C 
ATOM      3  C   UNL     1      23.605 -13.800  40.461  1.00  0.00     0.005 C 
ATOM      4  C   UNL     1      23.305 -14.275  41.885  1.00  0.00    -0.001 C 
ATOM      5  C   UNL     1      23.107 -12.991  42.743  1.00  0.00    -0.020 C 
ATOM      6  C   UNL     1      21.634 -12.487  42.664  1.00  0.00     0.008 C 
ATOM      7  C   UNL     1      20.585 -13.583  42.876  1.00  0.00     0.005 C 
ATOM      8  C   UNL     1      20.737 -14.709  41.819  1.00  0.00     0.003 C 
ATOM      9  C   UNL     1      22.153 -15.332  41.930  1.00  0.00     0.000 C 
ATOM     10  C   UNL     1      22.237 -16.217  43.185  1.00  0.00     0.031 C 
ATOM     11  C   UNL     1      21.174 -17.266  43.180  1.00  0.00    -0.027 C 
ATOM     12  C   UNL     1      19.955 -17.074  42.637  1.00  0.00    -0.065 C 
ATOM     13  C   UNL     1      19.597 -15.823  41.811  1.00  0.00    -0.008 C 
ATOM     14  C   UNL     1      19.391 -16.306  40.336  1.00  0.00     0.014 C 
ATOM     15  C   UNL     1      18.449 -17.521  40.189  1.00  0.00     0.033 C 
ATOM     16  C   UNL     1      18.884 -18.696  41.088  1.00  0.00     0.118 C 
ATOM     17  C   UNL     1      19.015 -18.260  42.557  1.00  0.00     0.063 C 
ATOM     18  C   UNL     1      18.253 -15.236  42.325  1.00  0.00     0.016 C 
ATOM     19  C   UNL     1      23.536 -13.243  44.226  1.00  0.00     0.012 C 
ENDROOT
BRANCH   1  20
ATOM     20  C   UNL     1      23.709 -10.480  42.253  1.00  0.00     0.133 C 
ATOM     21  C   UNL     1      24.125  -9.714  43.480  1.00  0.00     0.088 C 
ATOM     22  O   UNL     1      23.095  -9.868  41.381  1.00  0.00    -0.300 OA
ENDBRANCH   1  20
BRANCH  16  23
ATOM     23  O   UNL     1      17.990 -19.773  40.964  1.00  0.00    -0.393 OA
ATOM     24  H   UNL     1      18.093 -20.147  40.051  1.00  0.00     0.210 HD
ENDBRANCH  16  23
TORSDOF 2
ENDMDL
MODEL 8
REMARK VINA RESULT:    -4.419     12.192     14.931
REMARK INTER + INTRA:          -4.989
REMARK INTER:                  -4.788
REMARK INTRA:                  -0.201
REMARK UNBOUND:                -0.182
REMARK SMILES CC(=O)[C@@H]1CC[C@@H]2[C@H]3CC=C4C[C@@H](O)CC[C@]4(C)[C@H]3CC[C@@]21C
REMARK SMILES IDX 4 1 5 2 6 3 7 4 22 5 21 6 20 7 19 8 8 9 9 10 10 11 11 12
REMARK SMILES IDX 17 13 16 14 15 15 13 16 12 17 18 18 23 19 2 20 1 21 3 22
REMARK SMILES IDX 14 23
REMARK H PARENT 14 24
REMARK Flexibility Score: inf
ROOT
ATOM      1  C   UNL     1      16.799 -19.125  41.243  1.00  0.00     0.062 C 
ATOM      2  C   UNL     1      18.128 -19.822  40.881  1.00  0.00     0.012 C 
ATOM      3  C   UNL     1      19.211 -18.754  40.832  1.00  0.00     0.005 C 
ATOM      4  C   UNL     1      18.526 -17.409  41.085  1.00  0.00    -0.001 C 
ATOM      5  C   UNL     1      17.193 -17.728  41.825  1.00  0.00    -0.020 C 
ATOM      6  C   UNL     1      17.420 -17.835  43.363  1.00  0.00     0.008 C 
ATOM      7  C   UNL     1      18.238 -16.685  43.958  1.00  0.00     0.005 C 
ATOM      8  C   UNL     1      19.640 -16.601  43.297  1.00  0.00     0.003 C 
ATOM      9  C   UNL     1      19.478 -16.375  41.771  1.00  0.00     0.000 C 
ATOM     10  C   UNL     1      19.039 -14.925  41.502  1.00  0.00     0.031 C 
ATOM     11  C   UNL     1      19.996 -13.949  42.104  1.00  0.00    -0.027 C 
ATOM     12  C   UNL     1      20.671 -14.191  43.246  1.00  0.00    -0.065 C 
ATOM     13  C   UNL     1      20.662 -15.564  43.946  1.00  0.00    -0.008 C 
ATOM     14  C   UNL     1      22.108 -16.145  43.807  1.00  0.00     0.014 C 
ATOM     15  C   UNL     1      23.230 -15.168  44.223  1.00  0.00     0.033 C 
ATOM     16  C   UNL     1      23.116 -13.818  43.486  1.00  0.00     0.118 C 
ATOM     17  C   UNL     1      21.725 -13.191  43.676  1.00  0.00     0.063 C 
ATOM     18  C   UNL     1      20.357 -15.366  45.457  1.00  0.00     0.016 C 
ATOM     19  C   UNL     1      16.103 -16.657  41.490  1.00  0.00     0.012 C 
ENDROOT
BRANCH   1  20
ATOM     20  C   UNL     1      15.890 -19.989  42.129  1.00  0.00     0.133 C 
ATOM     21  C   UNL     1      16.387 -21.235  42.814  1.00  0.00     0.088 C 
ATOM     22  O   UNL     1      14.724 -19.658  42.328  1.00  0.00    -0.300 OA
ENDBRANCH   1  20
BRANCH  16  23
ATOM     23  O   UNL     1      24.125 -12.935  43.909  1.00  0.00    -0.393 OA
ATOM     24  H   UNL     1      24.473 -12.470  43.106  1.00  0.00     0.210 HD
ENDBRANCH  16  23
TORSDOF 2
ENDMDL
