MODEL 1
REMARK VINA RESULT:    -5.311      0.000      0.000
REMARK INTER + INTRA:          -5.467
REMARK INTER:                  -5.467
REMARK INTRA:                   0.000
REMARK UNBOUND:                 0.000
REMARK SMILES O=c1ccc2ccc(O)cc2o1
REMARK SMILES IDX 6 1 7 2 8 3 10 4 11 5 5 6 4 7 3 8 2 9 1 10 12 11 9 12
REMARK H PARENT 9 13
REMARK Flexibility Score: inf
ROOT
ATOM      1  C   UNL     1      21.127  -0.750 -22.312  1.00  0.00     0.016 A 
ATOM      2  C   UNL     1      21.502   0.390 -23.032  1.00  0.00     0.047 A 
ATOM      3  C   UNL     1      21.502   1.649 -22.413  1.00  0.00     0.119 A 
ATOM      4  C   UNL     1      21.127   1.767 -21.070  1.00  0.00     0.094 A 
ATOM      5  C   UNL     1      20.750   0.633 -20.342  1.00  0.00     0.142 A 
ATOM      6  C   UNL     1      20.750  -0.633 -20.968  1.00  0.00     0.018 A 
ATOM      7  C   UNL     1      20.369  -1.749 -20.215  1.00  0.00     0.019 A 
ATOM      8  C   UNL     1      20.003  -1.580 -18.879  1.00  0.00     0.094 A 
ATOM      9  C   UNL     1      20.027  -0.295 -18.327  1.00  0.00     0.336 A 
ATOM     10  O   UNL     1      19.700  -0.122 -17.123  1.00  0.00    -0.246 OA
ATOM     11  O   UNL     1      20.393   0.750 -19.065  1.00  0.00    -0.423 OA
ENDROOT
BRANCH   3  12
ATOM     12  O   UNL     1      21.875   2.788 -23.125  1.00  0.00    -0.508 OA
ATOM     13  H   UNL     1      21.287   3.612 -23.152  1.00  0.00     0.293 HD
ENDBRANCH   3  12
TORSDOF 1
ENDMDL
MODEL 2
REMARK VINA RESULT:    -5.280      0.780      4.224
REMARK INTER + INTRA:          -5.434
REMARK INTER:                  -5.434
REMARK INTRA:                   0.000
REMARK UNBOUND:                 0.000
REMARK SMILES O=c1ccc2ccc(O)cc2o1
REMARK SMILES IDX 6 1 7 2 8 3 10 4 11 5 5 6 4 7 3 8 2 9 1 10 12 11 9 12
REMARK H PARENT 9 13
REMARK Flexibility Score: inf
ROOT
ATOM      1  C   UNL     1      20.304  -1.629 -20.261  1.00  0.00     0.016 A 
ATOM      2  C   UNL     1      20.010  -1.418 -18.910  1.00  0.00     0.047 A 
ATOM      3  C   UNL     1      20.216  -0.157 -18.330  1.00  0.00     0.119 A 
ATOM      4  C   UNL     1      20.716   0.895 -19.105  1.00  0.00     0.094 A 
ATOM      5  C   UNL     1      21.014   0.693 -20.458  1.00  0.00     0.142 A 
ATOM      6  C   UNL     1      20.806  -0.577 -21.039  1.00  0.00     0.018 A 
ATOM      7  C   UNL     1      21.111  -0.749 -22.393  1.00  0.00     0.019 A 
ATOM      8  C   UNL     1      21.608   0.330 -23.125  1.00  0.00     0.094 A 
ATOM      9  C   UNL     1      21.788   1.560 -22.482  1.00  0.00     0.336 A 
ATOM     10  O   UNL     1      22.236   2.546 -23.125  1.00  0.00    -0.246 OA
ATOM     11  O   UNL     1      21.490   1.696 -21.192  1.00  0.00    -0.423 OA
ENDROOT
BRANCH   3  12
ATOM     12  O   UNL     1      19.925   0.060 -16.985  1.00  0.00    -0.508 OA
ATOM     13  H   UNL     1      20.136  -0.635 -16.279  1.00  0.00     0.293 HD
ENDBRANCH   3  12
TORSDOF 1
ENDMDL
MODEL 3
REMARK VINA RESULT:    -5.169     18.367     20.067
REMARK INTER + INTRA:          -5.320
REMARK INTER:                  -5.320
REMARK INTRA:                   0.000
REMARK UNBOUND:                 0.000
REMARK SMILES O=c1ccc2ccc(O)cc2o1
REMARK SMILES IDX 6 1 7 2 8 3 10 4 11 5 5 6 4 7 3 8 2 9 1 10 12 11 9 12
REMARK H PARENT 9 13
REMARK Flexibility Score: inf
ROOT
ATOM      1  C   UNL     1       4.975   3.545  -7.088  1.00  0.00     0.016 A 
ATOM      2  C   UNL     1       6.022   2.620  -7.016  1.00  0.00     0.047 A 
ATOM      3  C   UNL     1       7.067   2.659  -7.951  1.00  0.00     0.119 A 
ATOM      4  C   UNL     1       7.064   3.627  -8.961  1.00  0.00     0.094 A 
ATOM      5  C   UNL     1       6.021   4.557  -9.043  1.00  0.00     0.142 A 
ATOM      6  C   UNL     1       4.970   4.515  -8.100  1.00  0.00     0.018 A 
ATOM      7  C   UNL     1       3.942   5.457  -8.206  1.00  0.00     0.019 A 
ATOM      8  C   UNL     1       3.983   6.403  -9.231  1.00  0.00     0.094 A 
ATOM      9  C   UNL     1       5.056   6.383 -10.129  1.00  0.00     0.336 A 
ATOM     10  O   UNL     1       5.112   7.229 -11.061  1.00  0.00    -0.246 OA
ATOM     11  O   UNL     1       6.022   5.475 -10.006  1.00  0.00    -0.423 OA
ENDROOT
BRANCH   3  12
ATOM     12  O   UNL     1       8.112   1.740  -7.884  1.00  0.00    -0.508 OA
ATOM     13  H   UNL     1       8.178   0.964  -8.531  1.00  0.00     0.293 HD
ENDBRANCH   3  12
TORSDOF 1
ENDMDL
MODEL 4
REMARK VINA RESULT:    -5.161     16.182     18.954
REMARK INTER + INTRA:          -5.312
REMARK INTER:                  -5.312
REMARK INTRA:                   0.000
REMARK UNBOUND:                 0.000
REMARK SMILES O=c1ccc2ccc(O)cc2o1
REMARK SMILES IDX 6 1 7 2 8 3 10 4 11 5 5 6 4 7 3 8 2 9 1 10 12 11 9 12
REMARK H PARENT 9 13
REMARK Flexibility Score: inf
ROOT
ATOM      1  C   UNL     1       8.414  -8.171  -6.778  1.00  0.00     0.016 A 
ATOM      2  C   UNL     1       7.774  -7.335  -5.857  1.00  0.00     0.047 A 
ATOM      3  C   UNL     1       8.183  -6.001  -5.710  1.00  0.00     0.119 A 
ATOM      4  C   UNL     1       9.235  -5.503  -6.486  1.00  0.00     0.094 A 
ATOM      5  C   UNL     1       9.882  -6.332  -7.410  1.00  0.00     0.142 A 
ATOM      6  C   UNL     1       9.469  -7.674  -7.556  1.00  0.00     0.018 A 
ATOM      7  C   UNL     1      10.134  -8.479  -8.487  1.00  0.00     0.019 A 
ATOM      8  C   UNL     1      11.177  -7.938  -9.238  1.00  0.00     0.094 A 
ATOM      9  C   UNL     1      11.532  -6.599  -9.039  1.00  0.00     0.336 A 
ATOM     10  O   UNL     1      12.471  -6.091  -9.707  1.00  0.00    -0.246 OA
ATOM     11  O   UNL     1      10.883  -5.855  -8.146  1.00  0.00    -0.423 OA
ENDROOT
BRANCH   3  12
ATOM     12  O   UNL     1       7.549  -5.163  -4.795  1.00  0.00    -0.508 OA
ATOM     13  H   UNL     1       8.008  -4.340  -4.424  1.00  0.00     0.293 HD
ENDBRANCH   3  12
TORSDOF 1
ENDMDL
MODEL 5
REMARK VINA RESULT:    -4.804     15.284     18.140
REMARK INTER + INTRA:          -4.944
REMARK INTER:                  -4.944
REMARK INTRA:                   0.000
REMARK UNBOUND:                 0.000
REMARK SMILES O=c1ccc2ccc(O)cc2o1
REMARK SMILES IDX 6 1 7 2 8 3 10 4 11 5 5 6 4 7 3 8 2 9 1 10 12 11 9 12
REMARK H PARENT 9 13
REMARK Flexibility Score: inf
ROOT
ATOM      1  C   UNL     1      13.009   4.343  -3.497  1.00  0.00     0.016 A 
ATOM      2  C   UNL     1      11.893   3.774  -2.875  1.00  0.00     0.047 A 
ATOM      3  C   UNL     1      11.120   2.815  -3.548  1.00  0.00     0.119 A 
ATOM      4  C   UNL     1      11.467   2.424  -4.846  1.00  0.00     0.094 A 
ATOM      5  C   UNL     1      12.582   2.988  -5.477  1.00  0.00     0.142 A 
ATOM      6  C   UNL     1      13.357   3.953  -4.798  1.00  0.00     0.018 A 
ATOM      7  C   UNL     1      14.466   4.499  -5.453  1.00  0.00     0.019 A 
ATOM      8  C   UNL     1      14.771   4.078  -6.747  1.00  0.00     0.094 A 
ATOM      9  C   UNL     1      13.957   3.117  -7.358  1.00  0.00     0.336 A 
ATOM     10  O   UNL     1      14.216   2.724  -8.526  1.00  0.00    -0.246 OA
ATOM     11  O   UNL     1      12.908   2.614  -6.712  1.00  0.00    -0.423 OA
ENDROOT
BRANCH   3  12
ATOM     12  O   UNL     1      10.007   2.245  -2.933  1.00  0.00    -0.508 OA
ATOM     13  H   UNL     1       9.560   1.418  -3.310  1.00  0.00     0.293 HD
ENDBRANCH   3  12
TORSDOF 1
ENDMDL
MODEL 6
REMARK VINA RESULT:    -4.750      1.778      2.651
REMARK INTER + INTRA:          -4.889
REMARK INTER:                  -4.889
REMARK INTRA:                   0.000
REMARK UNBOUND:                 0.000
REMARK SMILES O=c1ccc2ccc(O)cc2o1
REMARK SMILES IDX 6 1 7 2 8 3 10 4 11 5 5 6 4 7 3 8 2 9 1 10 12 11 9 12
REMARK H PARENT 9 13
REMARK Flexibility Score: inf
ROOT
ATOM      1  C   UNL     1      21.112   1.091 -19.924  1.00  0.00     0.016 A 
ATOM      2  C   UNL     1      21.407   0.772 -21.254  1.00  0.00     0.047 A 
ATOM      3  C   UNL     1      20.995  -0.455 -21.796  1.00  0.00     0.119 A 
ATOM      4  C   UNL     1      20.285  -1.364 -21.005  1.00  0.00     0.094 A 
ATOM      5  C   UNL     1      19.985  -1.055 -19.673  1.00  0.00     0.142 A 
ATOM      6  C   UNL     1      20.402   0.180 -19.130  1.00  0.00     0.018 A 
ATOM      7  C   UNL     1      20.088   0.462 -17.796  1.00  0.00     0.019 A 
ATOM      8  C   UNL     1      19.379  -0.477 -17.047  1.00  0.00     0.094 A 
ATOM      9  C   UNL     1      18.998  -1.680 -17.652  1.00  0.00     0.336 A 
ATOM     10  O   UNL     1      18.358  -2.541 -16.993  1.00  0.00    -0.246 OA
ATOM     11  O   UNL     1      19.310  -1.923 -18.923  1.00  0.00    -0.423 OA
ENDROOT
BRANCH   3  12
ATOM     12  O   UNL     1      21.285  -0.777 -23.120  1.00  0.00    -0.508 OA
ATOM     13  H   UNL     1      20.574  -0.749 -23.840  1.00  0.00     0.293 HD
ENDBRANCH   3  12
TORSDOF 1
ENDMDL
MODEL 7
REMARK VINA RESULT:    -4.708     16.725     18.411
REMARK INTER + INTRA:          -4.845
REMARK INTER:                  -4.845
REMARK INTRA:                   0.000
REMARK UNBOUND:                 0.000
REMARK SMILES O=c1ccc2ccc(O)cc2o1
REMARK SMILES IDX 6 1 7 2 8 3 10 4 11 5 5 6 4 7 3 8 2 9 1 10 12 11 9 12
REMARK H PARENT 9 13
REMARK Flexibility Score: inf
ROOT
ATOM      1  C   UNL     1       7.631  -6.876  -7.500  1.00  0.00     0.016 A 
ATOM      2  C   UNL     1       8.293  -6.085  -6.554  1.00  0.00     0.047 A 
ATOM      3  C   UNL     1       9.601  -5.639  -6.796  1.00  0.00     0.119 A 
ATOM      4  C   UNL     1      10.249  -5.985  -7.987  1.00  0.00     0.094 A 
ATOM      5  C   UNL     1       9.595  -6.777  -8.939  1.00  0.00     0.142 A 
ATOM      6  C   UNL     1       8.279  -7.224  -8.693  1.00  0.00     0.018 A 
ATOM      7  C   UNL     1       7.651  -8.013  -9.663  1.00  0.00     0.019 A 
ATOM      8  C   UNL     1       8.337  -8.332 -10.834  1.00  0.00     0.094 A 
ATOM      9  C   UNL     1       9.640  -7.853 -11.009  1.00  0.00     0.336 A 
ATOM     10  O   UNL     1      10.276  -8.130 -12.060  1.00  0.00    -0.246 OA
ATOM     11  O   UNL     1      10.214  -7.104 -10.070  1.00  0.00    -0.423 OA
ENDROOT
BRANCH   3  12
ATOM     12  O   UNL     1      10.265  -4.851  -5.858  1.00  0.00    -0.508 OA
ATOM     13  H   UNL     1      11.086  -4.311  -6.105  1.00  0.00     0.293 HD
ENDBRANCH   3  12
TORSDOF 1
ENDMDL
MODEL 8
REMARK VINA RESULT:    -4.706     15.038     17.725
REMARK INTER + INTRA:          -4.844
REMARK INTER:                  -4.844
REMARK INTRA:                   0.000
REMARK UNBOUND:                 0.000
REMARK SMILES O=c1ccc2ccc(O)cc2o1
REMARK SMILES IDX 6 1 7 2 8 3 10 4 11 5 5 6 4 7 3 8 2 9 1 10 12 11 9 12
REMARK H PARENT 9 13
REMARK Flexibility Score: inf
ROOT
ATOM      1  C   UNL     1       9.114  -6.547  -7.109  1.00  0.00     0.016 A 
ATOM      2  C   UNL     1       7.796  -6.079  -7.066  1.00  0.00     0.047 A 
ATOM      3  C   UNL     1       7.273  -5.338  -8.136  1.00  0.00     0.119 A 
ATOM      4  C   UNL     1       8.071  -5.066  -9.253  1.00  0.00     0.094 A 
ATOM      5  C   UNL     1       9.391  -5.529  -9.305  1.00  0.00     0.142 A 
ATOM      6  C   UNL     1       9.915  -6.274  -8.226  1.00  0.00     0.018 A 
ATOM      7  C   UNL     1      11.237  -6.725  -8.306  1.00  0.00     0.019 A 
ATOM      8  C   UNL     1      11.993  -6.427  -9.440  1.00  0.00     0.094 A 
ATOM      9  C   UNL     1      11.407  -5.684 -10.471  1.00  0.00     0.336 A 
ATOM     10  O   UNL     1      12.073  -5.405 -11.502  1.00  0.00    -0.246 OA
ATOM     11  O   UNL     1      10.147  -5.267 -10.368  1.00  0.00    -0.423 OA
ENDROOT
BRANCH   3  12
ATOM     12  O   UNL     1       5.961  -4.870  -8.099  1.00  0.00    -0.508 OA
ATOM     13  H   UNL     1       5.181  -5.459  -8.362  1.00  0.00     0.293 HD
ENDBRANCH   3  12
TORSDOF 1
ENDMDL
MODEL 9
REMARK VINA RESULT:    -4.673     16.661     17.462
REMARK INTER + INTRA:          -4.809
REMARK INTER:                  -4.809
REMARK INTRA:                   0.000
REMARK UNBOUND:                 0.000
REMARK SMILES O=c1ccc2ccc(O)cc2o1
REMARK SMILES IDX 6 1 7 2 8 3 10 4 11 5 5 6 4 7 3 8 2 9 1 10 12 11 9 12
REMARK H PARENT 9 13
REMARK Flexibility Score: inf
ROOT
ATOM      1  C   UNL     1      10.710  -8.153  -8.860  1.00  0.00     0.016 A 
ATOM      2  C   UNL     1      10.860  -7.356  -7.720  1.00  0.00     0.047 A 
ATOM      3  C   UNL     1      10.251  -6.093  -7.654  1.00  0.00     0.119 A 
ATOM      4  C   UNL     1       9.490  -5.628  -8.732  1.00  0.00     0.094 A 
ATOM      5  C   UNL     1       9.336  -6.417  -9.878  1.00  0.00     0.142 A 
ATOM      6  C   UNL     1       9.950  -7.687  -9.941  1.00  0.00     0.018 A 
ATOM      7  C   UNL     1       9.777  -8.454 -11.098  1.00  0.00     0.019 A 
ATOM      8  C   UNL     1       9.010  -7.947 -12.147  1.00  0.00     0.094 A 
ATOM      9  C   UNL     1       8.431  -6.680 -12.013  1.00  0.00     0.336 A 
ATOM     10  O   UNL     1       7.735  -6.204 -12.948  1.00  0.00    -0.246 OA
ATOM     11  O   UNL     1       8.611  -5.971 -10.901  1.00  0.00    -0.423 OA
ENDROOT
BRANCH   3  12
ATOM     12  O   UNL     1      10.396  -5.295  -6.521  1.00  0.00    -0.508 OA
ATOM     13  H   UNL     1      10.555  -4.298  -6.592  1.00  0.00     0.293 HD
ENDBRANCH   3  12
TORSDOF 1
ENDMDL
