MODEL 1
REMARK VINA RESULT:    -5.131      0.000      0.000
REMARK INTER + INTRA:         -17.192
REMARK INTER:                 -13.530
REMARK INTRA:                  -3.662
REMARK UNBOUND:                -3.662
REMARK SMILES CCCCCCCCCCCCCCCCCCCCCCCCCCCCCC(=O)[O-]
REMARK SMILES IDX 16 1 17 2 18 3 19 4 20 5 21 6 22 7 23 8 24 9 25 10 26 11
REMARK SMILES IDX 27 12 28 13 29 14 30 15 31 16 32 17 15 18 14 19 13 20 12 21
REMARK SMILES IDX 11 22 10 23 9 24 8 25 7 26 6 27 5 28 4 29 3 30 2 31 1 32
REMARK H PARENT
REMARK Flexibility Score: inf
ROOT
ATOM      1  C   UNL     1      42.872  57.581  60.026  1.00  0.00     0.000 C 
ENDROOT
BRANCH   1   2
ATOM      2  C   UNL     1      44.186  58.093  60.631  1.00  0.00     0.000 C 
BRANCH   2   3
ATOM      3  C   UNL     1      45.395  57.494  59.899  1.00  0.00     0.000 C 
BRANCH   3   4
ATOM      4  C   UNL     1      46.431  58.554  59.486  1.00  0.00     0.000 C 
BRANCH   4   5
ATOM      5  C   UNL     1      46.120  59.298  58.171  1.00  0.00     0.000 C 
BRANCH   5   6
ATOM      6  C   UNL     1      46.975  60.549  57.897  1.00  0.00     0.000 C 
BRANCH   6   7
ATOM      7  C   UNL     1      46.137  61.809  57.627  1.00  0.00     0.000 C 
BRANCH   7   8
ATOM      8  C   UNL     1      46.254  62.858  58.749  1.00  0.00     0.000 C 
BRANCH   8   9
ATOM      9  C   UNL     1      46.552  62.262  60.141  1.00  0.00     0.000 C 
BRANCH   9  10
ATOM     10  C   UNL     1      45.271  61.830  60.879  1.00  0.00     0.000 C 
BRANCH  10  11
ATOM     11  C   UNL     1      44.000  62.454  60.281  1.00  0.00     0.000 C 
BRANCH  11  12
ATOM     12  C   UNL     1      42.955  61.405  59.878  1.00  0.00     0.000 C 
BRANCH  12  13
ATOM     13  C   UNL     1      42.539  61.582  58.411  1.00  0.00     0.006 C 
BRANCH  13  14
ATOM     14  C   UNL     1      42.298  60.225  57.736  1.00  0.00     0.053 C 
BRANCH  14  15
ATOM     15  C   UNL     1      40.836  59.969  57.533  1.00  0.00     0.041 C 
ATOM     16  O   UNL     1      40.105  60.847  56.997  1.00  0.00    -0.550 OA
ATOM     17  O   UNL     1      40.287  58.747  57.902  1.00  0.00    -0.550 OA
ENDBRANCH  14  15
ENDBRANCH  13  14
ENDBRANCH  12  13
ENDBRANCH  11  12
ENDBRANCH  10  11
ENDBRANCH   9  10
ENDBRANCH   8   9
ENDBRANCH   7   8
ENDBRANCH   6   7
ENDBRANCH   5   6
ENDBRANCH   4   5
ENDBRANCH   3   4
ENDBRANCH   2   3
ENDBRANCH   1   2
BRANCH   1  18
ATOM     18  C   UNL     1      43.136  56.574  58.897  1.00  0.00     0.000 C 
BRANCH  18  19
ATOM     19  C   UNL     1      42.468  55.212  59.151  1.00  0.00     0.000 C 
BRANCH  19  20
ATOM     20  C   UNL     1      41.998  55.046  60.605  1.00  0.00     0.000 C 
BRANCH  20  21
ATOM     21  C   UNL     1      41.087  53.820  60.751  1.00  0.00     0.000 C 
BRANCH  21  22
ATOM     22  C   UNL     1      39.612  54.205  60.551  1.00  0.00     0.000 C 
BRANCH  22  23
ATOM     23  C   UNL     1      39.390  55.727  60.564  1.00  0.00     0.000 C 
BRANCH  23  24
ATOM     24  C   UNL     1      37.919  56.110  60.327  1.00  0.00    -0.000 C 
BRANCH  24  25
ATOM     25  C   UNL     1      37.069  54.931  59.827  1.00  0.00    -0.000 C 
BRANCH  25  26
ATOM     26  C   UNL     1      35.947  55.302  58.837  1.00  0.00    -0.000 C 
BRANCH  26  27
ATOM     27  C   UNL     1      35.121  54.096  58.342  1.00  0.00    -0.000 C 
BRANCH  27  28
ATOM     28  C   UNL     1      35.895  52.769  58.442  1.00  0.00    -0.000 C 
BRANCH  28  29
ATOM     29  C   UNL     1      35.022  51.556  58.057  1.00  0.00    -0.000 C 
BRANCH  29  30
ATOM     30  C   UNL     1      33.516  51.862  58.047  1.00  0.00    -0.000 C 
BRANCH  30  31
ATOM     31  C   UNL     1      32.672  50.719  58.629  1.00  0.00    -0.003 C 
ATOM     32  C   UNL     1      31.222  51.152  58.827  1.00  0.00     0.004 C 
ENDBRANCH  30  31
ENDBRANCH  29  30
ENDBRANCH  28  29
ENDBRANCH  27  28
ENDBRANCH  26  27
ENDBRANCH  25  26
ENDBRANCH  24  25
ENDBRANCH  23  24
ENDBRANCH  22  23
ENDBRANCH  21  22
ENDBRANCH  20  21
ENDBRANCH  19  20
ENDBRANCH  18  19
ENDBRANCH   1  18
TORSDOF 28
ENDMDL
MODEL 2
REMARK VINA RESULT:    -4.999      2.077      4.224
REMARK INTER + INTRA:         -16.845
REMARK INTER:                 -13.270
REMARK INTRA:                  -3.575
REMARK UNBOUND:                -3.662
REMARK SMILES CCCCCCCCCCCCCCCCCCCCCCCCCCCCCC(=O)[O-]
REMARK SMILES IDX 16 1 17 2 18 3 19 4 20 5 21 6 22 7 23 8 24 9 25 10 26 11
REMARK SMILES IDX 27 12 28 13 29 14 30 15 31 16 32 17 15 18 14 19 13 20 12 21
REMARK SMILES IDX 11 22 10 23 9 24 8 25 7 26 6 27 5 28 4 29 3 30 2 31 1 32
REMARK H PARENT
REMARK Flexibility Score: inf
ROOT
ATOM      1  C   UNL     1      41.964  61.859  57.781  1.00  0.00     0.000 C 
ENDROOT
BRANCH   1   2
ATOM      2  C   UNL     1      43.401  61.816  58.318  1.00  0.00     0.000 C 
BRANCH   2   3
ATOM      3  C   UNL     1      43.576  62.790  59.491  1.00  0.00     0.000 C 
BRANCH   3   4
ATOM      4  C   UNL     1      42.463  62.665  60.545  1.00  0.00     0.000 C 
BRANCH   4   5
ATOM      5  C   UNL     1      42.820  61.808  61.777  1.00  0.00     0.000 C 
BRANCH   5   6
ATOM      6  C   UNL     1      42.874  60.288  61.535  1.00  0.00     0.000 C 
BRANCH   6   7
ATOM      7  C   UNL     1      44.224  59.662  61.920  1.00  0.00     0.000 C 
BRANCH   7   8
ATOM      8  C   UNL     1      45.428  60.456  61.380  1.00  0.00     0.000 C 
BRANCH   8   9
ATOM      9  C   UNL     1      46.306  59.670  60.384  1.00  0.00     0.000 C 
BRANCH   9  10
ATOM     10  C   UNL     1      45.886  58.193  60.271  1.00  0.00     0.000 C 
BRANCH  10  11
ATOM     11  C   UNL     1      45.385  57.822  58.865  1.00  0.00     0.000 C 
BRANCH  11  12
ATOM     12  C   UNL     1      43.884  58.085  58.681  1.00  0.00     0.000 C 
BRANCH  12  13
ATOM     13  C   UNL     1      43.105  56.767  58.585  1.00  0.00     0.006 C 
BRANCH  13  14
ATOM     14  C   UNL     1      42.815  56.192  59.978  1.00  0.00     0.053 C 
BRANCH  14  15
ATOM     15  C   UNL     1      42.108  54.874  59.887  1.00  0.00     0.041 C 
ATOM     16  O   UNL     1      42.137  54.208  58.816  1.00  0.00    -0.550 OA
ATOM     17  O   UNL     1      41.445  54.364  60.997  1.00  0.00    -0.550 OA
ENDBRANCH  14  15
ENDBRANCH  13  14
ENDBRANCH  12  13
ENDBRANCH  11  12
ENDBRANCH  10  11
ENDBRANCH   9  10
ENDBRANCH   8   9
ENDBRANCH   7   8
ENDBRANCH   6   7
ENDBRANCH   5   6
ENDBRANCH   4   5
ENDBRANCH   3   4
ENDBRANCH   2   3
ENDBRANCH   1   2
BRANCH   1  18
ATOM     18  C   UNL     1      41.412  60.444  57.558  1.00  0.00     0.000 C 
BRANCH  18  19
ATOM     19  C   UNL     1      39.999  60.450  56.951  1.00  0.00     0.000 C 
BRANCH  19  20
ATOM     20  C   UNL     1      39.247  59.132  57.192  1.00  0.00     0.000 C 
BRANCH  20  21
ATOM     21  C   UNL     1      39.973  58.266  58.230  1.00  0.00     0.000 C 
BRANCH  21  22
ATOM     22  C   UNL     1      39.062  57.136  58.736  1.00  0.00     0.000 C 
BRANCH  22  23
ATOM     23  C   UNL     1      39.043  57.032  60.270  1.00  0.00     0.000 C 
BRANCH  23  24
ATOM     24  C   UNL     1      38.312  55.773  60.768  1.00  0.00    -0.000 C 
BRANCH  24  25
ATOM     25  C   UNL     1      37.137  55.370  59.862  1.00  0.00    -0.000 C 
BRANCH  25  26
ATOM     26  C   UNL     1      36.952  53.853  59.661  1.00  0.00    -0.000 C 
BRANCH  26  27
ATOM     27  C   UNL     1      35.652  53.470  58.922  1.00  0.00    -0.000 C 
BRANCH  27  28
ATOM     28  C   UNL     1      35.879  52.394  57.845  1.00  0.00    -0.000 C 
BRANCH  28  29
ATOM     29  C   UNL     1      34.827  51.268  57.916  1.00  0.00    -0.000 C 
BRANCH  29  30
ATOM     30  C   UNL     1      33.440  51.751  58.370  1.00  0.00    -0.000 C 
BRANCH  30  31
ATOM     31  C   UNL     1      32.395  50.628  58.392  1.00  0.00    -0.003 C 
ATOM     32  C   UNL     1      31.076  51.114  58.988  1.00  0.00     0.004 C 
ENDBRANCH  30  31
ENDBRANCH  29  30
ENDBRANCH  28  29
ENDBRANCH  27  28
ENDBRANCH  26  27
ENDBRANCH  25  26
ENDBRANCH  24  25
ENDBRANCH  23  24
ENDBRANCH  22  23
ENDBRANCH  21  22
ENDBRANCH  20  21
ENDBRANCH  19  20
ENDBRANCH  18  19
ENDBRANCH   1  18
TORSDOF 28
ENDMDL
MODEL 3
REMARK VINA RESULT:    -4.977      3.300     10.126
REMARK INTER + INTRA:         -16.787
REMARK INTER:                 -13.742
REMARK INTRA:                  -3.045
REMARK UNBOUND:                -3.662
REMARK SMILES CCCCCCCCCCCCCCCCCCCCCCCCCCCCCC(=O)[O-]
REMARK SMILES IDX 16 1 17 2 18 3 19 4 20 5 21 6 22 7 23 8 24 9 25 10 26 11
REMARK SMILES IDX 27 12 28 13 29 14 30 15 31 16 32 17 15 18 14 19 13 20 12 21
REMARK SMILES IDX 11 22 10 23 9 24 8 25 7 26 6 27 5 28 4 29 3 30 2 31 1 32
REMARK H PARENT
REMARK Flexibility Score: inf
ROOT
ATOM      1  C   UNL     1      43.572  57.780  58.976  1.00  0.00     0.000 C 
ENDROOT
BRANCH   1   2
ATOM      2  C   UNL     1      44.101  57.104  60.248  1.00  0.00     0.000 C 
BRANCH   2   3
ATOM      3  C   UNL     1      43.466  55.719  60.435  1.00  0.00     0.000 C 
BRANCH   3   4
ATOM      4  C   UNL     1      42.466  55.362  59.321  1.00  0.00     0.000 C 
BRANCH   4   5
ATOM      5  C   UNL     1      40.979  55.547  59.690  1.00  0.00     0.000 C 
BRANCH   5   6
ATOM      6  C   UNL     1      40.358  54.415  60.529  1.00  0.00     0.000 C 
BRANCH   6   7
ATOM      7  C   UNL     1      38.868  54.635  60.835  1.00  0.00     0.000 C 
BRANCH   7   8
ATOM      8  C   UNL     1      38.304  55.908  60.177  1.00  0.00     0.000 C 
BRANCH   8   9
ATOM      9  C   UNL     1      36.944  55.707  59.477  1.00  0.00     0.000 C 
BRANCH   9  10
ATOM     10  C   UNL     1      36.271  54.379  59.874  1.00  0.00     0.000 C 
BRANCH  10  11
ATOM     11  C   UNL     1      35.472  53.749  58.722  1.00  0.00     0.000 C 
BRANCH  11  12
ATOM     12  C   UNL     1      36.021  52.381  58.296  1.00  0.00     0.000 C 
BRANCH  12  13
ATOM     13  C   UNL     1      34.880  51.401  57.996  1.00  0.00     0.006 C 
BRANCH  13  14
ATOM     14  C   UNL     1      33.512  52.080  58.149  1.00  0.00     0.053 C 
BRANCH  14  15
ATOM     15  C   UNL     1      32.428  51.072  58.387  1.00  0.00     0.041 C 
ATOM     16  O   UNL     1      32.595  49.867  58.055  1.00  0.00    -0.550 OA
ATOM     17  O   UNL     1      31.246  51.459  59.008  1.00  0.00    -0.550 OA
ENDBRANCH  14  15
ENDBRANCH  13  14
ENDBRANCH  12  13
ENDBRANCH  11  12
ENDBRANCH  10  11
ENDBRANCH   9  10
ENDBRANCH   8   9
ENDBRANCH   7   8
ENDBRANCH   6   7
ENDBRANCH   5   6
ENDBRANCH   4   5
ENDBRANCH   3   4
ENDBRANCH   2   3
ENDBRANCH   1   2
BRANCH   1  18
ATOM     18  C   UNL     1      44.660  58.632  58.307  1.00  0.00     0.000 C 
BRANCH  18  19
ATOM     19  C   UNL     1      46.081  58.172  58.675  1.00  0.00     0.000 C 
BRANCH  19  20
ATOM     20  C   UNL     1      47.013  59.346  59.014  1.00  0.00     0.000 C 
BRANCH  20  21
ATOM     21  C   UNL     1      46.259  60.681  58.958  1.00  0.00     0.000 C 
BRANCH  21  22
ATOM     22  C   UNL     1      46.183  61.328  60.350  1.00  0.00     0.000 C 
BRANCH  22  23
ATOM     23  C   UNL     1      45.448  60.446  61.374  1.00  0.00     0.000 C 
BRANCH  23  24
ATOM     24  C   UNL     1      44.050  60.987  61.722  1.00  0.00    -0.000 C 
BRANCH  24  25
ATOM     25  C   UNL     1      43.842  62.440  61.264  1.00  0.00    -0.000 C 
BRANCH  25  26
ATOM     26  C   UNL     1      42.712  62.650  60.236  1.00  0.00    -0.000 C 
BRANCH  26  27
ATOM     27  C   UNL     1      42.755  61.669  59.045  1.00  0.00    -0.000 C 
BRANCH  27  28
ATOM     28  C   UNL     1      43.046  62.376  57.708  1.00  0.00    -0.000 C 
BRANCH  28  29
ATOM     29  C   UNL     1      41.779  63.009  57.097  1.00  0.00    -0.000 C 
BRANCH  29  30
ATOM     30  C   UNL     1      40.562  62.069  57.095  1.00  0.00    -0.000 C 
BRANCH  30  31
ATOM     31  C   UNL     1      40.421  61.280  55.786  1.00  0.00    -0.003 C 
ATOM     32  C   UNL     1      39.800  62.141  54.689  1.00  0.00     0.004 C 
ENDBRANCH  30  31
ENDBRANCH  29  30
ENDBRANCH  28  29
ENDBRANCH  27  28
ENDBRANCH  26  27
ENDBRANCH  25  26
ENDBRANCH  24  25
ENDBRANCH  23  24
ENDBRANCH  22  23
ENDBRANCH  21  22
ENDBRANCH  20  21
ENDBRANCH  19  20
ENDBRANCH  18  19
ENDBRANCH   1  18
TORSDOF 28
ENDMDL
MODEL 4
REMARK VINA RESULT:    -4.924      3.010     10.305
REMARK INTER + INTRA:         -16.647
REMARK INTER:                 -13.056
REMARK INTRA:                  -3.591
REMARK UNBOUND:                -3.662
REMARK SMILES CCCCCCCCCCCCCCCCCCCCCCCCCCCCCC(=O)[O-]
REMARK SMILES IDX 16 1 17 2 18 3 19 4 20 5 21 6 22 7 23 8 24 9 25 10 26 11
REMARK SMILES IDX 27 12 28 13 29 14 30 15 31 16 32 17 15 18 14 19 13 20 12 21
REMARK SMILES IDX 11 22 10 23 9 24 8 25 7 26 6 27 5 28 4 29 3 30 2 31 1 32
REMARK H PARENT
REMARK Flexibility Score: inf
ROOT
ATOM      1  C   UNL     1      40.750  57.661  57.986  1.00  0.00     0.000 C 
ENDROOT
BRANCH   1   2
ATOM      2  C   UNL     1      42.095  58.047  58.615  1.00  0.00     0.000 C 
BRANCH   2   3
ATOM      3  C   UNL     1      42.328  57.277  59.923  1.00  0.00     0.000 C 
BRANCH   3   4
ATOM      4  C   UNL     1      42.618  55.783  59.696  1.00  0.00     0.000 C 
BRANCH   4   5
ATOM      5  C   UNL     1      41.870  54.819  60.639  1.00  0.00     0.000 C 
BRANCH   5   6
ATOM      6  C   UNL     1      40.626  54.135  60.041  1.00  0.00     0.000 C 
BRANCH   6   7
ATOM      7  C   UNL     1      39.324  54.500  60.771  1.00  0.00     0.000 C 
BRANCH   7   8
ATOM      8  C   UNL     1      38.993  56.002  60.689  1.00  0.00     0.000 C 
BRANCH   8   9
ATOM      9  C   UNL     1      38.027  56.373  59.545  1.00  0.00     0.000 C 
BRANCH   9  10
ATOM     10  C   UNL     1      36.559  56.060  59.891  1.00  0.00     0.000 C 
BRANCH  10  11
ATOM     11  C   UNL     1      35.870  55.187  58.830  1.00  0.00     0.000 C 
BRANCH  11  12
ATOM     12  C   UNL     1      36.024  53.685  59.103  1.00  0.00     0.000 C 
BRANCH  12  13
ATOM     13  C   UNL     1      35.499  52.856  57.924  1.00  0.00     0.006 C 
BRANCH  13  14
ATOM     14  C   UNL     1      34.014  52.515  58.104  1.00  0.00     0.053 C 
BRANCH  14  15
ATOM     15  C   UNL     1      33.780  51.037  58.017  1.00  0.00     0.041 C 
ATOM     16  O   UNL     1      32.634  50.560  58.238  1.00  0.00    -0.550 OA
ATOM     17  O   UNL     1      34.822  50.190  57.656  1.00  0.00    -0.550 OA
ENDBRANCH  14  15
ENDBRANCH  13  14
ENDBRANCH  12  13
ENDBRANCH  11  12
ENDBRANCH  10  11
ENDBRANCH   9  10
ENDBRANCH   8   9
ENDBRANCH   7   8
ENDBRANCH   6   7
ENDBRANCH   5   6
ENDBRANCH   4   5
ENDBRANCH   3   4
ENDBRANCH   2   3
ENDBRANCH   1   2
BRANCH   1  18
ATOM     18  C   UNL     1      39.965  58.906  57.547  1.00  0.00     0.000 C 
BRANCH  18  19
ATOM     19  C   UNL     1      40.835  60.173  57.518  1.00  0.00     0.000 C 
BRANCH  19  20
ATOM     20  C   UNL     1      40.400  61.165  56.428  1.00  0.00     0.000 C 
BRANCH  20  21
ATOM     21  C   UNL     1      41.015  62.550  56.667  1.00  0.00     0.000 C 
BRANCH  21  22
ATOM     22  C   UNL     1      41.886  62.552  57.934  1.00  0.00     0.000 C 
BRANCH  22  23
ATOM     23  C   UNL     1      43.338  62.974  57.655  1.00  0.00     0.000 C 
BRANCH  23  24
ATOM     24  C   UNL     1      44.280  62.662  58.831  1.00  0.00    -0.000 C 
BRANCH  24  25
ATOM     25  C   UNL     1      43.555  62.000  60.014  1.00  0.00    -0.000 C 
BRANCH  25  26
ATOM     26  C   UNL     1      43.866  60.503  60.221  1.00  0.00    -0.000 C 
BRANCH  26  27
ATOM     27  C   UNL     1      45.334  60.213  60.599  1.00  0.00    -0.000 C 
BRANCH  27  28
ATOM     28  C   UNL     1      45.610  58.709  60.782  1.00  0.00    -0.000 C 
BRANCH  28  29
ATOM     29  C   UNL     1      45.880  58.000  59.438  1.00  0.00    -0.000 C 
BRANCH  29  30
ATOM     30  C   UNL     1      47.125  58.527  58.705  1.00  0.00    -0.000 C 
BRANCH  30  31
ATOM     31  C   UNL     1      46.808  59.062  57.302  1.00  0.00    -0.003 C 
ATOM     32  C   UNL     1      46.943  60.582  57.250  1.00  0.00     0.004 C 
ENDBRANCH  30  31
ENDBRANCH  29  30
ENDBRANCH  28  29
ENDBRANCH  27  28
ENDBRANCH  26  27
ENDBRANCH  25  26
ENDBRANCH  24  25
ENDBRANCH  23  24
ENDBRANCH  22  23
ENDBRANCH  21  22
ENDBRANCH  20  21
ENDBRANCH  19  20
ENDBRANCH  18  19
ENDBRANCH   1  18
TORSDOF 28
ENDMDL
MODEL 5
REMARK VINA RESULT:    -4.898      1.380      3.647
REMARK INTER + INTRA:         -16.576
REMARK INTER:                 -12.544
REMARK INTRA:                  -4.032
REMARK UNBOUND:                -3.662
REMARK SMILES CCCCCCCCCCCCCCCCCCCCCCCCCCCCCC(=O)[O-]
REMARK SMILES IDX 16 1 17 2 18 3 19 4 20 5 21 6 22 7 23 8 24 9 25 10 26 11
REMARK SMILES IDX 27 12 28 13 29 14 30 15 31 16 32 17 15 18 14 19 13 20 12 21
REMARK SMILES IDX 11 22 10 23 9 24 8 25 7 26 6 27 5 28 4 29 3 30 2 31 1 32
REMARK H PARENT
REMARK Flexibility Score: inf
ROOT
ATOM      1  C   UNL     1      46.142  59.977  59.241  1.00  0.00     0.000 C 
ENDROOT
BRANCH   1   2
ATOM      2  C   UNL     1      46.657  61.369  58.854  1.00  0.00     0.000 C 
BRANCH   2   3
ATOM      3  C   UNL     1      46.805  62.262  60.094  1.00  0.00     0.000 C 
BRANCH   3   4
ATOM      4  C   UNL     1      46.821  61.463  61.409  1.00  0.00     0.000 C 
BRANCH   4   5
ATOM      5  C   UNL     1      46.397  62.255  62.663  1.00  0.00     0.000 C 
BRANCH   5   6
ATOM      6  C   UNL     1      44.975  61.967  63.181  1.00  0.00     0.000 C 
BRANCH   6   7
ATOM      7  C   UNL     1      44.344  60.715  62.553  1.00  0.00     0.000 C 
BRANCH   7   8
ATOM      8  C   UNL     1      43.282  61.049  61.489  1.00  0.00     0.000 C 
BRANCH   8   9
ATOM      9  C   UNL     1      43.264  62.531  61.060  1.00  0.00     0.000 C 
BRANCH   9  10
ATOM     10  C   UNL     1      42.547  62.742  59.713  1.00  0.00     0.000 C 
BRANCH  10  11
ATOM     11  C   UNL     1      42.493  61.464  58.861  1.00  0.00     0.000 C 
BRANCH  11  12
ATOM     12  C   UNL     1      41.805  61.681  57.506  1.00  0.00     0.000 C 
BRANCH  12  13
ATOM     13  C   UNL     1      41.133  60.390  57.019  1.00  0.00     0.006 C 
BRANCH  13  14
ATOM     14  C   UNL     1      41.351  59.243  58.014  1.00  0.00     0.053 C 
BRANCH  14  15
ATOM     15  C   UNL     1      40.103  58.433  58.194  1.00  0.00     0.041 C 
ATOM     16  O   UNL     1      39.987  57.652  59.177  1.00  0.00    -0.550 OA
ATOM     17  O   UNL     1      39.053  58.568  57.293  1.00  0.00    -0.550 OA
ENDBRANCH  14  15
ENDBRANCH  13  14
ENDBRANCH  12  13
ENDBRANCH  11  12
ENDBRANCH  10  11
ENDBRANCH   9  10
ENDBRANCH   8   9
ENDBRANCH   7   8
ENDBRANCH   6   7
ENDBRANCH   5   6
ENDBRANCH   4   5
ENDBRANCH   3   4
ENDBRANCH   2   3
ENDBRANCH   1   2
BRANCH   1  18
ATOM     18  C   UNL     1      45.292  59.367  58.117  1.00  0.00     0.000 C 
BRANCH  18  19
ATOM     19  C   UNL     1      44.657  58.025  58.517  1.00  0.00     0.000 C 
BRANCH  19  20
ATOM     20  C   UNL     1      44.340  57.945  60.019  1.00  0.00     0.000 C 
BRANCH  20  21
ATOM     21  C   UNL     1      43.278  56.874  60.300  1.00  0.00     0.000 C 
BRANCH  21  22
ATOM     22  C   UNL     1      43.375  55.725  59.283  1.00  0.00     0.000 C 
BRANCH  22  23
ATOM     23  C   UNL     1      42.128  54.824  59.286  1.00  0.00     0.000 C 
BRANCH  23  24
ATOM     24  C   UNL     1      41.438  54.778  60.660  1.00  0.00    -0.000 C 
BRANCH  24  25
ATOM     25  C   UNL     1      40.141  53.953  60.647  1.00  0.00    -0.000 C 
BRANCH  25  26
ATOM     26  C   UNL     1      38.838  54.774  60.729  1.00  0.00    -0.000 C 
BRANCH  26  27
ATOM     27  C   UNL     1      37.569  53.978  60.355  1.00  0.00    -0.000 C 
BRANCH  27  28
ATOM     28  C   UNL     1      36.589  54.799  59.497  1.00  0.00    -0.000 C 
BRANCH  28  29
ATOM     29  C   UNL     1      35.642  53.899  58.675  1.00  0.00    -0.000 C 
BRANCH  29  30
ATOM     30  C   UNL     1      36.124  52.444  58.561  1.00  0.00    -0.000 C 
BRANCH  30  31
ATOM     31  C   UNL     1      35.038  51.497  58.032  1.00  0.00    -0.003 C 
ATOM     32  C   UNL     1      35.650  50.349  57.233  1.00  0.00     0.004 C 
ENDBRANCH  30  31
ENDBRANCH  29  30
ENDBRANCH  28  29
ENDBRANCH  27  28
ENDBRANCH  26  27
ENDBRANCH  25  26
ENDBRANCH  24  25
ENDBRANCH  23  24
ENDBRANCH  22  23
ENDBRANCH  21  22
ENDBRANCH  20  21
ENDBRANCH  19  20
ENDBRANCH  18  19
ENDBRANCH   1  18
TORSDOF 28
ENDMDL
MODEL 6
REMARK VINA RESULT:    -4.889      2.020      8.365
REMARK INTER + INTRA:         -16.554
REMARK INTER:                 -12.095
REMARK INTRA:                  -4.459
REMARK UNBOUND:                -3.662
REMARK SMILES CCCCCCCCCCCCCCCCCCCCCCCCCCCCCC(=O)[O-]
REMARK SMILES IDX 16 1 17 2 18 3 19 4 20 5 21 6 22 7 23 8 24 9 25 10 26 11
REMARK SMILES IDX 27 12 28 13 29 14 30 15 31 16 32 17 15 18 14 19 13 20 12 21
REMARK SMILES IDX 11 22 10 23 9 24 8 25 7 26 6 27 5 28 4 29 3 30 2 31 1 32
REMARK H PARENT
REMARK Flexibility Score: inf
ROOT
ATOM      1  C   UNL     1      35.872  54.099  59.158  1.00  0.00     0.000 C 
ENDROOT
BRANCH   1   2
ATOM      2  C   UNL     1      36.105  55.590  58.885  1.00  0.00     0.000 C 
BRANCH   2   3
ATOM      3  C   UNL     1      36.120  56.390  60.195  1.00  0.00     0.000 C 
BRANCH   3   4
ATOM      4  C   UNL     1      37.535  56.818  60.621  1.00  0.00     0.000 C 
BRANCH   4   5
ATOM      5  C   UNL     1      38.563  56.915  59.474  1.00  0.00     0.000 C 
BRANCH   5   6
ATOM      6  C   UNL     1      39.975  57.373  59.886  1.00  0.00     0.000 C 
BRANCH   6   7
ATOM      7  C   UNL     1      40.838  57.818  58.695  1.00  0.00     0.000 C 
BRANCH   7   8
ATOM      8  C   UNL     1      41.672  59.077  58.998  1.00  0.00     0.000 C 
BRANCH   8   9
ATOM      9  C   UNL     1      42.712  59.421  57.911  1.00  0.00     0.000 C 
BRANCH   9  10
ATOM     10  C   UNL     1      43.593  60.622  58.303  1.00  0.00     0.000 C 
BRANCH  10  11
ATOM     11  C   UNL     1      42.843  61.658  59.155  1.00  0.00     0.000 C 
BRANCH  11  12
ATOM     12  C   UNL     1      42.689  63.011  58.446  1.00  0.00     0.000 C 
BRANCH  12  13
ATOM     13  C   UNL     1      42.239  62.819  56.991  1.00  0.00     0.006 C 
BRANCH  13  14
ATOM     14  C   UNL     1      40.717  62.647  56.900  1.00  0.00     0.053 C 
BRANCH  14  15
ATOM     15  C   UNL     1      40.349  61.555  55.942  1.00  0.00     0.041 C 
ATOM     16  O   UNL     1      40.716  61.615  54.737  1.00  0.00    -0.550 OA
ATOM     17  O   UNL     1      39.631  60.452  56.389  1.00  0.00    -0.550 OA
ENDBRANCH  14  15
ENDBRANCH  13  14
ENDBRANCH  12  13
ENDBRANCH  11  12
ENDBRANCH  10  11
ENDBRANCH   9  10
ENDBRANCH   8   9
ENDBRANCH   7   8
ENDBRANCH   6   7
ENDBRANCH   5   6
ENDBRANCH   4   5
ENDBRANCH   3   4
ENDBRANCH   2   3
ENDBRANCH   1   2
BRANCH   1  18
ATOM     18  C   UNL     1      37.192  53.379  59.473  1.00  0.00     0.000 C 
BRANCH  18  19
ATOM     19  C   UNL     1      37.351  53.067  60.970  1.00  0.00     0.000 C 
BRANCH  19  20
ATOM     20  C   UNL     1      38.711  53.516  61.527  1.00  0.00     0.000 C 
BRANCH  20  21
ATOM     21  C   UNL     1      39.716  53.758  60.393  1.00  0.00     0.000 C 
BRANCH  21  22
ATOM     22  C   UNL     1      41.127  54.004  60.953  1.00  0.00     0.000 C 
BRANCH  22  23
ATOM     23  C   UNL     1      42.083  54.603  59.908  1.00  0.00     0.000 C 
BRANCH  23  24
ATOM     24  C   UNL     1      43.280  55.326  60.549  1.00  0.00    -0.000 C 
BRANCH  24  25
ATOM     25  C   UNL     1      44.071  56.177  59.542  1.00  0.00    -0.000 C 
BRANCH  25  26
ATOM     26  C   UNL     1      44.653  57.490  60.104  1.00  0.00    -0.000 C 
BRANCH  26  27
ATOM     27  C   UNL     1      45.953  57.949  59.409  1.00  0.00    -0.000 C 
BRANCH  27  28
ATOM     28  C   UNL     1      46.830  58.827  60.320  1.00  0.00    -0.000 C 
BRANCH  28  29
ATOM     29  C   UNL     1      46.970  60.266  59.782  1.00  0.00    -0.000 C 
BRANCH  29  30
ATOM     30  C   UNL     1      46.564  61.344  60.800  1.00  0.00    -0.000 C 
BRANCH  30  31
ATOM     31  C   UNL     1      45.346  60.939  61.642  1.00  0.00    -0.003 C 
ATOM     32  C   UNL     1      44.939  62.059  62.596  1.00  0.00     0.004 C 
ENDBRANCH  30  31
ENDBRANCH  29  30
ENDBRANCH  28  29
ENDBRANCH  27  28
ENDBRANCH  26  27
ENDBRANCH  25  26
ENDBRANCH  24  25
ENDBRANCH  23  24
ENDBRANCH  22  23
ENDBRANCH  21  22
ENDBRANCH  20  21
ENDBRANCH  19  20
ENDBRANCH  18  19
ENDBRANCH   1  18
TORSDOF 28
ENDMDL
MODEL 7
REMARK VINA RESULT:    -4.845      3.615     10.328
REMARK INTER + INTRA:         -16.437
REMARK INTER:                 -12.730
REMARK INTRA:                  -3.707
REMARK UNBOUND:                -3.662
REMARK SMILES CCCCCCCCCCCCCCCCCCCCCCCCCCCCCC(=O)[O-]
REMARK SMILES IDX 16 1 17 2 18 3 19 4 20 5 21 6 22 7 23 8 24 9 25 10 26 11
REMARK SMILES IDX 27 12 28 13 29 14 30 15 31 16 32 17 15 18 14 19 13 20 12 21
REMARK SMILES IDX 11 22 10 23 9 24 8 25 7 26 6 27 5 28 4 29 3 30 2 31 1 32
REMARK H PARENT
REMARK Flexibility Score: inf
ROOT
ATOM      1  C   UNL     1      42.427  56.266  60.153  1.00  0.00     0.000 C 
ENDROOT
BRANCH   1   2
ATOM      2  C   UNL     1      41.901  54.829  60.265  1.00  0.00     0.000 C 
BRANCH   2   3
ATOM      3  C   UNL     1      40.368  54.812  60.337  1.00  0.00     0.000 C 
BRANCH   3   4
ATOM      4  C   UNL     1      39.824  53.727  61.283  1.00  0.00     0.000 C 
BRANCH   4   5
ATOM      5  C   UNL     1      38.293  53.537  61.251  1.00  0.00     0.000 C 
BRANCH   5   6
ATOM      6  C   UNL     1      37.652  53.544  59.851  1.00  0.00     0.000 C 
BRANCH   6   7
ATOM      7  C   UNL     1      36.268  54.210  59.822  1.00  0.00     0.000 C 
BRANCH   7   8
ATOM      8  C   UNL     1      36.253  55.524  59.019  1.00  0.00     0.000 C 
BRANCH   8   9
ATOM      9  C   UNL     1      37.175  56.623  59.590  1.00  0.00     0.000 C 
BRANCH   9  10
ATOM     10  C   UNL     1      36.806  57.004  61.036  1.00  0.00     0.000 C 
BRANCH  10  11
ATOM     11  C   UNL     1      35.347  57.467  61.176  1.00  0.00     0.000 C 
BRANCH  11  12
ATOM     12  C   UNL     1      35.081  58.201  62.497  1.00  0.00     0.000 C 
BRANCH  12  13
ATOM     13  C   UNL     1      33.726  57.790  63.089  1.00  0.00     0.006 C 
BRANCH  13  14
ATOM     14  C   UNL     1      32.565  58.418  62.306  1.00  0.00     0.053 C 
BRANCH  14  15
ATOM     15  C   UNL     1      31.241  58.031  62.891  1.00  0.00     0.041 C 
ATOM     16  O   UNL     1      30.979  58.287  64.098  1.00  0.00    -0.550 OA
ATOM     17  O   UNL     1      30.282  57.418  62.093  1.00  0.00    -0.550 OA
ENDBRANCH  14  15
ENDBRANCH  13  14
ENDBRANCH  12  13
ENDBRANCH  11  12
ENDBRANCH  10  11
ENDBRANCH   9  10
ENDBRANCH   8   9
ENDBRANCH   7   8
ENDBRANCH   6   7
ENDBRANCH   5   6
ENDBRANCH   4   5
ENDBRANCH   3   4
ENDBRANCH   2   3
ENDBRANCH   1   2
BRANCH   1  18
ATOM     18  C   UNL     1      42.518  56.710  58.686  1.00  0.00     0.000 C 
BRANCH  18  19
ATOM     19  C   UNL     1      41.970  58.130  58.463  1.00  0.00     0.000 C 
BRANCH  19  20
ATOM     20  C   UNL     1      43.084  59.173  58.283  1.00  0.00     0.000 C 
BRANCH  20  21
ATOM     21  C   UNL     1      42.499  60.587  58.174  1.00  0.00     0.000 C 
BRANCH  21  22
ATOM     22  C   UNL     1      43.446  61.622  58.804  1.00  0.00     0.000 C 
BRANCH  22  23
ATOM     23  C   UNL     1      44.747  61.800  58.003  1.00  0.00     0.000 C 
BRANCH  23  24
ATOM     24  C   UNL     1      45.994  61.831  58.902  1.00  0.00    -0.000 C 
BRANCH  24  25
ATOM     25  C   UNL     1      47.118  60.913  58.395  1.00  0.00    -0.000 C 
BRANCH  25  26
ATOM     26  C   UNL     1      46.665  59.777  57.455  1.00  0.00    -0.000 C 
BRANCH  26  27
ATOM     27  C   UNL     1      46.746  58.370  58.084  1.00  0.00    -0.000 C 
BRANCH  27  28
ATOM     28  C   UNL     1      46.926  58.416  59.612  1.00  0.00    -0.000 C 
BRANCH  28  29
ATOM     29  C   UNL     1      45.595  58.196  60.362  1.00  0.00    -0.000 C 
BRANCH  29  30
ATOM     30  C   UNL     1      45.173  59.394  61.228  1.00  0.00    -0.000 C 
BRANCH  30  31
ATOM     31  C   UNL     1      43.858  59.151  61.981  1.00  0.00    -0.003 C 
ATOM     32  C   UNL     1      43.018  60.424  62.046  1.00  0.00     0.004 C 
ENDBRANCH  30  31
ENDBRANCH  29  30
ENDBRANCH  28  29
ENDBRANCH  27  28
ENDBRANCH  26  27
ENDBRANCH  25  26
ENDBRANCH  24  25
ENDBRANCH  23  24
ENDBRANCH  22  23
ENDBRANCH  21  22
ENDBRANCH  20  21
ENDBRANCH  19  20
ENDBRANCH  18  19
ENDBRANCH   1  18
TORSDOF 28
ENDMDL
MODEL 8
REMARK VINA RESULT:    -4.785      2.272      8.724
REMARK INTER + INTRA:         -16.280
REMARK INTER:                 -12.339
REMARK INTRA:                  -3.942
REMARK UNBOUND:                -3.662
REMARK SMILES CCCCCCCCCCCCCCCCCCCCCCCCCCCCCC(=O)[O-]
REMARK SMILES IDX 16 1 17 2 18 3 19 4 20 5 21 6 22 7 23 8 24 9 25 10 26 11
REMARK SMILES IDX 27 12 28 13 29 14 30 15 31 16 32 17 15 18 14 19 13 20 12 21
REMARK SMILES IDX 11 22 10 23 9 24 8 25 7 26 6 27 5 28 4 29 3 30 2 31 1 32
REMARK H PARENT
REMARK Flexibility Score: inf
ROOT
ATOM      1  C   UNL     1      39.255  53.376  61.567  1.00  0.00     0.000 C 
ENDROOT
BRANCH   1   2
ATOM      2  C   UNL     1      37.754  53.365  61.251  1.00  0.00     0.000 C 
BRANCH   2   3
ATOM      3  C   UNL     1      37.496  53.810  59.805  1.00  0.00     0.000 C 
BRANCH   3   4
ATOM      4  C   UNL     1      36.363  54.845  59.689  1.00  0.00     0.000 C 
BRANCH   4   5
ATOM      5  C   UNL     1      36.772  56.302  59.991  1.00  0.00     0.000 C 
BRANCH   5   6
ATOM      6  C   UNL     1      38.136  56.739  59.426  1.00  0.00     0.000 C 
BRANCH   6   7
ATOM      7  C   UNL     1      39.203  56.948  60.512  1.00  0.00     0.000 C 
BRANCH   7   8
ATOM      8  C   UNL     1      40.397  57.790  60.024  1.00  0.00     0.000 C 
BRANCH   8   9
ATOM      9  C   UNL     1      40.532  57.863  58.488  1.00  0.00     0.000 C 
BRANCH   9  10
ATOM     10  C   UNL     1      41.735  58.716  58.046  1.00  0.00     0.000 C 
BRANCH  10  11
ATOM     11  C   UNL     1      41.325  59.926  57.190  1.00  0.00     0.000 C 
BRANCH  11  12
ATOM     12  C   UNL     1      41.524  61.263  57.917  1.00  0.00     0.000 C 
BRANCH  12  13
ATOM     13  C   UNL     1      40.762  62.390  57.209  1.00  0.00     0.006 C 
BRANCH  13  14
ATOM     14  C   UNL     1      41.378  62.699  55.838  1.00  0.00     0.053 C 
BRANCH  14  15
ATOM     15  C   UNL     1      40.434  62.353  54.726  1.00  0.00     0.041 C 
ATOM     16  O   UNL     1      39.362  61.736  54.971  1.00  0.00    -0.550 OA
ATOM     17  O   UNL     1      40.723  62.743  53.424  1.00  0.00    -0.550 OA
ENDBRANCH  14  15
ENDBRANCH  13  14
ENDBRANCH  12  13
ENDBRANCH  11  12
ENDBRANCH  10  11
ENDBRANCH   9  10
ENDBRANCH   8   9
ENDBRANCH   7   8
ENDBRANCH   6   7
ENDBRANCH   5   6
ENDBRANCH   4   5
ENDBRANCH   3   4
ENDBRANCH   2   3
ENDBRANCH   1   2
BRANCH   1  18
ATOM     18  C   UNL     1      40.074  53.844  60.355  1.00  0.00     0.000 C 
BRANCH  18  19
ATOM     19  C   UNL     1      41.566  54.021  60.682  1.00  0.00     0.000 C 
BRANCH  19  20
ATOM     20  C   UNL     1      42.314  54.835  59.615  1.00  0.00     0.000 C 
BRANCH  20  21
ATOM     21  C   UNL     1      43.485  55.608  60.234  1.00  0.00     0.000 C 
BRANCH  21  22
ATOM     22  C   UNL     1      44.054  56.633  59.239  1.00  0.00     0.000 C 
BRANCH  22  23
ATOM     23  C   UNL     1      44.610  57.887  59.933  1.00  0.00     0.000 C 
BRANCH  23  24
ATOM     24  C   UNL     1      46.066  58.185  59.535  1.00  0.00    -0.000 C 
BRANCH  24  25
ATOM     25  C   UNL     1      46.173  59.164  58.354  1.00  0.00    -0.000 C 
BRANCH  25  26
ATOM     26  C   UNL     1      45.111  60.281  58.328  1.00  0.00    -0.000 C 
BRANCH  26  27
ATOM     27  C   UNL     1      45.649  61.669  58.739  1.00  0.00    -0.000 C 
BRANCH  27  28
ATOM     28  C   UNL     1      45.344  62.009  60.209  1.00  0.00    -0.000 C 
BRANCH  28  29
ATOM     29  C   UNL     1      43.853  62.338  60.434  1.00  0.00    -0.000 C 
BRANCH  29  30
ATOM     30  C   UNL     1      43.202  61.505  61.550  1.00  0.00    -0.000 C 
BRANCH  30  31
ATOM     31  C   UNL     1      44.149  60.446  62.132  1.00  0.00    -0.003 C 
ATOM     32  C   UNL     1      43.800  60.137  63.585  1.00  0.00     0.004 C 
ENDBRANCH  30  31
ENDBRANCH  29  30
ENDBRANCH  28  29
ENDBRANCH  27  28
ENDBRANCH  26  27
ENDBRANCH  25  26
ENDBRANCH  24  25
ENDBRANCH  23  24
ENDBRANCH  22  23
ENDBRANCH  21  22
ENDBRANCH  20  21
ENDBRANCH  19  20
ENDBRANCH  18  19
ENDBRANCH   1  18
TORSDOF 28
ENDMDL
MODEL 9
REMARK VINA RESULT:    -4.706      1.261      2.770
REMARK INTER + INTRA:         -16.072
REMARK INTER:                 -12.533
REMARK INTRA:                  -3.539
REMARK UNBOUND:                -3.662
REMARK SMILES CCCCCCCCCCCCCCCCCCCCCCCCCCCCCC(=O)[O-]
REMARK SMILES IDX 16 1 17 2 18 3 19 4 20 5 21 6 22 7 23 8 24 9 25 10 26 11
REMARK SMILES IDX 27 12 28 13 29 14 30 15 31 16 32 17 15 18 14 19 13 20 12 21
REMARK SMILES IDX 11 22 10 23 9 24 8 25 7 26 6 27 5 28 4 29 3 30 2 31 1 32
REMARK H PARENT
REMARK Flexibility Score: inf
ROOT
ATOM      1  C   UNL     1      44.962  57.590  58.698  1.00  0.00     0.000 C 
ENDROOT
BRANCH   1   2
ATOM      2  C   UNL     1      46.230  58.452  58.713  1.00  0.00     0.000 C 
BRANCH   2   3
ATOM      3  C   UNL     1      45.928  59.878  58.232  1.00  0.00     0.000 C 
BRANCH   3   4
ATOM      4  C   UNL     1      46.994  60.897  58.670  1.00  0.00     0.000 C 
BRANCH   4   5
ATOM      5  C   UNL     1      46.451  62.288  59.058  1.00  0.00     0.000 C 
BRANCH   5   6
ATOM      6  C   UNL     1      46.610  62.673  60.541  1.00  0.00     0.000 C 
BRANCH   6   7
ATOM      7  C   UNL     1      46.526  61.468  61.491  1.00  0.00     0.000 C 
BRANCH   7   8
ATOM      8  C   UNL     1      45.149  61.335  62.169  1.00  0.00     0.000 C 
BRANCH   8   9
ATOM      9  C   UNL     1      44.068  60.688  61.279  1.00  0.00     0.000 C 
BRANCH   9  10
ATOM     10  C   UNL     1      42.828  61.587  61.116  1.00  0.00     0.000 C 
BRANCH  10  11
ATOM     11  C   UNL     1      43.136  62.897  60.373  1.00  0.00     0.000 C 
BRANCH  11  12
ATOM     12  C   UNL     1      42.219  63.125  59.164  1.00  0.00     0.000 C 
BRANCH  12  13
ATOM     13  C   UNL     1      42.134  61.863  58.294  1.00  0.00     0.006 C 
BRANCH  13  14
ATOM     14  C   UNL     1      41.546  62.181  56.913  1.00  0.00     0.053 C 
BRANCH  14  15
ATOM     15  C   UNL     1      40.506  61.175  56.520  1.00  0.00     0.041 C 
ATOM     16  O   UNL     1      40.184  60.250  57.313  1.00  0.00    -0.550 OA
ATOM     17  O   UNL     1      39.868  61.282  55.290  1.00  0.00    -0.550 OA
ENDBRANCH  14  15
ENDBRANCH  13  14
ENDBRANCH  12  13
ENDBRANCH  11  12
ENDBRANCH  10  11
ENDBRANCH   9  10
ENDBRANCH   8   9
ENDBRANCH   7   8
ENDBRANCH   6   7
ENDBRANCH   5   6
ENDBRANCH   4   5
ENDBRANCH   3   4
ENDBRANCH   2   3
ENDBRANCH   1   2
BRANCH   1  18
ATOM     18  C   UNL     1      43.703  58.457  58.548  1.00  0.00     0.000 C 
BRANCH  18  19
ATOM     19  C   UNL     1      42.488  57.655  58.051  1.00  0.00     0.000 C 
BRANCH  19  20
ATOM     20  C   UNL     1      41.370  57.563  59.101  1.00  0.00     0.000 C 
BRANCH  20  21
ATOM     21  C   UNL     1      41.766  56.621  60.245  1.00  0.00     0.000 C 
BRANCH  21  22
ATOM     22  C   UNL     1      42.288  55.282  59.699  1.00  0.00     0.000 C 
BRANCH  22  23
ATOM     23  C   UNL     1      41.278  54.136  59.876  1.00  0.00     0.000 C 
BRANCH  23  24
ATOM     24  C   UNL     1      40.226  54.438  60.957  1.00  0.00    -0.000 C 
BRANCH  24  25
ATOM     25  C   UNL     1      38.821  54.660  60.374  1.00  0.00    -0.000 C 
BRANCH  25  26
ATOM     26  C   UNL     1      38.223  56.061  60.613  1.00  0.00    -0.000 C 
BRANCH  26  27
ATOM     27  C   UNL     1      36.744  56.194  60.192  1.00  0.00    -0.000 C 
BRANCH  27  28
ATOM     28  C   UNL     1      36.478  55.629  58.785  1.00  0.00    -0.000 C 
BRANCH  28  29
ATOM     29  C   UNL     1      35.509  54.428  58.814  1.00  0.00    -0.000 C 
BRANCH  29  30
ATOM     30  C   UNL     1      36.221  53.065  58.802  1.00  0.00    -0.000 C 
BRANCH  30  31
ATOM     31  C   UNL     1      35.427  51.984  58.057  1.00  0.00    -0.003 C 
ATOM     32  C   UNL     1      33.933  52.298  58.061  1.00  0.00     0.004 C 
ENDBRANCH  30  31
ENDBRANCH  29  30
ENDBRANCH  28  29
ENDBRANCH  27  28
ENDBRANCH  26  27
ENDBRANCH  25  26
ENDBRANCH  24  25
ENDBRANCH  23  24
ENDBRANCH  22  23
ENDBRANCH  21  22
ENDBRANCH  20  21
ENDBRANCH  19  20
ENDBRANCH  18  19
ENDBRANCH   1  18
TORSDOF 28
ENDMDL
