MODEL 1
REMARK VINA RESULT:    -6.930      0.000      0.000
REMARK INTER + INTRA:         -11.714
REMARK INTER:                  -9.361
REMARK INTRA:                  -2.353
REMARK UNBOUND:                -2.353
REMARK SMILES CC[C@H](CC[C@H](C)[C@@H]1CC[C@@H]2[C@@H]3CC(=O)C4=CC(=O)CC[C@@]4(C)[C@@H]3CC[C@@]21C)C(C)C
REMARK SMILES IDX 4 1 3 2 2 3 1 4 29 5 30 6 31 7 5 8 6 9 7 10 8 11 9 12 27 13
REMARK SMILES IDX 10 14 11 15 26 16 28 17 12 18 25 19 24 20 13 21 22 22 14 23
REMARK SMILES IDX 16 24 21 25 23 26 15 27 17 28 20 29 18 30 19 31
REMARK H PARENT
REMARK Flexibility Score: inf
ROOT
ATOM      1  C   UNL     1      13.863 -20.616 -20.753  1.00  0.00     0.004 C 
ENDROOT
BRANCH   1   2
ATOM      2  C   UNL     1      13.712 -19.055 -20.670  1.00  0.00    -0.009 C 
BRANCH   2   3
ATOM      3  C   UNL     1      12.239 -18.643 -20.361  1.00  0.00     0.000 C 
ATOM      4  C   UNL     1      11.527 -17.945 -21.528  1.00  0.00     0.004 C 
ENDBRANCH   2   3
BRANCH   2   5
ATOM      5  C   UNL     1      14.801 -18.371 -19.758  1.00  0.00    -0.014 C 
ATOM      6  C   UNL     1      15.742 -17.461 -20.575  1.00  0.00     0.007 C 
ATOM      7  C   UNL     1      14.203 -17.530 -18.619  1.00  0.00     0.007 C 
ENDBRANCH   2   5
ENDBRANCH   1   2
BRANCH   1   8
ATOM      8  C   UNL     1      15.201 -21.229 -21.252  1.00  0.00     0.004 C 
BRANCH   8   9
ATOM      9  C   UNL     1      15.187 -21.872 -22.658  1.00  0.00    -0.011 C 
ATOM     10  C   UNL     1      15.883 -23.251 -22.647  1.00  0.00     0.008 C 
BRANCH   9  11
ATOM     11  C   UNL     1      15.641 -20.861 -23.776  1.00  0.00    -0.002 C 
ATOM     12  C   UNL     1      16.464 -19.692 -23.240  1.00  0.00     0.005 C 
ATOM     13  C   UNL     1      14.646 -20.226 -24.812  1.00  0.00    -0.026 C 
ATOM     14  C   UNL     1      16.674 -18.796 -24.442  1.00  0.00     0.005 C 
ATOM     15  C   UNL     1      15.401 -18.931 -25.296  1.00  0.00    -0.001 C 
ATOM     16  C   UNL     1      13.267 -19.881 -24.189  1.00  0.00     0.007 C 
ATOM     17  C   UNL     1      14.430 -21.194 -26.009  1.00  0.00     0.012 C 
ATOM     18  C   UNL     1      14.541 -17.627 -25.386  1.00  0.00     0.004 C 
ATOM     19  C   UNL     1      12.384 -18.919 -25.017  1.00  0.00     0.005 C 
ATOM     20  C   UNL     1      13.153 -17.967 -25.981  1.00  0.00     0.003 C 
ATOM     21  C   UNL     1      14.404 -16.800 -24.074  1.00  0.00     0.085 C 
ATOM     22  C   UNL     1      12.355 -16.662 -26.407  1.00  0.00    -0.000 C 
ATOM     23  C   UNL     1      13.299 -15.783 -24.151  1.00  0.00     0.159 C 
ATOM     24  C   UNL     1      12.629 -15.513 -25.439  1.00  0.00     0.005 C 
ATOM     25  C   UNL     1      12.821 -16.216 -27.829  1.00  0.00     0.020 C 
ATOM     26  C   UNL     1      10.824 -16.931 -26.455  1.00  0.00     0.017 C 
ATOM     27  O   UNL     1      13.007 -15.107 -23.128  1.00  0.00    -0.295 OA
ATOM     28  C   UNL     1      12.391 -14.240 -25.800  1.00  0.00     0.055 C 
ATOM     29  C   UNL     1      12.166 -14.902 -28.299  1.00  0.00     0.081 C 
ATOM     30  C   UNL     1      12.061 -13.889 -27.191  1.00  0.00     0.156 C 
ATOM     31  O   UNL     1      11.705 -12.711 -27.463  1.00  0.00    -0.295 OA
ENDBRANCH   9  11
ENDBRANCH   8   9
ENDBRANCH   1   8
TORSDOF 6
ENDMDL
MODEL 2
REMARK VINA RESULT:    -6.744      1.574      1.925
REMARK INTER + INTRA:         -11.462
REMARK INTER:                  -9.938
REMARK INTRA:                  -1.524
REMARK UNBOUND:                -2.353
REMARK SMILES CC[C@H](CC[C@H](C)[C@@H]1CC[C@@H]2[C@@H]3CC(=O)C4=CC(=O)CC[C@@]4(C)[C@@H]3CC[C@@]21C)C(C)C
REMARK SMILES IDX 4 1 3 2 2 3 1 4 29 5 30 6 31 7 5 8 6 9 7 10 8 11 9 12 27 13
REMARK SMILES IDX 10 14 11 15 26 16 28 17 12 18 25 19 24 20 13 21 22 22 14 23
REMARK SMILES IDX 16 24 21 25 23 26 15 27 17 28 20 29 18 30 19 31
REMARK H PARENT
REMARK Flexibility Score: inf
ROOT
ATOM      1  C   UNL     1      14.227 -19.556 -19.936  1.00  0.00     0.004 C 
ENDROOT
BRANCH   1   2
ATOM      2  C   UNL     1      14.055 -18.042 -19.558  1.00  0.00    -0.009 C 
BRANCH   2   3
ATOM      3  C   UNL     1      12.550 -17.629 -19.534  1.00  0.00     0.000 C 
ATOM      4  C   UNL     1      11.627 -18.588 -20.298  1.00  0.00     0.004 C 
ENDBRANCH   2   3
BRANCH   2   5
ATOM      5  C   UNL     1      14.882 -17.620 -18.284  1.00  0.00    -0.014 C 
ATOM      6  C   UNL     1      14.720 -18.636 -17.133  1.00  0.00     0.007 C 
ATOM      7  C   UNL     1      16.386 -17.456 -18.559  1.00  0.00     0.007 C 
ENDBRANCH   2   5
ENDBRANCH   1   2
BRANCH   1   8
ATOM      8  C   UNL     1      15.333 -19.971 -20.947  1.00  0.00     0.004 C 
BRANCH   8   9
ATOM      9  C   UNL     1      14.876 -20.793 -22.174  1.00  0.00    -0.011 C 
ATOM     10  C   UNL     1      15.214 -22.291 -21.997  1.00  0.00     0.008 C 
BRANCH   9  11
ATOM     11  C   UNL     1      15.316 -20.127 -23.531  1.00  0.00    -0.002 C 
ATOM     12  C   UNL     1      16.671 -19.428 -23.453  1.00  0.00     0.005 C 
ATOM     13  C   UNL     1      14.393 -19.151 -24.343  1.00  0.00    -0.026 C 
ATOM     14  C   UNL     1      16.829 -18.759 -24.802  1.00  0.00     0.005 C 
ATOM     15  C   UNL     1      15.411 -18.343 -25.233  1.00  0.00    -0.001 C 
ATOM     16  C   UNL     1      13.562 -18.209 -23.433  1.00  0.00     0.007 C 
ATOM     17  C   UNL     1      13.423 -19.960 -25.249  1.00  0.00     0.012 C 
ATOM     18  C   UNL     1      15.185 -16.796 -25.304  1.00  0.00     0.004 C 
ATOM     19  C   UNL     1      12.936 -16.983 -24.136  1.00  0.00     0.005 C 
ATOM     20  C   UNL     1      13.669 -16.503 -25.424  1.00  0.00     0.003 C 
ATOM     21  C   UNL     1      15.833 -15.952 -24.169  1.00  0.00     0.085 C 
ATOM     22  C   UNL     1      13.387 -14.995 -25.831  1.00  0.00    -0.000 C 
ATOM     23  C   UNL     1      15.284 -14.553 -24.111  1.00  0.00     0.159 C 
ATOM     24  C   UNL     1      14.407 -14.056 -25.189  1.00  0.00     0.005 C 
ATOM     25  C   UNL     1      13.506 -14.849 -27.381  1.00  0.00     0.020 C 
ATOM     26  C   UNL     1      11.956 -14.557 -25.406  1.00  0.00     0.017 C 
ATOM     27  O   UNL     1      15.645 -13.784 -23.179  1.00  0.00    -0.295 OA
ATOM     28  C   UNL     1      14.609 -12.822 -25.683  1.00  0.00     0.055 C 
ATOM     29  C   UNL     1      13.335 -13.397 -27.870  1.00  0.00     0.081 C 
ATOM     30  C   UNL     1      14.021 -12.407 -26.968  1.00  0.00     0.156 C 
ATOM     31  O   UNL     1      14.113 -11.203 -27.329  1.00  0.00    -0.295 OA
ENDBRANCH   9  11
ENDBRANCH   8   9
ENDBRANCH   1   8
TORSDOF 6
ENDMDL
MODEL 3
REMARK VINA RESULT:    -6.655      3.847      7.722
REMARK INTER + INTRA:         -11.342
REMARK INTER:                  -9.873
REMARK INTRA:                  -1.469
REMARK UNBOUND:                -2.353
REMARK SMILES CC[C@H](CC[C@H](C)[C@@H]1CC[C@@H]2[C@@H]3CC(=O)C4=CC(=O)CC[C@@]4(C)[C@@H]3CC[C@@]21C)C(C)C
REMARK SMILES IDX 4 1 3 2 2 3 1 4 29 5 30 6 31 7 5 8 6 9 7 10 8 11 9 12 27 13
REMARK SMILES IDX 10 14 11 15 26 16 28 17 12 18 25 19 24 20 13 21 22 22 14 23
REMARK SMILES IDX 16 24 21 25 23 26 15 27 17 28 20 29 18 30 19 31
REMARK H PARENT
REMARK Flexibility Score: inf
ROOT
ATOM      1  C   UNL     1      10.650 -17.589 -22.356  1.00  0.00     0.004 C 
ENDROOT
BRANCH   1   2
ATOM      2  C   UNL     1       9.388 -17.824 -23.260  1.00  0.00    -0.009 C 
BRANCH   2   3
ATOM      3  C   UNL     1       9.776 -18.501 -24.612  1.00  0.00     0.000 C 
ATOM      4  C   UNL     1      10.500 -17.568 -25.593  1.00  0.00     0.004 C 
ENDBRANCH   2   3
BRANCH   2   5
ATOM      5  C   UNL     1       8.191 -18.506 -22.493  1.00  0.00    -0.014 C 
ATOM      6  C   UNL     1       7.644 -19.730 -23.257  1.00  0.00     0.007 C 
ATOM      7  C   UNL     1       8.558 -18.963 -21.071  1.00  0.00     0.007 C 
ENDBRANCH   2   5
ENDBRANCH   1   2
BRANCH   1   8
ATOM      8  C   UNL     1      11.868 -18.548 -22.478  1.00  0.00     0.004 C 
BRANCH   8   9
ATOM      9  C   UNL     1      13.196 -17.922 -22.960  1.00  0.00    -0.011 C 
ATOM     10  C   UNL     1      13.046 -16.401 -23.186  1.00  0.00     0.008 C 
BRANCH   9  11
ATOM     11  C   UNL     1      13.850 -18.747 -24.130  1.00  0.00    -0.002 C 
ATOM     12  C   UNL     1      13.069 -20.009 -24.493  1.00  0.00     0.005 C 
ATOM     13  C   UNL     1      15.360 -19.179 -24.133  1.00  0.00    -0.026 C 
ATOM     14  C   UNL     1      13.932 -20.702 -25.527  1.00  0.00     0.005 C 
ATOM     15  C   UNL     1      15.388 -20.396 -25.133  1.00  0.00    -0.001 C 
ATOM     16  C   UNL     1      15.873 -19.587 -22.727  1.00  0.00     0.007 C 
ATOM     17  C   UNL     1      16.246 -18.025 -24.678  1.00  0.00     0.012 C 
ATOM     18  C   UNL     1      16.208 -21.647 -24.671  1.00  0.00     0.004 C 
ATOM     19  C   UNL     1      17.201 -20.378 -22.706  1.00  0.00     0.005 C 
ATOM     20  C   UNL     1      17.524 -21.180 -24.002  1.00  0.00     0.003 C 
ATOM     21  C   UNL     1      15.455 -22.672 -23.775  1.00  0.00     0.085 C 
ATOM     22  C   UNL     1      18.548 -22.376 -23.809  1.00  0.00    -0.000 C 
ATOM     23  C   UNL     1      16.390 -23.635 -23.097  1.00  0.00     0.159 C 
ATOM     24  C   UNL     1      17.816 -23.675 -23.476  1.00  0.00     0.005 C 
ATOM     25  C   UNL     1      19.339 -22.596 -25.138  1.00  0.00     0.020 C 
ATOM     26  C   UNL     1      19.570 -22.065 -22.678  1.00  0.00     0.017 C 
ATOM     27  O   UNL     1      15.930 -24.462 -22.263  1.00  0.00    -0.295 OA
ATOM     28  C   UNL     1      18.415 -24.865 -23.653  1.00  0.00     0.055 C 
ATOM     29  C   UNL     1      20.301 -23.799 -25.082  1.00  0.00     0.081 C 
ATOM     30  C   UNL     1      19.702 -24.976 -24.361  1.00  0.00     0.156 C 
ATOM     31  O   UNL     1      20.300 -26.085 -24.383  1.00  0.00    -0.295 OA
ENDBRANCH   9  11
ENDBRANCH   8   9
ENDBRANCH   1   8
TORSDOF 6
ENDMDL
MODEL 4
REMARK VINA RESULT:    -6.620      2.529      6.867
REMARK INTER + INTRA:         -11.294
REMARK INTER:                  -9.161
REMARK INTRA:                  -2.133
REMARK UNBOUND:                -2.353
REMARK SMILES CC[C@H](CC[C@H](C)[C@@H]1CC[C@@H]2[C@@H]3CC(=O)C4=CC(=O)CC[C@@]4(C)[C@@H]3CC[C@@]21C)C(C)C
REMARK SMILES IDX 4 1 3 2 2 3 1 4 29 5 30 6 31 7 5 8 6 9 7 10 8 11 9 12 27 13
REMARK SMILES IDX 10 14 11 15 26 16 28 17 12 18 25 19 24 20 13 21 22 22 14 23
REMARK SMILES IDX 16 24 21 25 23 26 15 27 17 28 20 29 18 30 19 31
REMARK H PARENT
REMARK Flexibility Score: inf
ROOT
ATOM      1  C   UNL     1      15.365 -17.504 -28.072  1.00  0.00     0.004 C 
ENDROOT
BRANCH   1   2
ATOM      2  C   UNL     1      16.203 -17.577 -26.747  1.00  0.00    -0.009 C 
BRANCH   2   3
ATOM      3  C   UNL     1      16.522 -19.053 -26.357  1.00  0.00     0.000 C 
ATOM      4  C   UNL     1      16.109 -20.084 -27.417  1.00  0.00     0.004 C 
ENDBRANCH   2   3
BRANCH   2   5
ATOM      5  C   UNL     1      17.443 -16.602 -26.739  1.00  0.00    -0.014 C 
ATOM      6  C   UNL     1      17.228 -15.409 -25.783  1.00  0.00     0.007 C 
ATOM      7  C   UNL     1      18.759 -17.292 -26.343  1.00  0.00     0.007 C 
ENDBRANCH   2   5
ENDBRANCH   1   2
BRANCH   1   8
ATOM      8  C   UNL     1      14.441 -16.279 -28.327  1.00  0.00     0.004 C 
BRANCH   8   9
ATOM      9  C   UNL     1      12.952 -16.445 -27.949  1.00  0.00    -0.011 C 
ATOM     10  C   UNL     1      12.031 -16.050 -29.125  1.00  0.00     0.008 C 
BRANCH   9  11
ATOM     11  C   UNL     1      12.621 -15.804 -26.549  1.00  0.00    -0.002 C 
ATOM     12  C   UNL     1      13.636 -14.753 -26.107  1.00  0.00     0.005 C 
ATOM     13  C   UNL     1      12.326 -16.660 -25.265  1.00  0.00    -0.026 C 
ATOM     14  C   UNL     1      13.204 -14.376 -24.706  1.00  0.00     0.005 C 
ATOM     15  C   UNL     1      12.624 -15.660 -24.085  1.00  0.00    -0.001 C 
ATOM     16  C   UNL     1      13.211 -17.930 -25.170  1.00  0.00     0.007 C 
ATOM     17  C   UNL     1      10.831 -17.084 -25.236  1.00  0.00     0.012 C 
ATOM     18  C   UNL     1      13.457 -16.234 -22.891  1.00  0.00     0.004 C 
ATOM     19  C   UNL     1      13.261 -18.606 -23.781  1.00  0.00     0.005 C 
ATOM     20  C   UNL     1      12.974 -17.669 -22.570  1.00  0.00     0.003 C 
ATOM     21  C   UNL     1      15.005 -16.183 -23.044  1.00  0.00     0.085 C 
ATOM     22  C   UNL     1      13.534 -18.186 -21.178  1.00  0.00    -0.000 C 
ATOM     23  C   UNL     1      15.709 -17.056 -22.042  1.00  0.00     0.159 C 
ATOM     24  C   UNL     1      14.951 -17.670 -20.933  1.00  0.00     0.005 C 
ATOM     25  C   UNL     1      12.623 -17.654 -20.027  1.00  0.00     0.020 C 
ATOM     26  C   UNL     1      13.542 -19.740 -21.118  1.00  0.00     0.017 C 
ATOM     27  O   UNL     1      16.961 -17.191 -22.109  1.00  0.00    -0.295 OA
ATOM     28  C   UNL     1      15.468 -17.646 -19.693  1.00  0.00     0.055 C 
ATOM     29  C   UNL     1      13.135 -18.029 -18.622  1.00  0.00     0.081 C 
ATOM     30  C   UNL     1      14.631 -17.912 -18.511  1.00  0.00     0.156 C 
ATOM     31  O   UNL     1      15.177 -18.021 -17.380  1.00  0.00    -0.295 OA
ENDBRANCH   9  11
ENDBRANCH   8   9
ENDBRANCH   1   8
TORSDOF 6
ENDMDL
MODEL 5
REMARK VINA RESULT:    -6.581      3.026      6.569
REMARK INTER + INTRA:         -11.242
REMARK INTER:                  -8.593
REMARK INTRA:                  -2.649
REMARK UNBOUND:                -2.353
REMARK SMILES CC[C@H](CC[C@H](C)[C@@H]1CC[C@@H]2[C@@H]3CC(=O)C4=CC(=O)CC[C@@]4(C)[C@@H]3CC[C@@]21C)C(C)C
REMARK SMILES IDX 4 1 3 2 2 3 1 4 29 5 30 6 31 7 5 8 6 9 7 10 8 11 9 12 27 13
REMARK SMILES IDX 10 14 11 15 26 16 28 17 12 18 25 19 24 20 13 21 22 22 14 23
REMARK SMILES IDX 16 24 21 25 23 26 15 27 17 28 20 29 18 30 19 31
REMARK H PARENT
REMARK Flexibility Score: inf
ROOT
ATOM      1  C   UNL     1      18.207 -20.683 -27.668  1.00  0.00     0.004 C 
ENDROOT
BRANCH   1   2
ATOM      2  C   UNL     1      17.850 -19.383 -26.864  1.00  0.00    -0.009 C 
BRANCH   2   3
ATOM      3  C   UNL     1      18.909 -18.261 -27.097  1.00  0.00     0.000 C 
ATOM      4  C   UNL     1      20.139 -18.363 -26.184  1.00  0.00     0.004 C 
ENDBRANCH   2   3
BRANCH   2   5
ATOM      5  C   UNL     1      16.350 -18.931 -27.044  1.00  0.00    -0.014 C 
ATOM      6  C   UNL     1      15.377 -20.126 -26.952  1.00  0.00     0.007 C 
ATOM      7  C   UNL     1      15.902 -17.878 -26.017  1.00  0.00     0.007 C 
ENDBRANCH   2   5
ENDBRANCH   1   2
BRANCH   1   8
ATOM      8  C   UNL     1      18.544 -21.991 -26.897  1.00  0.00     0.004 C 
BRANCH   8   9
ATOM      9  C   UNL     1      19.205 -21.825 -25.509  1.00  0.00    -0.011 C 
ATOM     10  C   UNL     1      20.631 -22.422 -25.496  1.00  0.00     0.008 C 
BRANCH   9  11
ATOM     11  C   UNL     1      18.247 -22.264 -24.340  1.00  0.00    -0.002 C 
ATOM     12  C   UNL     1      16.904 -22.805 -24.827  1.00  0.00     0.005 C 
ATOM     13  C   UNL     1      17.901 -21.335 -23.122  1.00  0.00    -0.026 C 
ATOM     14  C   UNL     1      16.108 -23.036 -23.559  1.00  0.00     0.005 C 
ATOM     15  C   UNL     1      16.549 -21.933 -22.580  1.00  0.00    -0.001 C 
ATOM     16  C   UNL     1      17.742 -19.846 -23.526  1.00  0.00     0.007 C 
ATOM     17  C   UNL     1      19.005 -21.447 -22.033  1.00  0.00     0.012 C 
ATOM     18  C   UNL     1      15.430 -20.896 -22.228  1.00  0.00     0.004 C 
ATOM     19  C   UNL     1      17.037 -18.945 -22.486  1.00  0.00     0.005 C 
ATOM     20  C   UNL     1      16.065 -19.678 -21.515  1.00  0.00     0.003 C 
ATOM     21  C   UNL     1      14.515 -20.446 -23.404  1.00  0.00     0.085 C 
ATOM     22  C   UNL     1      14.969 -18.750 -20.840  1.00  0.00    -0.000 C 
ATOM     23  C   UNL     1      13.719 -19.214 -23.070  1.00  0.00     0.159 C 
ATOM     24  C   UNL     1      13.699 -18.697 -21.687  1.00  0.00     0.005 C 
ATOM     25  C   UNL     1      14.591 -19.332 -19.441  1.00  0.00     0.020 C 
ATOM     26  C   UNL     1      15.505 -17.303 -20.639  1.00  0.00     0.017 C 
ATOM     27  O   UNL     1      13.006 -18.677 -23.961  1.00  0.00    -0.295 OA
ATOM     28  C   UNL     1      12.530 -18.311 -21.148  1.00  0.00     0.055 C 
ATOM     29  C   UNL     1      13.464 -18.548 -18.739  1.00  0.00     0.081 C 
ATOM     30  C   UNL     1      12.381 -18.127 -19.695  1.00  0.00     0.156 C 
ATOM     31  O   UNL     1      11.316 -17.629 -19.241  1.00  0.00    -0.295 OA
ENDBRANCH   9  11
ENDBRANCH   8   9
ENDBRANCH   1   8
TORSDOF 6
ENDMDL
MODEL 6
REMARK VINA RESULT:    -6.560      3.752      6.396
REMARK INTER + INTRA:         -11.214
REMARK INTER:                  -9.904
REMARK INTRA:                  -1.310
REMARK UNBOUND:                -2.353
REMARK SMILES CC[C@H](CC[C@H](C)[C@@H]1CC[C@@H]2[C@@H]3CC(=O)C4=CC(=O)CC[C@@]4(C)[C@@H]3CC[C@@]21C)C(C)C
REMARK SMILES IDX 4 1 3 2 2 3 1 4 29 5 30 6 31 7 5 8 6 9 7 10 8 11 9 12 27 13
REMARK SMILES IDX 10 14 11 15 26 16 28 17 12 18 25 19 24 20 13 21 22 22 14 23
REMARK SMILES IDX 16 24 21 25 23 26 15 27 17 28 20 29 18 30 19 31
REMARK H PARENT
REMARK Flexibility Score: inf
ROOT
ATOM      1  C   UNL     1      19.851 -24.083 -24.740  1.00  0.00     0.004 C 
ENDROOT
BRANCH   1   2
ATOM      2  C   UNL     1      19.192 -24.311 -23.333  1.00  0.00    -0.009 C 
BRANCH   2   3
ATOM      3  C   UNL     1      18.074 -25.397 -23.398  1.00  0.00     0.000 C 
ATOM      4  C   UNL     1      16.747 -24.967 -22.757  1.00  0.00     0.004 C 
ENDBRANCH   2   3
BRANCH   2   5
ATOM      5  C   UNL     1      20.246 -24.507 -22.177  1.00  0.00    -0.014 C 
ATOM      6  C   UNL     1      20.260 -23.308 -21.205  1.00  0.00     0.007 C 
ATOM      7  C   UNL     1      20.014 -25.782 -21.349  1.00  0.00     0.007 C 
ENDBRANCH   2   5
ENDBRANCH   1   2
BRANCH   1   8
ATOM      8  C   UNL     1      19.170 -23.124 -25.757  1.00  0.00     0.004 C 
BRANCH   8   9
ATOM      9  C   UNL     1      19.750 -21.695 -25.857  1.00  0.00    -0.011 C 
ATOM     10  C   UNL     1      20.896 -21.487 -24.841  1.00  0.00     0.008 C 
BRANCH   9  11
ATOM     11  C   UNL     1      18.622 -20.598 -25.882  1.00  0.00    -0.002 C 
ATOM     12  C   UNL     1      19.129 -19.197 -25.546  1.00  0.00     0.005 C 
ATOM     13  C   UNL     1      17.267 -20.746 -25.101  1.00  0.00    -0.026 C 
ATOM     14  C   UNL     1      17.879 -18.344 -25.499  1.00  0.00     0.005 C 
ATOM     15  C   UNL     1      16.766 -19.259 -24.958  1.00  0.00    -0.001 C 
ATOM     16  C   UNL     1      17.440 -21.423 -23.717  1.00  0.00     0.007 C 
ATOM     17  C   UNL     1      16.252 -21.569 -25.942  1.00  0.00     0.012 C 
ATOM     18  C   UNL     1      16.221 -18.851 -23.548  1.00  0.00     0.004 C 
ATOM     19  C   UNL     1      16.252 -21.260 -22.741  1.00  0.00     0.005 C 
ATOM     20  C   UNL     1      15.362 -20.004 -22.976  1.00  0.00     0.003 C 
ATOM     21  C   UNL     1      17.280 -18.371 -22.514  1.00  0.00     0.085 C 
ATOM     22  C   UNL     1      14.514 -19.542 -21.716  1.00  0.00    -0.000 C 
ATOM     23  C   UNL     1      16.737 -18.340 -21.112  1.00  0.00     0.159 C 
ATOM     24  C   UNL     1      15.293 -18.535 -20.872  1.00  0.00     0.005 C 
ATOM     25  C   UNL     1      13.202 -18.848 -22.204  1.00  0.00     0.020 C 
ATOM     26  C   UNL     1      14.123 -20.756 -20.826  1.00  0.00     0.017 C 
ATOM     27  O   UNL     1      17.509 -18.064 -20.154  1.00  0.00    -0.295 OA
ATOM     28  C   UNL     1      14.657 -17.729 -20.005  1.00  0.00     0.055 C 
ATOM     29  C   UNL     1      12.348 -18.282 -21.052  1.00  0.00     0.081 C 
ATOM     30  C   UNL     1      13.188 -17.635 -19.984  1.00  0.00     0.156 C 
ATOM     31  O   UNL     1      12.623 -16.980 -19.067  1.00  0.00    -0.295 OA
ENDBRANCH   9  11
ENDBRANCH   8   9
ENDBRANCH   1   8
TORSDOF 6
ENDMDL
MODEL 7
REMARK VINA RESULT:    -6.438      3.919      8.121
REMARK INTER + INTRA:         -11.049
REMARK INTER:                  -9.545
REMARK INTRA:                  -1.505
REMARK UNBOUND:                -2.353
REMARK SMILES CC[C@H](CC[C@H](C)[C@@H]1CC[C@@H]2[C@@H]3CC(=O)C4=CC(=O)CC[C@@]4(C)[C@@H]3CC[C@@]21C)C(C)C
REMARK SMILES IDX 4 1 3 2 2 3 1 4 29 5 30 6 31 7 5 8 6 9 7 10 8 11 9 12 27 13
REMARK SMILES IDX 10 14 11 15 26 16 28 17 12 18 25 19 24 20 13 21 22 22 14 23
REMARK SMILES IDX 16 24 21 25 23 26 15 27 17 28 20 29 18 30 19 31
REMARK H PARENT
REMARK Flexibility Score: inf
ROOT
ATOM      1  C   UNL     1      15.853 -14.667 -26.038  1.00  0.00     0.004 C 
ENDROOT
BRANCH   1   2
ATOM      2  C   UNL     1      15.277 -13.798 -24.864  1.00  0.00    -0.009 C 
BRANCH   2   3
ATOM      3  C   UNL     1      14.391 -14.654 -23.906  1.00  0.00     0.000 C 
ATOM      4  C   UNL     1      12.967 -14.902 -24.425  1.00  0.00     0.004 C 
ENDBRANCH   2   3
BRANCH   2   5
ATOM      5  C   UNL     1      16.368 -12.913 -24.149  1.00  0.00    -0.014 C 
ATOM      6  C   UNL     1      17.208 -12.109 -25.165  1.00  0.00     0.007 C 
ATOM      7  C   UNL     1      15.780 -11.920 -23.133  1.00  0.00     0.007 C 
ENDBRANCH   2   5
ENDBRANCH   1   2
BRANCH   1   8
ATOM      8  C   UNL     1      16.511 -16.040 -25.722  1.00  0.00     0.004 C 
BRANCH   8   9
ATOM      9  C   UNL     1      15.771 -17.297 -26.234  1.00  0.00    -0.011 C 
ATOM     10  C   UNL     1      14.638 -16.916 -27.212  1.00  0.00     0.008 C 
BRANCH   9  11
ATOM     11  C   UNL     1      15.392 -18.278 -25.063  1.00  0.00    -0.002 C 
ATOM     12  C   UNL     1      15.948 -17.851 -23.707  1.00  0.00     0.005 C 
ATOM     13  C   UNL     1      15.627 -19.829 -25.137  1.00  0.00    -0.026 C 
ATOM     14  C   UNL     1      15.582 -18.985 -22.774  1.00  0.00     0.005 C 
ATOM     15  C   UNL     1      15.647 -20.266 -23.624  1.00  0.00    -0.001 C 
ATOM     16  C   UNL     1      16.951 -20.205 -25.854  1.00  0.00     0.007 C 
ATOM     17  C   UNL     1      14.443 -20.517 -25.873  1.00  0.00     0.012 C 
ATOM     18  C   UNL     1      16.784 -21.260 -23.210  1.00  0.00     0.004 C 
ATOM     19  C   UNL     1      17.442 -21.653 -25.632  1.00  0.00     0.005 C 
ATOM     20  C   UNL     1      16.959 -22.330 -24.315  1.00  0.00     0.003 C 
ATOM     21  C   UNL     1      18.150 -20.621 -22.824  1.00  0.00     0.085 C 
ATOM     22  C   UNL     1      17.850 -23.548 -23.824  1.00  0.00    -0.000 C 
ATOM     23  C   UNL     1      19.264 -21.630 -22.786  1.00  0.00     0.159 C 
ATOM     24  C   UNL     1      18.962 -23.072 -22.890  1.00  0.00     0.005 C 
ATOM     25  C   UNL     1      16.956 -24.555 -23.034  1.00  0.00     0.020 C 
ATOM     26  C   UNL     1      18.487 -24.299 -25.028  1.00  0.00     0.017 C 
ATOM     27  O   UNL     1      20.446 -21.241 -22.583  1.00  0.00    -0.295 OA
ATOM     28  C   UNL     1      19.578 -23.932 -22.062  1.00  0.00     0.055 C 
ATOM     29  C   UNL     1      17.748 -25.735 -22.437  1.00  0.00     0.081 C 
ATOM     30  C   UNL     1      19.074 -25.303 -21.870  1.00  0.00     0.156 C 
ATOM     31  O   UNL     1      19.755 -26.123 -21.199  1.00  0.00    -0.295 OA
ENDBRANCH   9  11
ENDBRANCH   8   9
ENDBRANCH   1   8
TORSDOF 6
ENDMDL
MODEL 8
REMARK VINA RESULT:    -6.372      2.448      5.031
REMARK INTER + INTRA:         -10.960
REMARK INTER:                  -8.630
REMARK INTRA:                  -2.330
REMARK UNBOUND:                -2.353
REMARK SMILES CC[C@H](CC[C@H](C)[C@@H]1CC[C@@H]2[C@@H]3CC(=O)C4=CC(=O)CC[C@@]4(C)[C@@H]3CC[C@@]21C)C(C)C
REMARK SMILES IDX 4 1 3 2 2 3 1 4 29 5 30 6 31 7 5 8 6 9 7 10 8 11 9 12 27 13
REMARK SMILES IDX 10 14 11 15 26 16 28 17 12 18 25 19 24 20 13 21 22 22 14 23
REMARK SMILES IDX 16 24 21 25 23 26 15 27 17 28 20 29 18 30 19 31
REMARK H PARENT
REMARK Flexibility Score: inf
ROOT
ATOM      1  C   UNL     1      19.136 -22.774 -24.330  1.00  0.00     0.004 C 
ENDROOT
BRANCH   1   2
ATOM      2  C   UNL     1      19.327 -21.569 -25.318  1.00  0.00    -0.009 C 
BRANCH   2   3
ATOM      3  C   UNL     1      18.049 -21.332 -26.180  1.00  0.00     0.000 C 
ATOM      4  C   UNL     1      18.318 -21.249 -27.689  1.00  0.00     0.004 C 
ENDBRANCH   2   3
BRANCH   2   5
ATOM      5  C   UNL     1      19.911 -20.280 -24.622  1.00  0.00    -0.014 C 
ATOM      6  C   UNL     1      21.433 -20.148 -24.845  1.00  0.00     0.007 C 
ATOM      7  C   UNL     1      19.250 -18.976 -25.100  1.00  0.00     0.007 C 
ENDBRANCH   2   5
ENDBRANCH   1   2
BRANCH   1   8
ATOM      8  C   UNL     1      17.799 -23.568 -24.342  1.00  0.00     0.004 C 
BRANCH   8   9
ATOM      9  C   UNL     1      16.937 -23.492 -23.061  1.00  0.00    -0.011 C 
ATOM     10  C   UNL     1      16.821 -24.877 -22.385  1.00  0.00     0.008 C 
BRANCH   9  11
ATOM     11  C   UNL     1      15.592 -22.708 -23.298  1.00  0.00    -0.002 C 
ATOM     12  C   UNL     1      15.147 -22.693 -24.758  1.00  0.00     0.005 C 
ATOM     13  C   UNL     1      15.351 -21.246 -22.776  1.00  0.00    -0.026 C 
ATOM     14  C   UNL     1      13.931 -21.791 -24.772  1.00  0.00     0.005 C 
ATOM     15  C   UNL     1      14.192 -20.717 -23.701  1.00  0.00    -0.001 C 
ATOM     16  C   UNL     1      16.615 -20.353 -22.881  1.00  0.00     0.007 C 
ATOM     17  C   UNL     1      14.877 -21.277 -21.296  1.00  0.00     0.012 C 
ATOM     18  C   UNL     1      14.371 -19.268 -24.268  1.00  0.00     0.004 C 
ATOM     19  C   UNL     1      16.368 -18.832 -22.758  1.00  0.00     0.005 C 
ATOM     20  C   UNL     1      14.942 -18.350 -23.160  1.00  0.00     0.003 C 
ATOM     21  C   UNL     1      15.193 -19.141 -25.583  1.00  0.00     0.085 C 
ATOM     22  C   UNL     1      14.841 -16.816 -23.551  1.00  0.00    -0.000 C 
ATOM     23  C   UNL     1      15.613 -17.724 -25.860  1.00  0.00     0.159 C 
ATOM     24  C   UNL     1      15.068 -16.617 -25.049  1.00  0.00     0.005 C 
ATOM     25  C   UNL     1      13.411 -16.290 -23.207  1.00  0.00     0.020 C 
ATOM     26  C   UNL     1      15.878 -15.965 -22.763  1.00  0.00     0.017 C 
ATOM     27  O   UNL     1      16.368 -17.482 -26.841  1.00  0.00    -0.295 OA
ATOM     28  C   UNL     1      14.655 -15.495 -25.663  1.00  0.00     0.055 C 
ATOM     29  C   UNL     1      13.182 -14.826 -23.633  1.00  0.00     0.081 C 
ATOM     30  C   UNL     1      13.793 -14.520 -24.974  1.00  0.00     0.156 C 
ATOM     31  O   UNL     1      13.543 -13.416 -25.529  1.00  0.00    -0.295 OA
ENDBRANCH   9  11
ENDBRANCH   8   9
ENDBRANCH   1   8
TORSDOF 6
ENDMDL
MODEL 9
REMARK VINA RESULT:    -6.372      3.379      7.439
REMARK INTER + INTRA:         -10.960
REMARK INTER:                  -9.257
REMARK INTRA:                  -1.703
REMARK UNBOUND:                -2.353
REMARK SMILES CC[C@H](CC[C@H](C)[C@@H]1CC[C@@H]2[C@@H]3CC(=O)C4=CC(=O)CC[C@@]4(C)[C@@H]3CC[C@@]21C)C(C)C
REMARK SMILES IDX 4 1 3 2 2 3 1 4 29 5 30 6 31 7 5 8 6 9 7 10 8 11 9 12 27 13
REMARK SMILES IDX 10 14 11 15 26 16 28 17 12 18 25 19 24 20 13 21 22 22 14 23
REMARK SMILES IDX 16 24 21 25 23 26 15 27 17 28 20 29 18 30 19 31
REMARK H PARENT
REMARK Flexibility Score: inf
ROOT
ATOM      1  C   UNL     1      12.708 -15.685 -23.487  1.00  0.00     0.004 C 
ENDROOT
BRANCH   1   2
ATOM      2  C   UNL     1      12.083 -17.111 -23.291  1.00  0.00    -0.009 C 
BRANCH   2   3
ATOM      3  C   UNL     1      12.474 -17.719 -21.908  1.00  0.00     0.000 C 
ATOM      4  C   UNL     1      13.767 -18.546 -21.931  1.00  0.00     0.004 C 
ENDBRANCH   2   3
BRANCH   2   5
ATOM      5  C   UNL     1      10.545 -17.169 -23.634  1.00  0.00    -0.014 C 
ATOM      6  C   UNL     1      10.264 -18.073 -24.854  1.00  0.00     0.007 C 
ATOM      7  C   UNL     1       9.678 -17.670 -22.467  1.00  0.00     0.007 C 
ENDBRANCH   2   5
ENDBRANCH   1   2
BRANCH   1   8
ATOM      8  C   UNL     1      13.706 -15.440 -24.654  1.00  0.00     0.004 C 
BRANCH   8   9
ATOM      9  C   UNL     1      15.176 -15.848 -24.405  1.00  0.00    -0.011 C 
ATOM     10  C   UNL     1      16.097 -14.608 -24.355  1.00  0.00     0.008 C 
BRANCH   9  11
ATOM     11  C   UNL     1      15.631 -17.027 -25.343  1.00  0.00    -0.002 C 
ATOM     12  C   UNL     1      14.495 -17.972 -25.725  1.00  0.00     0.005 C 
ATOM     13  C   UNL     1      16.852 -17.959 -25.016  1.00  0.00    -0.026 C 
ATOM     14  C   UNL     1      15.171 -19.081 -26.503  1.00  0.00     0.005 C 
ATOM     15  C   UNL     1      16.563 -19.251 -25.870  1.00  0.00    -0.001 C 
ATOM     16  C   UNL     1      16.969 -18.291 -23.505  1.00  0.00     0.007 C 
ATOM     17  C   UNL     1      18.175 -17.294 -25.490  1.00  0.00     0.012 C 
ATOM     18  C   UNL     1      16.780 -20.619 -25.141  1.00  0.00     0.004 C 
ATOM     19  C   UNL     1      17.885 -19.486 -23.154  1.00  0.00     0.005 C 
ATOM     20  C   UNL     1      18.065 -20.546 -24.281  1.00  0.00     0.003 C 
ATOM     21  C   UNL     1      15.577 -21.155 -24.311  1.00  0.00     0.085 C 
ATOM     22  C   UNL     1      18.526 -21.980 -23.782  1.00  0.00    -0.000 C 
ATOM     23  C   UNL     1      15.975 -22.264 -23.377  1.00  0.00     0.159 C 
ATOM     24  C   UNL     1      17.321 -22.865 -23.471  1.00  0.00     0.005 C 
ATOM     25  C   UNL     1      19.357 -22.674 -24.907  1.00  0.00     0.020 C 
ATOM     26  C   UNL     1      19.418 -21.872 -22.511  1.00  0.00     0.017 C 
ATOM     27  O   UNL     1      15.125 -22.731 -22.571  1.00  0.00    -0.295 OA
ATOM     28  C   UNL     1      17.447 -24.202 -23.414  1.00  0.00     0.055 C 
ATOM     29  C   UNL     1      19.778 -24.114 -24.552  1.00  0.00     0.081 C 
ATOM     30  C   UNL     1      18.685 -24.872 -23.849  1.00  0.00     0.156 C 
ATOM     31  O   UNL     1      18.820 -26.109 -23.649  1.00  0.00    -0.295 OA
ENDBRANCH   9  11
ENDBRANCH   8   9
ENDBRANCH   1   8
TORSDOF 6
ENDMDL
