MODEL 1
REMARK VINA RESULT:    -4.379      0.000      0.000
REMARK INTER + INTRA:          -7.414
REMARK INTER:                  -6.682
REMARK INTRA:                  -0.731
REMARK UNBOUND:                -0.731
REMARK SMILES CCCCCCCCCC=CC(=O)[O-]
REMARK SMILES IDX 7 1 8 2 9 3 10 4 11 5 12 6 13 7 14 8 6 9 5 10 4 11 3 12 2 13
REMARK SMILES IDX 1 14
REMARK H PARENT
REMARK Flexibility Score: inf
ROOT
ATOM      1  C   UNL     1       7.987  11.336  12.127  1.00  0.00     0.000 C 
ENDROOT
BRANCH   1   2
ATOM      2  C   UNL     1       7.499  11.089  13.558  1.00  0.00     0.004 C 
BRANCH   2   3
ATOM      3  C   UNL     1       7.797   9.651  14.001  1.00  0.00     0.027 C 
BRANCH   3   4
ATOM      4  C   UNL     1       7.644   9.496  15.486  1.00  0.00    -0.025 C 
ATOM      5  C   UNL     1       8.689   9.607  16.312  1.00  0.00     0.020 C 
BRANCH   5   6
ATOM      6  C   UNL     1       8.556   9.444  17.767  1.00  0.00     0.064 C 
ATOM      7  O   UNL     1       7.799  10.216  18.412  1.00  0.00    -0.545 OA
ATOM      8  O   UNL     1       9.254   8.451  18.445  1.00  0.00    -0.545 OA
ENDBRANCH   5   6
ENDBRANCH   3   4
ENDBRANCH   2   3
ENDBRANCH   1   2
BRANCH   1   9
ATOM      9  C   UNL     1       6.819  11.718  11.205  1.00  0.00     0.000 C 
BRANCH   9  10
ATOM     10  C   UNL     1       7.038  11.263   9.754  1.00  0.00     0.000 C 
BRANCH  10  11
ATOM     11  C   UNL     1       6.674   9.783   9.536  1.00  0.00    -0.000 C 
BRANCH  11  12
ATOM     12  C   UNL     1       7.828   8.977   8.920  1.00  0.00    -0.000 C 
BRANCH  12  13
ATOM     13  C   UNL     1       8.067   7.643   9.642  1.00  0.00    -0.003 C 
ATOM     14  C   UNL     1       7.450   7.655  11.038  1.00  0.00     0.004 C 
ENDBRANCH  12  13
ENDBRANCH  11  12
ENDBRANCH  10  11
ENDBRANCH   9  10
ENDBRANCH   1   9
TORSDOF 9
ENDMDL
MODEL 2
REMARK VINA RESULT:    -4.284      9.363     11.665
REMARK INTER + INTRA:          -7.269
REMARK INTER:                  -5.902
REMARK INTRA:                  -1.367
REMARK UNBOUND:                -0.731
REMARK SMILES CCCCCCCCCC=CC(=O)[O-]
REMARK SMILES IDX 7 1 8 2 9 3 10 4 11 5 12 6 13 7 14 8 6 9 5 10 4 11 3 12 2 13
REMARK SMILES IDX 1 14
REMARK H PARENT
REMARK Flexibility Score: inf
ROOT
ATOM      1  C   UNL     1       5.554   3.049  23.251  1.00  0.00     0.000 C 
ENDROOT
BRANCH   1   2
ATOM      2  C   UNL     1       5.038   2.528  21.905  1.00  0.00     0.004 C 
BRANCH   2   3
ATOM      3  C   UNL     1       5.675   3.291  20.738  1.00  0.00     0.027 C 
BRANCH   3   4
ATOM      4  C   UNL     1       6.122   2.353  19.654  1.00  0.00    -0.025 C 
ATOM      5  C   UNL     1       6.393   2.789  18.420  1.00  0.00     0.020 C 
BRANCH   5   6
ATOM      6  C   UNL     1       6.819   1.880  17.346  1.00  0.00     0.064 C 
ATOM      7  O   UNL     1       7.900   2.099  16.738  1.00  0.00    -0.545 OA
ATOM      8  O   UNL     1       6.045   0.781  16.988  1.00  0.00    -0.545 OA
ENDBRANCH   5   6
ENDBRANCH   3   4
ENDBRANCH   2   3
ENDBRANCH   1   2
BRANCH   1   9
ATOM      9  C   UNL     1       6.766   3.972  23.055  1.00  0.00     0.000 C 
BRANCH   9  10
ATOM     10  C   UNL     1       8.066   3.366  23.605  1.00  0.00     0.000 C 
BRANCH  10  11
ATOM     11  C   UNL     1       9.210   3.384  22.575  1.00  0.00    -0.000 C 
BRANCH  11  12
ATOM     12  C   UNL     1       9.398   2.028  21.878  1.00  0.00    -0.000 C 
BRANCH  12  13
ATOM     13  C   UNL     1       9.674   2.172  20.374  1.00  0.00    -0.003 C 
ATOM     14  C   UNL     1       9.673   3.639  19.953  1.00  0.00     0.004 C 
ENDBRANCH  12  13
ENDBRANCH  11  12
ENDBRANCH  10  11
ENDBRANCH   9  10
ENDBRANCH   1   9
TORSDOF 9
ENDMDL
MODEL 3
REMARK VINA RESULT:    -4.264      1.478      2.617
REMARK INTER + INTRA:          -7.239
REMARK INTER:                  -6.780
REMARK INTRA:                  -0.458
REMARK UNBOUND:                -0.731
REMARK SMILES CCCCCCCCCC=CC(=O)[O-]
REMARK SMILES IDX 7 1 8 2 9 3 10 4 11 5 12 6 13 7 14 8 6 9 5 10 4 11 3 12 2 13
REMARK SMILES IDX 1 14
REMARK H PARENT
REMARK Flexibility Score: inf
ROOT
ATOM      1  C   UNL     1       7.718   9.564  14.445  1.00  0.00     0.000 C 
ENDROOT
BRANCH   1   2
ATOM      2  C   UNL     1       7.637   9.353  15.961  1.00  0.00     0.004 C 
BRANCH   2   3
ATOM      3  C   UNL     1       9.032   9.385  16.597  1.00  0.00     0.027 C 
BRANCH   3   4
ATOM      4  C   UNL     1       8.954   9.226  18.088  1.00  0.00    -0.025 C 
ATOM      5  C   UNL     1       8.096   9.939  18.823  1.00  0.00     0.020 C 
BRANCH   5   6
ATOM      6  C   UNL     1       8.018   9.803  20.285  1.00  0.00     0.064 C 
ATOM      7  O   UNL     1       8.684  10.580  21.018  1.00  0.00    -0.545 OA
ATOM      8  O   UNL     1       7.221   8.827  20.873  1.00  0.00    -0.545 OA
ENDBRANCH   5   6
ENDBRANCH   3   4
ENDBRANCH   2   3
ENDBRANCH   1   2
BRANCH   1   9
ATOM      9  C   UNL     1       7.583  11.052  14.089  1.00  0.00     0.000 C 
BRANCH   9  10
ATOM     10  C   UNL     1       7.673  11.309  12.577  1.00  0.00     0.000 C 
BRANCH  10  11
ATOM     11  C   UNL     1       7.805  10.009  11.763  1.00  0.00    -0.000 C 
BRANCH  11  12
ATOM     12  C   UNL     1       7.581  10.230  10.259  1.00  0.00    -0.000 C 
BRANCH  12  13
ATOM     13  C   UNL     1       7.293   8.922   9.507  1.00  0.00    -0.003 C 
ATOM     14  C   UNL     1       7.670   7.709  10.353  1.00  0.00     0.004 C 
ENDBRANCH  12  13
ENDBRANCH  11  12
ENDBRANCH  10  11
ENDBRANCH   9  10
ENDBRANCH   1   9
TORSDOF 9
ENDMDL
MODEL 4
REMARK VINA RESULT:    -4.162      4.503      6.543
REMARK INTER + INTRA:          -7.083
REMARK INTER:                  -6.091
REMARK INTRA:                  -0.992
REMARK UNBOUND:                -0.731
REMARK SMILES CCCCCCCCCC=CC(=O)[O-]
REMARK SMILES IDX 7 1 8 2 9 3 10 4 11 5 12 6 13 7 14 8 6 9 5 10 4 11 3 12 2 13
REMARK SMILES IDX 1 14
REMARK H PARENT
REMARK Flexibility Score: inf
ROOT
ATOM      1  C   UNL     1       8.133   9.848  18.954  1.00  0.00     0.000 C 
ENDROOT
BRANCH   1   2
ATOM      2  C   UNL     1       7.942   9.137  20.298  1.00  0.00     0.004 C 
BRANCH   2   3
ATOM      3  C   UNL     1       7.333   7.743  20.102  1.00  0.00     0.027 C 
BRANCH   3   4
ATOM      4  C   UNL     1       8.152   6.689  20.789  1.00  0.00    -0.025 C 
ATOM      5  C   UNL     1       9.116   6.025  20.145  1.00  0.00     0.020 C 
BRANCH   5   6
ATOM      6  C   UNL     1       9.917   4.981  20.801  1.00  0.00     0.064 C 
ATOM      7  O   UNL     1      10.280   5.136  21.997  1.00  0.00    -0.545 OA
ATOM      8  O   UNL     1      10.283   3.824  20.122  1.00  0.00    -0.545 OA
ENDBRANCH   5   6
ENDBRANCH   3   4
ENDBRANCH   2   3
ENDBRANCH   1   2
BRANCH   1   9
ATOM      9  C   UNL     1       9.193   9.137  18.100  1.00  0.00     0.000 C 
BRANCH   9  10
ATOM     10  C   UNL     1       9.022   9.410  16.598  1.00  0.00     0.000 C 
BRANCH  10  11
ATOM     11  C   UNL     1       7.879  10.398  16.301  1.00  0.00    -0.000 C 
BRANCH  11  12
ATOM     12  C   UNL     1       6.848   9.828  15.315  1.00  0.00    -0.000 C 
BRANCH  12  13
ATOM     13  C   UNL     1       5.429   9.792  15.900  1.00  0.00    -0.003 C 
ATOM     14  C   UNL     1       5.274   8.643  16.893  1.00  0.00     0.004 C 
ENDBRANCH  12  13
ENDBRANCH  11  12
ENDBRANCH  10  11
ENDBRANCH   9  10
ENDBRANCH   1   9
TORSDOF 9
ENDMDL
MODEL 5
REMARK VINA RESULT:    -4.158      9.063     10.796
REMARK INTER + INTRA:          -7.077
REMARK INTER:                  -5.721
REMARK INTRA:                  -1.357
REMARK UNBOUND:                -0.731
REMARK SMILES CCCCCCCCCC=CC(=O)[O-]
REMARK SMILES IDX 7 1 8 2 9 3 10 4 11 5 12 6 13 7 14 8 6 9 5 10 4 11 3 12 2 13
REMARK SMILES IDX 1 14
REMARK H PARENT
REMARK Flexibility Score: inf
ROOT
ATOM      1  C   UNL     1       7.358   4.402  22.449  1.00  0.00     0.000 C 
ENDROOT
BRANCH   1   2
ATOM      2  C   UNL     1       6.880   3.042  21.928  1.00  0.00     0.004 C 
BRANCH   2   3
ATOM      3  C   UNL     1       5.669   3.202  21.002  1.00  0.00     0.027 C 
BRANCH   3   4
ATOM      4  C   UNL     1       5.822   2.376  19.757  1.00  0.00    -0.025 C 
ATOM      5  C   UNL     1       6.705   2.700  18.808  1.00  0.00     0.020 C 
BRANCH   5   6
ATOM      6  C   UNL     1       6.856   1.908  17.579  1.00  0.00     0.064 C 
ATOM      7  O   UNL     1       5.994   1.037  17.290  1.00  0.00    -0.545 OA
ATOM      8  O   UNL     1       7.939   2.104  16.728  1.00  0.00    -0.545 OA
ENDBRANCH   5   6
ENDBRANCH   3   4
ENDBRANCH   2   3
ENDBRANCH   1   2
BRANCH   1   9
ATOM      9  C   UNL     1       7.198   5.490  21.377  1.00  0.00     0.000 C 
BRANCH   9  10
ATOM     10  C   UNL     1       8.438   5.622  20.479  1.00  0.00     0.000 C 
BRANCH  10  11
ATOM     11  C   UNL     1       9.742   5.262  21.214  1.00  0.00    -0.000 C 
BRANCH  11  12
ATOM     12  C   UNL     1      10.536   4.158  20.499  1.00  0.00    -0.000 C 
BRANCH  12  13
ATOM     13  C   UNL     1      10.657   2.879  21.341  1.00  0.00    -0.003 C 
ATOM     14  C   UNL     1       9.911   1.719  20.687  1.00  0.00     0.004 C 
ENDBRANCH  12  13
ENDBRANCH  11  12
ENDBRANCH  10  11
ENDBRANCH   9  10
ENDBRANCH   1   9
TORSDOF 9
ENDMDL
MODEL 6
REMARK VINA RESULT:    -4.154      3.776      7.186
REMARK INTER + INTRA:          -7.071
REMARK INTER:                  -6.528
REMARK INTRA:                  -0.543
REMARK UNBOUND:                -0.731
REMARK SMILES CCCCCCCCCC=CC(=O)[O-]
REMARK SMILES IDX 7 1 8 2 9 3 10 4 11 5 12 6 13 7 14 8 6 9 5 10 4 11 3 12 2 13
REMARK SMILES IDX 1 14
REMARK H PARENT
REMARK Flexibility Score: inf
ROOT
ATOM      1  C   UNL     1       7.506   9.517  14.033  1.00  0.00     0.000 C 
ENDROOT
BRANCH   1   2
ATOM      2  C   UNL     1       7.512  10.984  13.592  1.00  0.00     0.004 C 
BRANCH   2   3
ATOM      3  C   UNL     1       7.801  11.107  12.091  1.00  0.00     0.027 C 
BRANCH   3   4
ATOM      4  C   UNL     1       7.820   9.760  11.428  1.00  0.00    -0.025 C 
ATOM      5  C   UNL     1       7.677   9.630  10.106  1.00  0.00     0.020 C 
BRANCH   5   6
ATOM      6  C   UNL     1       7.680   8.317   9.445  1.00  0.00     0.064 C 
ATOM      7  O   UNL     1       8.202   7.330  10.027  1.00  0.00    -0.545 OA
ATOM      8  O   UNL     1       7.116   8.146   8.186  1.00  0.00    -0.545 OA
ENDBRANCH   5   6
ENDBRANCH   3   4
ENDBRANCH   2   3
ENDBRANCH   1   2
BRANCH   1   9
ATOM      9  C   UNL     1       6.839   9.358  15.408  1.00  0.00     0.000 C 
BRANCH   9  10
ATOM     10  C   UNL     1       7.601  10.091  16.523  1.00  0.00     0.000 C 
BRANCH  10  11
ATOM     11  C   UNL     1       9.023   9.538  16.732  1.00  0.00    -0.000 C 
BRANCH  11  12
ATOM     12  C   UNL     1       9.211   8.905  18.119  1.00  0.00    -0.000 C 
BRANCH  12  13
ATOM     13  C   UNL     1       8.575   9.740  19.240  1.00  0.00    -0.003 C 
ATOM     14  C   UNL     1       7.555   8.920  20.024  1.00  0.00     0.004 C 
ENDBRANCH  12  13
ENDBRANCH  11  12
ENDBRANCH  10  11
ENDBRANCH   9  10
ENDBRANCH   1   9
TORSDOF 9
ENDMDL
MODEL 7
REMARK VINA RESULT:    -4.100      7.296      8.902
REMARK INTER + INTRA:          -6.989
REMARK INTER:                  -5.432
REMARK INTRA:                  -1.556
REMARK UNBOUND:                -0.731
REMARK SMILES CCCCCCCCCC=CC(=O)[O-]
REMARK SMILES IDX 7 1 8 2 9 3 10 4 11 5 12 6 13 7 14 8 6 9 5 10 4 11 3 12 2 13
REMARK SMILES IDX 1 14
REMARK H PARENT
REMARK Flexibility Score: inf
ROOT
ATOM      1  C   UNL     1      13.058  10.194   4.628  1.00  0.00     0.000 C 
ENDROOT
BRANCH   1   2
ATOM      2  C   UNL     1      13.852  10.880   5.745  1.00  0.00     0.004 C 
BRANCH   2   3
ATOM      3  C   UNL     1      12.938  11.265   6.914  1.00  0.00     0.027 C 
BRANCH   3   4
ATOM      4  C   UNL     1      13.714  11.389   8.194  1.00  0.00    -0.025 C 
ATOM      5  C   UNL     1      14.221  10.318   8.810  1.00  0.00     0.020 C 
BRANCH   5   6
ATOM      6  C   UNL     1      14.971  10.423  10.070  1.00  0.00     0.064 C 
ATOM      7  O   UNL     1      14.688   9.657  11.028  1.00  0.00    -0.545 OA
ATOM      8  O   UNL     1      15.989  11.359  10.223  1.00  0.00    -0.545 OA
ENDBRANCH   5   6
ENDBRANCH   3   4
ENDBRANCH   2   3
ENDBRANCH   1   2
BRANCH   1   9
ATOM      9  C   UNL     1      13.455   8.716   4.498  1.00  0.00     0.000 C 
BRANCH   9  10
ATOM     10  C   UNL     1      14.637   8.339   5.404  1.00  0.00     0.000 C 
BRANCH  10  11
ATOM     11  C   UNL     1      14.308   7.171   6.352  1.00  0.00    -0.000 C 
BRANCH  11  12
ATOM     12  C   UNL     1      12.798   6.909   6.464  1.00  0.00    -0.000 C 
BRANCH  12  13
ATOM     13  C   UNL     1      12.188   7.511   7.738  1.00  0.00    -0.003 C 
ATOM     14  C   UNL     1      10.898   8.264   7.426  1.00  0.00     0.004 C 
ENDBRANCH  12  13
ENDBRANCH  11  12
ENDBRANCH  10  11
ENDBRANCH   9  10
ENDBRANCH   1   9
TORSDOF 9
ENDMDL
MODEL 8
REMARK VINA RESULT:    -4.091      5.635      8.576
REMARK INTER + INTRA:          -6.975
REMARK INTER:                  -6.406
REMARK INTRA:                  -0.568
REMARK UNBOUND:                -0.731
REMARK SMILES CCCCCCCCCC=CC(=O)[O-]
REMARK SMILES IDX 7 1 8 2 9 3 10 4 11 5 12 6 13 7 14 8 6 9 5 10 4 11 3 12 2 13
REMARK SMILES IDX 1 14
REMARK H PARENT
REMARK Flexibility Score: inf
ROOT
ATOM      1  C   UNL     1       6.044   6.472  20.396  1.00  0.00     0.000 C 
ENDROOT
BRANCH   1   2
ATOM      2  C   UNL     1       7.166   5.430  20.447  1.00  0.00     0.004 C 
BRANCH   2   3
ATOM      3  C   UNL     1       6.614   4.042  20.793  1.00  0.00     0.027 C 
BRANCH   3   4
ATOM      4  C   UNL     1       6.292   3.260  19.553  1.00  0.00    -0.025 C 
ATOM      5  C   UNL     1       7.254   2.758  18.774  1.00  0.00     0.020 C 
BRANCH   5   6
ATOM      6  C   UNL     1       6.953   2.002  17.549  1.00  0.00     0.064 C 
ATOM      7  O   UNL     1       7.786   1.990  16.605  1.00  0.00    -0.545 OA
ATOM      8  O   UNL     1       5.761   1.299  17.416  1.00  0.00    -0.545 OA
ENDBRANCH   5   6
ENDBRANCH   3   4
ENDBRANCH   2   3
ENDBRANCH   1   2
BRANCH   1   9
ATOM      9  C   UNL     1       6.535   7.780  19.756  1.00  0.00     0.000 C 
BRANCH   9  10
ATOM     10  C   UNL     1       8.067   7.899  19.756  1.00  0.00     0.000 C 
BRANCH  10  11
ATOM     11  C   UNL     1       8.562   9.171  19.044  1.00  0.00    -0.000 C 
BRANCH  11  12
ATOM     12  C   UNL     1       9.396   8.859  17.792  1.00  0.00    -0.000 C 
BRANCH  12  13
ATOM     13  C   UNL     1       8.765   9.419  16.509  1.00  0.00    -0.003 C 
ATOM     14  C   UNL     1       7.863  10.611  16.816  1.00  0.00     0.004 C 
ENDBRANCH  12  13
ENDBRANCH  11  12
ENDBRANCH  10  11
ENDBRANCH   9  10
ENDBRANCH   1   9
TORSDOF 9
ENDMDL
MODEL 9
REMARK VINA RESULT:    -4.043      7.858      9.019
REMARK INTER + INTRA:          -6.901
REMARK INTER:                  -5.346
REMARK INTRA:                  -1.555
REMARK UNBOUND:                -0.731
REMARK SMILES CCCCCCCCCC=CC(=O)[O-]
REMARK SMILES IDX 7 1 8 2 9 3 10 4 11 5 12 6 13 7 14 8 6 9 5 10 4 11 3 12 2 13
REMARK SMILES IDX 1 14
REMARK H PARENT
REMARK Flexibility Score: inf
ROOT
ATOM      1  C   UNL     1      12.810   9.479   4.363  1.00  0.00     0.000 C 
ENDROOT
BRANCH   1   2
ATOM      2  C   UNL     1      13.666  10.457   5.176  1.00  0.00     0.004 C 
BRANCH   2   3
ATOM      3  C   UNL     1      12.825  11.170   6.242  1.00  0.00     0.027 C 
BRANCH   3   4
ATOM      4  C   UNL     1      13.677  11.627   7.391  1.00  0.00    -0.025 C 
ATOM      5  C   UNL     1      13.997  10.803   8.393  1.00  0.00     0.020 C 
BRANCH   5   6
ATOM      6  C   UNL     1      14.819  11.241   9.531  1.00  0.00     0.064 C 
ATOM      7  O   UNL     1      14.267  11.498  10.634  1.00  0.00    -0.545 OA
ATOM      8  O   UNL     1      16.197  11.377   9.410  1.00  0.00    -0.545 OA
ENDBRANCH   5   6
ENDBRANCH   3   4
ENDBRANCH   2   3
ENDBRANCH   1   2
BRANCH   1   9
ATOM      9  C   UNL     1      11.542   9.084   5.135  1.00  0.00     0.000 C 
BRANCH   9  10
ATOM     10  C   UNL     1      11.620   7.661   5.709  1.00  0.00     0.000 C 
BRANCH  10  11
ATOM     11  C   UNL     1      11.608   7.641   7.249  1.00  0.00    -0.000 C 
BRANCH  11  12
ATOM     12  C   UNL     1      12.989   7.330   7.846  1.00  0.00    -0.000 C 
BRANCH  12  13
ATOM     13  C   UNL     1      13.998   6.864   6.786  1.00  0.00    -0.003 C 
ATOM     14  C   UNL     1      15.333   7.586   6.944  1.00  0.00     0.004 C 
ENDBRANCH  12  13
ENDBRANCH  11  12
ENDBRANCH  10  11
ENDBRANCH   9  10
ENDBRANCH   1   9
TORSDOF 9
ENDMDL
