MODEL 1
REMARK VINA RESULT:    -2.001      0.000      0.000
REMARK INTER + INTRA:          -2.001
REMARK INTER:                  -2.001
REMARK INTRA:                   0.000
REMARK UNBOUND:                 0.000
REMARK SMILES CC(=O)[O-]
REMARK SMILES IDX 1 1 2 2 3 3 4 4
REMARK H PARENT
REMARK Flexibility Score: inf
ROOT
ATOM      1  C   UNL     1      45.670   9.250   0.314  1.00  0.00     0.063 C 
ATOM      2  C   UNL     1      45.438   9.271   1.787  1.00  0.00     0.038 C 
ATOM      3  O   UNL     1      44.321   8.928   2.255  1.00  0.00    -0.550 OA
ATOM      4  O   UNL     1      46.470   9.617   2.650  1.00  0.00    -0.550 OA
ENDROOT
TORSDOF 0
ENDMDL
MODEL 2
REMARK VINA RESULT:    -1.961     11.372     11.787
REMARK INTER + INTRA:          -1.961
REMARK INTER:                  -1.961
REMARK INTRA:                   0.000
REMARK UNBOUND:                 0.000
REMARK SMILES CC(=O)[O-]
REMARK SMILES IDX 1 1 2 2 3 3 4 4
REMARK H PARENT
REMARK Flexibility Score: inf
ROOT
ATOM      1  C   UNL     1      39.754  11.787  12.180  1.00  0.00     0.063 C 
ATOM      2  C   UNL     1      41.080  11.143  12.405  1.00  0.00     0.038 C 
ATOM      3  O   UNL     1      41.428  10.155  11.707  1.00  0.00    -0.550 OA
ATOM      4  O   UNL     1      41.956  11.663  13.349  1.00  0.00    -0.550 OA
ENDROOT
TORSDOF 0
ENDMDL
MODEL 3
REMARK VINA RESULT:    -1.944     11.486     11.958
REMARK INTER + INTRA:          -1.944
REMARK INTER:                  -1.944
REMARK INTRA:                   0.000
REMARK UNBOUND:                 0.000
REMARK SMILES CC(=O)[O-]
REMARK SMILES IDX 1 1 2 2 3 3 4 4
REMARK H PARENT
REMARK Flexibility Score: inf
ROOT
ATOM      1  C   UNL     1      39.725  11.856  12.342  1.00  0.00     0.063 C 
ATOM      2  C   UNL     1      41.080  11.263  12.532  1.00  0.00     0.038 C 
ATOM      3  O   UNL     1      41.833  11.688  13.448  1.00  0.00    -0.550 OA
ATOM      4  O   UNL     1      41.496  10.205  11.734  1.00  0.00    -0.550 OA
ENDROOT
TORSDOF 0
ENDMDL
MODEL 4
REMARK VINA RESULT:    -1.931     11.636     11.989
REMARK INTER + INTRA:          -1.931
REMARK INTER:                  -1.931
REMARK INTRA:                   0.000
REMARK UNBOUND:                 0.000
REMARK SMILES CC(=O)[O-]
REMARK SMILES IDX 1 1 2 2 3 3 4 4
REMARK H PARENT
REMARK Flexibility Score: inf
ROOT
ATOM      1  C   UNL     1      41.180  10.241  11.632  1.00  0.00     0.063 C 
ATOM      2  C   UNL     1      40.919  11.395  12.541  1.00  0.00     0.038 C 
ATOM      3  O   UNL     1      41.762  11.707  13.423  1.00  0.00    -0.550 OA
ATOM      4  O   UNL     1      39.771  12.160  12.383  1.00  0.00    -0.550 OA
ENDROOT
TORSDOF 0
ENDMDL
MODEL 5
REMARK VINA RESULT:    -1.906     11.322     11.586
REMARK INTER + INTRA:          -1.906
REMARK INTER:                  -1.906
REMARK INTRA:                   0.000
REMARK UNBOUND:                 0.000
REMARK SMILES CC(=O)[O-]
REMARK SMILES IDX 1 1 2 2 3 3 4 4
REMARK H PARENT
REMARK Flexibility Score: inf
ROOT
ATOM      1  C   UNL     1      41.189  10.396  11.648  1.00  0.00     0.063 C 
ATOM      2  C   UNL     1      39.880  11.111  11.644  1.00  0.00     0.038 C 
ATOM      3  O   UNL     1      38.840  10.522  11.245  1.00  0.00    -0.550 OA
ATOM      4  O   UNL     1      39.793  12.409  12.130  1.00  0.00    -0.550 OA
ENDROOT
TORSDOF 0
ENDMDL
MODEL 6
REMARK VINA RESULT:    -1.902     10.980     11.155
REMARK INTER + INTRA:          -1.902
REMARK INTER:                  -1.902
REMARK INTRA:                   0.000
REMARK UNBOUND:                 0.000
REMARK SMILES CC(=O)[O-]
REMARK SMILES IDX 1 1 2 2 3 3 4 4
REMARK H PARENT
REMARK Flexibility Score: inf
ROOT
ATOM      1  C   UNL     1      40.040   8.434  11.740  1.00  0.00     0.063 C 
ATOM      2  C   UNL     1      40.337   9.879  11.522  1.00  0.00     0.038 C 
ATOM      3  O   UNL     1      39.418  10.667  11.177  1.00  0.00    -0.550 OA
ATOM      4  O   UNL     1      41.616  10.370  11.751  1.00  0.00    -0.550 OA
ENDROOT
TORSDOF 0
ENDMDL
MODEL 7
REMARK VINA RESULT:    -1.735     12.508     12.910
REMARK INTER + INTRA:          -1.735
REMARK INTER:                  -1.735
REMARK INTRA:                   0.000
REMARK UNBOUND:                 0.000
REMARK SMILES CC(=O)[O-]
REMARK SMILES IDX 1 1 2 2 3 3 4 4
REMARK H PARENT
REMARK Flexibility Score: inf
ROOT
ATOM      1  C   UNL     1      39.748  12.078  12.399  1.00  0.00     0.063 C 
ATOM      2  C   UNL     1      40.888  12.328  13.328  1.00  0.00     0.038 C 
ATOM      3  O   UNL     1      41.931  11.626  13.251  1.00  0.00    -0.550 OA
ATOM      4  O   UNL     1      40.823  13.369  14.246  1.00  0.00    -0.550 OA
ENDROOT
TORSDOF 0
ENDMDL
MODEL 8
REMARK VINA RESULT:    -1.552     13.116     13.606
REMARK INTER + INTRA:          -1.552
REMARK INTER:                  -1.552
REMARK INTRA:                   0.000
REMARK UNBOUND:                 0.000
REMARK SMILES CC(=O)[O-]
REMARK SMILES IDX 1 1 2 2 3 3 4 4
REMARK H PARENT
REMARK Flexibility Score: inf
ROOT
ATOM      1  C   UNL     1      41.940  12.011  15.485  1.00  0.00     0.063 C 
ATOM      2  C   UNL     1      41.324  12.181  14.137  1.00  0.00     0.038 C 
ATOM      3  O   UNL     1      41.771  11.534  13.153  1.00  0.00    -0.550 OA
ATOM      4  O   UNL     1      40.223  13.012  13.974  1.00  0.00    -0.550 OA
ENDROOT
TORSDOF 0
ENDMDL
MODEL 9
REMARK VINA RESULT:    -1.550      8.102      8.602
REMARK INTER + INTRA:          -1.550
REMARK INTER:                  -1.550
REMARK INTRA:                   0.000
REMARK UNBOUND:                 0.000
REMARK SMILES CC(=O)[O-]
REMARK SMILES IDX 1 1 2 2 3 3 4 4
REMARK H PARENT
REMARK Flexibility Score: inf
ROOT
ATOM      1  C   UNL     1      53.474   7.965   0.677  1.00  0.00     0.063 C 
ATOM      2  C   UNL     1      53.639   9.305   0.043  1.00  0.00     0.038 C 
ATOM      3  O   UNL     1      54.648  10.010   0.312  1.00  0.00    -0.550 OA
ATOM      4  O   UNL     1      52.709   9.756  -0.885  1.00  0.00    -0.550 OA
ENDROOT
TORSDOF 0
ENDMDL
