MODEL 1
REMARK VINA RESULT:    -7.424      0.000      0.000
REMARK INTER + INTRA:          -9.239
REMARK INTER:                  -8.726
REMARK INTRA:                  -0.513
REMARK UNBOUND:                -0.513
REMARK SMILES C=C(C)[C@@H]1CC[C@]2(CO)CC[C@]3(C)[C@@H](CC[C@@H]4[C@]5(C)CC[C@H](O)C(C)(C)[C@@H]5CC[C@@]43C)[C@H]12
REMARK SMILES IDX 4 1 5 2 6 3 7 4 32 5 14 6 15 7 16 8 17 9 18 10 20 11 21 12
REMARK SMILES IDX 22 13 24 14 27 15 28 16 29 17 30 18 12 19 11 20 10 21 13 22
REMARK SMILES IDX 31 23 25 24 26 25 19 26 2 27 3 28 1 29 8 30 9 31 23 33
REMARK H PARENT 9 32 23 34
REMARK Flexibility Score: inf
ROOT
ATOM      1  C   UNL     1      19.101  48.404  43.364  1.00  0.00     0.018 C 
ATOM      2  C   UNL     1      19.605  49.786  43.748  1.00  0.00     0.009 C 
ATOM      3  C   UNL     1      18.504  50.736  43.288  1.00  0.00     0.010 C 
ATOM      4  C   UNL     1      17.176  49.916  43.241  1.00  0.00    -0.003 C 
ATOM      5  C   UNL     1      17.581  48.454  43.674  1.00  0.00     0.008 C 
ATOM      6  C   UNL     1      17.252  47.967  45.155  1.00  0.00    -0.000 C 
ATOM      7  C   UNL     1      16.863  46.460  45.111  1.00  0.00     0.005 C 
ATOM      8  C   UNL     1      15.357  46.250  45.068  1.00  0.00     0.005 C 
ATOM      9  C   UNL     1      14.691  46.669  46.405  1.00  0.00     0.002 C 
ATOM     10  C   UNL     1      13.089  46.616  46.397  1.00  0.00    -0.026 C 
ATOM     11  C   UNL     1      12.483  47.598  45.348  1.00  0.00     0.010 C 
ATOM     12  C   UNL     1      10.963  47.751  45.429  1.00  0.00     0.033 C 
ATOM     13  C   UNL     1      10.503  48.194  46.829  1.00  0.00     0.120 C 
ATOM     14  C   UNL     1      10.933  47.192  47.943  1.00  0.00    -0.006 C 
ATOM     15  C   UNL     1      12.512  46.900  47.861  1.00  0.00     0.003 C 
ATOM     16  C   UNL     1      13.402  47.901  48.685  1.00  0.00     0.005 C 
ATOM     17  C   UNL     1      14.334  48.774  47.848  1.00  0.00     0.008 C 
ATOM     18  C   UNL     1      15.402  47.938  47.075  1.00  0.00    -0.024 C 
ATOM     19  C   UNL     1      16.245  48.845  46.012  1.00  0.00    -0.024 C 
ATOM     20  C   UNL     1      15.324  49.615  45.020  1.00  0.00     0.008 C 
ATOM     21  C   UNL     1      16.075  50.588  44.120  1.00  0.00     0.010 C 
ATOM     22  C   UNL     1      17.080  49.915  46.802  1.00  0.00     0.012 C 
ATOM     23  C   UNL     1      16.393  47.408  48.187  1.00  0.00     0.012 C 
ATOM     24  C   UNL     1      10.101  45.869  47.815  1.00  0.00     0.014 C 
ATOM     25  C   UNL     1      10.502  47.777  49.327  1.00  0.00     0.014 C 
ATOM     26  C   UNL     1      12.698  45.166  45.960  1.00  0.00     0.012 C 
ENDROOT
BRANCH   1  27
ATOM     27  C   UNL     1      19.881  47.201  43.906  1.00  0.00    -0.077 C 
ATOM     28  C   UNL     1      20.584  47.185  45.243  1.00  0.00     0.039 C 
ATOM     29  C   UNL     1      19.990  46.107  43.134  1.00  0.00     0.008 C 
ENDBRANCH   1  27
BRANCH   4  30
ATOM     30  C   UNL     1      16.622  49.900  41.774  1.00  0.00     0.163 C 
BRANCH  30  31
ATOM     31  O   UNL     1      17.479  50.538  40.861  1.00  0.00    -0.396 OA
ATOM     32  H   UNL     1      17.698  49.881  40.151  1.00  0.00     0.210 HD
ENDBRANCH  30  31
ENDBRANCH   4  30
BRANCH  13  33
ATOM     33  O   UNL     1      11.017  49.474  47.100  1.00  0.00    -0.393 OA
ATOM     34  H   UNL     1      10.603  49.781  47.949  1.00  0.00     0.210 HD
ENDBRANCH  13  33
TORSDOF 4
ENDMDL
MODEL 2
REMARK VINA RESULT:    -7.294      2.296      3.974
REMARK INTER + INTRA:          -9.086
REMARK INTER:                  -8.673
REMARK INTRA:                  -0.413
REMARK UNBOUND:                -0.513
REMARK SMILES C=C(C)[C@@H]1CC[C@]2(CO)CC[C@]3(C)[C@@H](CC[C@@H]4[C@]5(C)CC[C@H](O)C(C)(C)[C@@H]5CC[C@@]43C)[C@H]12
REMARK SMILES IDX 4 1 5 2 6 3 7 4 32 5 14 6 15 7 16 8 17 9 18 10 20 11 21 12
REMARK SMILES IDX 22 13 24 14 27 15 28 16 29 17 30 18 12 19 11 20 10 21 13 22
REMARK SMILES IDX 31 23 25 24 26 25 19 26 2 27 3 28 1 29 8 30 9 31 23 33
REMARK H PARENT 9 32 23 34
REMARK Flexibility Score: inf
ROOT
ATOM      1  C   UNL     1      20.962  48.685  45.620  1.00  0.00     0.018 C 
ATOM      2  C   UNL     1      21.497  49.086  44.254  1.00  0.00     0.009 C 
ATOM      3  C   UNL     1      21.222  47.878  43.365  1.00  0.00     0.010 C 
ATOM      4  C   UNL     1      20.028  47.097  44.003  1.00  0.00    -0.003 C 
ATOM      5  C   UNL     1      19.657  47.908  45.303  1.00  0.00     0.008 C 
ATOM      6  C   UNL     1      18.379  48.862  45.283  1.00  0.00    -0.000 C 
ATOM      7  C   UNL     1      17.690  48.806  46.677  1.00  0.00     0.005 C 
ATOM      8  C   UNL     1      16.534  47.818  46.715  1.00  0.00     0.005 C 
ATOM      9  C   UNL     1      15.349  48.304  45.840  1.00  0.00     0.002 C 
ATOM     10  C   UNL     1      14.145  47.255  45.707  1.00  0.00    -0.026 C 
ATOM     11  C   UNL     1      14.603  45.932  45.022  1.00  0.00     0.010 C 
ATOM     12  C   UNL     1      13.464  44.970  44.677  1.00  0.00     0.033 C 
ATOM     13  C   UNL     1      12.401  45.634  43.784  1.00  0.00     0.120 C 
ATOM     14  C   UNL     1      11.766  46.893  44.448  1.00  0.00    -0.006 C 
ATOM     15  C   UNL     1      12.910  47.914  44.932  1.00  0.00     0.003 C 
ATOM     16  C   UNL     1      13.359  48.953  43.840  1.00  0.00     0.005 C 
ATOM     17  C   UNL     1      14.806  48.811  43.372  1.00  0.00     0.008 C 
ATOM     18  C   UNL     1      15.832  49.070  44.519  1.00  0.00    -0.024 C 
ATOM     19  C   UNL     1      17.359  48.699  44.077  1.00  0.00    -0.024 C 
ATOM     20  C   UNL     1      17.488  47.243  43.539  1.00  0.00     0.008 C 
ATOM     21  C   UNL     1      18.867  46.921  42.975  1.00  0.00     0.010 C 
ATOM     22  C   UNL     1      17.807  49.666  42.924  1.00  0.00     0.012 C 
ATOM     23  C   UNL     1      15.751  50.624  44.802  1.00  0.00     0.012 C 
ATOM     24  C   UNL     1      10.849  46.457  45.642  1.00  0.00     0.014 C 
ATOM     25  C   UNL     1      10.775  47.544  43.428  1.00  0.00     0.014 C 
ATOM     26  C   UNL     1      13.707  46.900  47.166  1.00  0.00     0.012 C 
ENDROOT
BRANCH   1  27
ATOM     27  C   UNL     1      20.877  49.782  46.687  1.00  0.00    -0.077 C 
ATOM     28  C   UNL     1      20.992  49.524  48.172  1.00  0.00     0.039 C 
ATOM     29  C   UNL     1      20.641  51.044  46.293  1.00  0.00     0.008 C 
ENDBRANCH   1  27
BRANCH   4  30
ATOM     30  C   UNL     1      20.497  45.653  44.394  1.00  0.00     0.163 C 
BRANCH  30  31
ATOM     31  O   UNL     1      20.314  44.722  43.358  1.00  0.00    -0.396 OA
ATOM     32  H   UNL     1      20.954  44.952  42.636  1.00  0.00     0.210 HD
ENDBRANCH  30  31
ENDBRANCH   4  30
BRANCH  13  33
ATOM     33  O   UNL     1      12.982  45.975  42.549  1.00  0.00    -0.393 OA
ATOM     34  H   UNL     1      12.337  46.565  42.077  1.00  0.00     0.210 HD
ENDBRANCH  13  33
TORSDOF 4
ENDMDL
MODEL 3
REMARK VINA RESULT:    -6.928      3.249      6.569
REMARK INTER + INTRA:          -8.656
REMARK INTER:                  -8.249
REMARK INTRA:                  -0.406
REMARK UNBOUND:                -0.513
REMARK SMILES C=C(C)[C@@H]1CC[C@]2(CO)CC[C@]3(C)[C@@H](CC[C@@H]4[C@]5(C)CC[C@H](O)C(C)(C)[C@@H]5CC[C@@]43C)[C@H]12
REMARK SMILES IDX 4 1 5 2 6 3 7 4 32 5 14 6 15 7 16 8 17 9 18 10 20 11 21 12
REMARK SMILES IDX 22 13 24 14 27 15 28 16 29 17 30 18 12 19 11 20 10 21 13 22
REMARK SMILES IDX 31 23 25 24 26 25 19 26 2 27 3 28 1 29 8 30 9 31 23 33
REMARK H PARENT 9 32 23 34
REMARK Flexibility Score: inf
ROOT
ATOM      1  C   UNL     1      15.492  47.367  42.105  1.00  0.00     0.018 C 
ATOM      2  C   UNL     1      15.350  48.544  41.152  1.00  0.00     0.009 C 
ATOM      3  C   UNL     1      14.785  49.668  42.014  1.00  0.00     0.010 C 
ATOM      4  C   UNL     1      15.188  49.364  43.493  1.00  0.00    -0.003 C 
ATOM      5  C   UNL     1      15.989  48.007  43.428  1.00  0.00     0.008 C 
ATOM      6  C   UNL     1      17.580  48.041  43.520  1.00  0.00    -0.000 C 
ATOM      7  C   UNL     1      18.062  46.796  44.320  1.00  0.00     0.005 C 
ATOM      8  C   UNL     1      18.306  47.107  45.788  1.00  0.00     0.005 C 
ATOM      9  C   UNL     1      19.530  48.044  45.969  1.00  0.00     0.002 C 
ATOM     10  C   UNL     1      19.772  48.539  47.474  1.00  0.00    -0.026 C 
ATOM     11  C   UNL     1      18.571  49.379  48.008  1.00  0.00     0.010 C 
ATOM     12  C   UNL     1      18.821  50.055  49.357  1.00  0.00     0.033 C 
ATOM     13  C   UNL     1      20.066  50.959  49.326  1.00  0.00     0.120 C 
ATOM     14  C   UNL     1      21.361  50.178  48.946  1.00  0.00    -0.006 C 
ATOM     15  C   UNL     1      21.145  49.355  47.582  1.00  0.00     0.003 C 
ATOM     16  C   UNL     1      21.478  50.163  46.275  1.00  0.00     0.005 C 
ATOM     17  C   UNL     1      20.285  50.431  45.360  1.00  0.00     0.008 C 
ATOM     18  C   UNL     1      19.663  49.118  44.790  1.00  0.00    -0.024 C 
ATOM     19  C   UNL     1      18.260  49.393  44.002  1.00  0.00    -0.024 C 
ATOM     20  C   UNL     1      17.224  50.161  44.875  1.00  0.00     0.008 C 
ATOM     21  C   UNL     1      15.966  50.565  44.115  1.00  0.00     0.010 C 
ATOM     22  C   UNL     1      18.548  50.273  42.734  1.00  0.00     0.012 C 
ATOM     23  C   UNL     1      20.727  48.575  43.755  1.00  0.00     0.012 C 
ATOM     24  C   UNL     1      21.772  49.230  50.125  1.00  0.00     0.014 C 
ATOM     25  C   UNL     1      22.543  51.197  48.850  1.00  0.00     0.014 C 
ATOM     26  C   UNL     1      19.869  47.249  48.353  1.00  0.00     0.012 C 
ENDROOT
BRANCH   1  27
ATOM     27  C   UNL     1      16.260  46.143  41.593  1.00  0.00    -0.077 C 
ATOM     28  C   UNL     1      17.505  46.225  40.741  1.00  0.00     0.039 C 
ATOM     29  C   UNL     1      15.780  44.920  41.875  1.00  0.00     0.008 C 
ENDBRANCH   1  27
BRANCH   4  30
ATOM     30  C   UNL     1      13.895  49.177  44.360  1.00  0.00     0.163 C 
BRANCH  30  31
ATOM     31  O   UNL     1      12.750  49.719  43.755  1.00  0.00    -0.396 OA
ATOM     32  H   UNL     1      11.977  49.159  44.026  1.00  0.00     0.210 HD
ENDBRANCH  30  31
ENDBRANCH   4  30
BRANCH  13  33
ATOM     33  O   UNL     1      19.850  52.012  48.420  1.00  0.00    -0.393 OA
ATOM     34  H   UNL     1      19.052  51.772  47.879  1.00  0.00     0.210 HD
ENDBRANCH  13  33
TORSDOF 4
ENDMDL
MODEL 4
REMARK VINA RESULT:    -6.541      1.786      7.748
REMARK INTER + INTRA:          -8.202
REMARK INTER:                  -7.671
REMARK INTRA:                  -0.531
REMARK UNBOUND:                -0.513
REMARK SMILES C=C(C)[C@@H]1CC[C@]2(CO)CC[C@]3(C)[C@@H](CC[C@@H]4[C@]5(C)CC[C@H](O)C(C)(C)[C@@H]5CC[C@@]43C)[C@H]12
REMARK SMILES IDX 4 1 5 2 6 3 7 4 32 5 14 6 15 7 16 8 17 9 18 10 20 11 21 12
REMARK SMILES IDX 22 13 24 14 27 15 28 16 29 17 30 18 12 19 11 20 10 21 13 22
REMARK SMILES IDX 31 23 25 24 26 25 19 26 2 27 3 28 1 29 8 30 9 31 23 33
REMARK H PARENT 9 32 23 34
REMARK Flexibility Score: inf
ROOT
ATOM      1  C   UNL     1       9.081  47.543  47.822  1.00  0.00     0.018 C 
ATOM      2  C   UNL     1       8.028  46.829  46.988  1.00  0.00     0.009 C 
ATOM      3  C   UNL     1       7.889  47.685  45.734  1.00  0.00     0.010 C 
ATOM      4  C   UNL     1       9.229  48.469  45.557  1.00  0.00    -0.003 C 
ATOM      5  C   UNL     1      10.123  48.031  46.781  1.00  0.00     0.008 C 
ATOM      6  C   UNL     1      11.287  46.967  46.549  1.00  0.00    -0.000 C 
ATOM      7  C   UNL     1      12.496  47.342  47.454  1.00  0.00     0.005 C 
ATOM      8  C   UNL     1      13.548  48.152  46.712  1.00  0.00     0.005 C 
ATOM      9  C   UNL     1      14.263  47.294  45.635  1.00  0.00     0.002 C 
ATOM     10  C   UNL     1      15.287  48.107  44.707  1.00  0.00    -0.026 C 
ATOM     11  C   UNL     1      14.566  49.220  43.887  1.00  0.00     0.010 C 
ATOM     12  C   UNL     1      15.442  49.896  42.830  1.00  0.00     0.033 C 
ATOM     13  C   UNL     1      16.041  48.880  41.843  1.00  0.00     0.120 C 
ATOM     14  C   UNL     1      16.913  47.800  42.554  1.00  0.00    -0.006 C 
ATOM     15  C   UNL     1      16.091  47.109  43.750  1.00  0.00     0.003 C 
ATOM     16  C   UNL     1      15.239  45.860  43.317  1.00  0.00     0.005 C 
ATOM     17  C   UNL     1      13.728  46.032  43.453  1.00  0.00     0.008 C 
ATOM     18  C   UNL     1      13.281  46.242  44.934  1.00  0.00    -0.024 C 
ATOM     19  C   UNL     1      11.705  46.649  45.050  1.00  0.00    -0.024 C 
ATOM     20  C   UNL     1      11.342  47.891  44.183  1.00  0.00     0.008 C 
ATOM     21  C   UNL     1       9.850  48.199  44.151  1.00  0.00     0.010 C 
ATOM     22  C   UNL     1      10.827  45.451  44.542  1.00  0.00     0.012 C 
ATOM     23  C   UNL     1      13.494  44.839  45.631  1.00  0.00     0.012 C 
ATOM     24  C   UNL     1      18.240  48.451  43.076  1.00  0.00     0.014 C 
ATOM     25  C   UNL     1      17.394  46.768  41.482  1.00  0.00     0.014 C 
ATOM     26  C   UNL     1      16.291  48.816  45.674  1.00  0.00     0.012 C 
ENDROOT
BRANCH   1  27
ATOM     27  C   UNL     1       9.621  46.800  49.050  1.00  0.00    -0.077 C 
ATOM     28  C   UNL     1       9.638  45.295  49.185  1.00  0.00     0.039 C 
ATOM     29  C   UNL     1      10.065  47.522  50.092  1.00  0.00     0.008 C 
ENDBRANCH   1  27
BRANCH   4  30
ATOM     30  C   UNL     1       8.949  50.010  45.629  1.00  0.00     0.163 C 
BRANCH  30  31
ATOM     31  O   UNL     1      10.125  50.778  45.625  1.00  0.00    -0.396 OA
ATOM     32  H   UNL     1       9.859  51.727  45.508  1.00  0.00     0.210 HD
ENDBRANCH  30  31
ENDBRANCH   4  30
BRANCH  13  33
ATOM     33  O   UNL     1      15.000  48.267  41.122  1.00  0.00    -0.393 OA
ATOM     34  H   UNL     1      14.172  48.373  41.660  1.00  0.00     0.210 HD
ENDBRANCH  13  33
TORSDOF 4
ENDMDL
MODEL 5
REMARK VINA RESULT:    -6.541      1.805      7.282
REMARK INTER + INTRA:          -8.201
REMARK INTER:                  -7.847
REMARK INTRA:                  -0.355
REMARK UNBOUND:                -0.513
REMARK SMILES C=C(C)[C@@H]1CC[C@]2(CO)CC[C@]3(C)[C@@H](CC[C@@H]4[C@]5(C)CC[C@H](O)C(C)(C)[C@@H]5CC[C@@]43C)[C@H]12
REMARK SMILES IDX 4 1 5 2 6 3 7 4 32 5 14 6 15 7 16 8 17 9 18 10 20 11 21 12
REMARK SMILES IDX 22 13 24 14 27 15 28 16 29 17 30 18 12 19 11 20 10 21 13 22
REMARK SMILES IDX 31 23 25 24 26 25 19 26 2 27 3 28 1 29 8 30 9 31 23 33
REMARK H PARENT 9 32 23 34
REMARK Flexibility Score: inf
ROOT
ATOM      1  C   UNL     1      11.405  44.484  46.772  1.00  0.00     0.018 C 
ATOM      2  C   UNL     1      10.106  45.236  46.526  1.00  0.00     0.009 C 
ATOM      3  C   UNL     1      10.234  46.505  47.363  1.00  0.00     0.010 C 
ATOM      4  C   UNL     1      11.760  46.779  47.555  1.00  0.00    -0.003 C 
ATOM      5  C   UNL     1      12.487  45.596  46.807  1.00  0.00     0.008 C 
ATOM      6  C   UNL     1      13.123  45.863  45.370  1.00  0.00    -0.000 C 
ATOM      7  C   UNL     1      14.438  45.039  45.244  1.00  0.00     0.005 C 
ATOM      8  C   UNL     1      15.673  45.863  45.572  1.00  0.00     0.005 C 
ATOM      9  C   UNL     1      15.925  46.953  44.497  1.00  0.00     0.002 C 
ATOM     10  C   UNL     1      17.124  47.960  44.839  1.00  0.00    -0.026 C 
ATOM     11  C   UNL     1      16.846  48.771  46.142  1.00  0.00     0.010 C 
ATOM     12  C   UNL     1      17.848  49.894  46.414  1.00  0.00     0.033 C 
ATOM     13  C   UNL     1      17.937  50.884  45.239  1.00  0.00     0.120 C 
ATOM     14  C   UNL     1      18.359  50.193  43.908  1.00  0.00    -0.006 C 
ATOM     15  C   UNL     1      17.410  48.932  43.600  1.00  0.00     0.003 C 
ATOM     16  C   UNL     1      16.111  49.280  42.784  1.00  0.00     0.005 C 
ATOM     17  C   UNL     1      14.800  49.064  43.537  1.00  0.00     0.008 C 
ATOM     18  C   UNL     1      14.567  47.567  43.912  1.00  0.00    -0.024 C 
ATOM     19  C   UNL     1      13.287  47.373  44.907  1.00  0.00    -0.024 C 
ATOM     20  C   UNL     1      13.386  48.254  46.187  1.00  0.00     0.008 C 
ATOM     21  C   UNL     1      12.135  48.210  47.056  1.00  0.00     0.010 C 
ATOM     22  C   UNL     1      11.980  47.796  44.147  1.00  0.00     0.012 C 
ATOM     23  C   UNL     1      14.257  46.842  42.542  1.00  0.00     0.012 C 
ATOM     24  C   UNL     1      19.866  49.766  43.987  1.00  0.00     0.014 C 
ATOM     25  C   UNL     1      18.329  51.259  42.765  1.00  0.00     0.014 C 
ATOM     26  C   UNL     1      18.385  47.073  45.099  1.00  0.00     0.012 C 
ENDROOT
BRANCH   1  27
ATOM     27  C   UNL     1      11.688  43.268  45.883  1.00  0.00    -0.077 C 
ATOM     28  C   UNL     1      12.808  42.284  46.131  1.00  0.00     0.039 C 
ATOM     29  C   UNL     1      10.929  43.081  44.791  1.00  0.00     0.008 C 
ENDBRANCH   1  27
BRANCH   4  30
ATOM     30  C   UNL     1      12.111  46.737  49.083  1.00  0.00     0.163 C 
BRANCH  30  31
ATOM     31  O   UNL     1      13.462  47.024  49.340  1.00  0.00    -0.396 OA
ATOM     32  H   UNL     1      13.712  46.554  50.176  1.00  0.00     0.210 HD
ENDBRANCH  30  31
ENDBRANCH   4  30
BRANCH  13  33
ATOM     33  O   UNL     1      16.696  51.527  45.082  1.00  0.00    -0.393 OA
ATOM     34  H   UNL     1      16.649  52.241  45.770  1.00  0.00     0.210 HD
ENDBRANCH  13  33
TORSDOF 4
ENDMDL
MODEL 6
REMARK VINA RESULT:    -6.468      3.339      7.146
REMARK INTER + INTRA:          -8.116
REMARK INTER:                  -7.587
REMARK INTRA:                  -0.528
REMARK UNBOUND:                -0.513
REMARK SMILES C=C(C)[C@@H]1CC[C@]2(CO)CC[C@]3(C)[C@@H](CC[C@@H]4[C@]5(C)CC[C@H](O)C(C)(C)[C@@H]5CC[C@@]43C)[C@H]12
REMARK SMILES IDX 4 1 5 2 6 3 7 4 32 5 14 6 15 7 16 8 17 9 18 10 20 11 21 12
REMARK SMILES IDX 22 13 24 14 27 15 28 16 29 17 30 18 12 19 11 20 10 21 13 22
REMARK SMILES IDX 31 23 25 24 26 25 19 26 2 27 3 28 1 29 8 30 9 31 23 33
REMARK H PARENT 9 32 23 34
REMARK Flexibility Score: inf
ROOT
ATOM      1  C   UNL     1      14.136  44.338  41.115  1.00  0.00     0.018 C 
ATOM      2  C   UNL     1      12.747  44.881  41.412  1.00  0.00     0.009 C 
ATOM      3  C   UNL     1      12.600  44.750  42.924  1.00  0.00     0.010 C 
ATOM      4  C   UNL     1      14.041  44.746  43.530  1.00  0.00    -0.003 C 
ATOM      5  C   UNL     1      15.007  44.860  42.288  1.00  0.00     0.008 C 
ATOM      6  C   UNL     1      15.682  46.266  41.959  1.00  0.00    -0.000 C 
ATOM      7  C   UNL     1      17.124  46.017  41.427  1.00  0.00     0.005 C 
ATOM      8  C   UNL     1      18.175  46.147  42.518  1.00  0.00     0.005 C 
ATOM      9  C   UNL     1      18.308  47.616  43.000  1.00  0.00     0.002 C 
ATOM     10  C   UNL     1      19.292  47.822  44.248  1.00  0.00    -0.026 C 
ATOM     11  C   UNL     1      18.793  47.053  45.511  1.00  0.00     0.010 C 
ATOM     12  C   UNL     1      19.568  47.369  46.791  1.00  0.00     0.033 C 
ATOM     13  C   UNL     1      19.564  48.875  47.109  1.00  0.00     0.120 C 
ATOM     14  C   UNL     1      20.186  49.728  45.963  1.00  0.00    -0.006 C 
ATOM     15  C   UNL     1      19.489  49.379  44.557  1.00  0.00     0.003 C 
ATOM     16  C   UNL     1      18.207  50.232  44.237  1.00  0.00     0.005 C 
ATOM     17  C   UNL     1      16.905  49.436  44.166  1.00  0.00     0.008 C 
ATOM     18  C   UNL     1      16.906  48.391  43.007  1.00  0.00    -0.024 C 
ATOM     19  C   UNL     1      15.615  47.394  43.075  1.00  0.00    -0.024 C 
ATOM     20  C   UNL     1      15.477  46.687  44.456  1.00  0.00     0.008 C 
ATOM     21  C   UNL     1      14.197  45.873  44.599  1.00  0.00     0.010 C 
ATOM     22  C   UNL     1      14.309  48.232  42.844  1.00  0.00     0.012 C 
ATOM     23  C   UNL     1      16.817  49.246  41.680  1.00  0.00     0.012 C 
ATOM     24  C   UNL     1      21.734  49.491  45.906  1.00  0.00     0.014 C 
ATOM     25  C   UNL     1      20.049  51.239  46.341  1.00  0.00     0.014 C 
ATOM     26  C   UNL     1      20.666  47.200  43.834  1.00  0.00     0.012 C 
ENDROOT
BRANCH   1  27
ATOM     27  C   UNL     1      14.681  44.550  39.698  1.00  0.00    -0.077 C 
ATOM     28  C   UNL     1      14.231  45.663  38.779  1.00  0.00     0.039 C 
ATOM     29  C   UNL     1      15.578  43.674  39.217  1.00  0.00     0.008 C 
ENDBRANCH   1  27
BRANCH   4  30
ATOM     30  C   UNL     1      14.291  43.390  44.275  1.00  0.00     0.163 C 
BRANCH  30  31
ATOM     31  O   UNL     1      14.322  43.534  45.672  1.00  0.00    -0.396 OA
ATOM     32  H   UNL     1      14.728  42.710  46.047  1.00  0.00     0.210 HD
ENDBRANCH  30  31
ENDBRANCH   4  30
BRANCH  13  33
ATOM     33  O   UNL     1      18.245  49.289  47.365  1.00  0.00    -0.393 OA
ATOM     34  H   UNL     1      18.104  49.225  48.345  1.00  0.00     0.210 HD
ENDBRANCH  13  33
TORSDOF 4
ENDMDL
MODEL 7
REMARK VINA RESULT:    -6.463      3.638      6.569
REMARK INTER + INTRA:          -8.110
REMARK INTER:                  -7.652
REMARK INTRA:                  -0.458
REMARK UNBOUND:                -0.513
REMARK SMILES C=C(C)[C@@H]1CC[C@]2(CO)CC[C@]3(C)[C@@H](CC[C@@H]4[C@]5(C)CC[C@H](O)C(C)(C)[C@@H]5CC[C@@]43C)[C@H]12
REMARK SMILES IDX 4 1 5 2 6 3 7 4 32 5 14 6 15 7 16 8 17 9 18 10 20 11 21 12
REMARK SMILES IDX 22 13 24 14 27 15 28 16 29 17 30 18 12 19 11 20 10 21 13 22
REMARK SMILES IDX 31 23 25 24 26 25 19 26 2 27 3 28 1 29 8 30 9 31 23 33
REMARK H PARENT 9 32 23 34
REMARK Flexibility Score: inf
ROOT
ATOM      1  C   UNL     1      19.911  50.769  48.960  1.00  0.00     0.018 C 
ATOM      2  C   UNL     1      20.234  49.635  49.920  1.00  0.00     0.009 C 
ATOM      3  C   UNL     1      18.905  48.916  50.124  1.00  0.00     0.010 C 
ATOM      4  C   UNL     1      18.024  49.209  48.867  1.00  0.00    -0.003 C 
ATOM      5  C   UNL     1      18.909  50.143  47.955  1.00  0.00     0.008 C 
ATOM      6  C   UNL     1      19.641  49.516  46.685  1.00  0.00    -0.000 C 
ATOM      7  C   UNL     1      19.636  50.566  45.536  1.00  0.00     0.005 C 
ATOM      8  C   UNL     1      18.490  50.353  44.560  1.00  0.00     0.005 C 
ATOM      9  C   UNL     1      18.681  49.049  43.742  1.00  0.00     0.002 C 
ATOM     10  C   UNL     1      17.448  48.672  42.790  1.00  0.00    -0.026 C 
ATOM     11  C   UNL     1      16.143  48.419  43.607  1.00  0.00     0.010 C 
ATOM     12  C   UNL     1      14.982  47.855  42.786  1.00  0.00     0.033 C 
ATOM     13  C   UNL     1      15.365  46.549  42.068  1.00  0.00     0.120 C 
ATOM     14  C   UNL     1      16.576  46.730  41.104  1.00  0.00    -0.006 C 
ATOM     15  C   UNL     1      17.812  47.414  41.872  1.00  0.00     0.003 C 
ATOM     16  C   UNL     1      18.777  46.397  42.584  1.00  0.00     0.005 C 
ATOM     17  C   UNL     1      18.813  46.501  44.108  1.00  0.00     0.008 C 
ATOM     18  C   UNL     1      19.359  47.879  44.599  1.00  0.00    -0.024 C 
ATOM     19  C   UNL     1      19.184  48.071  46.211  1.00  0.00    -0.024 C 
ATOM     20  C   UNL     1      17.715  47.859  46.683  1.00  0.00     0.008 C 
ATOM     21  C   UNL     1      17.551  47.880  48.197  1.00  0.00     0.010 C 
ATOM     22  C   UNL     1      20.072  47.010  46.953  1.00  0.00     0.012 C 
ATOM     23  C   UNL     1      20.902  47.856  44.257  1.00  0.00     0.012 C 
ATOM     24  C   UNL     1      16.139  47.578  39.859  1.00  0.00     0.014 C 
ATOM     25  C   UNL     1      16.942  45.335  40.502  1.00  0.00     0.014 C 
ATOM     26  C   UNL     1      17.196  49.919  41.880  1.00  0.00     0.012 C 
ENDROOT
BRANCH   1  27
ATOM     27  C   UNL     1      21.095  51.543  48.369  1.00  0.00    -0.077 C 
ATOM     28  C   UNL     1      22.407  50.904  47.974  1.00  0.00     0.039 C 
ATOM     29  C   UNL     1      20.988  52.874  48.232  1.00  0.00     0.008 C 
ENDBRANCH   1  27
BRANCH   4  30
ATOM     30  C   UNL     1      16.724  49.970  49.304  1.00  0.00     0.163 C 
BRANCH  30  31
ATOM     31  O   UNL     1      15.563  49.193  49.160  1.00  0.00    -0.396 OA
ATOM     32  H   UNL     1      15.171  49.408  48.275  1.00  0.00     0.210 HD
ENDBRANCH  30  31
ENDBRANCH   4  30
BRANCH  13  33
ATOM     33  O   UNL     1      15.651  45.562  43.029  1.00  0.00    -0.393 OA
ATOM     34  H   UNL     1      16.038  44.787  42.543  1.00  0.00     0.210 HD
ENDBRANCH  13  33
TORSDOF 4
ENDMDL
MODEL 8
REMARK VINA RESULT:    -6.192      1.338      7.378
REMARK INTER + INTRA:          -7.791
REMARK INTER:                  -7.338
REMARK INTRA:                  -0.453
REMARK UNBOUND:                -0.513
REMARK SMILES C=C(C)[C@@H]1CC[C@]2(CO)CC[C@]3(C)[C@@H](CC[C@@H]4[C@]5(C)CC[C@H](O)C(C)(C)[C@@H]5CC[C@@]43C)[C@H]12
REMARK SMILES IDX 4 1 5 2 6 3 7 4 32 5 14 6 15 7 16 8 17 9 18 10 20 11 21 12
REMARK SMILES IDX 22 13 24 14 27 15 28 16 29 17 30 18 12 19 11 20 10 21 13 22
REMARK SMILES IDX 31 23 25 24 26 25 19 26 2 27 3 28 1 29 8 30 9 31 23 33
REMARK H PARENT 9 32 23 34
REMARK Flexibility Score: inf
ROOT
ATOM      1  C   UNL     1       9.767  46.995  47.110  1.00  0.00     0.018 C 
ATOM      2  C   UNL     1       9.070  46.473  45.863  1.00  0.00     0.009 C 
ATOM      3  C   UNL     1       9.131  47.635  44.877  1.00  0.00     0.010 C 
ATOM      4  C   UNL     1      10.348  48.525  45.286  1.00  0.00    -0.003 C 
ATOM      5  C   UNL     1      10.957  47.825  46.560  1.00  0.00     0.008 C 
ATOM      6  C   UNL     1      12.281  46.950  46.404  1.00  0.00    -0.000 C 
ATOM      7  C   UNL     1      13.158  47.138  47.676  1.00  0.00     0.005 C 
ATOM      8  C   UNL     1      14.237  48.193  47.487  1.00  0.00     0.005 C 
ATOM      9  C   UNL     1      15.314  47.722  46.475  1.00  0.00     0.002 C 
ATOM     10  C   UNL     1      16.412  48.830  46.107  1.00  0.00    -0.026 C 
ATOM     11  C   UNL     1      15.771  50.076  45.423  1.00  0.00     0.010 C 
ATOM     12  C   UNL     1      16.779  51.079  44.860  1.00  0.00     0.033 C 
ATOM     13  C   UNL     1      17.746  50.423  43.859  1.00  0.00     0.120 C 
ATOM     14  C   UNL     1      18.554  49.250  44.491  1.00  0.00    -0.006 C 
ATOM     15  C   UNL     1      17.564  48.196  45.195  1.00  0.00     0.003 C 
ATOM     16  C   UNL     1      17.035  47.064  44.242  1.00  0.00     0.005 C 
ATOM     17  C   UNL     1      15.529  47.088  43.986  1.00  0.00     0.008 C 
ATOM     18  C   UNL     1      14.699  46.844  45.286  1.00  0.00    -0.024 C 
ATOM     19  C   UNL     1      13.103  47.094  45.054  1.00  0.00    -0.024 C 
ATOM     20  C   UNL     1      12.798  48.501  44.460  1.00  0.00     0.008 C 
ATOM     21  C   UNL     1      11.334  48.703  44.089  1.00  0.00     0.010 C 
ATOM     22  C   UNL     1      12.561  46.029  44.036  1.00  0.00     0.012 C 
ATOM     23  C   UNL     1      14.927  45.320  45.639  1.00  0.00     0.012 C 
ATOM     24  C   UNL     1      19.601  49.817  45.510  1.00  0.00     0.014 C 
ATOM     25  C   UNL     1      19.431  48.594  43.374  1.00  0.00     0.014 C 
ATOM     26  C   UNL     1      17.030  49.306  47.462  1.00  0.00     0.012 C 
ENDROOT
BRANCH   1  27
ATOM     27  C   UNL     1      10.080  45.977  48.213  1.00  0.00    -0.077 C 
ATOM     28  C   UNL     1      10.429  46.355  49.634  1.00  0.00     0.039 C 
ATOM     29  C   UNL     1      10.093  44.672  47.896  1.00  0.00     0.008 C 
ENDBRANCH   1  27
BRANCH   4  30
ATOM     30  C   UNL     1       9.843  49.962  45.660  1.00  0.00     0.163 C 
BRANCH  30  31
ATOM     31  O   UNL     1      10.298  50.389  46.918  1.00  0.00    -0.396 OA
ATOM     32  H   UNL     1      11.276  50.223  46.952  1.00  0.00     0.210 HD
ENDBRANCH  30  31
ENDBRANCH   4  30
BRANCH  13  33
ATOM     33  O   UNL     1      17.017  49.967  42.745  1.00  0.00    -0.393 OA
ATOM     34  H   UNL     1      17.666  49.847  42.002  1.00  0.00     0.210 HD
ENDBRANCH  13  33
TORSDOF 4
ENDMDL
