MODEL 1
REMARK VINA RESULT:    -0.741      0.000      0.000
REMARK INTER + INTRA:          -1.121
REMARK INTER:                  -1.000
REMARK INTRA:                  -0.121
REMARK UNBOUND:                -0.121
REMARK SMILES CCCCCCC=CC(=O)[O-]
REMARK SMILES IDX 5 1 6 2 7 3 8 4 9 5 10 6 11 7 4 8 3 9 2 10 1 11
REMARK H PARENT
REMARK Flexibility Score: inf
ROOT
ATOM      1  C   UNL     1       8.708  38.950  15.055  1.00  0.00     0.004 C 
ENDROOT
BRANCH   1   2
ATOM      2  C   UNL     1       7.580  38.928  16.097  1.00  0.00     0.027 C 
BRANCH   2   3
ATOM      3  C   UNL     1       6.248  39.297  15.505  1.00  0.00    -0.025 C 
ATOM      4  C   UNL     1       5.127  38.654  15.849  1.00  0.00     0.020 C 
BRANCH   4   5
ATOM      5  C   UNL     1       3.813  39.004  15.286  1.00  0.00     0.064 C 
ATOM      6  O   UNL     1       3.504  40.202  15.049  1.00  0.00    -0.545 OA
ATOM      7  O   UNL     1       2.898  37.995  15.010  1.00  0.00    -0.545 OA
ENDBRANCH   4   5
ENDBRANCH   2   3
ENDBRANCH   1   2
BRANCH   1   8
ATOM      8  C   UNL     1      10.081  39.223  15.696  1.00  0.00     0.000 C 
BRANCH   8   9
ATOM      9  C   UNL     1      11.203  38.379  15.071  1.00  0.00    -0.000 C 
BRANCH   9  10
ATOM     10  C   UNL     1      12.212  37.875  16.112  1.00  0.00    -0.003 C 
ATOM     11  C   UNL     1      13.645  38.058  15.621  1.00  0.00     0.004 C 
ENDBRANCH   9  10
ENDBRANCH   8   9
ENDBRANCH   1   8
TORSDOF 6
ENDMDL
