MODEL 1
REMARK VINA RESULT:    -6.659      0.000      0.000
REMARK INTER + INTRA:         -11.481
REMARK INTER:                  -9.774
REMARK INTRA:                  -1.707
REMARK UNBOUND:                -1.707
REMARK SMILES O=c1c(O[C@@H]2O[C@@H](CO)[C@H](O)[C@@H](O)[C@@H]2O)c(-c2ccc(O)c(O)c2)oc2cc(O)cc(O)c12
REMARK SMILES IDX 4 1 3 2 16 3 25 4 2 5 26 6 1 7 33 8 27 9 31 10 28 11 30 12
REMARK SMILES IDX 17 13 18 14 19 15 20 16 24 17 22 18 21 19 23 21 32 23 29 25
REMARK SMILES IDX 5 27 14 28 6 29 12 30 7 31 10 32 15 33 13 35 8 37 9 38 11 40
REMARK H PARENT 21 20 23 22 32 24 29 26 15 34 13 36 9 39 11 41
REMARK Flexibility Score: inf
ROOT
ATOM      1  O   UNL     1      19.121  -2.028 -14.786  1.00  0.00    -0.454 OA
ENDROOT
BRANCH   1   2
ATOM      2  C   UNL     1      18.759  -2.420 -13.492  1.00  0.00     0.214 A 
ATOM      3  C   UNL     1      17.884  -3.503 -13.257  1.00  0.00     0.180 A 
ATOM      4  O   UNL     1      17.496  -3.781 -12.016  1.00  0.00    -0.452 OA
ATOM      5  C   UNL     1      19.268  -1.714 -12.398  1.00  0.00     0.239 A 
ATOM      6  C   UNL     1      17.927  -3.112 -10.952  1.00  0.00     0.146 A 
ATOM      7  O   UNL     1      20.082  -0.773 -12.601  1.00  0.00    -0.285 OA
ATOM      8  C   UNL     1      18.851  -2.050 -11.094  1.00  0.00     0.111 A 
ATOM      9  C   UNL     1      17.464  -3.478  -9.684  1.00  0.00     0.094 A 
ATOM     10  C   UNL     1      19.303  -1.369  -9.938  1.00  0.00     0.134 A 
ATOM     11  C   UNL     1      17.910  -2.803  -8.547  1.00  0.00     0.123 A 
ATOM     12  C   UNL     1      18.827  -1.753  -8.675  1.00  0.00     0.093 A 
BRANCH   3  13
ATOM     13  C   UNL     1      17.389  -4.366 -14.350  1.00  0.00     0.025 A 
ATOM     14  C   UNL     1      16.012  -4.573 -14.541  1.00  0.00     0.016 A 
ATOM     15  C   UNL     1      15.559  -5.383 -15.584  1.00  0.00     0.051 A 
ATOM     16  C   UNL     1      16.469  -5.984 -16.460  1.00  0.00     0.157 A 
ATOM     17  C   UNL     1      18.300  -4.950 -15.243  1.00  0.00     0.062 A 
ATOM     18  C   UNL     1      17.847  -5.764 -16.292  1.00  0.00     0.158 A 
BRANCH  16  19
ATOM     19  O   UNL     1      15.987  -6.792 -17.489  1.00  0.00    -0.504 OA
ATOM     20  H   UNL     1      16.574  -7.089 -18.259  1.00  0.00     0.293 HD
ENDBRANCH  16  19
BRANCH  18  21
ATOM     21  O   UNL     1      18.759  -6.353 -17.166  1.00  0.00    -0.504 OA
ATOM     22  H   UNL     1      19.165  -7.262 -16.976  1.00  0.00     0.293 HD
ENDBRANCH  18  21
ENDBRANCH   3  13
BRANCH  10  23
ATOM     23  O   UNL     1      20.215  -0.317 -10.035  1.00  0.00    -0.507 OA
ATOM     24  H   UNL     1      19.969   0.562 -10.475  1.00  0.00     0.293 HD
ENDBRANCH  10  23
BRANCH  11  25
ATOM     25  O   UNL     1      17.438  -3.183  -7.294  1.00  0.00    -0.508 OA
ATOM     26  H   UNL     1      17.920  -2.920  -6.442  1.00  0.00     0.293 HD
ENDBRANCH  11  25
ENDBRANCH   1   2
BRANCH   1  27
ATOM     27  C   UNL     1      18.310  -1.170 -15.600  1.00  0.00     0.339 C 
ATOM     28  C   UNL     1      19.035   0.154 -15.892  1.00  0.00     0.214 C 
ATOM     29  O   UNL     1      17.935  -1.821 -16.804  1.00  0.00    -0.332 OA
ATOM     30  C   UNL     1      20.265  -0.108 -16.781  1.00  0.00     0.180 C 
ATOM     31  C   UNL     1      19.065  -2.196 -17.576  1.00  0.00     0.179 C 
ATOM     32  C   UNL     1      19.864  -0.940 -18.016  1.00  0.00     0.177 C 
BRANCH  28  33
ATOM     33  O   UNL     1      19.423   0.754 -14.684  1.00  0.00    -0.384 OA
ATOM     34  H   UNL     1      18.961   0.260 -13.957  1.00  0.00     0.211 HD
ENDBRANCH  28  33
BRANCH  30  35
ATOM     35  O   UNL     1      20.876   1.099 -17.168  1.00  0.00    -0.387 OA
ATOM     36  H   UNL     1      21.613   0.876 -17.796  1.00  0.00     0.211 HD
ENDBRANCH  30  35
BRANCH  31  37
ATOM     37  C   UNL     1      18.558  -2.992 -18.790  1.00  0.00     0.191 C 
BRANCH  37  38
ATOM     38  O   UNL     1      19.351  -4.126 -19.025  1.00  0.00    -0.394 OA
ATOM     39  H   UNL     1      18.855  -4.691 -19.673  1.00  0.00     0.210 HD
ENDBRANCH  37  38
ENDBRANCH  31  37
BRANCH  32  40
ATOM     40  O   UNL     1      21.004  -1.287 -18.763  1.00  0.00    -0.387 OA
ATOM     41  H   UNL     1      21.403  -0.446 -19.111  1.00  0.00     0.211 HD
ENDBRANCH  32  40
ENDBRANCH   1  27
TORSDOF 12
ENDMDL
MODEL 2
REMARK VINA RESULT:    -6.407      1.957      6.832
REMARK INTER + INTRA:         -11.110
REMARK INTER:                 -10.208
REMARK INTRA:                  -0.901
REMARK UNBOUND:                -1.707
REMARK SMILES O=c1c(O[C@@H]2O[C@@H](CO)[C@H](O)[C@@H](O)[C@@H]2O)c(-c2ccc(O)c(O)c2)oc2cc(O)cc(O)c12
REMARK SMILES IDX 4 1 3 2 16 3 25 4 2 5 26 6 1 7 33 8 27 9 31 10 28 11 30 12
REMARK SMILES IDX 17 13 18 14 19 15 20 16 24 17 22 18 21 19 23 21 32 23 29 25
REMARK SMILES IDX 5 27 14 28 6 29 12 30 7 31 10 32 15 33 13 35 8 37 9 38 11 40
REMARK H PARENT 21 20 23 22 32 24 29 26 15 34 13 36 9 39 11 41
REMARK Flexibility Score: inf
ROOT
ATOM      1  O   UNL     1      17.465  -3.374 -13.627  1.00  0.00    -0.454 OA
ENDROOT
BRANCH   1   2
ATOM      2  C   UNL     1      17.824  -3.240 -14.974  1.00  0.00     0.214 A 
ATOM      3  C   UNL     1      17.651  -4.290 -15.902  1.00  0.00     0.180 A 
ATOM      4  O   UNL     1      18.092  -4.148 -17.149  1.00  0.00    -0.452 OA
ATOM      5  C   UNL     1      18.382  -2.035 -15.413  1.00  0.00     0.239 A 
ATOM      6  C   UNL     1      18.661  -3.034 -17.597  1.00  0.00     0.146 A 
ATOM      7  O   UNL     1      18.501  -1.081 -14.598  1.00  0.00    -0.285 OA
ATOM      8  C   UNL     1      18.820  -1.914 -16.748  1.00  0.00     0.111 A 
ATOM      9  C   UNL     1      19.092  -2.978 -18.926  1.00  0.00     0.094 A 
ATOM     10  C   UNL     1      19.414  -0.737 -17.263  1.00  0.00     0.134 A 
ATOM     11  C   UNL     1      19.680  -1.816 -19.429  1.00  0.00     0.123 A 
ATOM     12  C   UNL     1      19.839  -0.700 -18.600  1.00  0.00     0.093 A 
BRANCH   3  13
ATOM     13  C   UNL     1      16.971  -5.552 -15.544  1.00  0.00     0.025 A 
ATOM     14  C   UNL     1      17.430  -6.343 -14.476  1.00  0.00     0.016 A 
ATOM     15  C   UNL     1      16.771  -7.528 -14.143  1.00  0.00     0.051 A 
ATOM     16  C   UNL     1      15.638  -7.932 -14.856  1.00  0.00     0.157 A 
ATOM     17  C   UNL     1      15.821  -5.946 -16.243  1.00  0.00     0.062 A 
ATOM     18  C   UNL     1      15.157  -7.136 -15.910  1.00  0.00     0.158 A 
BRANCH  16  19
ATOM     19  O   UNL     1      15.004  -9.123 -14.504  1.00  0.00    -0.504 OA
ATOM     20  H   UNL     1      15.523  -9.948 -14.229  1.00  0.00     0.293 HD
ENDBRANCH  16  19
BRANCH  18  21
ATOM     21  O   UNL     1      14.024  -7.528 -16.620  1.00  0.00    -0.504 OA
ATOM     22  H   UNL     1      13.167  -6.987 -16.594  1.00  0.00     0.293 HD
ENDBRANCH  18  21
ENDBRANCH   3  13
BRANCH  10  23
ATOM     23  O   UNL     1      19.587   0.390 -16.459  1.00  0.00    -0.507 OA
ATOM     24  H   UNL     1      18.970   0.591 -15.681  1.00  0.00     0.293 HD
ENDBRANCH  10  23
BRANCH  11  25
ATOM     25  O   UNL     1      20.102  -1.780 -20.756  1.00  0.00    -0.508 OA
ATOM     26  H   UNL     1      20.214  -2.627 -21.300  1.00  0.00     0.293 HD
ENDBRANCH  11  25
ENDBRANCH   1   2
BRANCH   1  27
ATOM     27  C   UNL     1      16.506  -2.524 -12.985  1.00  0.00     0.339 C 
ATOM     28  C   UNL     1      15.297  -3.336 -12.491  1.00  0.00     0.214 C 
ATOM     29  O   UNL     1      17.102  -1.802 -11.919  1.00  0.00    -0.332 OA
ATOM     30  C   UNL     1      15.732  -4.287 -11.360  1.00  0.00     0.180 C 
ATOM     31  C   UNL     1      17.636  -2.667 -10.928  1.00  0.00     0.179 C 
ATOM     32  C   UNL     1      16.506  -3.508 -10.276  1.00  0.00     0.177 C 
BRANCH  28  33
ATOM     33  O   UNL     1      14.752  -4.065 -13.560  1.00  0.00    -0.384 OA
ATOM     34  H   UNL     1      15.372  -3.956 -14.328  1.00  0.00     0.211 HD
ENDBRANCH  28  33
BRANCH  30  35
ATOM     35  O   UNL     1      14.625  -4.952 -10.804  1.00  0.00    -0.387 OA
ATOM     36  H   UNL     1      13.825  -4.704 -11.337  1.00  0.00     0.211 HD
ENDBRANCH  30  35
BRANCH  31  37
ATOM     37  C   UNL     1      18.358  -1.796  -9.888  1.00  0.00     0.191 C 
BRANCH  37  38
ATOM     38  O   UNL     1      19.243  -2.558  -9.109  1.00  0.00    -0.394 OA
ATOM     39  H   UNL     1      19.898  -1.922  -8.720  1.00  0.00     0.210 HD
ENDBRANCH  37  38
ENDBRANCH  31  37
BRANCH  32  40
ATOM     40  O   UNL     1      17.011  -4.392  -9.307  1.00  0.00    -0.387 OA
ATOM     41  H   UNL     1      17.881  -4.738  -9.639  1.00  0.00     0.211 HD
ENDBRANCH  32  40
ENDBRANCH   1  27
TORSDOF 12
ENDMDL
MODEL 3
REMARK VINA RESULT:    -6.340      2.757      6.902
REMARK INTER + INTRA:         -11.011
REMARK INTER:                  -9.177
REMARK INTRA:                  -1.834
REMARK UNBOUND:                -1.707
REMARK SMILES O=c1c(O[C@@H]2O[C@@H](CO)[C@H](O)[C@@H](O)[C@@H]2O)c(-c2ccc(O)c(O)c2)oc2cc(O)cc(O)c12
REMARK SMILES IDX 4 1 3 2 16 3 25 4 2 5 26 6 1 7 33 8 27 9 31 10 28 11 30 12
REMARK SMILES IDX 17 13 18 14 19 15 20 16 24 17 22 18 21 19 23 21 32 23 29 25
REMARK SMILES IDX 5 27 14 28 6 29 12 30 7 31 10 32 15 33 13 35 8 37 9 38 11 40
REMARK H PARENT 21 20 23 22 32 24 29 26 15 34 13 36 9 39 11 41
REMARK Flexibility Score: inf
ROOT
ATOM      1  O   UNL     1      17.035  -0.526 -13.242  1.00  0.00    -0.454 OA
ENDROOT
BRANCH   1   2
ATOM      2  C   UNL     1      17.309  -1.403 -14.299  1.00  0.00     0.214 A 
ATOM      3  C   UNL     1      16.931  -2.762 -14.259  1.00  0.00     0.180 A 
ATOM      4  O   UNL     1      17.293  -3.577 -15.247  1.00  0.00    -0.452 OA
ATOM      5  C   UNL     1      17.986  -0.922 -15.424  1.00  0.00     0.239 A 
ATOM      6  C   UNL     1      17.968  -3.169 -16.316  1.00  0.00     0.146 A 
ATOM      7  O   UNL     1      18.288   0.300 -15.483  1.00  0.00    -0.285 OA
ATOM      8  C   UNL     1      18.335  -1.811 -16.462  1.00  0.00     0.111 A 
ATOM      9  C   UNL     1      18.303  -4.100 -17.304  1.00  0.00     0.094 A 
ATOM     10  C   UNL     1      19.039  -1.407 -17.622  1.00  0.00     0.134 A 
ATOM     11  C   UNL     1      19.000  -3.698 -18.445  1.00  0.00     0.123 A 
ATOM     12  C   UNL     1      19.364  -2.356 -18.603  1.00  0.00     0.093 A 
BRANCH   3  13
ATOM     13  C   UNL     1      16.120  -3.322 -13.158  1.00  0.00     0.025 A 
ATOM     14  C   UNL     1      16.712  -4.095 -12.144  1.00  0.00     0.016 A 
ATOM     15  C   UNL     1      15.934  -4.608 -11.104  1.00  0.00     0.051 A 
ATOM     16  C   UNL     1      14.562  -4.345 -11.051  1.00  0.00     0.157 A 
ATOM     17  C   UNL     1      14.748  -3.039 -13.091  1.00  0.00     0.062 A 
ATOM     18  C   UNL     1      13.965  -3.553 -12.047  1.00  0.00     0.158 A 
BRANCH  16  19
ATOM     19  O   UNL     1      13.810  -4.876 -10.003  1.00  0.00    -0.504 OA
ATOM     20  H   UNL     1      13.989  -4.634  -9.036  1.00  0.00     0.293 HD
ENDBRANCH  16  19
BRANCH  18  21
ATOM     21  O   UNL     1      12.599  -3.281 -11.995  1.00  0.00    -0.504 OA
ATOM     22  H   UNL     1      11.993  -3.448 -12.791  1.00  0.00     0.293 HD
ENDBRANCH  18  21
ENDBRANCH   3  13
BRANCH  10  23
ATOM     23  O   UNL     1      19.418  -0.077 -17.804  1.00  0.00    -0.507 OA
ATOM     24  H   UNL     1      19.121   0.655 -17.168  1.00  0.00     0.293 HD
ENDBRANCH  10  23
BRANCH  11  25
ATOM     25  O   UNL     1      19.323  -4.640 -19.418  1.00  0.00    -0.508 OA
ATOM     26  H   UNL     1      18.888  -4.629 -20.333  1.00  0.00     0.293 HD
ENDBRANCH  11  25
ENDBRANCH   1   2
BRANCH   1  27
ATOM     27  C   UNL     1      18.039  -0.068 -12.325  1.00  0.00     0.339 C 
ATOM     28  C   UNL     1      17.903   1.443 -12.075  1.00  0.00     0.214 C 
ATOM     29  O   UNL     1      17.980  -0.793 -11.107  1.00  0.00    -0.332 OA
ATOM     30  C   UNL     1      16.589   1.733 -11.326  1.00  0.00     0.180 C 
ATOM     31  C   UNL     1      16.721  -0.650 -10.467  1.00  0.00     0.179 C 
ATOM     32  C   UNL     1      16.475   0.833 -10.078  1.00  0.00     0.177 C 
BRANCH  28  33
ATOM     33  O   UNL     1      17.929   2.127 -13.301  1.00  0.00    -0.384 OA
ATOM     34  H   UNL     1      18.081   1.445 -14.007  1.00  0.00     0.211 HD
ENDBRANCH  28  33
BRANCH  30  35
ATOM     35  O   UNL     1      16.497   3.092 -10.972  1.00  0.00    -0.387 OA
ATOM     36  H   UNL     1      17.315   3.546 -11.305  1.00  0.00     0.211 HD
ENDBRANCH  30  35
BRANCH  31  37
ATOM     37  C   UNL     1      16.721  -1.561  -9.229  1.00  0.00     0.191 C 
BRANCH  37  38
ATOM     38  O   UNL     1      17.315  -0.927  -8.127  1.00  0.00    -0.394 OA
ATOM     39  H   UNL     1      16.748  -0.142  -7.911  1.00  0.00     0.210 HD
ENDBRANCH  37  38
ENDBRANCH  31  37
BRANCH  32  40
ATOM     40  O   UNL     1      15.222   1.006  -9.463  1.00  0.00    -0.387 OA
ATOM     41  H   UNL     1      14.595   0.351  -9.868  1.00  0.00     0.211 HD
ENDBRANCH  32  40
ENDBRANCH   1  27
TORSDOF 12
ENDMDL
MODEL 4
REMARK VINA RESULT:    -6.313      2.163      6.646
REMARK INTER + INTRA:         -10.972
REMARK INTER:                  -9.086
REMARK INTRA:                  -1.886
REMARK UNBOUND:                -1.707
REMARK SMILES O=c1c(O[C@@H]2O[C@@H](CO)[C@H](O)[C@@H](O)[C@@H]2O)c(-c2ccc(O)c(O)c2)oc2cc(O)cc(O)c12
REMARK SMILES IDX 4 1 3 2 16 3 25 4 2 5 26 6 1 7 33 8 27 9 31 10 28 11 30 12
REMARK SMILES IDX 17 13 18 14 19 15 20 16 24 17 22 18 21 19 23 21 32 23 29 25
REMARK SMILES IDX 5 27 14 28 6 29 12 30 7 31 10 32 15 33 13 35 8 37 9 38 11 40
REMARK H PARENT 21 20 23 22 32 24 29 26 15 34 13 36 9 39 11 41
REMARK Flexibility Score: inf
ROOT
ATOM      1  O   UNL     1      16.851  -3.311 -14.304  1.00  0.00    -0.454 OA
ENDROOT
BRANCH   1   2
ATOM      2  C   UNL     1      17.488  -3.228 -15.549  1.00  0.00     0.214 A 
ATOM      3  C   UNL     1      17.503  -4.312 -16.454  1.00  0.00     0.180 A 
ATOM      4  O   UNL     1      18.197  -4.218 -17.584  1.00  0.00    -0.452 OA
ATOM      5  C   UNL     1      18.138  -2.042 -15.904  1.00  0.00     0.239 A 
ATOM      6  C   UNL     1      18.859  -3.123 -17.943  1.00  0.00     0.146 A 
ATOM      7  O   UNL     1      18.092  -1.058 -15.118  1.00  0.00    -0.285 OA
ATOM      8  C   UNL     1      18.847  -1.972 -17.121  1.00  0.00     0.111 A 
ATOM      9  C   UNL     1      19.560  -3.118 -19.152  1.00  0.00     0.094 A 
ATOM     10  C   UNL     1      19.548  -0.817 -17.541  1.00  0.00     0.134 A 
ATOM     11  C   UNL     1      20.253  -1.977 -19.562  1.00  0.00     0.123 A 
ATOM     12  C   UNL     1      20.245  -0.831 -18.759  1.00  0.00     0.093 A 
BRANCH   3  13
ATOM     13  C   UNL     1      16.749  -5.558 -16.202  1.00  0.00     0.025 A 
ATOM     14  C   UNL     1      15.411  -5.690 -16.612  1.00  0.00     0.016 A 
ATOM     15  C   UNL     1      14.716  -6.878 -16.377  1.00  0.00     0.051 A 
ATOM     16  C   UNL     1      15.347  -7.954 -15.745  1.00  0.00     0.157 A 
ATOM     17  C   UNL     1      17.388  -6.646 -15.589  1.00  0.00     0.062 A 
ATOM     18  C   UNL     1      16.692  -7.840 -15.352  1.00  0.00     0.158 A 
BRANCH  16  19
ATOM     19  O   UNL     1      14.625  -9.125 -15.518  1.00  0.00    -0.504 OA
ATOM     20  H   UNL     1      14.794  -9.713 -14.711  1.00  0.00     0.293 HD
ENDBRANCH  16  19
BRANCH  18  21
ATOM     21  O   UNL     1      17.329  -8.912 -14.728  1.00  0.00    -0.504 OA
ATOM     22  H   UNL     1      16.806  -9.636 -14.250  1.00  0.00     0.293 HD
ENDBRANCH  18  21
ENDBRANCH   3  13
BRANCH  10  23
ATOM     23  O   UNL     1      19.561   0.339 -16.760  1.00  0.00    -0.507 OA
ATOM     24  H   UNL     1      20.256   1.065 -16.893  1.00  0.00     0.293 HD
ENDBRANCH  10  23
BRANCH  11  25
ATOM     25  O   UNL     1      20.945  -1.992 -20.770  1.00  0.00    -0.508 OA
ATOM     26  H   UNL     1      20.988  -2.824 -21.348  1.00  0.00     0.293 HD
ENDBRANCH  11  25
ENDBRANCH   1   2
BRANCH   1  27
ATOM     27  C   UNL     1      17.482  -3.856 -13.138  1.00  0.00     0.339 C 
ATOM     28  C   UNL     1      17.370  -2.885 -11.950  1.00  0.00     0.214 C 
ATOM     29  O   UNL     1      16.935  -5.124 -12.812  1.00  0.00    -0.332 OA
ATOM     30  C   UNL     1      15.896  -2.753 -11.520  1.00  0.00     0.180 C 
ATOM     31  C   UNL     1      15.542  -5.046 -12.546  1.00  0.00     0.179 C 
ATOM     32  C   UNL     1      15.275  -4.149 -11.308  1.00  0.00     0.177 C 
BRANCH  28  33
ATOM     33  O   UNL     1      17.886  -1.633 -12.317  1.00  0.00    -0.384 OA
ATOM     34  H   UNL     1      17.280  -0.947 -11.931  1.00  0.00     0.211 HD
ENDBRANCH  28  33
BRANCH  30  35
ATOM     35  O   UNL     1      15.777  -1.970 -10.357  1.00  0.00    -0.387 OA
ATOM     36  H   UNL     1      15.017  -2.329  -9.829  1.00  0.00     0.211 HD
ENDBRANCH  30  35
BRANCH  31  37
ATOM     37  C   UNL     1      15.029  -6.478 -12.323  1.00  0.00     0.191 C 
BRANCH  37  38
ATOM     38  O   UNL     1      13.627  -6.516 -12.275  1.00  0.00    -0.394 OA
ATOM     39  H   UNL     1      13.383  -7.294 -11.709  1.00  0.00     0.210 HD
ENDBRANCH  37  38
ENDBRANCH  31  37
BRANCH  32  40
ATOM     40  O   UNL     1      13.900  -4.036 -11.037  1.00  0.00    -0.387 OA
ATOM     41  H   UNL     1      13.536  -4.954 -10.937  1.00  0.00     0.211 HD
ENDBRANCH  32  40
ENDBRANCH   1  27
TORSDOF 12
ENDMDL
MODEL 5
REMARK VINA RESULT:    -6.190      2.166      8.009
REMARK INTER + INTRA:         -10.791
REMARK INTER:                  -8.702
REMARK INTRA:                  -2.089
REMARK UNBOUND:                -1.707
REMARK SMILES O=c1c(O[C@@H]2O[C@@H](CO)[C@H](O)[C@@H](O)[C@@H]2O)c(-c2ccc(O)c(O)c2)oc2cc(O)cc(O)c12
REMARK SMILES IDX 4 1 3 2 16 3 25 4 2 5 26 6 1 7 33 8 27 9 31 10 28 11 30 12
REMARK SMILES IDX 17 13 18 14 19 15 20 16 24 17 22 18 21 19 23 21 32 23 29 25
REMARK SMILES IDX 5 27 14 28 6 29 12 30 7 31 10 32 15 33 13 35 8 37 9 38 11 40
REMARK H PARENT 21 20 23 22 32 24 29 26 15 34 13 36 9 39 11 41
REMARK Flexibility Score: inf
ROOT
ATOM      1  O   UNL     1      17.273  -2.828 -13.650  1.00  0.00    -0.454 OA
ENDROOT
BRANCH   1   2
ATOM      2  C   UNL     1      17.972  -2.334 -14.758  1.00  0.00     0.214 A 
ATOM      3  C   UNL     1      18.569  -1.055 -14.754  1.00  0.00     0.180 A 
ATOM      4  O   UNL     1      19.143  -0.592 -15.861  1.00  0.00    -0.452 OA
ATOM      5  C   UNL     1      18.073  -3.124 -15.907  1.00  0.00     0.239 A 
ATOM      6  C   UNL     1      19.229  -1.294 -16.985  1.00  0.00     0.146 A 
ATOM      7  O   UNL     1      17.577  -4.283 -15.901  1.00  0.00    -0.285 OA
ATOM      8  C   UNL     1      18.707  -2.607 -17.056  1.00  0.00     0.111 A 
ATOM      9  C   UNL     1      19.853  -0.723 -18.099  1.00  0.00     0.094 A 
ATOM     10  C   UNL     1      18.830  -3.335 -18.264  1.00  0.00     0.134 A 
ATOM     11  C   UNL     1      19.970  -1.443 -19.289  1.00  0.00     0.123 A 
ATOM     12  C   UNL     1      19.461  -2.744 -19.370  1.00  0.00     0.093 A 
BRANCH   3  13
ATOM     13  C   UNL     1      18.601  -0.205 -13.546  1.00  0.00     0.025 A 
ATOM     14  C   UNL     1      17.865   0.991 -13.483  1.00  0.00     0.016 A 
ATOM     15  C   UNL     1      17.897   1.779 -12.331  1.00  0.00     0.051 A 
ATOM     16  C   UNL     1      18.647   1.379 -11.221  1.00  0.00     0.157 A 
ATOM     17  C   UNL     1      19.335  -0.617 -12.423  1.00  0.00     0.062 A 
ATOM     18  C   UNL     1      19.368   0.173 -11.265  1.00  0.00     0.158 A 
BRANCH  16  19
ATOM     19  O   UNL     1      18.664   2.189 -10.086  1.00  0.00    -0.504 OA
ATOM     20  H   UNL     1      18.747   1.806  -9.153  1.00  0.00     0.293 HD
ENDBRANCH  16  19
BRANCH  18  21
ATOM     21  O   UNL     1      20.112  -0.236 -10.159  1.00  0.00    -0.504 OA
ATOM     22  H   UNL     1      20.042  -1.178  -9.791  1.00  0.00     0.293 HD
ENDBRANCH  18  21
ENDBRANCH   3  13
BRANCH  10  23
ATOM     23  O   UNL     1      18.330  -4.633 -18.374  1.00  0.00    -0.507 OA
ATOM     24  H   UNL     1      17.346  -4.813 -18.539  1.00  0.00     0.293 HD
ENDBRANCH  10  23
BRANCH  11  25
ATOM     25  O   UNL     1      20.595  -0.857 -20.386  1.00  0.00    -0.508 OA
ATOM     26  H   UNL     1      20.739  -1.367 -21.250  1.00  0.00     0.293 HD
ENDBRANCH  11  25
ENDBRANCH   1   2
BRANCH   1  27
ATOM     27  C   UNL     1      15.904  -2.499 -13.377  1.00  0.00     0.339 C 
ATOM     28  C   UNL     1      15.059  -3.772 -13.199  1.00  0.00     0.214 C 
ATOM     29  O   UNL     1      15.803  -1.658 -12.239  1.00  0.00    -0.332 OA
ATOM     30  C   UNL     1      15.499  -4.518 -11.925  1.00  0.00     0.180 C 
ATOM     31  C   UNL     1      16.332  -2.278 -11.076  1.00  0.00     0.179 C 
ATOM     32  C   UNL     1      15.520  -3.552 -10.722  1.00  0.00     0.177 C 
BRANCH  28  33
ATOM     33  O   UNL     1      15.210  -4.597 -14.325  1.00  0.00    -0.384 OA
ATOM     34  H   UNL     1      14.301  -4.903 -14.581  1.00  0.00     0.211 HD
ENDBRANCH  28  33
BRANCH  30  35
ATOM     35  O   UNL     1      14.661  -5.618 -11.669  1.00  0.00    -0.387 OA
ATOM     36  H   UNL     1      15.070  -6.144 -10.932  1.00  0.00     0.211 HD
ENDBRANCH  30  35
BRANCH  31  37
ATOM     37  C   UNL     1      16.283  -1.248  -9.935  1.00  0.00     0.191 C 
BRANCH  37  38
ATOM     38  O   UNL     1      17.329  -1.448  -9.021  1.00  0.00    -0.394 OA
ATOM     39  H   UNL     1      16.968  -1.229  -8.123  1.00  0.00     0.210 HD
ENDBRANCH  37  38
ENDBRANCH  31  37
BRANCH  32  40
ATOM     40  O   UNL     1      16.040  -4.199  -9.586  1.00  0.00    -0.387 OA
ATOM     41  H   UNL     1      15.382  -4.088  -8.850  1.00  0.00     0.211 HD
ENDBRANCH  32  40
ENDBRANCH   1  27
TORSDOF 12
ENDMDL
MODEL 6
REMARK VINA RESULT:    -6.159      3.295      6.704
REMARK INTER + INTRA:         -10.746
REMARK INTER:                  -9.280
REMARK INTRA:                  -1.466
REMARK UNBOUND:                -1.707
REMARK SMILES O=c1c(O[C@@H]2O[C@@H](CO)[C@H](O)[C@@H](O)[C@@H]2O)c(-c2ccc(O)c(O)c2)oc2cc(O)cc(O)c12
REMARK SMILES IDX 4 1 3 2 16 3 25 4 2 5 26 6 1 7 33 8 27 9 31 10 28 11 30 12
REMARK SMILES IDX 17 13 18 14 19 15 20 16 24 17 22 18 21 19 23 21 32 23 29 25
REMARK SMILES IDX 5 27 14 28 6 29 12 30 7 31 10 32 15 33 13 35 8 37 9 38 11 40
REMARK H PARENT 21 20 23 22 32 24 29 26 15 34 13 36 9 39 11 41
REMARK Flexibility Score: inf
ROOT
ATOM      1  O   UNL     1      16.716  -0.596 -13.002  1.00  0.00    -0.454 OA
ENDROOT
BRANCH   1   2
ATOM      2  C   UNL     1      17.033  -1.456 -14.061  1.00  0.00     0.214 A 
ATOM      3  C   UNL     1      16.693  -2.826 -14.039  1.00  0.00     0.180 A 
ATOM      4  O   UNL     1      17.095  -3.622 -15.026  1.00  0.00    -0.452 OA
ATOM      5  C   UNL     1      17.717  -0.947 -15.169  1.00  0.00     0.239 A 
ATOM      6  C   UNL     1      17.778  -3.187 -16.079  1.00  0.00     0.146 A 
ATOM      7  O   UNL     1      17.987   0.283 -15.213  1.00  0.00    -0.285 OA
ATOM      8  C   UNL     1      18.110  -1.818 -16.207  1.00  0.00     0.111 A 
ATOM      9  C   UNL     1      18.158  -4.099 -17.068  1.00  0.00     0.094 A 
ATOM     10  C   UNL     1      18.824  -1.385 -17.350  1.00  0.00     0.134 A 
ATOM     11  C   UNL     1      18.863  -3.669 -18.192  1.00  0.00     0.123 A 
ATOM     12  C   UNL     1      19.194  -2.316 -18.333  1.00  0.00     0.093 A 
BRANCH   3  13
ATOM     13  C   UNL     1      15.877  -3.417 -12.957  1.00  0.00     0.025 A 
ATOM     14  C   UNL     1      16.483  -4.007 -11.834  1.00  0.00     0.016 A 
ATOM     15  C   UNL     1      15.699  -4.552 -10.816  1.00  0.00     0.051 A 
ATOM     16  C   UNL     1      14.304  -4.502 -10.893  1.00  0.00     0.157 A 
ATOM     17  C   UNL     1      14.478  -3.346 -13.022  1.00  0.00     0.062 A 
ATOM     18  C   UNL     1      13.688  -3.892 -12.000  1.00  0.00     0.158 A 
BRANCH  16  19
ATOM     19  O   UNL     1      13.547  -5.059  -9.862  1.00  0.00    -0.504 OA
ATOM     20  H   UNL     1      13.313  -4.539  -9.025  1.00  0.00     0.293 HD
ENDBRANCH  16  19
BRANCH  18  21
ATOM     21  O   UNL     1      12.298  -3.831 -12.079  1.00  0.00    -0.504 OA
ATOM     22  H   UNL     1      11.810  -2.949 -12.182  1.00  0.00     0.293 HD
ENDBRANCH  18  21
ENDBRANCH   3  13
BRANCH  10  23
ATOM     23  O   UNL     1      19.169  -0.043 -17.516  1.00  0.00    -0.507 OA
ATOM     24  H   UNL     1      19.985   0.357 -17.067  1.00  0.00     0.293 HD
ENDBRANCH  10  23
BRANCH  11  25
ATOM     25  O   UNL     1      19.231  -4.593 -19.167  1.00  0.00    -0.508 OA
ATOM     26  H   UNL     1      19.468  -4.306 -20.109  1.00  0.00     0.293 HD
ENDBRANCH  11  25
ENDBRANCH   1   2
BRANCH   1  27
ATOM     27  C   UNL     1      15.412  -0.030 -12.817  1.00  0.00     0.339 C 
ATOM     28  C   UNL     1      15.143   0.252 -11.330  1.00  0.00     0.214 C 
ATOM     29  O   UNL     1      15.257   1.147 -13.594  1.00  0.00    -0.332 OA
ATOM     30  C   UNL     1      16.081   1.367 -10.830  1.00  0.00     0.180 C 
ATOM     31  C   UNL     1      16.207   2.142 -13.242  1.00  0.00     0.179 C 
ATOM     32  C   UNL     1      16.006   2.589 -11.770  1.00  0.00     0.177 C 
BRANCH  28  33
ATOM     33  O   UNL     1      15.339  -0.922 -10.586  1.00  0.00    -0.384 OA
ATOM     34  H   UNL     1      14.514  -1.465 -10.682  1.00  0.00     0.211 HD
ENDBRANCH  28  33
BRANCH  30  35
ATOM     35  O   UNL     1      15.772   1.734  -9.508  1.00  0.00    -0.387 OA
ATOM     36  H   UNL     1      16.552   2.228  -9.142  1.00  0.00     0.211 HD
ENDBRANCH  30  35
BRANCH  31  37
ATOM     37  C   UNL     1      16.032   3.320 -14.215  1.00  0.00     0.191 C 
BRANCH  37  38
ATOM     38  O   UNL     1      16.433   2.973 -15.514  1.00  0.00    -0.394 OA
ATOM     39  H   UNL     1      16.189   3.737 -16.100  1.00  0.00     0.210 HD
ENDBRANCH  37  38
ENDBRANCH  31  37
BRANCH  32  40
ATOM     40  O   UNL     1      16.951   3.557 -11.388  1.00  0.00    -0.387 OA
ATOM     41  H   UNL     1      16.978   3.576 -10.396  1.00  0.00     0.211 HD
ENDBRANCH  32  40
ENDBRANCH   1  27
TORSDOF 12
ENDMDL
MODEL 7
REMARK VINA RESULT:    -6.157      3.508      6.138
REMARK INTER + INTRA:         -10.744
REMARK INTER:                  -9.026
REMARK INTRA:                  -1.718
REMARK UNBOUND:                -1.707
REMARK SMILES O=c1c(O[C@@H]2O[C@@H](CO)[C@H](O)[C@@H](O)[C@@H]2O)c(-c2ccc(O)c(O)c2)oc2cc(O)cc(O)c12
REMARK SMILES IDX 4 1 3 2 16 3 25 4 2 5 26 6 1 7 33 8 27 9 31 10 28 11 30 12
REMARK SMILES IDX 17 13 18 14 19 15 20 16 24 17 22 18 21 19 23 21 32 23 29 25
REMARK SMILES IDX 5 27 14 28 6 29 12 30 7 31 10 32 15 33 13 35 8 37 9 38 11 40
REMARK H PARENT 21 20 23 22 32 24 29 26 15 34 13 36 9 39 11 41
REMARK Flexibility Score: inf
ROOT
ATOM      1  O   UNL     1      17.902  -0.293 -11.225  1.00  0.00    -0.454 OA
ENDROOT
BRANCH   1   2
ATOM      2  C   UNL     1      18.818  -0.677 -10.239  1.00  0.00     0.214 A 
ATOM      3  C   UNL     1      20.200  -0.413 -10.358  1.00  0.00     0.180 A 
ATOM      4  O   UNL     1      21.042  -0.878  -9.440  1.00  0.00    -0.452 OA
ATOM      5  C   UNL     1      18.355  -1.354  -9.106  1.00  0.00     0.239 A 
ATOM      6  C   UNL     1      20.649  -1.557  -8.369  1.00  0.00     0.146 A 
ATOM      7  O   UNL     1      17.118  -1.556  -8.975  1.00  0.00    -0.285 OA
ATOM      8  C   UNL     1      19.276  -1.815  -8.143  1.00  0.00     0.111 A 
ATOM      9  C   UNL     1      21.609  -2.005  -7.456  1.00  0.00     0.094 A 
ATOM     10  C   UNL     1      18.890  -2.526  -6.982  1.00  0.00     0.134 A 
ATOM     11  C   UNL     1      21.224  -2.708  -6.314  1.00  0.00     0.123 A 
ATOM     12  C   UNL     1      19.869  -2.967  -6.078  1.00  0.00     0.093 A 
BRANCH   3  13
ATOM     13  C   UNL     1      20.754   0.391 -11.468  1.00  0.00     0.025 A 
ATOM     14  C   UNL     1      21.688  -0.160 -12.363  1.00  0.00     0.016 A 
ATOM     15  C   UNL     1      22.195   0.608 -13.413  1.00  0.00     0.051 A 
ATOM     16  C   UNL     1      21.768   1.926 -13.596  1.00  0.00     0.157 A 
ATOM     17  C   UNL     1      20.309   1.706 -11.666  1.00  0.00     0.062 A 
ATOM     18  C   UNL     1      20.816   2.479 -12.721  1.00  0.00     0.158 A 
BRANCH  16  19
ATOM     19  O   UNL     1      22.296   2.671 -14.650  1.00  0.00    -0.504 OA
ATOM     20  H   UNL     1      22.091   2.454 -15.618  1.00  0.00     0.293 HD
ENDBRANCH  16  19
BRANCH  18  21
ATOM     21  O   UNL     1      20.380   3.790 -12.902  1.00  0.00    -0.504 OA
ATOM     22  H   UNL     1      19.583   4.008 -13.490  1.00  0.00     0.293 HD
ENDBRANCH  18  21
ENDBRANCH   3  13
BRANCH  10  23
ATOM     23  O   UNL     1      17.546  -2.800  -6.722  1.00  0.00    -0.507 OA
ATOM     24  H   UNL     1      17.163  -3.733  -6.826  1.00  0.00     0.293 HD
ENDBRANCH  10  23
BRANCH  11  25
ATOM     25  O   UNL     1      22.196  -3.146  -5.418  1.00  0.00    -0.508 OA
ATOM     26  H   UNL     1      22.096  -4.017  -4.910  1.00  0.00     0.293 HD
ENDBRANCH  11  25
ENDBRANCH   1   2
BRANCH   1  27
ATOM     27  C   UNL     1      17.309  -1.217 -12.147  1.00  0.00     0.339 C 
ATOM     28  C   UNL     1      15.843  -0.848 -12.427  1.00  0.00     0.214 C 
ATOM     29  O   UNL     1      18.057  -1.282 -13.351  1.00  0.00    -0.332 OA
ATOM     30  C   UNL     1      15.777   0.491 -13.187  1.00  0.00     0.180 C 
ATOM     31  C   UNL     1      18.125  -0.021 -13.999  1.00  0.00     0.179 C 
ATOM     32  C   UNL     1      16.708   0.453 -14.417  1.00  0.00     0.177 C 
BRANCH  28  33
ATOM     33  O   UNL     1      15.141  -0.757 -11.215  1.00  0.00    -0.384 OA
ATOM     34  H   UNL     1      15.814  -0.585 -10.505  1.00  0.00     0.211 HD
ENDBRANCH  28  33
BRANCH  30  35
ATOM     35  O   UNL     1      14.457   0.793 -13.567  1.00  0.00    -0.387 OA
ATOM     36  H   UNL     1      14.358   0.557 -14.527  1.00  0.00     0.211 HD
ENDBRANCH  30  35
BRANCH  31  37
ATOM     37  C   UNL     1      19.049  -0.172 -15.219  1.00  0.00     0.191 C 
BRANCH  37  38
ATOM     38  O   UNL     1      18.320  -0.145 -16.418  1.00  0.00    -0.394 OA
ATOM     39  H   UNL     1      17.362  -0.225 -16.170  1.00  0.00     0.210 HD
ENDBRANCH  37  38
ENDBRANCH  31  37
BRANCH  32  40
ATOM     40  O   UNL     1      16.745   1.713 -15.040  1.00  0.00    -0.387 OA
ATOM     41  H   UNL     1      17.027   1.575 -15.982  1.00  0.00     0.211 HD
ENDBRANCH  32  40
ENDBRANCH   1  27
TORSDOF 12
ENDMDL
MODEL 8
REMARK VINA RESULT:    -6.091     12.123     14.234
REMARK INTER + INTRA:         -10.647
REMARK INTER:                  -8.514
REMARK INTRA:                  -2.133
REMARK UNBOUND:                -1.707
REMARK SMILES O=c1c(O[C@@H]2O[C@@H](CO)[C@H](O)[C@@H](O)[C@@H]2O)c(-c2ccc(O)c(O)c2)oc2cc(O)cc(O)c12
REMARK SMILES IDX 4 1 3 2 16 3 25 4 2 5 26 6 1 7 33 8 27 9 31 10 28 11 30 12
REMARK SMILES IDX 17 13 18 14 19 15 20 16 24 17 22 18 21 19 23 21 32 23 29 25
REMARK SMILES IDX 5 27 14 28 6 29 12 30 7 31 10 32 15 33 13 35 8 37 9 38 11 40
REMARK H PARENT 21 20 23 22 32 24 29 26 15 34 13 36 9 39 11 41
REMARK Flexibility Score: inf
ROOT
ATOM      1  O   UNL     1       7.536   4.683 -15.210  1.00  0.00    -0.454 OA
ENDROOT
BRANCH   1   2
ATOM      2  C   UNL     1       8.019   4.276 -16.460  1.00  0.00     0.214 A 
ATOM      3  C   UNL     1       7.670   3.032 -17.028  1.00  0.00     0.180 A 
ATOM      4  O   UNL     1       8.226   2.651 -18.174  1.00  0.00    -0.452 OA
ATOM      5  C   UNL     1       8.881   5.123 -17.165  1.00  0.00     0.239 A 
ATOM      6  C   UNL     1       9.078   3.407 -18.857  1.00  0.00     0.146 A 
ATOM      7  O   UNL     1       9.163   6.252 -16.682  1.00  0.00    -0.285 OA
ATOM      8  C   UNL     1       9.436   4.693 -18.389  1.00  0.00     0.111 A 
ATOM      9  C   UNL     1       9.610   2.922 -20.056  1.00  0.00     0.094 A 
ATOM     10  C   UNL     1      10.332   5.481 -19.150  1.00  0.00     0.134 A 
ATOM     11  C   UNL     1      10.496   3.700 -20.802  1.00  0.00     0.123 A 
ATOM     12  C   UNL     1      10.854   4.975 -20.350  1.00  0.00     0.093 A 
BRANCH   3  13
ATOM     13  C   UNL     1       6.682   2.130 -16.400  1.00  0.00     0.025 A 
ATOM     14  C   UNL     1       5.302   2.354 -16.547  1.00  0.00     0.016 A 
ATOM     15  C   UNL     1       4.381   1.488 -15.956  1.00  0.00     0.051 A 
ATOM     16  C   UNL     1       4.819   0.378 -15.227  1.00  0.00     0.157 A 
ATOM     17  C   UNL     1       7.121   1.004 -15.688  1.00  0.00     0.062 A 
ATOM     18  C   UNL     1       6.196   0.132 -15.095  1.00  0.00     0.158 A 
BRANCH  16  19
ATOM     19  O   UNL     1       3.875  -0.466 -14.645  1.00  0.00    -0.504 OA
ATOM     20  H   UNL     1       2.895  -0.219 -14.586  1.00  0.00     0.293 HD
ENDBRANCH  16  19
BRANCH  18  21
ATOM     21  O   UNL     1       6.641  -0.977 -14.376  1.00  0.00    -0.504 OA
ATOM     22  H   UNL     1       7.402  -1.557 -14.710  1.00  0.00     0.293 HD
ENDBRANCH  18  21
ENDBRANCH   3  13
BRANCH  10  23
ATOM     23  O   UNL     1      10.709   6.754 -18.723  1.00  0.00    -0.507 OA
ATOM     24  H   UNL     1      11.658   6.959 -18.430  1.00  0.00     0.293 HD
ENDBRANCH  10  23
BRANCH  11  25
ATOM     25  O   UNL     1      11.014   3.198 -21.993  1.00  0.00    -0.508 OA
ATOM     26  H   UNL     1      11.367   3.812 -22.719  1.00  0.00     0.293 HD
ENDBRANCH  11  25
ENDBRANCH   1   2
BRANCH   1  27
ATOM     27  C   UNL     1       8.231   4.429 -13.983  1.00  0.00     0.339 C 
ATOM     28  C   UNL     1       8.327   5.707 -13.132  1.00  0.00     0.214 C 
ATOM     29  O   UNL     1       7.610   3.380 -13.256  1.00  0.00    -0.332 OA
ATOM     30  C   UNL     1       6.923   6.125 -12.657  1.00  0.00     0.180 C 
ATOM     31  C   UNL     1       6.264   3.691 -12.927  1.00  0.00     0.179 C 
ATOM     32  C   UNL     1       6.205   4.930 -11.996  1.00  0.00     0.177 C 
BRANCH  28  33
ATOM     33  O   UNL     1       8.913   6.733 -13.891  1.00  0.00    -0.384 OA
ATOM     34  H   UNL     1       9.409   6.296 -14.631  1.00  0.00     0.211 HD
ENDBRANCH  28  33
BRANCH  30  35
ATOM     35  O   UNL     1       6.992   7.218 -11.775  1.00  0.00    -0.387 OA
ATOM     36  H   UNL     1       6.474   7.964 -12.177  1.00  0.00     0.211 HD
ENDBRANCH  30  35
BRANCH  31  37
ATOM     37  C   UNL     1       5.652   2.452 -12.253  1.00  0.00     0.191 C 
BRANCH  37  38
ATOM     38  O   UNL     1       4.251   2.460 -12.345  1.00  0.00    -0.394 OA
ATOM     39  H   UNL     1       3.974   3.413 -12.376  1.00  0.00     0.210 HD
ENDBRANCH  37  38
ENDBRANCH  31  37
BRANCH  32  40
ATOM     40  O   UNL     1       4.880   5.274 -11.674  1.00  0.00    -0.387 OA
ATOM     41  H   UNL     1       4.443   4.467 -11.295  1.00  0.00     0.211 HD
ENDBRANCH  32  40
ENDBRANCH   1  27
TORSDOF 12
ENDMDL
MODEL 9
REMARK VINA RESULT:    -5.980      2.452      7.339
REMARK INTER + INTRA:         -10.484
REMARK INTER:                  -8.427
REMARK INTRA:                  -2.056
REMARK UNBOUND:                -1.707
REMARK SMILES O=c1c(O[C@@H]2O[C@@H](CO)[C@H](O)[C@@H](O)[C@@H]2O)c(-c2ccc(O)c(O)c2)oc2cc(O)cc(O)c12
REMARK SMILES IDX 4 1 3 2 16 3 25 4 2 5 26 6 1 7 33 8 27 9 31 10 28 11 30 12
REMARK SMILES IDX 17 13 18 14 19 15 20 16 24 17 22 18 21 19 23 21 32 23 29 25
REMARK SMILES IDX 5 27 14 28 6 29 12 30 7 31 10 32 15 33 13 35 8 37 9 38 11 40
REMARK H PARENT 21 20 23 22 32 24 29 26 15 34 13 36 9 39 11 41
REMARK Flexibility Score: inf
ROOT
ATOM      1  O   UNL     1      17.442  -3.178 -11.890  1.00  0.00    -0.454 OA
ENDROOT
BRANCH   1   2
ATOM      2  C   UNL     1      17.166  -3.832 -13.097  1.00  0.00     0.214 A 
ATOM      3  C   UNL     1      16.846  -3.123 -14.275  1.00  0.00     0.180 A 
ATOM      4  O   UNL     1      16.502  -3.789 -15.374  1.00  0.00    -0.452 OA
ATOM      5  C   UNL     1      17.198  -5.229 -13.137  1.00  0.00     0.239 A 
ATOM      6  C   UNL     1      16.483  -5.116 -15.444  1.00  0.00     0.146 A 
ATOM      7  O   UNL     1      17.524  -5.866 -12.099  1.00  0.00    -0.285 OA
ATOM      8  C   UNL     1      16.846  -5.902 -14.326  1.00  0.00     0.111 A 
ATOM      9  C   UNL     1      16.108  -5.728 -16.644  1.00  0.00     0.094 A 
ATOM     10  C   UNL     1      16.832  -7.313 -14.440  1.00  0.00     0.134 A 
ATOM     11  C   UNL     1      16.093  -7.120 -16.752  1.00  0.00     0.123 A 
ATOM     12  C   UNL     1      16.454  -7.908 -15.653  1.00  0.00     0.093 A 
BRANCH   3  13
ATOM     13  C   UNL     1      16.898  -1.647 -14.345  1.00  0.00     0.025 A 
ATOM     14  C   UNL     1      15.722  -0.888 -14.473  1.00  0.00     0.016 A 
ATOM     15  C   UNL     1      15.786   0.506 -14.526  1.00  0.00     0.051 A 
ATOM     16  C   UNL     1      17.017   1.162 -14.437  1.00  0.00     0.157 A 
ATOM     17  C   UNL     1      18.130  -0.988 -14.231  1.00  0.00     0.062 A 
ATOM     18  C   UNL     1      18.197   0.412 -14.284  1.00  0.00     0.158 A 
BRANCH  16  19
ATOM     19  O   UNL     1      17.050   2.554 -14.498  1.00  0.00    -0.504 OA
ATOM     20  H   UNL     1      16.581   3.072 -15.231  1.00  0.00     0.293 HD
ENDBRANCH  16  19
BRANCH  18  21
ATOM     21  O   UNL     1      19.427   1.060 -14.185  1.00  0.00    -0.504 OA
ATOM     22  H   UNL     1      20.054   0.893 -13.406  1.00  0.00     0.293 HD
ENDBRANCH  18  21
ENDBRANCH   3  13
BRANCH  10  23
ATOM     23  O   UNL     1      17.185  -8.124 -13.361  1.00  0.00    -0.507 OA
ATOM     24  H   UNL     1      16.497  -8.455 -12.695  1.00  0.00     0.293 HD
ENDBRANCH  10  23
BRANCH  11  25
ATOM     25  O   UNL     1      15.717  -7.711 -17.956  1.00  0.00    -0.508 OA
ATOM     26  H   UNL     1      14.935  -7.362 -18.497  1.00  0.00     0.293 HD
ENDBRANCH  11  25
ENDBRANCH   1   2
BRANCH   1  27
ATOM     27  C   UNL     1      16.421  -2.637 -11.042  1.00  0.00     0.339 C 
ATOM     28  C   UNL     1      16.540  -3.198  -9.615  1.00  0.00     0.214 C 
ATOM     29  O   UNL     1      16.465  -1.219 -11.036  1.00  0.00    -0.332 OA
ATOM     30  C   UNL     1      17.840  -2.693  -8.961  1.00  0.00     0.180 C 
ATOM     31  C   UNL     1      17.713  -0.732 -10.564  1.00  0.00     0.179 C 
ATOM     32  C   UNL     1      17.941  -1.159  -9.090  1.00  0.00     0.177 C 
BRANCH  28  33
ATOM     33  O   UNL     1      16.528  -4.601  -9.660  1.00  0.00    -0.384 OA
ATOM     34  H   UNL     1      16.170  -4.858 -10.549  1.00  0.00     0.211 HD
ENDBRANCH  28  33
BRANCH  30  35
ATOM     35  O   UNL     1      17.914  -3.088  -7.613  1.00  0.00    -0.387 OA
ATOM     36  H   UNL     1      17.543  -2.350  -7.062  1.00  0.00     0.211 HD
ENDBRANCH  30  35
BRANCH  31  37
ATOM     37  C   UNL     1      17.701   0.799 -10.710  1.00  0.00     0.191 C 
BRANCH  37  38
ATOM     38  O   UNL     1      18.975   1.292 -11.031  1.00  0.00    -0.394 OA
ATOM     39  H   UNL     1      18.875   1.817 -11.867  1.00  0.00     0.210 HD
ENDBRANCH  37  38
ENDBRANCH  31  37
BRANCH  32  40
ATOM     40  O   UNL     1      19.182  -0.709  -8.606  1.00  0.00    -0.387 OA
ATOM     41  H   UNL     1      19.066  -0.481  -7.646  1.00  0.00     0.211 HD
ENDBRANCH  32  40
ENDBRANCH   1  27
TORSDOF 12
ENDMDL
