MODEL 1
REMARK VINA RESULT:     2.649      0.000      0.000
REMARK INTER + INTRA:           4.027
REMARK INTER:                   3.578
REMARK INTRA:                   0.449
REMARK UNBOUND:                 0.449
REMARK SMILES C=C(C)[C@@H]1CC[C@H](C)C2=C(C1)[C@@H](C)CC2
REMARK SMILES IDX 10 1 9 2 15 3 14 4 12 5 13 6 7 7 8 8 6 9 11 11 4 12 5 13
REMARK SMILES IDX 2 15 1 16 3 17
REMARK H PARENT
REMARK Flexibility Score: 80.00
ROOT
ATOM      1  C   UNL     1     -16.025  -1.732  17.748  1.00  0.00    -0.067 C 
ATOM      2  C   UNL     1     -15.662  -2.366  16.636  1.00  0.00    -0.068 C 
ATOM      3  C   UNL     1     -16.125  -1.643  15.412  1.00  0.00     0.032 C 
ATOM      4  C   UNL     1     -16.790  -0.369  15.933  1.00  0.00     0.012 C 
ATOM      5  C   UNL     1     -16.848  -0.512  17.461  1.00  0.00     0.012 C 
ATOM      6  C   UNL     1     -16.323   0.742  18.171  1.00  0.00     0.012 C 
ENDROOT
BRANCH   2   7
ATOM      7  C   UNL     1     -14.921  -3.695  16.634  1.00  0.00     0.012 C 
ATOM      8  C   UNL     1     -14.929  -4.360  15.248  1.00  0.00     0.012 C 
BRANCH   7   9
ATOM      9  C   UNL     1     -13.470  -3.498  17.119  1.00  0.00     0.008 CG0
ATOM     10  G   UNL     1     -13.316  -2.433  18.225  1.00  0.00     0.000 G0
ENDBRANCH   7   9
ENDBRANCH   2   7
BRANCH   1  11
ATOM     11  C   UNL     1     -15.805  -2.288  19.135  1.00  0.00     0.039 C 
BRANCH  11  12
ATOM     12  C   UNL     1     -14.319  -2.543  19.462  1.00  0.00     0.018 C 
BRANCH  12  13
ATOM     13  C   UNL     1     -13.374  -2.414  18.236  1.00  0.00     0.009 CG0
ATOM     14  G   UNL     1     -13.474  -3.475  17.119  1.00  0.00     0.000 G0
ENDBRANCH  12  13
BRANCH  12  15
ATOM     15  C   UNL     1     -13.867  -1.826  20.736  1.00  0.00    -0.077 C 
ATOM     16  C   UNL     1     -12.795  -1.016  20.679  1.00  0.00     0.008 C 
ATOM     17  C   UNL     1     -14.559  -2.023  22.062  1.00  0.00     0.039 C 
ENDBRANCH  12  15
ENDBRANCH  11  12
ENDBRANCH   1  11
TORSDOF 1
ENDMDL
