MODEL 1
REMARK VINA RESULT:    -4.008      0.000      0.000
REMARK INTER + INTRA:          -6.050
REMARK INTER:                  -5.414
REMARK INTRA:                  -0.636
REMARK UNBOUND:                -0.636
REMARK SMILES CC(=O)CCC=C(C)CCC=C(C)C
REMARK SMILES IDX 7 1 6 2 8 3 9 4 10 5 11 6 13 7 12 8 14 9 5 10 4 11 2 12 3 13
REMARK SMILES IDX 1 14
REMARK H PARENT
REMARK Flexibility Score: inf
ROOT
ATOM      1  C   UNL     1     -48.100  -0.457  45.453  1.00  0.00    -0.077 C 
ATOM      2  C   UNL     1     -49.100  -1.321  45.171  1.00  0.00    -0.028 C 
ATOM      3  C   UNL     1     -48.373   1.008  45.704  1.00  0.00     0.039 C 
ENDROOT
BRANCH   1   4
ATOM      4  C   UNL     1     -46.675  -0.966  45.520  1.00  0.00     0.034 C 
BRANCH   4   5
ATOM      5  C   UNL     1     -46.617  -2.499  45.582  1.00  0.00     0.032 C 
BRANCH   5   6
ATOM      6  C   UNL     1     -45.331  -2.987  46.207  1.00  0.00    -0.028 C 
ATOM      7  C   UNL     1     -43.239  -4.299  46.357  1.00  0.00     0.039 C 
ATOM      8  C   UNL     1     -44.479  -3.859  45.623  1.00  0.00    -0.080 C 
ATOM      9  C   UNL     1     -44.692  -4.371  44.220  1.00  0.00     0.039 C 
ENDBRANCH   5   6
ENDBRANCH   4   5
ENDBRANCH   1   4
BRANCH   2  10
ATOM     10  C   UNL     1     -50.547  -0.903  45.076  1.00  0.00     0.035 C 
BRANCH  10  11
ATOM     11  C   UNL     1     -51.284  -1.700  43.994  1.00  0.00     0.079 C 
BRANCH  11  12
ATOM     12  C   UNL     1     -50.720  -1.395  42.630  1.00  0.00     0.130 C 
ATOM     13  O   UNL     1     -50.317  -2.309  41.929  1.00  0.00    -0.300 OA
ATOM     14  C   UNL     1     -50.655   0.010  42.109  1.00  0.00     0.087 C 
ENDBRANCH  11  12
ENDBRANCH  10  11
ENDBRANCH   2  10
TORSDOF 6
ENDMDL
MODEL 2
REMARK VINA RESULT:    -3.992     16.777     20.060
REMARK INTER + INTRA:          -6.028
REMARK INTER:                  -4.905
REMARK INTRA:                  -1.123
REMARK UNBOUND:                -0.636
REMARK SMILES CC(=O)CCC=C(C)CCC=C(C)C
REMARK SMILES IDX 7 1 6 2 8 3 9 4 10 5 11 6 13 7 12 8 14 9 5 10 4 11 2 12 3 13
REMARK SMILES IDX 1 14
REMARK H PARENT
REMARK Flexibility Score: inf
ROOT
ATOM      1  C   UNL     1     -32.870   2.303  56.909  1.00  0.00    -0.077 C 
ATOM      2  C   UNL     1     -33.180   3.249  57.824  1.00  0.00    -0.028 C 
ATOM      3  C   UNL     1     -31.996   1.123  57.265  1.00  0.00     0.039 C 
ENDROOT
BRANCH   1   4
ATOM      4  C   UNL     1     -33.410   2.426  55.500  1.00  0.00     0.034 C 
BRANCH   4   5
ATOM      5  C   UNL     1     -34.767   3.145  55.467  1.00  0.00     0.032 C 
BRANCH   5   6
ATOM      6  C   UNL     1     -35.880   2.221  55.033  1.00  0.00    -0.028 C 
ATOM      7  C   UNL     1     -37.721   0.595  55.328  1.00  0.00     0.039 C 
ATOM      8  C   UNL     1     -36.659   1.511  55.880  1.00  0.00    -0.080 C 
ATOM      9  C   UNL     1     -36.545   1.645  57.378  1.00  0.00     0.039 C 
ENDBRANCH   5   6
ENDBRANCH   4   5
ENDBRANCH   1   4
BRANCH   2  10
ATOM     10  C   UNL     1     -32.683   3.213  59.248  1.00  0.00     0.035 C 
BRANCH  10  11
ATOM     11  C   UNL     1     -33.754   2.663  60.196  1.00  0.00     0.079 C 
BRANCH  11  12
ATOM     12  C   UNL     1     -33.395   1.275  60.659  1.00  0.00     0.130 C 
ATOM     13  O   UNL     1     -32.241   1.027  60.975  1.00  0.00    -0.300 OA
ATOM     14  C   UNL     1     -34.427   0.191  60.754  1.00  0.00     0.087 C 
ENDBRANCH  11  12
ENDBRANCH  10  11
ENDBRANCH   2  10
TORSDOF 6
ENDMDL
MODEL 3
REMARK VINA RESULT:    -3.947      3.204      5.122
REMARK INTER + INTRA:          -5.967
REMARK INTER:                  -4.570
REMARK INTRA:                  -1.397
REMARK UNBOUND:                -0.636
REMARK SMILES CC(=O)CCC=C(C)CCC=C(C)C
REMARK SMILES IDX 7 1 6 2 8 3 9 4 10 5 11 6 13 7 12 8 14 9 5 10 4 11 2 12 3 13
REMARK SMILES IDX 1 14
REMARK H PARENT
REMARK Flexibility Score: inf
ROOT
ATOM      1  C   UNL     1     -51.560   0.500  45.089  1.00  0.00    -0.077 C 
ATOM      2  C   UNL     1     -51.750   0.910  46.363  1.00  0.00    -0.028 C 
ATOM      3  C   UNL     1     -51.498   1.487  43.947  1.00  0.00     0.039 C 
ENDROOT
BRANCH   1   4
ATOM      4  C   UNL     1     -51.404  -0.979  44.800  1.00  0.00     0.034 C 
BRANCH   4   5
ATOM      5  C   UNL     1     -50.035  -1.300  44.183  1.00  0.00     0.032 C 
BRANCH   5   6
ATOM      6  C   UNL     1     -48.954  -1.390  45.234  1.00  0.00    -0.028 C 
ATOM      7  C   UNL     1     -46.897  -0.720  46.433  1.00  0.00     0.039 C 
ATOM      8  C   UNL     1     -47.937  -0.509  45.364  1.00  0.00    -0.080 C 
ATOM      9  C   UNL     1     -47.833   0.728  44.507  1.00  0.00     0.039 C 
ENDBRANCH   5   6
ENDBRANCH   4   5
ENDBRANCH   1   4
BRANCH   2  10
ATOM     10  C   UNL     1     -51.922   2.360  46.745  1.00  0.00     0.035 C 
BRANCH  10  11
ATOM     11  C   UNL     1     -50.890   2.783  47.796  1.00  0.00     0.079 C 
BRANCH  11  12
ATOM     12  C   UNL     1     -49.533   2.965  47.167  1.00  0.00     0.130 C 
ATOM     13  O   UNL     1     -49.438   3.551  46.100  1.00  0.00    -0.300 OA
ATOM     14  C   UNL     1     -48.290   2.450  47.830  1.00  0.00     0.087 C 
ENDBRANCH  11  12
ENDBRANCH  10  11
ENDBRANCH   2  10
TORSDOF 6
ENDMDL
MODEL 4
REMARK VINA RESULT:    -3.908      1.452      2.325
REMARK INTER + INTRA:          -5.915
REMARK INTER:                  -5.128
REMARK INTRA:                  -0.787
REMARK UNBOUND:                -0.636
REMARK SMILES CC(=O)CCC=C(C)CCC=C(C)C
REMARK SMILES IDX 7 1 6 2 8 3 9 4 10 5 11 6 13 7 12 8 14 9 5 10 4 11 2 12 3 13
REMARK SMILES IDX 1 14
REMARK H PARENT
REMARK Flexibility Score: inf
ROOT
ATOM      1  C   UNL     1     -46.469  -1.173  46.427  1.00  0.00    -0.077 C 
ATOM      2  C   UNL     1     -47.315  -0.984  45.390  1.00  0.00    -0.028 C 
ATOM      3  C   UNL     1     -46.851  -2.035  47.607  1.00  0.00     0.039 C 
ENDROOT
BRANCH   1   4
ATOM      4  C   UNL     1     -45.108  -0.509  46.406  1.00  0.00     0.034 C 
BRANCH   4   5
ATOM      5  C   UNL     1     -43.968  -1.539  46.409  1.00  0.00     0.032 C 
BRANCH   5   6
ATOM      6  C   UNL     1     -44.114  -2.541  45.288  1.00  0.00    -0.028 C 
ATOM      7  C   UNL     1     -44.266  -4.785  44.261  1.00  0.00     0.039 C 
ATOM      8  C   UNL     1     -44.149  -3.881  45.460  1.00  0.00    -0.080 C 
ATOM      9  C   UNL     1     -44.134  -4.515  46.828  1.00  0.00     0.039 C 
ENDBRANCH   5   6
ENDBRANCH   4   5
ENDBRANCH   1   4
BRANCH   2  10
ATOM     10  C   UNL     1     -48.692  -1.599  45.328  1.00  0.00     0.035 C 
BRANCH  10  11
ATOM     11  C   UNL     1     -49.734  -0.578  44.858  1.00  0.00     0.079 C 
BRANCH  11  12
ATOM     12  C   UNL     1     -50.854  -1.263  44.118  1.00  0.00     0.130 C 
ATOM     13  O   UNL     1     -51.958  -1.337  44.634  1.00  0.00    -0.300 OA
ATOM     14  C   UNL     1     -50.645  -1.847  42.752  1.00  0.00     0.087 C 
ENDBRANCH  11  12
ENDBRANCH  10  11
ENDBRANCH   2  10
TORSDOF 6
ENDMDL
MODEL 5
REMARK VINA RESULT:    -3.882      3.636      6.603
REMARK INTER + INTRA:          -5.879
REMARK INTER:                  -4.836
REMARK INTRA:                  -1.043
REMARK UNBOUND:                -0.636
REMARK SMILES CC(=O)CCC=C(C)CCC=C(C)C
REMARK SMILES IDX 7 1 6 2 8 3 9 4 10 5 11 6 13 7 12 8 14 9 5 10 4 11 2 12 3 13
REMARK SMILES IDX 1 14
REMARK H PARENT
REMARK Flexibility Score: inf
ROOT
ATOM      1  C   UNL     1     -51.250   1.542  45.624  1.00  0.00    -0.077 C 
ATOM      2  C   UNL     1     -50.159   0.758  45.770  1.00  0.00    -0.028 C 
ATOM      3  C   UNL     1     -51.799   1.880  44.258  1.00  0.00     0.039 C 
ENDROOT
BRANCH   1   4
ATOM      4  C   UNL     1     -51.937   2.094  46.856  1.00  0.00     0.034 C 
BRANCH   4   5
ATOM      5  C   UNL     1     -50.943   2.764  47.815  1.00  0.00     0.032 C 
BRANCH   5   6
ATOM      6  C   UNL     1     -51.008   4.271  47.729  1.00  0.00    -0.028 C 
ATOM      7  C   UNL     1     -50.277   6.536  47.056  1.00  0.00     0.039 C 
ATOM      8  C   UNL     1     -50.129   5.037  47.045  1.00  0.00    -0.080 C 
ATOM      9  C   UNL     1     -49.024   4.439  46.209  1.00  0.00     0.039 C 
ENDBRANCH   5   6
ENDBRANCH   4   5
ENDBRANCH   1   4
BRANCH   2  10
ATOM     10  C   UNL     1     -49.405   0.170  44.602  1.00  0.00     0.035 C 
BRANCH  10  11
ATOM     11  C   UNL     1     -49.620  -1.344  44.508  1.00  0.00     0.079 C 
BRANCH  11  12
ATOM     12  C   UNL     1     -50.801  -1.662  43.628  1.00  0.00     0.130 C 
ATOM     13  O   UNL     1     -51.907  -1.795  44.130  1.00  0.00    -0.300 OA
ATOM     14  C   UNL     1     -50.651  -1.806  42.143  1.00  0.00     0.087 C 
ENDBRANCH  11  12
ENDBRANCH  10  11
ENDBRANCH   2  10
TORSDOF 6
ENDMDL
MODEL 6
REMARK VINA RESULT:    -3.844     18.435     21.345
REMARK INTER + INTRA:          -5.828
REMARK INTER:                  -4.857
REMARK INTRA:                  -0.972
REMARK UNBOUND:                -0.636
REMARK SMILES CC(=O)CCC=C(C)CCC=C(C)C
REMARK SMILES IDX 7 1 6 2 8 3 9 4 10 5 11 6 13 7 12 8 14 9 5 10 4 11 2 12 3 13
REMARK SMILES IDX 1 14
REMARK H PARENT
REMARK Flexibility Score: inf
ROOT
ATOM      1  C   UNL     1     -32.292   2.984  59.332  1.00  0.00    -0.077 C 
ATOM      2  C   UNL     1     -31.909   4.237  59.001  1.00  0.00    -0.028 C 
ATOM      3  C   UNL     1     -32.956   2.688  60.656  1.00  0.00     0.039 C 
ENDROOT
BRANCH   1   4
ATOM      4  C   UNL     1     -32.052   1.851  58.355  1.00  0.00     0.034 C 
BRANCH   4   5
ATOM      5  C   UNL     1     -32.095   2.334  56.898  1.00  0.00     0.032 C 
BRANCH   5   6
ATOM      6  C   UNL     1     -33.390   1.952  56.219  1.00  0.00    -0.028 C 
ATOM      7  C   UNL     1     -35.658   2.311  55.299  1.00  0.00     0.039 C 
ATOM      8  C   UNL     1     -34.397   2.814  55.953  1.00  0.00    -0.080 C 
ATOM      9  C   UNL     1     -34.285   4.291  56.235  1.00  0.00     0.039 C 
ENDBRANCH   5   6
ENDBRANCH   4   5
ENDBRANCH   1   4
BRANCH   2  10
ATOM     10  C   UNL     1     -32.102   5.424  59.913  1.00  0.00     0.035 C 
BRANCH  10  11
ATOM     11  C   UNL     1     -31.875   6.742  59.163  1.00  0.00     0.079 C 
BRANCH  11  12
ATOM     12  C   UNL     1     -33.176   7.278  58.623  1.00  0.00     0.130 C 
ATOM     13  O   UNL     1     -34.173   7.257  59.327  1.00  0.00    -0.300 OA
ATOM     14  C   UNL     1     -33.270   7.850  57.240  1.00  0.00     0.087 C 
ENDBRANCH  11  12
ENDBRANCH  10  11
ENDBRANCH   2  10
TORSDOF 6
ENDMDL
MODEL 7
REMARK VINA RESULT:    -3.826     18.094     20.129
REMARK INTER + INTRA:          -5.803
REMARK INTER:                  -4.997
REMARK INTRA:                  -0.806
REMARK UNBOUND:                -0.636
REMARK SMILES CC(=O)CCC=C(C)CCC=C(C)C
REMARK SMILES IDX 7 1 6 2 8 3 9 4 10 5 11 6 13 7 12 8 14 9 5 10 4 11 2 12 3 13
REMARK SMILES IDX 1 14
REMARK H PARENT
REMARK Flexibility Score: inf
ROOT
ATOM      1  C   UNL     1     -33.201   1.993  57.332  1.00  0.00    -0.077 C 
ATOM      2  C   UNL     1     -33.278   2.406  56.047  1.00  0.00    -0.028 C 
ATOM      3  C   UNL     1     -34.411   2.010  58.237  1.00  0.00     0.039 C 
ENDROOT
BRANCH   1   4
ATOM      4  C   UNL     1     -31.876   1.503  57.877  1.00  0.00     0.034 C 
BRANCH   4   5
ATOM      5  C   UNL     1     -32.011   0.958  59.307  1.00  0.00     0.032 C 
BRANCH   5   6
ATOM      6  C   UNL     1     -32.043  -0.552  59.331  1.00  0.00    -0.028 C 
ATOM      7  C   UNL     1     -32.559  -2.794  60.240  1.00  0.00     0.039 C 
ATOM      8  C   UNL     1     -32.617  -1.289  60.307  1.00  0.00    -0.080 C 
ATOM      9  C   UNL     1     -33.376  -0.659  61.449  1.00  0.00     0.039 C 
ENDBRANCH   5   6
ENDBRANCH   4   5
ENDBRANCH   1   4
BRANCH   2  10
ATOM     10  C   UNL     1     -34.553   2.916  55.421  1.00  0.00     0.035 C 
BRANCH  10  11
ATOM     11  C   UNL     1     -34.514   4.438  55.248  1.00  0.00     0.079 C 
BRANCH  11  12
ATOM     12  C   UNL     1     -35.080   5.128  56.463  1.00  0.00     0.130 C 
ATOM     13  O   UNL     1     -36.289   5.150  56.633  1.00  0.00    -0.300 OA
ATOM     14  C   UNL     1     -34.187   5.780  57.477  1.00  0.00     0.087 C 
ENDBRANCH  11  12
ENDBRANCH  10  11
ENDBRANCH   2  10
TORSDOF 6
ENDMDL
MODEL 8
REMARK VINA RESULT:    -3.795     17.158     20.223
REMARK INTER + INTRA:          -5.761
REMARK INTER:                  -4.865
REMARK INTRA:                  -0.896
REMARK UNBOUND:                -0.636
REMARK SMILES CC(=O)CCC=C(C)CCC=C(C)C
REMARK SMILES IDX 7 1 6 2 8 3 9 4 10 5 11 6 13 7 12 8 14 9 5 10 4 11 2 12 3 13
REMARK SMILES IDX 1 14
REMARK H PARENT
REMARK Flexibility Score: inf
ROOT
ATOM      1  C   UNL     1     -32.562   1.401  58.285  1.00  0.00    -0.077 C 
ATOM      2  C   UNL     1     -33.731   1.694  58.898  1.00  0.00    -0.028 C 
ATOM      3  C   UNL     1     -31.926   2.360  57.306  1.00  0.00     0.039 C 
ENDROOT
BRANCH   1   4
ATOM      4  C   UNL     1     -31.875   0.085  58.584  1.00  0.00     0.034 C 
BRANCH   4   5
ATOM      5  C   UNL     1     -31.967  -0.283  60.073  1.00  0.00     0.032 C 
BRANCH   5   6
ATOM      6  C   UNL     1     -32.533  -1.669  60.274  1.00  0.00    -0.028 C 
ATOM      7  C   UNL     1     -34.104  -3.372  61.139  1.00  0.00     0.039 C 
ATOM      8  C   UNL     1     -33.653  -1.943  60.980  1.00  0.00    -0.080 C 
ATOM      9  C   UNL     1     -34.514  -0.856  61.573  1.00  0.00     0.039 C 
ENDBRANCH   5   6
ENDBRANCH   4   5
ENDBRANCH   1   4
BRANCH   2  10
ATOM     10  C   UNL     1     -34.489   2.975  58.656  1.00  0.00     0.035 C 
BRANCH  10  11
ATOM     11  C   UNL     1     -35.805   2.710  57.916  1.00  0.00     0.079 C 
BRANCH  11  12
ATOM     12  C   UNL     1     -35.680   3.074  56.459  1.00  0.00     0.130 C 
ATOM     13  O   UNL     1     -35.623   4.251  56.137  1.00  0.00    -0.300 OA
ATOM     14  C   UNL     1     -35.612   2.021  55.394  1.00  0.00     0.087 C 
ENDBRANCH  11  12
ENDBRANCH  10  11
ENDBRANCH   2  10
TORSDOF 6
ENDMDL
MODEL 9
REMARK VINA RESULT:    -2.934     17.032     20.609
REMARK INTER + INTRA:          -4.598
REMARK INTER:                  -3.856
REMARK INTRA:                  -0.743
REMARK UNBOUND:                -0.636
REMARK SMILES CC(=O)CCC=C(C)CCC=C(C)C
REMARK SMILES IDX 7 1 6 2 8 3 9 4 10 5 11 6 13 7 12 8 14 9 5 10 4 11 2 12 3 13
REMARK SMILES IDX 1 14
REMARK H PARENT
REMARK Flexibility Score: inf
ROOT
ATOM      1  C   UNL     1     -32.558   1.585  58.017  1.00  0.00    -0.077 C 
ATOM      2  C   UNL     1     -31.980   0.408  58.345  1.00  0.00    -0.028 C 
ATOM      3  C   UNL     1     -33.138   2.497  59.072  1.00  0.00     0.039 C 
ENDROOT
BRANCH   1   4
ATOM      4  C   UNL     1     -32.624   2.000  56.562  1.00  0.00     0.034 C 
BRANCH   4   5
ATOM      5  C   UNL     1     -33.774   2.984  56.299  1.00  0.00     0.032 C 
BRANCH   5   6
ATOM      6  C   UNL     1     -34.856   2.366  55.446  1.00  0.00    -0.028 C 
ATOM      7  C   UNL     1     -36.991   1.207  54.981  1.00  0.00     0.039 C 
ATOM      8  C   UNL     1     -35.996   1.824  55.929  1.00  0.00    -0.080 C 
ATOM      9  C   UNL     1     -36.345   1.866  57.396  1.00  0.00     0.039 C 
ENDBRANCH   5   6
ENDBRANCH   4   5
ENDBRANCH   1   4
BRANCH   2  10
ATOM     10  C   UNL     1     -31.875  -0.091  59.765  1.00  0.00     0.035 C 
BRANCH  10  11
ATOM     11  C   UNL     1     -32.208  -1.584  59.855  1.00  0.00     0.079 C 
BRANCH  11  12
ATOM     12  C   UNL     1     -33.178  -1.848  60.977  1.00  0.00     0.130 C 
ATOM     13  O   UNL     1     -33.520  -0.929  61.704  1.00  0.00    -0.300 OA
ATOM     14  C   UNL     1     -33.744  -3.216  61.215  1.00  0.00     0.087 C 
ENDBRANCH  11  12
ENDBRANCH  10  11
ENDBRANCH   2  10
TORSDOF 6
ENDMDL
