MODEL 1
REMARK VINA RESULT:    -5.420      0.000      0.000
REMARK INTER + INTRA:          -5.578
REMARK INTER:                  -5.578
REMARK INTRA:                   0.000
REMARK UNBOUND:                 0.000
REMARK SMILES O=c1ccc2ccc(O)cc2o1
REMARK SMILES IDX 6 1 7 2 8 3 10 4 11 5 5 6 4 7 3 8 2 9 1 10 12 11 9 12
REMARK H PARENT 9 13
REMARK Flexibility Score: inf
ROOT
ATOM      1  C   UNL     1       2.299  -0.256  24.027  1.00  0.00     0.016 A 
ATOM      2  C   UNL     1       2.710   1.074  24.171  1.00  0.00     0.047 A 
ATOM      3  C   UNL     1       1.766   2.106  24.200  1.00  0.00     0.119 A 
ATOM      4  C   UNL     1       0.400   1.810  24.082  1.00  0.00     0.094 A 
ATOM      5  C   UNL     1      -0.020   0.483  23.937  1.00  0.00     0.142 A 
ATOM      6  C   UNL     1       0.936  -0.557  23.909  1.00  0.00     0.018 A 
ATOM      7  C   UNL     1       0.486  -1.873  23.764  1.00  0.00     0.019 A 
ATOM      8  C   UNL     1      -0.882  -2.119  23.651  1.00  0.00     0.094 A 
ATOM      9  C   UNL     1      -1.772  -1.039  23.687  1.00  0.00     0.336 A 
ATOM     10  O   UNL     1      -3.010  -1.242  23.586  1.00  0.00    -0.246 OA
ATOM     11  O   UNL     1      -1.317   0.203  23.827  1.00  0.00    -0.423 OA
ENDROOT
BRANCH   3  12
ATOM     12  O   UNL     1       2.195   3.424  24.344  1.00  0.00    -0.508 OA
ATOM     13  H   UNL     1       2.839   3.694  25.078  1.00  0.00     0.293 HD
ENDBRANCH   3  12
TORSDOF 1
ENDMDL
MODEL 2
REMARK VINA RESULT:    -4.995     10.394     10.742
REMARK INTER + INTRA:          -5.141
REMARK INTER:                  -5.141
REMARK INTRA:                   0.000
REMARK UNBOUND:                 0.000
REMARK SMILES O=c1ccc2ccc(O)cc2o1
REMARK SMILES IDX 6 1 7 2 8 3 10 4 11 5 5 6 4 7 3 8 2 9 1 10 12 11 9 12
REMARK H PARENT 9 13
REMARK Flexibility Score: inf
ROOT
ATOM      1  C   UNL     1      -5.359   2.750  15.994  1.00  0.00     0.016 A 
ATOM      2  C   UNL     1      -5.810   3.975  16.496  1.00  0.00     0.047 A 
ATOM      3  C   UNL     1      -5.061   5.141  16.293  1.00  0.00     0.119 A 
ATOM      4  C   UNL     1      -3.853   5.082  15.584  1.00  0.00     0.094 A 
ATOM      5  C   UNL     1      -3.395   3.860  15.078  1.00  0.00     0.142 A 
ATOM      6  C   UNL     1      -4.153   2.686  15.284  1.00  0.00     0.018 A 
ATOM      7  C   UNL     1      -3.669   1.480  14.766  1.00  0.00     0.019 A 
ATOM      8  C   UNL     1      -2.462   1.472  14.068  1.00  0.00     0.094 A 
ATOM      9  C   UNL     1      -1.765   2.674  13.902  1.00  0.00     0.336 A 
ATOM     10  O   UNL     1      -0.674   2.684  13.274  1.00  0.00    -0.246 OA
ATOM     11  O   UNL     1      -2.248   3.806  14.404  1.00  0.00    -0.423 OA
ENDROOT
BRANCH   3  12
ATOM     12  O   UNL     1      -5.526   6.351  16.802  1.00  0.00    -0.508 OA
ATOM     13  H   UNL     1      -6.516   6.562  16.846  1.00  0.00     0.293 HD
ENDBRANCH   3  12
TORSDOF 1
ENDMDL
MODEL 3
REMARK VINA RESULT:    -4.926     14.879     15.705
REMARK INTER + INTRA:          -5.070
REMARK INTER:                  -5.070
REMARK INTRA:                   0.000
REMARK UNBOUND:                 0.000
REMARK SMILES O=c1ccc2ccc(O)cc2o1
REMARK SMILES IDX 6 1 7 2 8 3 10 4 11 5 5 6 4 7 3 8 2 9 1 10 12 11 9 12
REMARK H PARENT 9 13
REMARK Flexibility Score: inf
ROOT
ATOM      1  C   UNL     1      -2.662   5.824   8.157  1.00  0.00     0.016 A 
ATOM      2  C   UNL     1      -3.001   4.481   7.957  1.00  0.00     0.047 A 
ATOM      3  C   UNL     1      -3.146   3.619   9.050  1.00  0.00     0.119 A 
ATOM      4  C   UNL     1      -2.951   4.100  10.352  1.00  0.00     0.094 A 
ATOM      5  C   UNL     1      -2.612   5.442  10.562  1.00  0.00     0.142 A 
ATOM      6  C   UNL     1      -2.467   6.310   9.456  1.00  0.00     0.018 A 
ATOM      7  C   UNL     1      -2.129   7.645   9.697  1.00  0.00     0.019 A 
ATOM      8  C   UNL     1      -1.945   8.077  11.010  1.00  0.00     0.094 A 
ATOM      9  C   UNL     1      -2.106   7.162  12.056  1.00  0.00     0.336 A 
ATOM     10  O   UNL     1      -1.945   7.535  13.247  1.00  0.00    -0.246 OA
ATOM     11  O   UNL     1      -2.429   5.897  11.799  1.00  0.00    -0.423 OA
ENDROOT
BRANCH   3  12
ATOM     12  O   UNL     1      -3.483   2.285   8.831  1.00  0.00    -0.508 OA
ATOM     13  H   UNL     1      -3.676   1.933   7.900  1.00  0.00     0.293 HD
ENDBRANCH   3  12
TORSDOF 1
ENDMDL
MODEL 4
REMARK VINA RESULT:    -4.725     10.375     10.675
REMARK INTER + INTRA:          -4.863
REMARK INTER:                  -4.863
REMARK INTRA:                   0.000
REMARK UNBOUND:                 0.000
REMARK SMILES O=c1ccc2ccc(O)cc2o1
REMARK SMILES IDX 6 1 7 2 8 3 10 4 11 5 5 6 4 7 3 8 2 9 1 10 12 11 9 12
REMARK H PARENT 9 13
REMARK Flexibility Score: inf
ROOT
ATOM      1  C   UNL     1      -2.651   4.643  14.965  1.00  0.00     0.016 A 
ATOM      2  C   UNL     1      -1.934   3.618  14.337  1.00  0.00     0.047 A 
ATOM      3  C   UNL     1      -2.482   2.334  14.233  1.00  0.00     0.119 A 
ATOM      4  C   UNL     1      -3.754   2.070  14.759  1.00  0.00     0.094 A 
ATOM      5  C   UNL     1      -4.478   3.089  15.388  1.00  0.00     0.142 A 
ATOM      6  C   UNL     1      -3.923   4.384  15.492  1.00  0.00     0.018 A 
ATOM      7  C   UNL     1      -4.671   5.382  16.125  1.00  0.00     0.019 A 
ATOM      8  C   UNL     1      -5.932   5.072  16.633  1.00  0.00     0.094 A 
ATOM      9  C   UNL     1      -6.419   3.768  16.494  1.00  0.00     0.336 A 
ATOM     10  O   UNL     1      -7.555   3.471  16.946  1.00  0.00    -0.246 OA
ATOM     11  O   UNL     1      -5.687   2.838  15.887  1.00  0.00    -0.423 OA
ENDROOT
BRANCH   3  12
ATOM     12  O   UNL     1      -1.752   1.326  13.606  1.00  0.00    -0.508 OA
ATOM     13  H   UNL     1      -0.763   1.430  13.412  1.00  0.00     0.293 HD
ENDBRANCH   3  12
TORSDOF 1
ENDMDL
MODEL 5
REMARK VINA RESULT:    -4.716     14.185     14.915
REMARK INTER + INTRA:          -4.854
REMARK INTER:                  -4.854
REMARK INTRA:                   0.000
REMARK UNBOUND:                 0.000
REMARK SMILES O=c1ccc2ccc(O)cc2o1
REMARK SMILES IDX 6 1 7 2 8 3 10 4 11 5 5 6 4 7 3 8 2 9 1 10 12 11 9 12
REMARK H PARENT 9 13
REMARK Flexibility Score: inf
ROOT
ATOM      1  C   UNL     1      -1.622  10.133  12.479  1.00  0.00     0.016 A 
ATOM      2  C   UNL     1      -1.463  10.645  11.186  1.00  0.00     0.047 A 
ATOM      3  C   UNL     1      -1.602   9.808  10.073  1.00  0.00     0.119 A 
ATOM      4  C   UNL     1      -1.901   8.449  10.251  1.00  0.00     0.094 A 
ATOM      5  C   UNL     1      -2.062   7.929  11.541  1.00  0.00     0.142 A 
ATOM      6  C   UNL     1      -1.921   8.777  12.662  1.00  0.00     0.018 A 
ATOM      7  C   UNL     1      -2.088   8.229  13.938  1.00  0.00     0.019 A 
ATOM      8  C   UNL     1      -2.385   6.872  14.065  1.00  0.00     0.094 A 
ATOM      9  C   UNL     1      -2.509   6.093  12.909  1.00  0.00     0.336 A 
ATOM     10  O   UNL     1      -2.777   4.867  13.006  1.00  0.00    -0.246 OA
ATOM     11  O   UNL     1      -2.346   6.640  11.708  1.00  0.00    -0.423 OA
ENDROOT
BRANCH   3  12
ATOM     12  O   UNL     1      -1.440  10.335   8.794  1.00  0.00    -0.508 OA
ATOM     13  H   UNL     1      -1.762   9.838   7.971  1.00  0.00     0.293 HD
ENDBRANCH   3  12
TORSDOF 1
ENDMDL
MODEL 6
REMARK VINA RESULT:    -4.703     13.707     14.496
REMARK INTER + INTRA:          -4.841
REMARK INTER:                  -4.841
REMARK INTRA:                   0.000
REMARK UNBOUND:                 0.000
REMARK SMILES O=c1ccc2ccc(O)cc2o1
REMARK SMILES IDX 6 1 7 2 8 3 10 4 11 5 5 6 4 7 3 8 2 9 1 10 12 11 9 12
REMARK H PARENT 9 13
REMARK Flexibility Score: inf
ROOT
ATOM      1  C   UNL     1      -2.106   6.839  10.673  1.00  0.00     0.016 A 
ATOM      2  C   UNL     1      -1.836   7.870   9.767  1.00  0.00     0.047 A 
ATOM      3  C   UNL     1      -1.657   9.182  10.221  1.00  0.00     0.119 A 
ATOM      4  C   UNL     1      -1.749   9.467  11.591  1.00  0.00     0.094 A 
ATOM      5  C   UNL     1      -2.018   8.443  12.505  1.00  0.00     0.142 A 
ATOM      6  C   UNL     1      -2.197   7.119  12.043  1.00  0.00     0.018 A 
ATOM      7  C   UNL     1      -2.464   6.117  12.981  1.00  0.00     0.019 A 
ATOM      8  C   UNL     1      -2.546   6.449  14.332  1.00  0.00     0.094 A 
ATOM      9  C   UNL     1      -2.356   7.781  14.717  1.00  0.00     0.336 A 
ATOM     10  O   UNL     1      -2.426   8.098  15.933  1.00  0.00    -0.246 OA
ATOM     11  O   UNL     1      -2.103   8.715  13.805  1.00  0.00    -0.423 OA
ENDROOT
BRANCH   3  12
ATOM     12  O   UNL     1      -1.391  10.196   9.303  1.00  0.00    -0.508 OA
ATOM     13  H   UNL     1      -1.650  10.108   8.327  1.00  0.00     0.293 HD
ENDBRANCH   3  12
TORSDOF 1
ENDMDL
MODEL 7
REMARK VINA RESULT:    -4.678     10.237     11.154
REMARK INTER + INTRA:          -4.815
REMARK INTER:                  -4.815
REMARK INTRA:                   0.000
REMARK UNBOUND:                 0.000
REMARK SMILES O=c1ccc2ccc(O)cc2o1
REMARK SMILES IDX 6 1 7 2 8 3 10 4 11 5 5 6 4 7 3 8 2 9 1 10 12 11 9 12
REMARK H PARENT 9 13
REMARK Flexibility Score: inf
ROOT
ATOM      1  C   UNL     1      -4.410   2.947  15.129  1.00  0.00     0.016 A 
ATOM      2  C   UNL     1      -3.925   1.703  14.711  1.00  0.00     0.047 A 
ATOM      3  C   UNL     1      -2.586   1.558  14.329  1.00  0.00     0.119 A 
ATOM      4  C   UNL     1      -1.725   2.664  14.364  1.00  0.00     0.094 A 
ATOM      5  C   UNL     1      -2.201   3.912  14.781  1.00  0.00     0.142 A 
ATOM      6  C   UNL     1      -3.552   4.055  15.166  1.00  0.00     0.018 A 
ATOM      7  C   UNL     1      -3.999   5.314  15.579  1.00  0.00     0.019 A 
ATOM      8  C   UNL     1      -3.104   6.384  15.597  1.00  0.00     0.094 A 
ATOM      9  C   UNL     1      -1.779   6.169  15.201  1.00  0.00     0.336 A 
ATOM     10  O   UNL     1      -0.959   7.123  15.212  1.00  0.00    -0.246 OA
ATOM     11  O   UNL     1      -1.381   4.961  14.814  1.00  0.00    -0.423 OA
ENDROOT
BRANCH   3  12
ATOM     12  O   UNL     1      -2.123   0.312  13.915  1.00  0.00    -0.508 OA
ATOM     13  H   UNL     1      -2.741  -0.368  13.486  1.00  0.00     0.293 HD
ENDBRANCH   3  12
TORSDOF 1
ENDMDL
MODEL 8
REMARK VINA RESULT:    -4.659     14.658     15.665
REMARK INTER + INTRA:          -4.795
REMARK INTER:                  -4.795
REMARK INTRA:                   0.000
REMARK UNBOUND:                 0.000
REMARK SMILES O=c1ccc2ccc(O)cc2o1
REMARK SMILES IDX 6 1 7 2 8 3 10 4 11 5 5 6 4 7 3 8 2 9 1 10 12 11 9 12
REMARK H PARENT 9 13
REMARK Flexibility Score: inf
ROOT
ATOM      1  C   UNL     1     -10.312   8.722  23.755  1.00  0.00     0.016 A 
ATOM      2  C   UNL     1      -9.588   9.382  22.756  1.00  0.00     0.047 A 
ATOM      3  C   UNL     1      -9.761  10.755  22.547  1.00  0.00     0.119 A 
ATOM      4  C   UNL     1     -10.665  11.475  23.342  1.00  0.00     0.094 A 
ATOM      5  C   UNL     1     -11.393  10.824  24.343  1.00  0.00     0.142 A 
ATOM      6  C   UNL     1     -11.216   9.438  24.551  1.00  0.00     0.018 A 
ATOM      7  C   UNL     1     -11.957   8.815  25.560  1.00  0.00     0.019 A 
ATOM      8  C   UNL     1     -12.844   9.573  26.324  1.00  0.00     0.094 A 
ATOM      9  C   UNL     1     -12.968  10.942  26.062  1.00  0.00     0.336 A 
ATOM     10  O   UNL     1     -13.763  11.641  26.742  1.00  0.00    -0.246 OA
ATOM     11  O   UNL     1     -12.250  11.509  25.097  1.00  0.00    -0.423 OA
ENDROOT
BRANCH   3  12
ATOM     12  O   UNL     1      -9.031  11.394  21.547  1.00  0.00    -0.508 OA
ATOM     13  H   UNL     1      -8.019  11.361  21.527  1.00  0.00     0.293 HD
ENDBRANCH   3  12
TORSDOF 1
ENDMDL
MODEL 9
REMARK VINA RESULT:    -4.615     14.979     15.421
REMARK INTER + INTRA:          -4.750
REMARK INTER:                  -4.750
REMARK INTRA:                   0.000
REMARK UNBOUND:                 0.000
REMARK SMILES O=c1ccc2ccc(O)cc2o1
REMARK SMILES IDX 6 1 7 2 8 3 10 4 11 5 5 6 4 7 3 8 2 9 1 10 12 11 9 12
REMARK H PARENT 9 13
REMARK Flexibility Score: inf
ROOT
ATOM      1  C   UNL     1      -2.093   7.937   9.503  1.00  0.00     0.016 A 
ATOM      2  C   UNL     1      -1.740   8.428  10.765  1.00  0.00     0.047 A 
ATOM      3  C   UNL     1      -1.755   7.584  11.882  1.00  0.00     0.119 A 
ATOM      4  C   UNL     1      -2.126   6.239  11.738  1.00  0.00     0.094 A 
ATOM      5  C   UNL     1      -2.480   5.739  10.480  1.00  0.00     0.142 A 
ATOM      6  C   UNL     1      -2.464   6.593   9.355  1.00  0.00     0.018 A 
ATOM      7  C   UNL     1      -2.822   6.064   8.111  1.00  0.00     0.019 A 
ATOM      8  C   UNL     1      -3.183   4.721   8.018  1.00  0.00     0.094 A 
ATOM      9  C   UNL     1      -3.176   3.934   9.175  1.00  0.00     0.336 A 
ATOM     10  O   UNL     1      -3.499   2.719   9.109  1.00  0.00    -0.246 OA
ATOM     11  O   UNL     1      -2.831   4.462  10.346  1.00  0.00    -0.423 OA
ENDROOT
BRANCH   3  12
ATOM     12  O   UNL     1      -1.401   8.092  13.130  1.00  0.00    -0.508 OA
ATOM     13  H   UNL     1      -1.050   9.037  13.237  1.00  0.00     0.293 HD
ENDBRANCH   3  12
TORSDOF 1
ENDMDL
