MODEL 1
REMARK VINA RESULT:    -3.933      0.000      0.000
REMARK INTER + INTRA:          -5.821
REMARK INTER:                  -5.312
REMARK INTRA:                  -0.508
REMARK UNBOUND:                -0.508
REMARK SMILES O=C[C@H](O)[C@H](O)[C@H](O)CO
REMARK SMILES IDX 7 1 9 2 10 3 5 5 3 6 2 7 1 8 4 9 6 11 8 13
REMARK H PARENT 10 4 4 10 6 12 8 14
REMARK Flexibility Score: inf
ROOT
ATOM      1  C   UNL     1      -6.689   8.998  -4.520  1.00  0.00     0.171 C 
ENDROOT
BRANCH   1   2
ATOM      2  C   UNL     1      -7.436   8.093  -3.521  1.00  0.00     0.190 C 
BRANCH   2   3
ATOM      3  O   UNL     1      -6.639   7.011  -3.117  1.00  0.00    -0.394 OA
ATOM      4  H   UNL     1      -6.011   6.820  -3.861  1.00  0.00     0.210 HD
ENDBRANCH   2   3
ENDBRANCH   1   2
BRANCH   1   5
ATOM      5  C   UNL     1      -5.493   8.275  -5.195  1.00  0.00     0.181 C 
BRANCH   5   6
ATOM      6  C   UNL     1      -4.536   9.262  -5.907  1.00  0.00     0.209 C 
BRANCH   6   7
ATOM      7  C   UNL     1      -3.804   8.618  -7.057  1.00  0.00     0.258 C 
ATOM      8  O   UNL     1      -2.666   8.198  -6.917  1.00  0.00    -0.300 OA
ENDBRANCH   6   7
BRANCH   6   9
ATOM      9  O   UNL     1      -3.611   9.765  -4.979  1.00  0.00    -0.383 OA
ATOM     10  H   UNL     1      -2.878   9.097  -4.911  1.00  0.00     0.211 HD
ENDBRANCH   6   9
ENDBRANCH   5   6
BRANCH   5  11
ATOM     11  O   UNL     1      -5.978   7.323  -6.110  1.00  0.00    -0.387 OA
ATOM     12  H   UNL     1      -6.934   7.169  -5.892  1.00  0.00     0.211 HD
ENDBRANCH   5  11
ENDBRANCH   1   5
BRANCH   1  13
ATOM     13  O   UNL     1      -6.284  10.190  -3.889  1.00  0.00    -0.388 OA
ATOM     14  H   UNL     1      -6.512  10.944  -4.493  1.00  0.00     0.211 HD
ENDBRANCH   1  13
TORSDOF 8
ENDMDL
MODEL 2
REMARK VINA RESULT:    -3.822      1.322      3.723
REMARK INTER + INTRA:          -5.671
REMARK INTER:                  -5.213
REMARK INTRA:                  -0.458
REMARK UNBOUND:                -0.508
REMARK SMILES O=C[C@H](O)[C@H](O)[C@H](O)CO
REMARK SMILES IDX 7 1 9 2 10 3 5 5 3 6 2 7 1 8 4 9 6 11 8 13
REMARK H PARENT 10 4 4 10 6 12 8 14
REMARK Flexibility Score: inf
ROOT
ATOM      1  C   UNL     1      -5.163   8.580  -6.271  1.00  0.00     0.171 C 
ENDROOT
BRANCH   1   2
ATOM      2  C   UNL     1      -3.694   8.671  -5.817  1.00  0.00     0.190 C 
BRANCH   2   3
ATOM      3  O   UNL     1      -3.498   9.739  -4.927  1.00  0.00    -0.394 OA
ATOM      4  H   UNL     1      -4.204  10.408  -5.119  1.00  0.00     0.210 HD
ENDBRANCH   2   3
ENDBRANCH   1   2
BRANCH   1   5
ATOM      5  C   UNL     1      -6.030   7.730  -5.305  1.00  0.00     0.181 C 
BRANCH   5   6
ATOM      6  C   UNL     1      -7.050   8.590  -4.520  1.00  0.00     0.209 C 
BRANCH   6   7
ATOM      7  C   UNL     1      -6.897  10.062  -4.807  1.00  0.00     0.258 C 
ATOM      8  O   UNL     1      -6.275  10.787  -4.046  1.00  0.00    -0.300 OA
ENDBRANCH   6   7
BRANCH   6   9
ATOM      9  O   UNL     1      -6.895   8.358  -3.144  1.00  0.00    -0.383 OA
ATOM     10  H   UNL     1      -7.451   7.565  -2.920  1.00  0.00     0.211 HD
ENDBRANCH   6   9
ENDBRANCH   5   6
BRANCH   5  11
ATOM     11  O   UNL     1      -5.193   7.036  -4.413  1.00  0.00    -0.387 OA
ATOM     12  H   UNL     1      -5.213   6.079  -4.677  1.00  0.00     0.211 HD
ENDBRANCH   5  11
ENDBRANCH   1   5
BRANCH   1  13
ATOM     13  O   UNL     1      -5.235   8.098  -7.591  1.00  0.00    -0.388 OA
ATOM     14  H   UNL     1      -5.809   7.288  -7.586  1.00  0.00     0.211 HD
ENDBRANCH   1  13
TORSDOF 8
ENDMDL
MODEL 3
REMARK VINA RESULT:    -3.684      1.144      2.386
REMARK INTER + INTRA:          -5.484
REMARK INTER:                  -5.036
REMARK INTRA:                  -0.448
REMARK UNBOUND:                -0.508
REMARK SMILES O=C[C@H](O)[C@H](O)[C@H](O)CO
REMARK SMILES IDX 7 1 9 2 10 3 5 5 3 6 2 7 1 8 4 9 6 11 8 13
REMARK H PARENT 10 4 4 10 6 12 8 14
REMARK Flexibility Score: inf
ROOT
ATOM      1  C   UNL     1      -7.185   8.447  -3.509  1.00  0.00     0.171 C 
ENDROOT
BRANCH   1   2
ATOM      2  C   UNL     1      -8.724   8.493  -3.570  1.00  0.00     0.190 C 
BRANCH   2   3
ATOM      3  O   UNL     1      -9.296   8.130  -2.341  1.00  0.00    -0.394 OA
ATOM      4  H   UNL     1     -10.042   8.761  -2.171  1.00  0.00     0.210 HD
ENDBRANCH   2   3
ENDBRANCH   1   2
BRANCH   1   5
ATOM      5  C   UNL     1      -6.523   9.052  -4.776  1.00  0.00     0.181 C 
BRANCH   5   6
ATOM      6  C   UNL     1      -5.507   8.083  -5.428  1.00  0.00     0.209 C 
BRANCH   6   7
ATOM      7  C   UNL     1      -4.364   8.812  -6.087  1.00  0.00     0.258 C 
ATOM      8  O   UNL     1      -3.288   8.929  -5.522  1.00  0.00    -0.300 OA
ENDBRANCH   6   7
BRANCH   6   9
ATOM      9  O   UNL     1      -6.167   7.283  -6.375  1.00  0.00    -0.383 OA
ATOM     10  H   UNL     1      -5.528   7.133  -7.121  1.00  0.00     0.211 HD
ENDBRANCH   6   9
ENDBRANCH   5   6
BRANCH   5  11
ATOM     11  O   UNL     1      -5.892  10.264  -4.441  1.00  0.00    -0.387 OA
ATOM     12  H   UNL     1      -6.430  10.683  -3.719  1.00  0.00     0.211 HD
ENDBRANCH   5  11
ENDBRANCH   1   5
BRANCH   1  13
ATOM     13  O   UNL     1      -6.746   7.130  -3.276  1.00  0.00    -0.388 OA
ATOM     14  H   UNL     1      -5.758   7.151  -3.186  1.00  0.00     0.211 HD
ENDBRANCH   1  13
TORSDOF 8
ENDMDL
MODEL 4
REMARK VINA RESULT:    -3.669      1.316      1.962
REMARK INTER + INTRA:          -5.464
REMARK INTER:                  -4.911
REMARK INTRA:                  -0.553
REMARK UNBOUND:                -0.508
REMARK SMILES O=C[C@H](O)[C@H](O)[C@H](O)CO
REMARK SMILES IDX 7 1 9 2 10 3 5 5 3 6 2 7 1 8 4 9 6 11 8 13
REMARK H PARENT 10 4 4 10 6 12 8 14
REMARK Flexibility Score: inf
ROOT
ATOM      1  C   UNL     1      -6.595   9.272  -4.659  1.00  0.00     0.171 C 
ENDROOT
BRANCH   1   2
ATOM      2  C   UNL     1      -7.468   8.227  -3.939  1.00  0.00     0.190 C 
BRANCH   2   3
ATOM      3  O   UNL     1      -7.015   7.995  -2.631  1.00  0.00    -0.394 OA
ATOM      4  H   UNL     1      -7.806   8.057  -2.035  1.00  0.00     0.210 HD
ENDBRANCH   2   3
ENDBRANCH   1   2
BRANCH   1   5
ATOM      5  C   UNL     1      -5.301   8.654  -5.254  1.00  0.00     0.181 C 
BRANCH   5   6
ATOM      6  C   UNL     1      -5.214   8.840  -6.789  1.00  0.00     0.209 C 
BRANCH   6   7
ATOM      7  C   UNL     1      -6.432   8.308  -7.499  1.00  0.00     0.258 C 
ATOM      8  O   UNL     1      -6.765   7.139  -7.380  1.00  0.00    -0.300 OA
ENDBRANCH   6   7
BRANCH   6   9
ATOM      9  O   UNL     1      -4.064   8.194  -7.272  1.00  0.00    -0.383 OA
ATOM     10  H   UNL     1      -3.388   8.900  -7.448  1.00  0.00     0.211 HD
ENDBRANCH   6   9
ENDBRANCH   5   6
BRANCH   5  11
ATOM     11  O   UNL     1      -5.242   7.287  -4.926  1.00  0.00    -0.387 OA
ATOM     12  H   UNL     1      -6.156   7.012  -4.655  1.00  0.00     0.211 HD
ENDBRANCH   5  11
ENDBRANCH   1   5
BRANCH   1  13
ATOM     13  O   UNL     1      -6.305  10.344  -3.794  1.00  0.00    -0.388 OA
ATOM     14  H   UNL     1      -5.319  10.401  -3.703  1.00  0.00     0.211 HD
ENDBRANCH   1  13
TORSDOF 8
ENDMDL
MODEL 5
REMARK VINA RESULT:    -3.630      1.169      3.898
REMARK INTER + INTRA:          -5.411
REMARK INTER:                  -4.692
REMARK INTRA:                  -0.719
REMARK UNBOUND:                -0.508
REMARK SMILES O=C[C@H](O)[C@H](O)[C@H](O)CO
REMARK SMILES IDX 7 1 9 2 10 3 5 5 3 6 2 7 1 8 4 9 6 11 8 13
REMARK H PARENT 10 4 4 10 6 12 8 14
REMARK Flexibility Score: inf
ROOT
ATOM      1  C   UNL     1      -4.606   8.555  -6.115  1.00  0.00     0.171 C 
ENDROOT
BRANCH   1   2
ATOM      2  C   UNL     1      -4.177   8.957  -7.539  1.00  0.00     0.190 C 
BRANCH   2   3
ATOM      3  O   UNL     1      -3.642   7.865  -8.240  1.00  0.00    -0.394 OA
ATOM      4  H   UNL     1      -3.280   7.237  -7.563  1.00  0.00     0.210 HD
ENDBRANCH   2   3
ENDBRANCH   1   2
BRANCH   1   5
ATOM      5  C   UNL     1      -6.082   8.080  -6.052  1.00  0.00     0.181 C 
BRANCH   5   6
ATOM      6  C   UNL     1      -6.391   7.290  -4.757  1.00  0.00     0.209 C 
BRANCH   6   7
ATOM      7  C   UNL     1      -7.123   8.127  -3.739  1.00  0.00     0.258 C 
ATOM      8  O   UNL     1      -7.049   9.346  -3.761  1.00  0.00    -0.300 OA
ENDBRANCH   6   7
BRANCH   6   9
ATOM      9  O   UNL     1      -5.191   6.815  -4.204  1.00  0.00    -0.383 OA
ATOM     10  H   UNL     1      -4.540   7.565  -4.240  1.00  0.00     0.211 HD
ENDBRANCH   6   9
ENDBRANCH   5   6
BRANCH   5  11
ATOM     11  O   UNL     1      -6.367   7.291  -7.181  1.00  0.00    -0.387 OA
ATOM     12  H   UNL     1      -7.301   6.968  -7.084  1.00  0.00     0.211 HD
ENDBRANCH   5  11
ENDBRANCH   1   5
BRANCH   1  13
ATOM     13  O   UNL     1      -4.364   9.612  -5.217  1.00  0.00    -0.388 OA
ATOM     14  H   UNL     1      -4.193  10.430  -5.752  1.00  0.00     0.211 HD
ENDBRANCH   1  13
TORSDOF 8
ENDMDL
MODEL 6
REMARK VINA RESULT:    -3.613      1.450      4.444
REMARK INTER + INTRA:          -5.388
REMARK INTER:                  -5.132
REMARK INTRA:                  -0.256
REMARK UNBOUND:                -0.508
REMARK SMILES O=C[C@H](O)[C@H](O)[C@H](O)CO
REMARK SMILES IDX 7 1 9 2 10 3 5 5 3 6 2 7 1 8 4 9 6 11 8 13
REMARK H PARENT 10 4 4 10 6 12 8 14
REMARK Flexibility Score: inf
ROOT
ATOM      1  C   UNL     1      -5.689   8.207  -5.481  1.00  0.00     0.171 C 
ENDROOT
BRANCH   1   2
ATOM      2  C   UNL     1      -4.507   9.020  -6.042  1.00  0.00     0.190 C 
BRANCH   2   3
ATOM      3  O   UNL     1      -3.374   8.909  -5.220  1.00  0.00    -0.394 OA
ATOM      4  H   UNL     1      -3.119   7.950  -5.207  1.00  0.00     0.210 HD
ENDBRANCH   2   3
ENDBRANCH   1   2
BRANCH   1   5
ATOM      5  C   UNL     1      -6.627   9.063  -4.589  1.00  0.00     0.181 C 
BRANCH   5   6
ATOM      6  C   UNL     1      -7.533   8.193  -3.684  1.00  0.00     0.209 C 
BRANCH   6   7
ATOM      7  C   UNL     1      -8.693   8.973  -3.119  1.00  0.00     0.258 C 
ATOM      8  O   UNL     1      -8.736   9.260  -1.933  1.00  0.00    -0.300 OA
ENDBRANCH   6   7
BRANCH   6   9
ATOM      9  O   UNL     1      -6.767   7.658  -2.635  1.00  0.00    -0.383 OA
ATOM     10  H   UNL     1      -6.586   6.709  -2.865  1.00  0.00     0.211 HD
ENDBRANCH   6   9
ENDBRANCH   5   6
BRANCH   5  11
ATOM     11  O   UNL     1      -7.414   9.898  -5.404  1.00  0.00    -0.387 OA
ATOM     12  H   UNL     1      -8.231   9.387  -5.642  1.00  0.00     0.211 HD
ENDBRANCH   5  11
ENDBRANCH   1   5
BRANCH   1  13
ATOM     13  O   UNL     1      -5.218   7.072  -4.795  1.00  0.00    -0.388 OA
ATOM     14  H   UNL     1      -4.707   6.518  -5.441  1.00  0.00     0.211 HD
ENDBRANCH   1  13
TORSDOF 8
ENDMDL
MODEL 7
REMARK VINA RESULT:    -3.423      1.426      4.319
REMARK INTER + INTRA:          -5.132
REMARK INTER:                  -4.605
REMARK INTRA:                  -0.527
REMARK UNBOUND:                -0.508
REMARK SMILES O=C[C@H](O)[C@H](O)[C@H](O)CO
REMARK SMILES IDX 7 1 9 2 10 3 5 5 3 6 2 7 1 8 4 9 6 11 8 13
REMARK H PARENT 10 4 4 10 6 12 8 14
REMARK Flexibility Score: inf
ROOT
ATOM      1  C   UNL     1      -4.018   8.512  -7.688  1.00  0.00     0.171 C 
ENDROOT
BRANCH   1   2
ATOM      2  C   UNL     1      -2.626   8.177  -8.258  1.00  0.00     0.190 C 
BRANCH   2   3
ATOM      3  O   UNL     1      -1.881   7.394  -7.362  1.00  0.00    -0.394 OA
ATOM      4  H   UNL     1      -0.932   7.664  -7.463  1.00  0.00     0.210 HD
ENDBRANCH   2   3
ENDBRANCH   1   2
BRANCH   1   5
ATOM      5  C   UNL     1      -4.106   8.268  -6.158  1.00  0.00     0.181 C 
BRANCH   5   6
ATOM      6  C   UNL     1      -5.565   8.297  -5.641  1.00  0.00     0.209 C 
BRANCH   6   7
ATOM      7  C   UNL     1      -6.086   9.702  -5.477  1.00  0.00     0.258 C 
ATOM      8  O   UNL     1      -5.944  10.302  -4.424  1.00  0.00    -0.300 OA
ENDBRANCH   6   7
BRANCH   6   9
ATOM      9  O   UNL     1      -5.638   7.618  -4.414  1.00  0.00    -0.383 OA
ATOM     10  H   UNL     1      -6.472   7.078  -4.432  1.00  0.00     0.211 HD
ENDBRANCH   6   9
ENDBRANCH   5   6
BRANCH   5  11
ATOM     11  O   UNL     1      -3.334   9.234  -5.485  1.00  0.00    -0.387 OA
ATOM     12  H   UNL     1      -3.182   8.896  -4.564  1.00  0.00     0.211 HD
ENDBRANCH   5  11
ENDBRANCH   1   5
BRANCH   1  13
ATOM     13  O   UNL     1      -5.013   7.800  -8.383  1.00  0.00    -0.388 OA
ATOM     14  H   UNL     1      -4.624   7.500  -9.246  1.00  0.00     0.211 HD
ENDBRANCH   1  13
TORSDOF 8
ENDMDL
MODEL 8
REMARK VINA RESULT:    -3.412      1.671      4.818
REMARK INTER + INTRA:          -5.117
REMARK INTER:                  -4.639
REMARK INTRA:                  -0.478
REMARK UNBOUND:                -0.508
REMARK SMILES O=C[C@H](O)[C@H](O)[C@H](O)CO
REMARK SMILES IDX 7 1 9 2 10 3 5 5 3 6 2 7 1 8 4 9 6 11 8 13
REMARK H PARENT 10 4 4 10 6 12 8 14
REMARK Flexibility Score: inf
ROOT
ATOM      1  C   UNL     1      -3.229   8.097  -8.261  1.00  0.00     0.171 C 
ENDROOT
BRANCH   1   2
ATOM      2  C   UNL     1      -2.805   8.816  -9.556  1.00  0.00     0.190 C 
BRANCH   2   3
ATOM      3  O   UNL     1      -1.413   8.775  -9.733  1.00  0.00    -0.394 OA
ATOM      4  H   UNL     1      -1.234   9.022 -10.676  1.00  0.00     0.210 HD
ENDBRANCH   2   3
ENDBRANCH   1   2
BRANCH   1   5
ATOM      5  C   UNL     1      -4.256   8.919  -7.436  1.00  0.00     0.181 C 
BRANCH   5   6
ATOM      6  C   UNL     1      -4.260   8.521  -5.940  1.00  0.00     0.209 C 
BRANCH   6   7
ATOM      7  C   UNL     1      -5.642   8.569  -5.340  1.00  0.00     0.258 C 
ATOM      8  O   UNL     1      -6.398   7.616  -5.436  1.00  0.00    -0.300 OA
ENDBRANCH   6   7
BRANCH   6   9
ATOM      9  O   UNL     1      -3.404   9.378  -5.228  1.00  0.00    -0.383 OA
ATOM     10  H   UNL     1      -3.290   8.985  -4.323  1.00  0.00     0.211 HD
ENDBRANCH   6   9
ENDBRANCH   5   6
BRANCH   5  11
ATOM     11  O   UNL     1      -5.539   8.750  -7.987  1.00  0.00    -0.387 OA
ATOM     12  H   UNL     1      -6.134   9.414  -7.550  1.00  0.00     0.211 HD
ENDBRANCH   5  11
ENDBRANCH   1   5
BRANCH   1  13
ATOM     13  O   UNL     1      -2.095   7.767  -7.495  1.00  0.00    -0.388 OA
ATOM     14  H   UNL     1      -2.263   6.885  -7.071  1.00  0.00     0.211 HD
ENDBRANCH   1  13
TORSDOF 8
ENDMDL
MODEL 9
REMARK VINA RESULT:    -3.391      1.537      2.122
REMARK INTER + INTRA:          -5.089
REMARK INTER:                  -4.493
REMARK INTRA:                  -0.596
REMARK UNBOUND:                -0.508
REMARK SMILES O=C[C@H](O)[C@H](O)[C@H](O)CO
REMARK SMILES IDX 7 1 9 2 10 3 5 5 3 6 2 7 1 8 4 9 6 11 8 13
REMARK H PARENT 10 4 4 10 6 12 8 14
REMARK Flexibility Score: inf
ROOT
ATOM      1  C   UNL     1      -6.712   7.872  -5.161  1.00  0.00     0.171 C 
ENDROOT
BRANCH   1   2
ATOM      2  C   UNL     1      -7.196   8.671  -3.936  1.00  0.00     0.190 C 
BRANCH   2   3
ATOM      3  O   UNL     1      -6.970   7.967  -2.744  1.00  0.00    -0.394 OA
ATOM      4  H   UNL     1      -7.353   8.511  -2.009  1.00  0.00     0.210 HD
ENDBRANCH   2   3
ENDBRANCH   1   2
BRANCH   1   5
ATOM      5  C   UNL     1      -5.296   8.302  -5.628  1.00  0.00     0.181 C 
BRANCH   5   6
ATOM      6  C   UNL     1      -5.036   9.812  -5.403  1.00  0.00     0.209 C 
BRANCH   6   7
ATOM      7  C   UNL     1      -5.342  10.632  -6.630  1.00  0.00     0.258 C 
ATOM      8  O   UNL     1      -6.433  10.561  -7.174  1.00  0.00    -0.300 OA
ENDBRANCH   6   7
BRANCH   6   9
ATOM      9  O   UNL     1      -3.697  10.004  -5.027  1.00  0.00    -0.383 OA
ATOM     10  H   UNL     1      -3.263   9.110  -5.039  1.00  0.00     0.211 HD
ENDBRANCH   6   9
ENDBRANCH   5   6
BRANCH   5  11
ATOM     11  O   UNL     1      -5.132   7.978  -6.987  1.00  0.00    -0.387 OA
ATOM     12  H   UNL     1      -5.857   8.438  -7.486  1.00  0.00     0.211 HD
ENDBRANCH   5  11
ENDBRANCH   1   5
BRANCH   1  13
ATOM     13  O   UNL     1      -7.651   7.966  -6.206  1.00  0.00    -0.388 OA
ATOM     14  H   UNL     1      -7.785   7.055  -6.575  1.00  0.00     0.211 HD
ENDBRANCH   1  13
TORSDOF 8
ENDMDL
