MODEL 1
REMARK VINA RESULT:    -6.273      0.000      0.000
REMARK INTER + INTRA:          -7.505
REMARK INTER:                  -7.373
REMARK INTRA:                  -0.132
REMARK UNBOUND:                -0.132
REMARK SMILES O=C([O-])C=Cc1ccc(O)c(O)c1
REMARK SMILES IDX 6 1 13 2 7 3 11 4 8 5 9 6 5 7 4 8 2 9 1 10 3 11 12 12 10 14
REMARK H PARENT 12 13 10 15
REMARK Flexibility Score: inf
ROOT
ATOM      1  C   UNL     1      27.871  24.071  48.717  1.00  0.00    -0.022 A 
ATOM      2  C   UNL     1      27.049  22.972  49.014  1.00  0.00     0.058 A 
ATOM      3  C   UNL     1      28.516  24.743  49.775  1.00  0.00     0.012 A 
ATOM      4  C   UNL     1      26.890  22.531  50.336  1.00  0.00     0.157 A 
ATOM      5  C   UNL     1      28.359  24.304  51.092  1.00  0.00     0.051 A 
ATOM      6  C   UNL     1      27.552  23.200  51.379  1.00  0.00     0.157 A 
ENDROOT
BRANCH   1   7
ATOM      7  C   UNL     1      27.996  24.503  47.303  1.00  0.00     0.010 C 
ATOM      8  C   UNL     1      26.994  24.440  46.413  1.00  0.00     0.025 C 
BRANCH   8   9
ATOM      9  C   UNL     1      27.151  24.890  45.019  1.00  0.00     0.064 C 
ATOM     10  O   UNL     1      28.289  24.962  44.482  1.00  0.00    -0.545 OA
ATOM     11  O   UNL     1      26.027  25.238  44.284  1.00  0.00    -0.545 OA
ENDBRANCH   8   9
ENDBRANCH   1   7
BRANCH   4  12
ATOM     12  O   UNL     1      26.079  21.433  50.616  1.00  0.00    -0.504 OA
ATOM     13  H   UNL     1      26.178  20.904  51.475  1.00  0.00     0.293 HD
ENDBRANCH   4  12
BRANCH   6  14
ATOM     14  O   UNL     1      27.416  22.786  52.703  1.00  0.00    -0.504 OA
ATOM     15  H   UNL     1      26.943  23.351  53.398  1.00  0.00     0.293 HD
ENDBRANCH   6  14
TORSDOF 4
ENDMDL
MODEL 2
REMARK VINA RESULT:    -6.118      0.827      1.851
REMARK INTER + INTRA:          -7.323
REMARK INTER:                  -7.185
REMARK INTRA:                  -0.138
REMARK UNBOUND:                -0.132
REMARK SMILES O=C([O-])C=Cc1ccc(O)c(O)c1
REMARK SMILES IDX 6 1 13 2 7 3 11 4 8 5 9 6 5 7 4 8 2 9 1 10 3 11 12 12 10 14
REMARK H PARENT 12 13 10 15
REMARK Flexibility Score: inf
ROOT
ATOM      1  C   UNL     1      27.477  23.817  48.883  1.00  0.00    -0.022 A 
ATOM      2  C   UNL     1      28.073  24.372  50.027  1.00  0.00     0.058 A 
ATOM      3  C   UNL     1      26.781  22.598  49.003  1.00  0.00     0.012 A 
ATOM      4  C   UNL     1      27.960  23.740  51.274  1.00  0.00     0.157 A 
ATOM      5  C   UNL     1      26.667  21.967  50.245  1.00  0.00     0.051 A 
ATOM      6  C   UNL     1      27.250  22.533  51.382  1.00  0.00     0.157 A 
ENDROOT
BRANCH   1   7
ATOM      7  C   UNL     1      27.636  24.521  47.586  1.00  0.00     0.010 C 
ATOM      8  C   UNL     1      27.053  24.125  46.446  1.00  0.00     0.025 C 
BRANCH   8   9
ATOM      9  C   UNL     1      27.224  24.856  45.179  1.00  0.00     0.064 C 
ATOM     10  O   UNL     1      28.354  24.947  44.627  1.00  0.00    -0.545 OA
ATOM     11  O   UNL     1      26.123  25.453  44.581  1.00  0.00    -0.545 OA
ENDBRANCH   8   9
ENDBRANCH   1   7
BRANCH   4  12
ATOM     12  O   UNL     1      28.549  24.306  52.403  1.00  0.00    -0.504 OA
ATOM     13  H   UNL     1      28.082  25.027  52.940  1.00  0.00     0.293 HD
ENDBRANCH   4  12
BRANCH   6  14
ATOM     14  O   UNL     1      27.118  21.880  52.607  1.00  0.00    -0.504 OA
ATOM     15  H   UNL     1      27.894  21.782  53.251  1.00  0.00     0.293 HD
ENDBRANCH   6  14
TORSDOF 4
ENDMDL
MODEL 3
REMARK VINA RESULT:    -5.588      1.367      6.037
REMARK INTER + INTRA:          -6.701
REMARK INTER:                  -6.576
REMARK INTRA:                  -0.125
REMARK UNBOUND:                -0.132
REMARK SMILES O=C([O-])C=Cc1ccc(O)c(O)c1
REMARK SMILES IDX 6 1 13 2 7 3 11 4 8 5 9 6 5 7 4 8 2 9 1 10 3 11 12 12 10 14
REMARK H PARENT 12 13 10 15
REMARK Flexibility Score: inf
ROOT
ATOM      1  C   UNL     1      28.155  24.501  48.444  1.00  0.00    -0.022 A 
ATOM      2  C   UNL     1      29.318  24.819  47.724  1.00  0.00     0.058 A 
ATOM      3  C   UNL     1      26.945  24.331  47.740  1.00  0.00     0.012 A 
ATOM      4  C   UNL     1      29.288  24.941  46.327  1.00  0.00     0.157 A 
ATOM      5  C   UNL     1      26.914  24.452  46.348  1.00  0.00     0.051 A 
ATOM      6  C   UNL     1      28.078  24.754  45.637  1.00  0.00     0.157 A 
ENDROOT
BRANCH   1   7
ATOM      7  C   UNL     1      28.240  24.395  49.921  1.00  0.00     0.010 C 
ATOM      8  C   UNL     1      28.385  23.234  50.577  1.00  0.00     0.025 C 
BRANCH   8   9
ATOM      9  C   UNL     1      28.479  23.167  52.046  1.00  0.00     0.064 C 
ATOM     10  O   UNL     1      29.335  23.845  52.675  1.00  0.00    -0.545 OA
ATOM     11  O   UNL     1      27.608  22.346  52.748  1.00  0.00    -0.545 OA
ENDBRANCH   8   9
ENDBRANCH   1   7
BRANCH   4  12
ATOM     12  O   UNL     1      30.451  25.247  45.625  1.00  0.00    -0.504 OA
ATOM     13  H   UNL     1      30.450  25.359  44.618  1.00  0.00     0.293 HD
ENDBRANCH   4  12
BRANCH   6  14
ATOM     14  O   UNL     1      28.015  24.867  44.249  1.00  0.00    -0.504 OA
ATOM     15  H   UNL     1      27.133  24.920  43.752  1.00  0.00     0.293 HD
ENDBRANCH   6  14
TORSDOF 4
ENDMDL
MODEL 4
REMARK VINA RESULT:    -5.556      1.380      5.817
REMARK INTER + INTRA:          -6.663
REMARK INTER:                  -6.530
REMARK INTRA:                  -0.133
REMARK UNBOUND:                -0.132
REMARK SMILES O=C([O-])C=Cc1ccc(O)c(O)c1
REMARK SMILES IDX 6 1 13 2 7 3 11 4 8 5 9 6 5 7 4 8 2 9 1 10 3 11 12 12 10 14
REMARK H PARENT 12 13 10 15
REMARK Flexibility Score: inf
ROOT
ATOM      1  C   UNL     1      28.096  24.289  48.399  1.00  0.00    -0.022 A 
ATOM      2  C   UNL     1      27.012  24.037  47.543  1.00  0.00     0.058 A 
ATOM      3  C   UNL     1      29.299  24.772  47.847  1.00  0.00     0.012 A 
ATOM      4  C   UNL     1      27.111  24.283  46.166  1.00  0.00     0.157 A 
ATOM      5  C   UNL     1      29.399  25.018  46.475  1.00  0.00     0.051 A 
ATOM      6  C   UNL     1      28.311  24.779  45.632  1.00  0.00     0.157 A 
ENDROOT
BRANCH   1   7
ATOM      7  C   UNL     1      27.941  24.001  49.847  1.00  0.00     0.010 C 
ATOM      8  C   UNL     1      28.827  23.296  50.565  1.00  0.00     0.025 C 
BRANCH   8   9
ATOM      9  C   UNL     1      28.646  23.040  52.004  1.00  0.00     0.064 C 
ATOM     10  O   UNL     1      28.107  21.976  52.414  1.00  0.00    -0.545 OA
ATOM     11  O   UNL     1      29.078  23.984  52.925  1.00  0.00    -0.545 OA
ENDBRANCH   8   9
ENDBRANCH   1   7
BRANCH   4  12
ATOM     12  O   UNL     1      26.024  24.037  45.330  1.00  0.00    -0.504 OA
ATOM     13  H   UNL     1      25.512  23.163  45.367  1.00  0.00     0.293 HD
ENDBRANCH   4  12
BRANCH   6  14
ATOM     14  O   UNL     1      28.442  25.035  44.267  1.00  0.00    -0.504 OA
ATOM     15  H   UNL     1      27.663  25.354  43.703  1.00  0.00     0.293 HD
ENDBRANCH   6  14
TORSDOF 4
ENDMDL
MODEL 5
REMARK VINA RESULT:    -5.290     10.355     11.417
REMARK INTER + INTRA:          -6.350
REMARK INTER:                  -6.223
REMARK INTRA:                  -0.127
REMARK UNBOUND:                -0.132
REMARK SMILES O=C([O-])C=Cc1ccc(O)c(O)c1
REMARK SMILES IDX 6 1 13 2 7 3 11 4 8 5 9 6 5 7 4 8 2 9 1 10 3 11 12 12 10 14
REMARK H PARENT 12 13 10 15
REMARK Flexibility Score: inf
ROOT
ATOM      1  C   UNL     1      18.036  26.269  43.259  1.00  0.00    -0.022 A 
ATOM      2  C   UNL     1      19.188  27.042  43.478  1.00  0.00     0.058 A 
ATOM      3  C   UNL     1      16.895  26.512  44.050  1.00  0.00     0.012 A 
ATOM      4  C   UNL     1      19.200  28.055  44.447  1.00  0.00     0.157 A 
ATOM      5  C   UNL     1      16.906  27.521  45.016  1.00  0.00     0.051 A 
ATOM      6  C   UNL     1      18.051  28.296  45.218  1.00  0.00     0.157 A 
ENDROOT
BRANCH   1   7
ATOM      7  C   UNL     1      18.081  25.203  42.228  1.00  0.00     0.010 C 
ATOM      8  C   UNL     1      18.541  25.390  40.982  1.00  0.00     0.025 C 
BRANCH   8   9
ATOM      9  C   UNL     1      18.582  24.304  39.988  1.00  0.00     0.064 C 
ATOM     10  O   UNL     1      17.613  24.098  39.208  1.00  0.00    -0.545 OA
ATOM     11  O   UNL     1      19.706  23.495  39.906  1.00  0.00    -0.545 OA
ENDBRANCH   8   9
ENDBRANCH   1   7
BRANCH   4  12
ATOM     12  O   UNL     1      20.347  28.821  44.647  1.00  0.00    -0.504 OA
ATOM     13  H   UNL     1      21.077  28.876  43.946  1.00  0.00     0.293 HD
ENDBRANCH   4  12
BRANCH   6  14
ATOM     14  O   UNL     1      18.030  29.297  46.189  1.00  0.00    -0.504 OA
ATOM     15  H   UNL     1      17.942  30.277  45.950  1.00  0.00     0.293 HD
ENDBRANCH   6  14
TORSDOF 4
ENDMDL
MODEL 6
REMARK VINA RESULT:    -5.200     11.509     12.944
REMARK INTER + INTRA:          -6.244
REMARK INTER:                  -6.115
REMARK INTRA:                  -0.129
REMARK UNBOUND:                -0.132
REMARK SMILES O=C([O-])C=Cc1ccc(O)c(O)c1
REMARK SMILES IDX 6 1 13 2 7 3 11 4 8 5 9 6 5 7 4 8 2 9 1 10 3 11 12 12 10 14
REMARK H PARENT 12 13 10 15
REMARK Flexibility Score: inf
ROOT
ATOM      1  C   UNL     1      19.098  24.308  39.368  1.00  0.00    -0.022 A 
ATOM      2  C   UNL     1      20.015  23.439  39.982  1.00  0.00     0.058 A 
ATOM      3  C   UNL     1      18.757  24.092  38.017  1.00  0.00     0.012 A 
ATOM      4  C   UNL     1      20.564  22.360  39.276  1.00  0.00     0.157 A 
ATOM      5  C   UNL     1      19.304  23.016  37.313  1.00  0.00     0.051 A 
ATOM      6  C   UNL     1      20.203  22.147  37.935  1.00  0.00     0.157 A 
ENDROOT
BRANCH   1   7
ATOM      7  C   UNL     1      18.555  25.441  40.157  1.00  0.00     0.010 C 
ATOM      8  C   UNL     1      18.226  25.356  41.454  1.00  0.00     0.025 C 
BRANCH   8   9
ATOM      9  C   UNL     1      17.700  26.506  42.209  1.00  0.00     0.064 C 
ATOM     10  O   UNL     1      16.549  26.966  41.980  1.00  0.00    -0.545 OA
ATOM     11  O   UNL     1      18.484  27.093  43.192  1.00  0.00    -0.545 OA
ENDBRANCH   8   9
ENDBRANCH   1   7
BRANCH   4  12
ATOM     12  O   UNL     1      21.465  21.499  39.901  1.00  0.00    -0.504 OA
ATOM     13  H   UNL     1      21.186  20.911  40.677  1.00  0.00     0.293 HD
ENDBRANCH   4  12
BRANCH   6  14
ATOM     14  O   UNL     1      20.731  21.082  37.206  1.00  0.00    -0.504 OA
ATOM     15  H   UNL     1      21.531  21.192  36.594  1.00  0.00     0.293 HD
ENDBRANCH   6  14
TORSDOF 4
ENDMDL
MODEL 7
REMARK VINA RESULT:    -5.129     11.084     11.504
REMARK INTER + INTRA:          -6.160
REMARK INTER:                  -6.026
REMARK INTRA:                  -0.134
REMARK UNBOUND:                -0.132
REMARK SMILES O=C([O-])C=Cc1ccc(O)c(O)c1
REMARK SMILES IDX 6 1 13 2 7 3 11 4 8 5 9 6 5 7 4 8 2 9 1 10 3 11 12 12 10 14
REMARK H PARENT 12 13 10 15
REMARK Flexibility Score: inf
ROOT
ATOM      1  C   UNL     1      17.471  26.512  43.806  1.00  0.00    -0.022 A 
ATOM      2  C   UNL     1      18.010  27.681  44.367  1.00  0.00     0.058 A 
ATOM      3  C   UNL     1      16.455  25.830  44.504  1.00  0.00     0.012 A 
ATOM      4  C   UNL     1      17.531  28.180  45.587  1.00  0.00     0.157 A 
ATOM      5  C   UNL     1      15.976  26.326  45.720  1.00  0.00     0.051 A 
ATOM      6  C   UNL     1      16.506  27.498  46.264  1.00  0.00     0.157 A 
ENDROOT
BRANCH   1   7
ATOM      7  C   UNL     1      18.022  26.022  42.518  1.00  0.00     0.010 C 
ATOM      8  C   UNL     1      18.937  26.687  41.798  1.00  0.00     0.025 C 
BRANCH   8   9
ATOM      9  C   UNL     1      19.471  26.165  40.529  1.00  0.00     0.064 C 
ATOM     10  O   UNL     1      18.744  25.503  39.740  1.00  0.00    -0.545 OA
ATOM     11  O   UNL     1      20.796  26.406  40.195  1.00  0.00    -0.545 OA
ENDBRANCH   8   9
ENDBRANCH   1   7
BRANCH   4  12
ATOM     12  O   UNL     1      18.068  29.347  46.127  1.00  0.00    -0.504 OA
ATOM     13  H   UNL     1      18.967  29.706  45.827  1.00  0.00     0.293 HD
ENDBRANCH   4  12
BRANCH   6  14
ATOM     14  O   UNL     1      16.007  27.969  47.478  1.00  0.00    -0.504 OA
ATOM     15  H   UNL     1      15.719  27.342  48.221  1.00  0.00     0.293 HD
ENDBRANCH   6  14
TORSDOF 4
ENDMDL
MODEL 8
REMARK VINA RESULT:    -5.109     10.311     12.070
REMARK INTER + INTRA:          -6.137
REMARK INTER:                  -6.000
REMARK INTRA:                  -0.137
REMARK UNBOUND:                -0.132
REMARK SMILES O=C([O-])C=Cc1ccc(O)c(O)c1
REMARK SMILES IDX 6 1 13 2 7 3 11 4 8 5 9 6 5 7 4 8 2 9 1 10 3 11 12 12 10 14
REMARK H PARENT 12 13 10 15
REMARK Flexibility Score: inf
ROOT
ATOM      1  C   UNL     1      17.358  26.412  44.755  1.00  0.00    -0.022 A 
ATOM      2  C   UNL     1      18.566  26.659  44.083  1.00  0.00     0.058 A 
ATOM      3  C   UNL     1      16.879  27.373  45.668  1.00  0.00     0.012 A 
ATOM      4  C   UNL     1      19.275  27.851  44.295  1.00  0.00     0.157 A 
ATOM      5  C   UNL     1      17.584  28.561  45.879  1.00  0.00     0.051 A 
ATOM      6  C   UNL     1      18.777  28.807  45.196  1.00  0.00     0.157 A 
ENDROOT
BRANCH   1   7
ATOM      7  C   UNL     1      16.655  25.130  44.503  1.00  0.00     0.010 C 
ATOM      8  C   UNL     1      15.414  24.863  44.935  1.00  0.00     0.025 C 
BRANCH   8   9
ATOM      9  C   UNL     1      14.741  23.583  44.655  1.00  0.00     0.064 C 
ATOM     10  O   UNL     1      13.704  23.534  43.941  1.00  0.00    -0.545 OA
ATOM     11  O   UNL     1      15.259  22.410  45.186  1.00  0.00    -0.545 OA
ENDBRANCH   8   9
ENDBRANCH   1   7
BRANCH   4  12
ATOM     12  O   UNL     1      20.467  28.088  43.614  1.00  0.00    -0.504 OA
ATOM     13  H   UNL     1      20.832  29.025  43.492  1.00  0.00     0.293 HD
ENDBRANCH   4  12
BRANCH   6  14
ATOM     14  O   UNL     1      19.457  30.003  45.427  1.00  0.00    -0.504 OA
ATOM     15  H   UNL     1      20.201  30.325  44.820  1.00  0.00     0.293 HD
ENDBRANCH   6  14
TORSDOF 4
ENDMDL
MODEL 9
REMARK VINA RESULT:    -5.100     10.395     11.871
REMARK INTER + INTRA:          -6.127
REMARK INTER:                  -5.996
REMARK INTRA:                  -0.131
REMARK UNBOUND:                -0.132
REMARK SMILES O=C([O-])C=Cc1ccc(O)c(O)c1
REMARK SMILES IDX 6 1 13 2 7 3 11 4 8 5 9 6 5 7 4 8 2 9 1 10 3 11 12 12 10 14
REMARK H PARENT 12 13 10 15
REMARK Flexibility Score: inf
ROOT
ATOM      1  C   UNL     1      19.653  25.914  40.144  1.00  0.00    -0.022 A 
ATOM      2  C   UNL     1      20.794  26.725  40.252  1.00  0.00     0.058 A 
ATOM      3  C   UNL     1      18.733  25.889  41.212  1.00  0.00     0.012 A 
ATOM      4  C   UNL     1      21.007  27.517  41.390  1.00  0.00     0.157 A 
ATOM      5  C   UNL     1      18.944  26.678  42.345  1.00  0.00     0.051 A 
ATOM      6  C   UNL     1      20.074  27.494  42.440  1.00  0.00     0.157 A 
ENDROOT
BRANCH   1   7
ATOM      7  C   UNL     1      19.482  25.087  38.923  1.00  0.00     0.010 C 
ATOM      8  C   UNL     1      19.783  23.782  38.859  1.00  0.00     0.025 C 
BRANCH   8   9
ATOM      9  C   UNL     1      19.588  22.990  37.633  1.00  0.00     0.064 C 
ATOM     10  O   UNL     1      18.894  23.429  36.677  1.00  0.00    -0.545 OA
ATOM     11  O   UNL     1      20.181  21.740  37.527  1.00  0.00    -0.545 OA
ENDBRANCH   8   9
ENDBRANCH   1   7
BRANCH   4  12
ATOM     12  O   UNL     1      22.139  28.325  41.480  1.00  0.00    -0.504 OA
ATOM     13  H   UNL     1      22.949  28.171  40.891  1.00  0.00     0.293 HD
ENDBRANCH   4  12
BRANCH   6  14
ATOM     14  O   UNL     1      20.256  28.271  43.583  1.00  0.00    -0.504 OA
ATOM     15  H   UNL     1      19.482  28.724  44.055  1.00  0.00     0.293 HD
ENDBRANCH   6  14
TORSDOF 4
ENDMDL
