MODEL 1
REMARK VINA RESULT:    -3.610      0.000      0.000
REMARK INTER + INTRA:          -5.253
REMARK INTER:                  -4.876
REMARK INTRA:                  -0.377
REMARK UNBOUND:                -0.377
REMARK SMILES CCCCCCC=CC(=O)[O-]
REMARK SMILES IDX 5 1 6 2 7 3 8 4 9 5 10 6 11 7 4 8 3 9 2 10 1 11
REMARK H PARENT
REMARK Flexibility Score: inf
ROOT
ATOM      1  C   UNL     1      62.195  32.654  60.249  1.00  0.00     0.004 C 
ENDROOT
BRANCH   1   2
ATOM      2  C   UNL     1      61.579  34.062  60.262  1.00  0.00     0.027 C 
BRANCH   2   3
ATOM      3  C   UNL     1      62.603  35.096  60.636  1.00  0.00    -0.025 C 
ATOM      4  C   UNL     1      63.864  34.759  60.921  1.00  0.00     0.020 C 
BRANCH   4   5
ATOM      5  C   UNL     1      64.878  35.763  61.275  1.00  0.00     0.064 C 
ATOM      6  O   UNL     1      66.055  35.635  60.846  1.00  0.00    -0.545 OA
ATOM      7  O   UNL     1      64.560  36.853  62.077  1.00  0.00    -0.545 OA
ENDBRANCH   4   5
ENDBRANCH   2   3
ENDBRANCH   1   2
BRANCH   1   8
ATOM      8  C   UNL     1      61.237  31.582  60.794  1.00  0.00     0.000 C 
BRANCH   8   9
ATOM      9  C   UNL     1      61.972  30.306  61.239  1.00  0.00    -0.000 C 
BRANCH   9  10
ATOM     10  C   UNL     1      63.500  30.451  61.163  1.00  0.00    -0.003 C 
ATOM     11  C   UNL     1      64.203  29.139  60.817  1.00  0.00     0.004 C 
ENDBRANCH   9  10
ENDBRANCH   8   9
ENDBRANCH   1   8
TORSDOF 6
ENDMDL
MODEL 2
REMARK VINA RESULT:    -3.494      3.370      5.345
REMARK INTER + INTRA:          -5.096
REMARK INTER:                  -4.634
REMARK INTRA:                  -0.462
REMARK UNBOUND:                -0.377
REMARK SMILES CCCCCCC=CC(=O)[O-]
REMARK SMILES IDX 5 1 6 2 7 3 8 4 9 5 10 6 11 7 4 8 3 9 2 10 1 11
REMARK H PARENT
REMARK Flexibility Score: inf
ROOT
ATOM      1  C   UNL     1      61.882  35.322  60.532  1.00  0.00     0.004 C 
ENDROOT
BRANCH   1   2
ATOM      2  C   UNL     1      62.154  34.033  59.741  1.00  0.00     0.027 C 
BRANCH   2   3
ATOM      3  C   UNL     1      61.538  32.842  60.418  1.00  0.00    -0.025 C 
ATOM      4  C   UNL     1      62.237  31.724  60.635  1.00  0.00     0.020 C 
BRANCH   4   5
ATOM      5  C   UNL     1      61.651  30.556  61.308  1.00  0.00     0.064 C 
ATOM      6  O   UNL     1      60.505  30.645  61.821  1.00  0.00    -0.545 OA
ATOM      7  O   UNL     1      62.342  29.352  61.387  1.00  0.00    -0.545 OA
ENDBRANCH   4   5
ENDBRANCH   2   3
ENDBRANCH   1   2
BRANCH   1   8
ATOM      8  C   UNL     1      63.171  36.064  60.919  1.00  0.00     0.000 C 
BRANCH   8   9
ATOM      9  C   UNL     1      64.320  35.104  61.272  1.00  0.00    -0.000 C 
BRANCH   9  10
ATOM     10  C   UNL     1      65.676  35.587  60.734  1.00  0.00    -0.003 C 
ATOM     11  C   UNL     1      65.681  35.769  59.217  1.00  0.00     0.004 C 
ENDBRANCH   9  10
ENDBRANCH   8   9
ENDBRANCH   1   8
TORSDOF 6
ENDMDL
MODEL 3
REMARK VINA RESULT:    -3.491     13.341     14.196
REMARK INTER + INTRA:          -5.092
REMARK INTER:                  -4.608
REMARK INTRA:                  -0.484
REMARK UNBOUND:                -0.377
REMARK SMILES CCCCCCC=CC(=O)[O-]
REMARK SMILES IDX 5 1 6 2 7 3 8 4 9 5 10 6 11 7 4 8 3 9 2 10 1 11
REMARK H PARENT
REMARK Flexibility Score: inf
ROOT
ATOM      1  C   UNL     1      58.851  29.297  49.575  1.00  0.00     0.004 C 
ENDROOT
BRANCH   1   2
ATOM      2  C   UNL     1      59.994  28.477  48.958  1.00  0.00     0.027 C 
BRANCH   2   3
ATOM      3  C   UNL     1      59.873  27.023  49.320  1.00  0.00    -0.025 C 
ATOM      4  C   UNL     1      60.941  26.300  49.668  1.00  0.00     0.020 C 
BRANCH   4   5
ATOM      5  C   UNL     1      60.835  24.880  50.037  1.00  0.00     0.064 C 
ATOM      6  O   UNL     1      59.838  24.482  50.695  1.00  0.00    -0.545 OA
ATOM      7  O   UNL     1      61.818  23.968  49.670  1.00  0.00    -0.545 OA
ENDBRANCH   4   5
ENDBRANCH   2   3
ENDBRANCH   1   2
BRANCH   1   8
ATOM      8  C   UNL     1      57.963  28.466  50.515  1.00  0.00     0.000 C 
BRANCH   8   9
ATOM      9  C   UNL     1      56.494  28.920  50.492  1.00  0.00    -0.000 C 
BRANCH   9  10
ATOM     10  C   UNL     1      55.540  27.803  50.042  1.00  0.00    -0.003 C 
ATOM     11  C   UNL     1      56.228  26.443  49.933  1.00  0.00     0.004 C 
ENDBRANCH   9  10
ENDBRANCH   8   9
ENDBRANCH   1   8
TORSDOF 6
ENDMDL
MODEL 4
REMARK VINA RESULT:    -3.489     13.255     14.321
REMARK INTER + INTRA:          -5.090
REMARK INTER:                  -4.617
REMARK INTRA:                  -0.473
REMARK UNBOUND:                -0.377
REMARK SMILES CCCCCCC=CC(=O)[O-]
REMARK SMILES IDX 5 1 6 2 7 3 8 4 9 5 10 6 11 7 4 8 3 9 2 10 1 11
REMARK H PARENT
REMARK Flexibility Score: inf
ROOT
ATOM      1  C   UNL     1      56.853  28.488  50.830  1.00  0.00     0.004 C 
ENDROOT
BRANCH   1   2
ATOM      2  C   UNL     1      57.974  29.161  50.024  1.00  0.00     0.027 C 
BRANCH   2   3
ATOM      3  C   UNL     1      59.121  28.217  49.798  1.00  0.00    -0.025 C 
ATOM      4  C   UNL     1      59.026  26.919  50.101  1.00  0.00     0.020 C 
BRANCH   4   5
ATOM      5  C   UNL     1      60.135  25.981  49.872  1.00  0.00     0.064 C 
ATOM      6  O   UNL     1      61.231  26.412  49.427  1.00  0.00    -0.545 OA
ATOM      7  O   UNL     1      59.993  24.624  50.140  1.00  0.00    -0.545 OA
ENDBRANCH   4   5
ENDBRANCH   2   3
ENDBRANCH   1   2
BRANCH   1   8
ATOM      8  C   UNL     1      55.459  29.027  50.472  1.00  0.00     0.000 C 
BRANCH   8   9
ATOM      9  C   UNL     1      54.578  27.972  49.781  1.00  0.00    -0.000 C 
BRANCH   9  10
ATOM     10  C   UNL     1      55.275  26.608  49.668  1.00  0.00    -0.003 C 
ATOM     11  C   UNL     1      54.397  25.546  49.005  1.00  0.00     0.004 C 
ENDBRANCH   9  10
ENDBRANCH   8   9
ENDBRANCH   1   8
TORSDOF 6
ENDMDL
MODEL 5
REMARK VINA RESULT:    -3.485      1.762      2.901
REMARK INTER + INTRA:          -5.084
REMARK INTER:                  -4.402
REMARK INTRA:                  -0.682
REMARK UNBOUND:                -0.377
REMARK SMILES CCCCCCC=CC(=O)[O-]
REMARK SMILES IDX 5 1 6 2 7 3 8 4 9 5 10 6 11 7 4 8 3 9 2 10 1 11
REMARK H PARENT
REMARK Flexibility Score: inf
ROOT
ATOM      1  C   UNL     1      64.092  30.948  60.995  1.00  0.00     0.004 C 
ENDROOT
BRANCH   1   2
ATOM      2  C   UNL     1      64.247  32.059  59.945  1.00  0.00     0.027 C 
BRANCH   2   3
ATOM      3  C   UNL     1      63.799  33.385  60.491  1.00  0.00    -0.025 C 
ATOM      4  C   UNL     1      62.657  33.954  60.094  1.00  0.00     0.020 C 
BRANCH   4   5
ATOM      5  C   UNL     1      62.201  35.245  60.630  1.00  0.00     0.064 C 
ATOM      6  O   UNL     1      63.039  36.041  61.131  1.00  0.00    -0.545 OA
ATOM      7  O   UNL     1      60.858  35.603  60.592  1.00  0.00    -0.545 OA
ENDBRANCH   4   5
ENDBRANCH   2   3
ENDBRANCH   1   2
BRANCH   1   8
ATOM      8  C   UNL     1      63.030  29.906  60.604  1.00  0.00     0.000 C 
BRANCH   8   9
ATOM      9  C   UNL     1      61.866  29.847  61.608  1.00  0.00    -0.000 C 
BRANCH   9  10
ATOM     10  C   UNL     1      60.763  30.868  61.290  1.00  0.00    -0.003 C 
ATOM     11  C   UNL     1      60.483  30.991  59.792  1.00  0.00     0.004 C 
ENDBRANCH   9  10
ENDBRANCH   8   9
ENDBRANCH   1   8
TORSDOF 6
ENDMDL
MODEL 6
REMARK VINA RESULT:    -3.420      3.399      5.527
REMARK INTER + INTRA:          -4.997
REMARK INTER:                  -4.378
REMARK INTRA:                  -0.619
REMARK UNBOUND:                -0.377
REMARK SMILES CCCCCCC=CC(=O)[O-]
REMARK SMILES IDX 5 1 6 2 7 3 8 4 9 5 10 6 11 7 4 8 3 9 2 10 1 11
REMARK H PARENT
REMARK Flexibility Score: inf
ROOT
ATOM      1  C   UNL     1      64.510  34.410  61.362  1.00  0.00     0.004 C 
ENDROOT
BRANCH   1   2
ATOM      2  C   UNL     1      64.147  33.733  60.032  1.00  0.00     0.027 C 
BRANCH   2   3
ATOM      3  C   UNL     1      63.413  32.442  60.264  1.00  0.00    -0.025 C 
ATOM      4  C   UNL     1      62.086  32.411  60.414  1.00  0.00     0.020 C 
BRANCH   4   5
ATOM      5  C   UNL     1      61.354  31.154  60.629  1.00  0.00     0.064 C 
ATOM      6  O   UNL     1      61.304  30.299  59.706  1.00  0.00    -0.545 OA
ATOM      7  O   UNL     1      60.716  30.893  61.837  1.00  0.00    -0.545 OA
ENDBRANCH   4   5
ENDBRANCH   2   3
ENDBRANCH   1   2
BRANCH   1   8
ATOM      8  C   UNL     1      64.191  35.914  61.369  1.00  0.00     0.000 C 
BRANCH   8   9
ATOM      9  C   UNL     1      63.250  36.321  60.222  1.00  0.00    -0.000 C 
BRANCH   9  10
ATOM     10  C   UNL     1      61.870  36.773  60.726  1.00  0.00    -0.003 C 
ATOM     11  C   UNL     1      60.752  35.805  60.339  1.00  0.00     0.004 C 
ENDBRANCH   9  10
ENDBRANCH   8   9
ENDBRANCH   1   8
TORSDOF 6
ENDMDL
MODEL 7
REMARK VINA RESULT:    -3.419      3.955      6.068
REMARK INTER + INTRA:          -4.995
REMARK INTER:                  -4.736
REMARK INTRA:                  -0.259
REMARK UNBOUND:                -0.377
REMARK SMILES CCCCCCC=CC(=O)[O-]
REMARK SMILES IDX 5 1 6 2 7 3 8 4 9 5 10 6 11 7 4 8 3 9 2 10 1 11
REMARK H PARENT
REMARK Flexibility Score: inf
ROOT
ATOM      1  C   UNL     1      62.192  32.401  60.298  1.00  0.00     0.004 C 
ENDROOT
BRANCH   1   2
ATOM      2  C   UNL     1      61.206  31.402  60.923  1.00  0.00     0.027 C 
BRANCH   2   3
ATOM      3  C   UNL     1      61.905  30.138  61.337  1.00  0.00    -0.025 C 
ATOM      4  C   UNL     1      61.816  29.021  60.609  1.00  0.00     0.020 C 
BRANCH   4   5
ATOM      5  C   UNL     1      62.507  27.781  60.995  1.00  0.00     0.064 C 
ATOM      6  O   UNL     1      61.901  26.923  61.689  1.00  0.00    -0.545 OA
ATOM      7  O   UNL     1      63.819  27.540  60.606  1.00  0.00    -0.545 OA
ENDBRANCH   4   5
ENDBRANCH   2   3
ENDBRANCH   1   2
BRANCH   1   8
ATOM      8  C   UNL     1      61.629  33.830  60.237  1.00  0.00     0.000 C 
BRANCH   8   9
ATOM      9  C   UNL     1      62.681  34.893  60.598  1.00  0.00    -0.000 C 
BRANCH   9  10
ATOM     10  C   UNL     1      64.050  34.278  60.925  1.00  0.00    -0.003 C 
ATOM     11  C   UNL     1      65.091  35.324  61.323  1.00  0.00     0.004 C 
ENDBRANCH   9  10
ENDBRANCH   8   9
ENDBRANCH   1   8
TORSDOF 6
ENDMDL
MODEL 8
REMARK VINA RESULT:    -3.417     14.077     15.114
REMARK INTER + INTRA:          -4.991
REMARK INTER:                  -4.633
REMARK INTRA:                  -0.358
REMARK UNBOUND:                -0.377
REMARK SMILES CCCCCCC=CC(=O)[O-]
REMARK SMILES IDX 5 1 6 2 7 3 8 4 9 5 10 6 11 7 4 8 3 9 2 10 1 11
REMARK H PARENT
REMARK Flexibility Score: inf
ROOT
ATOM      1  C   UNL     1      58.066  28.648  50.594  1.00  0.00     0.004 C 
ENDROOT
BRANCH   1   2
ATOM      2  C   UNL     1      56.555  28.801  50.362  1.00  0.00     0.027 C 
BRANCH   2   3
ATOM      3  C   UNL     1      55.915  27.474  50.066  1.00  0.00    -0.025 C 
ATOM      4  C   UNL     1      54.625  27.380  49.735  1.00  0.00     0.020 C 
BRANCH   4   5
ATOM      5  C   UNL     1      53.989  26.089  49.429  1.00  0.00     0.064 C 
ATOM      6  O   UNL     1      54.209  25.098  50.173  1.00  0.00    -0.545 OA
ATOM      7  O   UNL     1      53.149  25.946  48.331  1.00  0.00    -0.545 OA
ENDBRANCH   4   5
ENDBRANCH   2   3
ENDBRANCH   1   2
BRANCH   1   8
ATOM      8  C   UNL     1      58.906  29.353  49.517  1.00  0.00     0.000 C 
BRANCH   8   9
ATOM      9  C   UNL     1      60.040  28.463  48.978  1.00  0.00    -0.000 C 
BRANCH   9  10
ATOM     10  C   UNL     1      59.851  26.983  49.345  1.00  0.00    -0.003 C 
ATOM     11  C   UNL     1      61.159  26.298  49.740  1.00  0.00     0.004 C 
ENDBRANCH   9  10
ENDBRANCH   8   9
ENDBRANCH   1   8
TORSDOF 6
ENDMDL
MODEL 9
REMARK VINA RESULT:    -3.383     13.230     14.265
REMARK INTER + INTRA:          -4.946
REMARK INTER:                  -4.460
REMARK INTRA:                  -0.486
REMARK UNBOUND:                -0.377
REMARK SMILES CCCCCCC=CC(=O)[O-]
REMARK SMILES IDX 5 1 6 2 7 3 8 4 9 5 10 6 11 7 4 8 3 9 2 10 1 11
REMARK H PARENT
REMARK Flexibility Score: inf
ROOT
ATOM      1  C   UNL     1      54.853  28.899  51.264  1.00  0.00     0.004 C 
ENDROOT
BRANCH   1   2
ATOM      2  C   UNL     1      56.316  28.603  51.626  1.00  0.00     0.027 C 
BRANCH   2   3
ATOM      3  C   UNL     1      57.218  28.795  50.440  1.00  0.00    -0.025 C 
ATOM      4  C   UNL     1      58.518  28.494  50.496  1.00  0.00     0.020 C 
BRANCH   4   5
ATOM      5  C   UNL     1      59.409  28.665  49.338  1.00  0.00     0.064 C 
ATOM      6  O   UNL     1      59.332  29.713  48.644  1.00  0.00    -0.545 OA
ATOM      7  O   UNL     1      60.336  27.687  48.996  1.00  0.00    -0.545 OA
ENDBRANCH   4   5
ENDBRANCH   2   3
ENDBRANCH   1   2
BRANCH   1   8
ATOM      8  C   UNL     1      54.513  28.523  49.812  1.00  0.00     0.000 C 
BRANCH   8   9
ATOM      9  C   UNL     1      53.256  27.642  49.711  1.00  0.00    -0.000 C 
BRANCH   9  10
ATOM     10  C   UNL     1      53.550  26.268  49.088  1.00  0.00    -0.003 C 
ATOM     11  C   UNL     1      55.022  25.871  49.195  1.00  0.00     0.004 C 
ENDBRANCH   9  10
ENDBRANCH   8   9
ENDBRANCH   1   8
TORSDOF 6
ENDMDL
