MODEL 1
REMARK VINA RESULT:    -3.673      0.000      0.000
REMARK INTER + INTRA:          -3.904
REMARK INTER:                  -3.888
REMARK INTRA:                  -0.016
REMARK UNBOUND:                -0.016
REMARK SMILES O=C([O-])c1cccnc1
REMARK SMILES IDX 4 1 5 2 9 3 6 4 8 5 7 6 2 7 1 8 3 9
REMARK H PARENT
REMARK Flexibility Score: inf
ROOT
ATOM      1  C   UNL     1       6.183   3.442   5.963  1.00  0.00     0.016 A 
ATOM      2  C   UNL     1       7.353   3.326   5.193  1.00  0.00     0.013 A 
ATOM      3  C   UNL     1       5.868   2.408   6.861  1.00  0.00     0.120 A 
ATOM      4  C   UNL     1       8.171   2.203   5.329  1.00  0.00     0.021 A 
ATOM      5  N   UNL     1       6.683   1.324   6.971  1.00  0.00    -0.264 NA
ATOM      6  C   UNL     1       7.817   1.202   6.232  1.00  0.00     0.111 A 
ENDROOT
BRANCH   1   7
ATOM      7  C   UNL     1       5.303   4.623   5.836  1.00  0.00     0.073 C 
ATOM      8  O   UNL     1       5.558   5.684   6.464  1.00  0.00    -0.545 OA
ATOM      9  O   UNL     1       4.178   4.578   5.018  1.00  0.00    -0.545 OA
ENDBRANCH   1   7
TORSDOF 1
ENDMDL
MODEL 2
REMARK VINA RESULT:    -3.638      0.958      1.609
REMARK INTER + INTRA:          -3.867
REMARK INTER:                  -3.851
REMARK INTRA:                  -0.016
REMARK UNBOUND:                -0.016
REMARK SMILES O=C([O-])c1cccnc1
REMARK SMILES IDX 4 1 5 2 9 3 6 4 8 5 7 6 2 7 1 8 3 9
REMARK H PARENT
REMARK Flexibility Score: inf
ROOT
ATOM      1  C   UNL     1       6.253   3.521   5.937  1.00  0.00     0.016 A 
ATOM      2  C   UNL     1       5.984   2.427   6.777  1.00  0.00     0.013 A 
ATOM      3  C   UNL     1       7.444   3.516   5.192  1.00  0.00     0.120 A 
ATOM      4  C   UNL     1       6.890   1.369   6.858  1.00  0.00     0.021 A 
ATOM      5  N   UNL     1       8.309   2.471   5.291  1.00  0.00    -0.264 NA
ATOM      6  C   UNL     1       8.060   1.408   6.100  1.00  0.00     0.111 A 
ENDROOT
BRANCH   1   7
ATOM      7  C   UNL     1       5.306   4.653   5.836  1.00  0.00     0.073 C 
ATOM      8  O   UNL     1       5.498   5.710   6.494  1.00  0.00    -0.545 OA
ATOM      9  O   UNL     1       4.189   4.565   5.012  1.00  0.00    -0.545 OA
ENDBRANCH   1   7
TORSDOF 1
ENDMDL
MODEL 3
REMARK VINA RESULT:    -3.241      3.154      3.909
REMARK INTER + INTRA:          -3.446
REMARK INTER:                  -3.423
REMARK INTRA:                  -0.023
REMARK UNBOUND:                -0.016
REMARK SMILES O=C([O-])c1cccnc1
REMARK SMILES IDX 4 1 5 2 9 3 6 4 8 5 7 6 2 7 1 8 3 9
REMARK H PARENT
REMARK Flexibility Score: inf
ROOT
ATOM      1  C   UNL     1       7.697   2.047   5.470  1.00  0.00     0.016 A 
ATOM      2  C   UNL     1       7.689   3.371   5.001  1.00  0.00     0.013 A 
ATOM      3  C   UNL     1       6.724   1.663   6.408  1.00  0.00     0.120 A 
ATOM      4  C   UNL     1       6.729   4.272   5.464  1.00  0.00     0.021 A 
ATOM      5  N   UNL     1       5.800   2.563   6.843  1.00  0.00    -0.264 NA
ATOM      6  C   UNL     1       5.782   3.846   6.395  1.00  0.00     0.111 A 
ENDROOT
BRANCH   1   7
ATOM      7  C   UNL     1       8.706   1.076   4.992  1.00  0.00     0.073 C 
ATOM      8  O   UNL     1       8.552  -0.158   5.188  1.00  0.00    -0.545 OA
ATOM      9  O   UNL     1       9.840   1.515   4.317  1.00  0.00    -0.545 OA
ENDBRANCH   1   7
TORSDOF 1
ENDMDL
MODEL 4
REMARK VINA RESULT:    -3.151     18.793     19.326
REMARK INTER + INTRA:          -3.352
REMARK INTER:                  -3.328
REMARK INTRA:                  -0.024
REMARK UNBOUND:                -0.016
REMARK SMILES O=C([O-])c1cccnc1
REMARK SMILES IDX 4 1 5 2 9 3 6 4 8 5 7 6 2 7 1 8 3 9
REMARK H PARENT
REMARK Flexibility Score: inf
ROOT
ATOM      1  C   UNL     1      -4.506  -9.566  -2.645  1.00  0.00     0.016 A 
ATOM      2  C   UNL     1      -4.631  -9.201  -3.996  1.00  0.00     0.013 A 
ATOM      3  C   UNL     1      -5.678  -9.755  -1.892  1.00  0.00     0.120 A 
ATOM      4  C   UNL     1      -5.896  -9.033  -4.562  1.00  0.00     0.021 A 
ATOM      5  N   UNL     1      -6.898  -9.584  -2.469  1.00  0.00    -0.264 NA
ATOM      6  C   UNL     1      -7.030  -9.231  -3.775  1.00  0.00     0.111 A 
ENDROOT
BRANCH   1   7
ATOM      7  C   UNL     1      -3.175  -9.749  -2.027  1.00  0.00     0.073 C 
ATOM      8  O   UNL     1      -2.126  -9.568  -2.699  1.00  0.00    -0.545 OA
ATOM      9  O   UNL     1      -3.065 -10.125  -0.692  1.00  0.00    -0.545 OA
ENDBRANCH   1   7
TORSDOF 1
ENDMDL
MODEL 5
REMARK VINA RESULT:    -3.042     19.906     20.463
REMARK INTER + INTRA:          -3.236
REMARK INTER:                  -3.212
REMARK INTRA:                  -0.023
REMARK UNBOUND:                -0.016
REMARK SMILES O=C([O-])c1cccnc1
REMARK SMILES IDX 4 1 5 2 9 3 6 4 8 5 7 6 2 7 1 8 3 9
REMARK H PARENT
REMARK Flexibility Score: inf
ROOT
ATOM      1  C   UNL     1      -6.434  -9.169  -3.129  1.00  0.00     0.016 A 
ATOM      2  C   UNL     1      -6.723  -8.740  -4.435  1.00  0.00     0.013 A 
ATOM      3  C   UNL     1      -7.503  -9.537  -2.294  1.00  0.00     0.120 A 
ATOM      4  C   UNL     1      -8.045  -8.685  -4.878  1.00  0.00     0.021 A 
ATOM      5  N   UNL     1      -8.783  -9.474  -2.752  1.00  0.00    -0.264 NA
ATOM      6  C   UNL     1      -9.073  -9.060  -4.013  1.00  0.00     0.111 A 
ENDROOT
BRANCH   1   7
ATOM      7  C   UNL     1      -5.040  -9.235  -2.640  1.00  0.00     0.073 C 
ATOM      8  O   UNL     1      -4.766  -9.816  -1.557  1.00  0.00    -0.545 OA
ATOM      9  O   UNL     1      -4.009  -8.653  -3.372  1.00  0.00    -0.545 OA
ENDBRANCH   1   7
TORSDOF 1
ENDMDL
MODEL 6
REMARK VINA RESULT:    -3.013      9.806     10.820
REMARK INTER + INTRA:          -3.206
REMARK INTER:                  -3.186
REMARK INTRA:                  -0.019
REMARK UNBOUND:                -0.016
REMARK SMILES O=C([O-])c1cccnc1
REMARK SMILES IDX 4 1 5 2 9 3 6 4 8 5 7 6 2 7 1 8 3 9
REMARK H PARENT
REMARK Flexibility Score: inf
ROOT
ATOM      1  C   UNL     1      -1.946   7.105   1.155  1.00  0.00     0.016 A 
ATOM      2  C   UNL     1      -3.327   6.993   1.391  1.00  0.00     0.013 A 
ATOM      3  C   UNL     1      -1.099   7.352   2.249  1.00  0.00     0.120 A 
ATOM      4  C   UNL     1      -3.829   7.126   2.685  1.00  0.00     0.021 A 
ATOM      5  N   UNL     1      -1.616   7.478   3.501  1.00  0.00    -0.264 NA
ATOM      6  C   UNL     1      -2.950   7.371   3.740  1.00  0.00     0.111 A 
ENDROOT
BRANCH   1   7
ATOM      7  C   UNL     1      -1.393   6.967  -0.210  1.00  0.00     0.073 C 
ATOM      8  O   UNL     1      -1.749   6.014  -0.952  1.00  0.00    -0.545 OA
ATOM      9  O   UNL     1      -0.471   7.890  -0.692  1.00  0.00    -0.545 OA
ENDBRANCH   1   7
TORSDOF 1
ENDMDL
MODEL 7
REMARK VINA RESULT:    -3.011     11.226     11.934
REMARK INTER + INTRA:          -3.204
REMARK INTER:                  -3.186
REMARK INTRA:                  -0.017
REMARK UNBOUND:                -0.016
REMARK SMILES O=C([O-])c1cccnc1
REMARK SMILES IDX 4 1 5 2 9 3 6 4 8 5 7 6 2 7 1 8 3 9
REMARK H PARENT
REMARK Flexibility Score: inf
ROOT
ATOM      1  C   UNL     1      -0.208   8.604  -1.621  1.00  0.00     0.016 A 
ATOM      2  C   UNL     1       1.137   8.992  -1.495  1.00  0.00     0.013 A 
ATOM      3  C   UNL     1      -0.913   9.001  -2.770  1.00  0.00     0.120 A 
ATOM      4  C   UNL     1       1.743   9.754  -2.495  1.00  0.00     0.021 A 
ATOM      5  N   UNL     1      -0.298   9.744  -3.729  1.00  0.00    -0.264 NA
ATOM      6  C   UNL     1       1.002  10.125  -3.617  1.00  0.00     0.111 A 
ENDROOT
BRANCH   1   7
ATOM      7  C   UNL     1      -0.868   7.796  -0.573  1.00  0.00     0.073 C 
ATOM      8  O   UNL     1      -1.091   8.284   0.566  1.00  0.00    -0.545 OA
ATOM      9  O   UNL     1      -1.253   6.485  -0.833  1.00  0.00    -0.545 OA
ENDBRANCH   1   7
TORSDOF 1
ENDMDL
MODEL 8
REMARK VINA RESULT:    -3.004     15.942     16.458
REMARK INTER + INTRA:          -3.196
REMARK INTER:                  -3.174
REMARK INTRA:                  -0.022
REMARK UNBOUND:                -0.016
REMARK SMILES O=C([O-])c1cccnc1
REMARK SMILES IDX 4 1 5 2 9 3 6 4 8 5 7 6 2 7 1 8 3 9
REMARK H PARENT
REMARK Flexibility Score: inf
ROOT
ATOM      1  C   UNL     1       0.899  -1.067  -8.269  1.00  0.00     0.016 A 
ATOM      2  C   UNL     1      -0.415  -1.410  -8.628  1.00  0.00     0.013 A 
ATOM      3  C   UNL     1       1.481   0.065  -8.865  1.00  0.00     0.120 A 
ATOM      4  C   UNL     1      -1.114  -0.635  -9.554  1.00  0.00     0.021 A 
ATOM      5  N   UNL     1       0.777   0.803  -9.766  1.00  0.00    -0.264 NA
ATOM      6  C   UNL     1      -0.495   0.480 -10.119  1.00  0.00     0.111 A 
ENDROOT
BRANCH   1   7
ATOM      7  C   UNL     1       1.657  -1.875  -7.289  1.00  0.00     0.073 C 
ATOM      8  O   UNL     1       2.547  -1.346  -6.573  1.00  0.00    -0.545 OA
ATOM      9  O   UNL     1       1.395  -3.234  -7.146  1.00  0.00    -0.545 OA
ENDBRANCH   1   7
TORSDOF 1
ENDMDL
MODEL 9
REMARK VINA RESULT:    -2.952     14.890     15.376
REMARK INTER + INTRA:          -3.141
REMARK INTER:                  -3.121
REMARK INTRA:                  -0.020
REMARK UNBOUND:                -0.016
REMARK SMILES O=C([O-])c1cccnc1
REMARK SMILES IDX 4 1 5 2 9 3 6 4 8 5 7 6 2 7 1 8 3 9
REMARK H PARENT
REMARK Flexibility Score: inf
ROOT
ATOM      1  C   UNL     1       2.319  -3.193  -7.354  1.00  0.00     0.016 A 
ATOM      2  C   UNL     1       2.134  -4.585  -7.301  1.00  0.00     0.013 A 
ATOM      3  C   UNL     1       3.583  -2.674  -7.023  1.00  0.00     0.120 A 
ATOM      4  C   UNL     1       3.190  -5.418  -6.927  1.00  0.00     0.021 A 
ATOM      5  N   UNL     1       4.594  -3.509  -6.662  1.00  0.00    -0.264 NA
ATOM      6  C   UNL     1       4.426  -4.857  -6.608  1.00  0.00     0.111 A 
ENDROOT
BRANCH   1   7
ATOM      7  C   UNL     1       1.214  -2.293  -7.747  1.00  0.00     0.073 C 
ATOM      8  O   UNL     1       0.478  -2.573  -8.730  1.00  0.00    -0.545 OA
ATOM      9  O   UNL     1       0.971  -1.123  -7.035  1.00  0.00    -0.545 OA
ENDBRANCH   1   7
TORSDOF 1
ENDMDL
