MODEL 1
REMARK VINA RESULT:    -4.796      0.000      0.000
REMARK INTER + INTRA:         -10.337
REMARK INTER:                  -9.282
REMARK INTRA:                  -1.055
REMARK UNBOUND:                -1.055
REMARK SMILES CCCCCCCCCCCCCCCCCC(=O)[O-]
REMARK SMILES IDX 10 1 11 2 12 3 13 4 14 5 15 6 16 7 17 8 18 9 19 10 20 11
REMARK SMILES IDX 9 12 8 13 7 14 6 15 5 16 4 17 3 18 2 19 1 20
REMARK H PARENT
REMARK Flexibility Score: inf
ROOT
ATOM      1  C   UNL     1       7.092 -33.770 -20.057  1.00  0.00     0.000 C 
ENDROOT
BRANCH   1   2
ATOM      2  C   UNL     1       6.518 -34.653 -21.183  1.00  0.00     0.000 C 
BRANCH   2   3
ATOM      3  C   UNL     1       6.469 -36.163 -20.871  1.00  0.00     0.000 C 
BRANCH   3   4
ATOM      4  C   UNL     1       5.291 -36.918 -21.508  1.00  0.00     0.000 C 
BRANCH   4   5
ATOM      5  C   UNL     1       4.765 -36.239 -22.785  1.00  0.00     0.000 C 
BRANCH   5   6
ATOM      6  C   UNL     1       3.620 -37.038 -23.440  1.00  0.00     0.000 C 
BRANCH   6   7
ATOM      7  C   UNL     1       2.257 -36.327 -23.375  1.00  0.00     0.006 C 
BRANCH   7   8
ATOM      8  C   UNL     1       1.102 -37.279 -23.045  1.00  0.00     0.053 C 
BRANCH   8   9
ATOM      9  C   UNL     1       0.459 -36.893 -21.751  1.00  0.00     0.041 C 
ATOM     10  O   UNL     1       1.169 -36.590 -20.756  1.00  0.00    -0.550 OA
ATOM     11  O   UNL     1      -0.926 -36.818 -21.656  1.00  0.00    -0.550 OA
ENDBRANCH   8   9
ENDBRANCH   7   8
ENDBRANCH   6   7
ENDBRANCH   5   6
ENDBRANCH   4   5
ENDBRANCH   3   4
ENDBRANCH   2   3
ENDBRANCH   1   2
BRANCH   1  12
ATOM     12  C   UNL     1       6.441 -32.383 -19.926  1.00  0.00     0.000 C 
BRANCH  12  13
ATOM     13  C   UNL     1       6.916 -31.618 -18.677  1.00  0.00    -0.000 C 
BRANCH  13  14
ATOM     14  C   UNL     1       5.951 -31.763 -17.490  1.00  0.00    -0.000 C 
BRANCH  14  15
ATOM     15  C   UNL     1       4.731 -30.833 -17.605  1.00  0.00    -0.000 C 
BRANCH  15  16
ATOM     16  C   UNL     1       5.002 -29.599 -18.485  1.00  0.00    -0.000 C 
BRANCH  16  17
ATOM     17  C   UNL     1       4.664 -28.243 -17.833  1.00  0.00    -0.000 C 
BRANCH  17  18
ATOM     18  C   UNL     1       5.878 -27.432 -17.336  1.00  0.00    -0.000 C 
BRANCH  18  19
ATOM     19  C   UNL     1       6.409 -27.846 -15.952  1.00  0.00    -0.003 C 
ATOM     20  C   UNL     1       7.644 -28.742 -16.033  1.00  0.00     0.004 C 
ENDBRANCH  18  19
ENDBRANCH  17  18
ENDBRANCH  16  17
ENDBRANCH  15  16
ENDBRANCH  14  15
ENDBRANCH  13  14
ENDBRANCH  12  13
ENDBRANCH   1  12
TORSDOF 16
ENDMDL
MODEL 2
REMARK VINA RESULT:    -4.616      5.832     11.416
REMARK INTER + INTRA:          -9.989
REMARK INTER:                  -9.146
REMARK INTRA:                  -0.842
REMARK UNBOUND:                -1.055
REMARK SMILES CCCCCCCCCCCCCCCCCC(=O)[O-]
REMARK SMILES IDX 10 1 11 2 12 3 13 4 14 5 15 6 16 7 17 8 18 9 19 10 20 11
REMARK SMILES IDX 9 12 8 13 7 14 6 15 5 16 4 17 3 18 2 19 1 20
REMARK H PARENT
REMARK Flexibility Score: inf
ROOT
ATOM      1  C   UNL     1      -1.620 -39.279 -21.112  1.00  0.00     0.000 C 
ENDROOT
BRANCH   1   2
ATOM      2  C   UNL     1      -0.819 -38.063 -21.621  1.00  0.00     0.000 C 
BRANCH   2   3
ATOM      3  C   UNL     1      -0.469 -38.091 -23.123  1.00  0.00     0.000 C 
BRANCH   3   4
ATOM      4  C   UNL     1       0.767 -37.265 -23.515  1.00  0.00     0.000 C 
BRANCH   4   5
ATOM      5  C   UNL     1       1.896 -37.347 -22.475  1.00  0.00     0.000 C 
BRANCH   5   6
ATOM      6  C   UNL     1       3.273 -37.005 -23.082  1.00  0.00     0.000 C 
BRANCH   6   7
ATOM      7  C   UNL     1       4.393 -36.878 -22.035  1.00  0.00     0.006 C 
BRANCH   7   8
ATOM      8  C   UNL     1       5.272 -35.639 -22.248  1.00  0.00     0.053 C 
BRANCH   8   9
ATOM      9  C   UNL     1       6.315 -35.548 -21.180  1.00  0.00     0.041 C 
ATOM     10  O   UNL     1       6.911 -34.460 -20.968  1.00  0.00    -0.550 OA
ATOM     11  O   UNL     1       6.593 -36.652 -20.383  1.00  0.00    -0.550 OA
ENDBRANCH   8   9
ENDBRANCH   7   8
ENDBRANCH   6   7
ENDBRANCH   5   6
ENDBRANCH   4   5
ENDBRANCH   3   4
ENDBRANCH   2   3
ENDBRANCH   1   2
BRANCH   1  12
ATOM     12  C   UNL     1      -0.765 -40.422 -20.537  1.00  0.00     0.000 C 
BRANCH  12  13
ATOM     13  C   UNL     1      -1.482 -41.194 -19.415  1.00  0.00    -0.000 C 
BRANCH  13  14
ATOM     14  C   UNL     1      -0.526 -42.077 -18.598  1.00  0.00    -0.000 C 
BRANCH  14  15
ATOM     15  C   UNL     1      -0.612 -41.800 -17.087  1.00  0.00    -0.000 C 
BRANCH  15  16
ATOM     16  C   UNL     1      -0.088 -42.969 -16.234  1.00  0.00    -0.000 C 
BRANCH  16  17
ATOM     17  C   UNL     1      -1.048 -43.457 -15.131  1.00  0.00    -0.000 C 
BRANCH  17  18
ATOM     18  C   UNL     1      -1.716 -44.821 -15.398  1.00  0.00    -0.000 C 
BRANCH  18  19
ATOM     19  C   UNL     1      -1.480 -45.391 -16.808  1.00  0.00    -0.003 C 
ATOM     20  C   UNL     1      -2.747 -45.409 -17.662  1.00  0.00     0.004 C 
ENDBRANCH  18  19
ENDBRANCH  17  18
ENDBRANCH  16  17
ENDBRANCH  15  16
ENDBRANCH  14  15
ENDBRANCH  13  14
ENDBRANCH  12  13
ENDBRANCH   1  12
TORSDOF 16
ENDMDL
MODEL 3
REMARK VINA RESULT:    -4.361     11.367     13.908
REMARK INTER + INTRA:          -9.494
REMARK INTER:                  -7.053
REMARK INTRA:                  -2.441
REMARK UNBOUND:                -1.055
REMARK SMILES CCCCCCCCCCCCCCCCCC(=O)[O-]
REMARK SMILES IDX 10 1 11 2 12 3 13 4 14 5 15 6 16 7 17 8 18 9 19 10 20 11
REMARK SMILES IDX 9 12 8 13 7 14 6 15 5 16 4 17 3 18 2 19 1 20
REMARK H PARENT
REMARK Flexibility Score: inf
ROOT
ATOM      1  C   UNL     1      -2.813 -29.685 -31.582  1.00  0.00     0.000 C 
ENDROOT
BRANCH   1   2
ATOM      2  C   UNL     1      -1.566 -28.788 -31.449  1.00  0.00     0.000 C 
BRANCH   2   3
ATOM      3  C   UNL     1      -0.967 -28.298 -32.783  1.00  0.00     0.000 C 
BRANCH   3   4
ATOM      4  C   UNL     1      -1.628 -28.880 -34.043  1.00  0.00     0.000 C 
BRANCH   4   5
ATOM      5  C   UNL     1      -0.744 -29.917 -34.757  1.00  0.00     0.000 C 
BRANCH   5   6
ATOM      6  C   UNL     1       0.749 -29.747 -34.409  1.00  0.00     0.000 C 
BRANCH   6   7
ATOM      7  C   UNL     1       1.425 -31.050 -33.948  1.00  0.00     0.006 C 
BRANCH   7   8
ATOM      8  C   UNL     1       1.310 -31.280 -32.436  1.00  0.00     0.053 C 
BRANCH   8   9
ATOM      9  C   UNL     1       2.542 -31.949 -31.914  1.00  0.00     0.041 C 
ATOM     10  O   UNL     1       2.463 -32.767 -30.960  1.00  0.00    -0.550 OA
ATOM     11  O   UNL     1       3.772 -31.709 -32.514  1.00  0.00    -0.550 OA
ENDBRANCH   8   9
ENDBRANCH   7   8
ENDBRANCH   6   7
ENDBRANCH   5   6
ENDBRANCH   4   5
ENDBRANCH   3   4
ENDBRANCH   2   3
ENDBRANCH   1   2
BRANCH   1  12
ATOM     12  C   UNL     1      -2.589 -31.163 -31.216  1.00  0.00     0.000 C 
BRANCH  12  13
ATOM     13  C   UNL     1      -1.363 -31.372 -30.309  1.00  0.00    -0.000 C 
BRANCH  13  14
ATOM     14  C   UNL     1      -1.106 -32.854 -29.992  1.00  0.00    -0.000 C 
BRANCH  14  15
ATOM     15  C   UNL     1      -1.324 -33.185 -28.505  1.00  0.00    -0.000 C 
BRANCH  15  16
ATOM     16  C   UNL     1      -2.744 -33.700 -28.210  1.00  0.00    -0.000 C 
BRANCH  16  17
ATOM     17  C   UNL     1      -3.557 -32.846 -27.216  1.00  0.00    -0.000 C 
BRANCH  17  18
ATOM     18  C   UNL     1      -2.962 -31.458 -26.904  1.00  0.00    -0.000 C 
BRANCH  18  19
ATOM     19  C   UNL     1      -3.742 -30.271 -27.499  1.00  0.00    -0.003 C 
ATOM     20  C   UNL     1      -2.844 -29.086 -27.849  1.00  0.00     0.004 C 
ENDBRANCH  18  19
ENDBRANCH  17  18
ENDBRANCH  16  17
ENDBRANCH  15  16
ENDBRANCH  14  15
ENDBRANCH  13  14
ENDBRANCH  12  13
ENDBRANCH   1  12
TORSDOF 16
ENDMDL
MODEL 4
REMARK VINA RESULT:    -4.351     13.147     15.897
REMARK INTER + INTRA:          -9.476
REMARK INTER:                  -6.838
REMARK INTRA:                  -2.638
REMARK UNBOUND:                -1.055
REMARK SMILES CCCCCCCCCCCCCCCCCC(=O)[O-]
REMARK SMILES IDX 10 1 11 2 12 3 13 4 14 5 15 6 16 7 17 8 18 9 19 10 20 11
REMARK SMILES IDX 9 12 8 13 7 14 6 15 5 16 4 17 3 18 2 19 1 20
REMARK H PARENT
REMARK Flexibility Score: inf
ROOT
ATOM      1  C   UNL     1       7.604 -42.874 -31.442  1.00  0.00     0.000 C 
ENDROOT
BRANCH   1   2
ATOM      2  C   UNL     1       6.593 -44.036 -31.366  1.00  0.00     0.000 C 
BRANCH   2   3
ATOM      3  C   UNL     1       6.372 -44.799 -32.688  1.00  0.00     0.000 C 
BRANCH   3   4
ATOM      4  C   UNL     1       7.217 -44.302 -33.872  1.00  0.00     0.000 C 
BRANCH   4   5
ATOM      5  C   UNL     1       6.390 -43.532 -34.916  1.00  0.00     0.000 C 
BRANCH   5   6
ATOM      6  C   UNL     1       4.877 -43.801 -34.773  1.00  0.00     0.000 C 
BRANCH   6   7
ATOM      7  C   UNL     1       4.037 -42.522 -34.612  1.00  0.00     0.006 C 
BRANCH   7   8
ATOM      8  C   UNL     1       4.601 -41.567 -33.554  1.00  0.00     0.053 C 
BRANCH   8   9
ATOM      9  C   UNL     1       3.687 -41.498 -32.372  1.00  0.00     0.041 C 
ATOM     10  O   UNL     1       2.491 -41.878 -32.473  1.00  0.00    -0.550 OA
ATOM     11  O   UNL     1       4.170 -41.062 -31.144  1.00  0.00    -0.550 OA
ENDBRANCH   8   9
ENDBRANCH   7   8
ENDBRANCH   6   7
ENDBRANCH   5   6
ENDBRANCH   4   5
ENDBRANCH   3   4
ENDBRANCH   2   3
ENDBRANCH   1   2
BRANCH   1  12
ATOM     12  C   UNL     1       7.449 -41.808 -30.345  1.00  0.00     0.000 C 
BRANCH  12  13
ATOM     13  C   UNL     1       8.572 -41.868 -29.293  1.00  0.00    -0.000 C 
BRANCH  13  14
ATOM     14  C   UNL     1       8.036 -42.040 -27.863  1.00  0.00    -0.000 C 
BRANCH  14  15
ATOM     15  C   UNL     1       8.546 -43.329 -27.195  1.00  0.00    -0.000 C 
BRANCH  15  16
ATOM     16  C   UNL     1       7.990 -44.604 -27.855  1.00  0.00    -0.000 C 
BRANCH  16  17
ATOM     17  C   UNL     1       9.046 -45.671 -28.210  1.00  0.00    -0.000 C 
BRANCH  17  18
ATOM     18  C   UNL     1       9.435 -45.737 -29.701  1.00  0.00    -0.000 C 
BRANCH  18  19
ATOM     19  C   UNL     1      10.567 -44.780 -30.117  1.00  0.00    -0.003 C 
ATOM     20  C   UNL     1      11.600 -44.565 -29.012  1.00  0.00     0.004 C 
ENDBRANCH  18  19
ENDBRANCH  17  18
ENDBRANCH  16  17
ENDBRANCH  15  16
ENDBRANCH  14  15
ENDBRANCH  13  14
ENDBRANCH  12  13
ENDBRANCH   1  12
TORSDOF 16
ENDMDL
MODEL 5
REMARK VINA RESULT:    -4.340     11.269     13.798
REMARK INTER + INTRA:          -9.454
REMARK INTER:                  -6.746
REMARK INTRA:                  -2.708
REMARK UNBOUND:                -1.055
REMARK SMILES CCCCCCCCCCCCCCCCCC(=O)[O-]
REMARK SMILES IDX 10 1 11 2 12 3 13 4 14 5 15 6 16 7 17 8 18 9 19 10 20 11
REMARK SMILES IDX 9 12 8 13 7 14 6 15 5 16 4 17 3 18 2 19 1 20
REMARK H PARENT
REMARK Flexibility Score: inf
ROOT
ATOM      1  C   UNL     1      -0.542 -28.139 -31.978  1.00  0.00     0.000 C 
ENDROOT
BRANCH   1   2
ATOM      2  C   UNL     1      -0.365 -28.809 -33.355  1.00  0.00     0.000 C 
BRANCH   2   3
ATOM      3  C   UNL     1      -1.677 -29.164 -34.085  1.00  0.00     0.000 C 
BRANCH   3   4
ATOM      4  C   UNL     1      -2.294 -30.515 -33.687  1.00  0.00     0.000 C 
BRANCH   4   5
ATOM      5  C   UNL     1      -1.237 -31.573 -33.328  1.00  0.00     0.000 C 
BRANCH   5   6
ATOM      6  C   UNL     1      -1.428 -32.125 -31.900  1.00  0.00     0.000 C 
BRANCH   6   7
ATOM      7  C   UNL     1      -0.344 -31.661 -30.911  1.00  0.00     0.006 C 
BRANCH   7   8
ATOM      8  C   UNL     1       0.481 -32.822 -30.342  1.00  0.00     0.053 C 
BRANCH   8   9
ATOM      9  C   UNL     1       1.940 -32.587 -30.570  1.00  0.00     0.041 C 
ATOM     10  O   UNL     1       2.777 -32.892 -29.681  1.00  0.00    -0.550 OA
ATOM     11  O   UNL     1       2.382 -32.079 -31.786  1.00  0.00    -0.550 OA
ENDBRANCH   8   9
ENDBRANCH   7   8
ENDBRANCH   6   7
ENDBRANCH   5   6
ENDBRANCH   4   5
ENDBRANCH   3   4
ENDBRANCH   2   3
ENDBRANCH   1   2
BRANCH   1  12
ATOM     12  C   UNL     1      -1.804 -27.271 -31.839  1.00  0.00     0.000 C 
BRANCH  12  13
ATOM     13  C   UNL     1      -2.661 -27.657 -30.620  1.00  0.00    -0.000 C 
BRANCH  13  14
ATOM     14  C   UNL     1      -3.767 -28.665 -30.968  1.00  0.00    -0.000 C 
BRANCH  14  15
ATOM     15  C   UNL     1      -3.806 -29.856 -29.995  1.00  0.00    -0.000 C 
BRANCH  15  16
ATOM     16  C   UNL     1      -2.609 -29.877 -29.027  1.00  0.00    -0.000 C 
BRANCH  16  17
ATOM     17  C   UNL     1      -2.976 -29.950 -27.532  1.00  0.00    -0.000 C 
BRANCH  17  18
ATOM     18  C   UNL     1      -2.871 -31.352 -26.898  1.00  0.00    -0.000 C 
BRANCH  18  19
ATOM     19  C   UNL     1      -2.172 -32.407 -27.775  1.00  0.00    -0.003 C 
ATOM     20  C   UNL     1      -3.126 -33.492 -28.273  1.00  0.00     0.004 C 
ENDBRANCH  18  19
ENDBRANCH  17  18
ENDBRANCH  16  17
ENDBRANCH  15  16
ENDBRANCH  14  15
ENDBRANCH  13  14
ENDBRANCH  12  13
ENDBRANCH   1  12
TORSDOF 16
ENDMDL
MODEL 6
REMARK VINA RESULT:    -4.297     11.484     14.581
REMARK INTER + INTRA:          -9.371
REMARK INTER:                  -6.961
REMARK INTRA:                  -2.410
REMARK UNBOUND:                -1.055
REMARK SMILES CCCCCCCCCCCCCCCCCC(=O)[O-]
REMARK SMILES IDX 10 1 11 2 12 3 13 4 14 5 15 6 16 7 17 8 18 9 19 10 20 11
REMARK SMILES IDX 9 12 8 13 7 14 6 15 5 16 4 17 3 18 2 19 1 20
REMARK H PARENT
REMARK Flexibility Score: inf
ROOT
ATOM      1  C   UNL     1      -4.289 -30.625 -31.449  1.00  0.00     0.000 C 
ENDROOT
BRANCH   1   2
ATOM      2  C   UNL     1      -4.395 -30.082 -32.888  1.00  0.00     0.000 C 
BRANCH   2   3
ATOM      3  C   UNL     1      -3.134 -30.276 -33.756  1.00  0.00     0.000 C 
BRANCH   3   4
ATOM      4  C   UNL     1      -2.516 -28.977 -34.300  1.00  0.00     0.000 C 
BRANCH   4   5
ATOM      5  C   UNL     1      -1.686 -28.223 -33.247  1.00  0.00     0.000 C 
BRANCH   5   6
ATOM      6  C   UNL     1      -0.383 -28.968 -32.891  1.00  0.00     0.000 C 
BRANCH   6   7
ATOM      7  C   UNL     1       0.413 -29.439 -34.121  1.00  0.00     0.006 C 
BRANCH   7   8
ATOM      8  C   UNL     1       0.626 -30.957 -34.149  1.00  0.00     0.053 C 
BRANCH   8   9
ATOM      9  C   UNL     1       1.911 -31.317 -33.474  1.00  0.00     0.041 C 
ATOM     10  O   UNL     1       2.980 -31.373 -34.136  1.00  0.00    -0.550 OA
ATOM     11  O   UNL     1       1.937 -31.541 -32.103  1.00  0.00    -0.550 OA
ENDBRANCH   8   9
ENDBRANCH   7   8
ENDBRANCH   6   7
ENDBRANCH   5   6
ENDBRANCH   4   5
ENDBRANCH   3   4
ENDBRANCH   2   3
ENDBRANCH   1   2
BRANCH   1  12
ATOM     12  C   UNL     1      -2.939 -31.276 -31.101  1.00  0.00     0.000 C 
BRANCH  12  13
ATOM     13  C   UNL     1      -2.096 -30.419 -30.139  1.00  0.00    -0.000 C 
BRANCH  13  14
ATOM     14  C   UNL     1      -2.945 -29.426 -29.330  1.00  0.00    -0.000 C 
BRANCH  14  15
ATOM     15  C   UNL     1      -2.778 -29.609 -27.811  1.00  0.00    -0.000 C 
BRANCH  15  16
ATOM     16  C   UNL     1      -3.728 -30.670 -27.229  1.00  0.00    -0.000 C 
BRANCH  16  17
ATOM     17  C   UNL     1      -3.073 -32.028 -26.903  1.00  0.00    -0.000 C 
BRANCH  17  18
ATOM     18  C   UNL     1      -3.629 -33.231 -27.692  1.00  0.00    -0.000 C 
BRANCH  18  19
ATOM     19  C   UNL     1      -2.568 -34.067 -28.430  1.00  0.00    -0.003 C 
ATOM     20  C   UNL     1      -1.183 -33.422 -28.407  1.00  0.00     0.004 C 
ENDBRANCH  18  19
ENDBRANCH  17  18
ENDBRANCH  16  17
ENDBRANCH  15  16
ENDBRANCH  14  15
ENDBRANCH  13  14
ENDBRANCH  12  13
ENDBRANCH   1  12
TORSDOF 16
ENDMDL
MODEL 7
REMARK VINA RESULT:    -4.282     13.862     17.180
REMARK INTER + INTRA:          -9.342
REMARK INTER:                  -6.598
REMARK INTRA:                  -2.744
REMARK UNBOUND:                -1.055
REMARK SMILES CCCCCCCCCCCCCCCCCC(=O)[O-]
REMARK SMILES IDX 10 1 11 2 12 3 13 4 14 5 15 6 16 7 17 8 18 9 19 10 20 11
REMARK SMILES IDX 9 12 8 13 7 14 6 15 5 16 4 17 3 18 2 19 1 20
REMARK H PARENT
REMARK Flexibility Score: inf
ROOT
ATOM      1  C   UNL     1       8.532 -46.129 -32.872  1.00  0.00     0.000 C 
ENDROOT
BRANCH   1   2
ATOM      2  C   UNL     1       7.160 -46.105 -32.168  1.00  0.00     0.000 C 
BRANCH   2   3
ATOM      3  C   UNL     1       7.205 -46.304 -30.639  1.00  0.00     0.000 C 
BRANCH   3   4
ATOM      4  C   UNL     1       8.612 -46.513 -30.055  1.00  0.00     0.000 C 
BRANCH   4   5
ATOM      5  C   UNL     1       9.121 -45.292 -29.271  1.00  0.00     0.000 C 
BRANCH   5   6
ATOM      6  C   UNL     1       8.046 -44.717 -28.326  1.00  0.00     0.000 C 
BRANCH   6   7
ATOM      7  C   UNL     1       8.295 -43.251 -27.929  1.00  0.00     0.006 C 
BRANCH   7   8
ATOM      8  C   UNL     1       9.583 -43.064 -27.119  1.00  0.00     0.053 C 
BRANCH   8   9
ATOM      9  C   UNL     1      10.553 -42.208 -27.870  1.00  0.00     0.041 C 
ATOM     10  O   UNL     1      10.466 -40.953 -27.815  1.00  0.00    -0.550 OA
ATOM     11  O   UNL     1      11.586 -42.795 -28.591  1.00  0.00    -0.550 OA
ENDBRANCH   8   9
ENDBRANCH   7   8
ENDBRANCH   6   7
ENDBRANCH   5   6
ENDBRANCH   4   5
ENDBRANCH   3   4
ENDBRANCH   2   3
ENDBRANCH   1   2
BRANCH   1  12
ATOM     12  C   UNL     1       9.060 -44.751 -33.306  1.00  0.00     0.000 C 
BRANCH  12  13
ATOM     13  C   UNL     1       8.575 -44.342 -34.709  1.00  0.00    -0.000 C 
BRANCH  13  14
ATOM     14  C   UNL     1       8.494 -42.818 -34.888  1.00  0.00    -0.000 C 
BRANCH  14  15
ATOM     15  C   UNL     1       7.050 -42.325 -35.087  1.00  0.00    -0.000 C 
BRANCH  15  16
ATOM     16  C   UNL     1       6.015 -43.463 -35.019  1.00  0.00    -0.000 C 
BRANCH  16  17
ATOM     17  C   UNL     1       5.162 -43.497 -33.734  1.00  0.00    -0.000 C 
BRANCH  17  18
ATOM     18  C   UNL     1       5.428 -42.349 -32.740  1.00  0.00    -0.000 C 
BRANCH  18  19
ATOM     19  C   UNL     1       6.173 -42.764 -31.458  1.00  0.00    -0.003 C 
ATOM     20  C   UNL     1       7.521 -42.062 -31.300  1.00  0.00     0.004 C 
ENDBRANCH  18  19
ENDBRANCH  17  18
ENDBRANCH  16  17
ENDBRANCH  15  16
ENDBRANCH  14  15
ENDBRANCH  13  14
ENDBRANCH  12  13
ENDBRANCH   1  12
TORSDOF 16
ENDMDL
MODEL 8
REMARK VINA RESULT:    -4.233     12.043     14.926
REMARK INTER + INTRA:          -9.246
REMARK INTER:                  -6.301
REMARK INTRA:                  -2.946
REMARK UNBOUND:                -1.055
REMARK SMILES CCCCCCCCCCCCCCCCCC(=O)[O-]
REMARK SMILES IDX 10 1 11 2 12 3 13 4 14 5 15 6 16 7 17 8 18 9 19 10 20 11
REMARK SMILES IDX 9 12 8 13 7 14 6 15 5 16 4 17 3 18 2 19 1 20
REMARK H PARENT
REMARK Flexibility Score: inf
ROOT
ATOM      1  C   UNL     1       0.399 -29.632 -34.253  1.00  0.00     0.000 C 
ENDROOT
BRANCH   1   2
ATOM      2  C   UNL     1       0.879 -30.972 -33.660  1.00  0.00     0.000 C 
BRANCH   2   3
ATOM      3  C   UNL     1       0.841 -31.059 -32.121  1.00  0.00     0.000 C 
BRANCH   3   4
ATOM      4  C   UNL     1       0.451 -32.437 -31.560  1.00  0.00     0.000 C 
BRANCH   4   5
ATOM      5  C   UNL     1      -0.671 -32.359 -30.511  1.00  0.00     0.000 C 
BRANCH   5   6
ATOM      6  C   UNL     1      -1.514 -31.075 -30.654  1.00  0.00     0.000 C 
BRANCH   6   7
ATOM      7  C   UNL     1      -2.606 -30.932 -29.580  1.00  0.00     0.006 C 
BRANCH   7   8
ATOM      8  C   UNL     1      -2.485 -31.976 -28.463  1.00  0.00     0.053 C 
BRANCH   8   9
ATOM      9  C   UNL     1      -3.840 -32.408 -28.001  1.00  0.00     0.041 C 
ATOM     10  O   UNL     1      -4.868 -32.055 -28.636  1.00  0.00    -0.550 OA
ATOM     11  O   UNL     1      -3.966 -33.244 -26.898  1.00  0.00    -0.550 OA
ENDBRANCH   8   9
ENDBRANCH   7   8
ENDBRANCH   6   7
ENDBRANCH   5   6
ENDBRANCH   4   5
ENDBRANCH   3   4
ENDBRANCH   2   3
ENDBRANCH   1   2
BRANCH   1  12
ATOM     12  C   UNL     1      -0.305 -28.698 -33.253  1.00  0.00     0.000 C 
BRANCH  12  13
ATOM     13  C   UNL     1      -1.809 -28.542 -33.542  1.00  0.00    -0.000 C 
BRANCH  13  14
ATOM     14  C   UNL     1      -2.272 -29.380 -34.743  1.00  0.00    -0.000 C 
BRANCH  14  15
ATOM     15  C   UNL     1      -3.310 -30.447 -34.353  1.00  0.00    -0.000 C 
BRANCH  15  16
ATOM     16  C   UNL     1      -2.695 -31.849 -34.195  1.00  0.00    -0.000 C 
BRANCH  16  17
ATOM     17  C   UNL     1      -3.687 -32.958 -33.789  1.00  0.00    -0.000 C 
BRANCH  17  18
ATOM     18  C   UNL     1      -3.138 -33.996 -32.789  1.00  0.00    -0.000 C 
BRANCH  18  19
ATOM     19  C   UNL     1      -3.923 -34.100 -31.469  1.00  0.00    -0.003 C 
ATOM     20  C   UNL     1      -3.302 -35.091 -30.485  1.00  0.00     0.004 C 
ENDBRANCH  18  19
ENDBRANCH  17  18
ENDBRANCH  16  17
ENDBRANCH  15  16
ENDBRANCH  14  15
ENDBRANCH  13  14
ENDBRANCH  12  13
ENDBRANCH   1  12
TORSDOF 16
ENDMDL
MODEL 9
REMARK VINA RESULT:    -4.223     12.951     16.071
REMARK INTER + INTRA:          -9.228
REMARK INTER:                  -6.916
REMARK INTRA:                  -2.312
REMARK UNBOUND:                -1.055
REMARK SMILES CCCCCCCCCCCCCCCCCC(=O)[O-]
REMARK SMILES IDX 10 1 11 2 12 3 13 4 14 5 15 6 16 7 17 8 18 9 19 10 20 11
REMARK SMILES IDX 9 12 8 13 7 14 6 15 5 16 4 17 3 18 2 19 1 20
REMARK H PARENT
REMARK Flexibility Score: inf
ROOT
ATOM      1  C   UNL     1       8.974 -43.759 -27.616  1.00  0.00     0.000 C 
ENDROOT
BRANCH   1   2
ATOM      2  C   UNL     1       8.518 -42.309 -27.352  1.00  0.00     0.000 C 
BRANCH   2   3
ATOM      3  C   UNL     1       8.576 -41.371 -28.575  1.00  0.00     0.000 C 
BRANCH   3   4
ATOM      4  C   UNL     1       7.214 -40.833 -29.043  1.00  0.00     0.000 C 
BRANCH   4   5
ATOM      5  C   UNL     1       6.674 -41.569 -30.281  1.00  0.00     0.000 C 
BRANCH   5   6
ATOM      6  C   UNL     1       6.780 -40.712 -31.560  1.00  0.00     0.000 C 
BRANCH   6   7
ATOM      7  C   UNL     1       5.663 -40.989 -32.581  1.00  0.00     0.006 C 
BRANCH   7   8
ATOM      8  C   UNL     1       4.591 -41.946 -32.047  1.00  0.00     0.053 C 
BRANCH   8   9
ATOM      9  C   UNL     1       3.254 -41.275 -32.028  1.00  0.00     0.041 C 
ATOM     10  O   UNL     1       2.211 -41.934 -32.278  1.00  0.00    -0.550 OA
ATOM     11  O   UNL     1       3.153 -39.933 -31.684  1.00  0.00    -0.550 OA
ENDBRANCH   8   9
ENDBRANCH   7   8
ENDBRANCH   6   7
ENDBRANCH   5   6
ENDBRANCH   4   5
ENDBRANCH   3   4
ENDBRANCH   2   3
ENDBRANCH   1   2
BRANCH   1  12
ATOM     12  C   UNL     1       7.883 -44.689 -28.173  1.00  0.00     0.000 C 
BRANCH  12  13
ATOM     13  C   UNL     1       7.949 -44.835 -29.703  1.00  0.00    -0.000 C 
BRANCH  13  14
ATOM     14  C   UNL     1       7.822 -46.295 -30.166  1.00  0.00    -0.000 C 
BRANCH  14  15
ATOM     15  C   UNL     1       7.460 -46.412 -31.657  1.00  0.00    -0.000 C 
BRANCH  15  16
ATOM     16  C   UNL     1       6.396 -45.389 -32.095  1.00  0.00    -0.000 C 
BRANCH  16  17
ATOM     17  C   UNL     1       6.760 -44.557 -33.341  1.00  0.00    -0.000 C 
BRANCH  17  18
ATOM     18  C   UNL     1       8.267 -44.481 -33.662  1.00  0.00    -0.000 C 
BRANCH  18  19
ATOM     19  C   UNL     1       8.953 -43.170 -33.236  1.00  0.00    -0.003 C 
ATOM     20  C   UNL     1       8.835 -42.069 -34.289  1.00  0.00     0.004 C 
ENDBRANCH  18  19
ENDBRANCH  17  18
ENDBRANCH  16  17
ENDBRANCH  15  16
ENDBRANCH  14  15
ENDBRANCH  13  14
ENDBRANCH  12  13
ENDBRANCH   1  12
TORSDOF 16
ENDMDL
