MODEL 1
REMARK VINA RESULT:    -8.142      0.000      0.000
REMARK INTER + INTRA:         -14.049
REMARK INTER:                 -12.188
REMARK INTRA:                  -1.861
REMARK UNBOUND:                -1.861
REMARK SMILES C=C(CC[C@H](C(=O)[O-])[C@H]1[C@@H](O)C[C@@]2(C)C3=C(CC[C@@]12C)[C@@]1(C)CC[C@H](OC(C)=O)C(C)(C)[C@H]1CC3)C(C)C
REMARK SMILES IDX 4 1 5 2 6 3 7 4 8 5 9 6 10 7 19 8 12 9 13 10 18 11 20 12
REMARK SMILES IDX 14 13 15 14 17 15 16 16 35 17 21 18 34 19 33 20 23 21 22 22
REMARK SMILES IDX 30 23 24 24 25 25 31 26 32 27 11 28 26 30 27 31 29 32 28 33
REMARK SMILES IDX 3 34 2 35 1 36 36 37 37 38 38 39
REMARK H PARENT 11 29
REMARK Flexibility Score: inf
ROOT
ATOM      1  C   UNL     1     -26.707 -26.513 113.825  1.00  0.00     0.014 C 
ENDROOT
BRANCH   1   2
ATOM      2  C   UNL     1     -27.676 -27.442 113.034  1.00  0.00     0.042 C 
BRANCH   2   3
ATOM      3  C   UNL     1     -28.198 -28.576 113.877  1.00  0.00     0.045 C 
ATOM      4  O   UNL     1     -29.409 -28.623 114.223  1.00  0.00    -0.550 OA
ATOM      5  O   UNL     1     -27.328 -29.575 114.301  1.00  0.00    -0.550 OA
ENDBRANCH   2   3
BRANCH   2   6
ATOM      6  C   UNL     1     -27.226 -27.907 111.583  1.00  0.00     0.033 C 
ATOM      7  C   UNL     1     -27.963 -29.119 110.968  1.00  0.00     0.119 C 
ATOM      8  C   UNL     1     -27.025 -26.905 110.392  1.00  0.00    -0.017 C 
ATOM      9  C   UNL     1     -27.522 -29.183 109.494  1.00  0.00     0.043 C 
ATOM     10  C   UNL     1     -26.724 -27.887 109.170  1.00  0.00    -0.003 C 
ATOM     11  C   UNL     1     -28.303 -26.020 110.163  1.00  0.00     0.012 C 
ATOM     12  C   UNL     1     -25.824 -25.938 110.627  1.00  0.00     0.013 C 
ATOM     13  C   UNL     1     -25.213 -28.292 109.121  1.00  0.00     0.017 C 
ATOM     14  C   UNL     1     -27.177 -27.278 107.809  1.00  0.00    -0.064 C 
ATOM     15  C   UNL     1     -29.154 -26.440 108.975  1.00  0.00     0.032 C 
ATOM     16  C   UNL     1     -28.285 -26.487 107.737  1.00  0.00    -0.064 C 
ATOM     17  C   UNL     1     -26.390 -27.477 106.531  1.00  0.00     0.032 C 
ATOM     18  C   UNL     1     -28.696 -25.743 106.427  1.00  0.00    -0.008 C 
ATOM     19  C   UNL     1     -26.124 -26.114 105.929  1.00  0.00     0.009 C 
ATOM     20  C   UNL     1     -27.449 -25.471 105.452  1.00  0.00     0.009 C 
ATOM     21  C   UNL     1     -29.456 -24.419 106.784  1.00  0.00     0.015 C 
ATOM     22  C   UNL     1     -29.711 -26.670 105.709  1.00  0.00     0.016 C 
ATOM     23  C   UNL     1     -27.237 -23.976 104.996  1.00  0.00     0.005 C 
ATOM     24  C   UNL     1     -29.668 -23.405 105.652  1.00  0.00     0.047 C 
ATOM     25  C   UNL     1     -28.604 -23.397 104.543  1.00  0.00     0.182 C 
ATOM     26  C   UNL     1     -26.604 -23.090 106.109  1.00  0.00     0.015 C 
ATOM     27  C   UNL     1     -26.275 -23.914 103.775  1.00  0.00     0.015 C 
BRANCH   7  28
ATOM     28  O   UNL     1     -29.357 -28.959 111.012  1.00  0.00    -0.393 OA
ATOM     29  H   UNL     1     -29.535 -27.985 111.105  1.00  0.00     0.210 HD
ENDBRANCH   7  28
BRANCH  25  30
ATOM     30  O   UNL     1     -29.117 -24.138 103.425  1.00  0.00    -0.462 OA
BRANCH  30  31
ATOM     31  C   UNL     1     -30.389 -23.954 102.872  1.00  0.00     0.302 C 
ATOM     32  O   UNL     1     -30.837 -22.798 102.643  1.00  0.00    -0.253 OA
ATOM     33  C   UNL     1     -31.245 -25.145 102.602  1.00  0.00     0.139 C 
ENDBRANCH  30  31
ENDBRANCH  25  30
ENDBRANCH   2   6
ENDBRANCH   1   2
BRANCH   1  34
ATOM     34  C   UNL     1     -25.473 -27.210 114.437  1.00  0.00     0.031 C 
BRANCH  34  35
ATOM     35  C   UNL     1     -24.159 -26.753 113.833  1.00  0.00    -0.075 C 
ATOM     36  C   UNL     1     -23.758 -25.479 114.001  1.00  0.00     0.008 C 
BRANCH  35  37
ATOM     37  C   UNL     1     -23.290 -27.757 113.089  1.00  0.00     0.008 C 
ATOM     38  C   UNL     1     -24.045 -29.062 112.781  1.00  0.00     0.012 C 
ATOM     39  C   UNL     1     -22.721 -27.138 111.805  1.00  0.00     0.012 C 
ENDBRANCH  35  37
ENDBRANCH  34  35
ENDBRANCH   1  34
TORSDOF 9
ENDMDL
MODEL 2
REMARK VINA RESULT:    -7.779      1.778      9.265
REMARK INTER + INTRA:         -13.505
REMARK INTER:                 -12.043
REMARK INTRA:                  -1.462
REMARK UNBOUND:                -1.861
REMARK SMILES C=C(CC[C@H](C(=O)[O-])[C@H]1[C@@H](O)C[C@@]2(C)C3=C(CC[C@@]12C)[C@@]1(C)CC[C@H](OC(C)=O)C(C)(C)[C@H]1CC3)C(C)C
REMARK SMILES IDX 4 1 5 2 6 3 7 4 8 5 9 6 10 7 19 8 12 9 13 10 18 11 20 12
REMARK SMILES IDX 14 13 15 14 17 15 16 16 35 17 21 18 34 19 33 20 23 21 22 22
REMARK SMILES IDX 30 23 24 24 25 25 31 26 32 27 11 28 26 30 27 31 29 32 28 33
REMARK SMILES IDX 3 34 2 35 1 36 36 37 37 38 38 39
REMARK H PARENT 11 29
REMARK Flexibility Score: inf
ROOT
ATOM      1  C   UNL     1     -26.489 -23.137 103.472  1.00  0.00     0.014 C 
ENDROOT
BRANCH   1   2
ATOM      2  C   UNL     1     -27.310 -24.458 103.384  1.00  0.00     0.042 C 
BRANCH   2   3
ATOM      3  C   UNL     1     -28.038 -24.593 102.072  1.00  0.00     0.045 C 
ATOM      4  O   UNL     1     -27.493 -25.150 101.082  1.00  0.00    -0.550 OA
ATOM      5  O   UNL     1     -29.323 -24.074 101.941  1.00  0.00    -0.550 OA
ENDBRANCH   2   3
BRANCH   2   6
ATOM      6  C   UNL     1     -28.211 -24.849 104.633  1.00  0.00     0.033 C 
ATOM      7  C   UNL     1     -29.090 -26.113 104.503  1.00  0.00     0.119 C 
ATOM      8  C   UNL     1     -27.659 -24.884 106.102  1.00  0.00    -0.017 C 
ATOM      9  C   UNL     1     -29.638 -26.397 105.914  1.00  0.00     0.043 C 
ATOM     10  C   UNL     1     -28.904 -25.461 106.917  1.00  0.00    -0.003 C 
ATOM     11  C   UNL     1     -26.382 -25.792 106.215  1.00  0.00     0.012 C 
ATOM     12  C   UNL     1     -27.271 -23.467 106.624  1.00  0.00     0.013 C 
ATOM     13  C   UNL     1     -29.915 -24.328 107.294  1.00  0.00     0.017 C 
ATOM     14  C   UNL     1     -28.455 -26.245 108.187  1.00  0.00    -0.064 C 
ATOM     15  C   UNL     1     -26.633 -27.157 106.836  1.00  0.00     0.032 C 
ATOM     16  C   UNL     1     -27.301 -26.971 108.182  1.00  0.00    -0.064 C 
ATOM     17  C   UNL     1     -29.230 -26.193 109.487  1.00  0.00     0.032 C 
ATOM     18  C   UNL     1     -26.740 -27.657 109.468  1.00  0.00    -0.008 C 
ATOM     19  C   UNL     1     -28.266 -25.808 110.589  1.00  0.00     0.009 C 
ATOM     20  C   UNL     1     -27.233 -26.938 110.818  1.00  0.00     0.009 C 
ATOM     21  C   UNL     1     -25.176 -27.736 109.389  1.00  0.00     0.015 C 
ATOM     22  C   UNL     1     -27.272 -29.113 109.443  1.00  0.00     0.016 C 
ATOM     23  C   UNL     1     -26.102 -26.494 111.822  1.00  0.00     0.005 C 
ATOM     24  C   UNL     1     -24.427 -28.092 110.679  1.00  0.00     0.047 C 
ATOM     25  C   UNL     1     -25.102 -27.669 111.993  1.00  0.00     0.182 C 
ATOM     26  C   UNL     1     -25.362 -25.203 111.364  1.00  0.00     0.015 C 
ATOM     27  C   UNL     1     -26.709 -26.188 113.221  1.00  0.00     0.015 C 
BRANCH   7  28
ATOM     28  O   UNL     1     -28.346 -27.225 104.080  1.00  0.00    -0.393 OA
ATOM     29  H   UNL     1     -28.861 -27.659 103.348  1.00  0.00     0.210 HD
ENDBRANCH   7  28
BRANCH  25  30
ATOM     30  O   UNL     1     -25.766 -28.815 112.546  1.00  0.00    -0.462 OA
BRANCH  30  31
ATOM     31  C   UNL     1     -25.400 -29.440 113.743  1.00  0.00     0.302 C 
ATOM     32  O   UNL     1     -26.250 -29.656 114.650  1.00  0.00    -0.253 OA
ATOM     33  C   UNL     1     -23.971 -29.803 113.969  1.00  0.00     0.139 C 
ENDBRANCH  30  31
ENDBRANCH  25  30
ENDBRANCH   2   6
ENDBRANCH   1   2
BRANCH   1  34
ATOM     34  C   UNL     1     -26.844 -22.064 102.420  1.00  0.00     0.031 C 
BRANCH  34  35
ATOM     35  C   UNL     1     -27.673 -20.922 102.976  1.00  0.00    -0.075 C 
ATOM     36  C   UNL     1     -27.629 -19.717 102.380  1.00  0.00     0.008 C 
BRANCH  35  37
ATOM     37  C   UNL     1     -28.582 -21.173 104.172  1.00  0.00     0.008 C 
ATOM     38  C   UNL     1     -28.416 -20.099 105.262  1.00  0.00     0.012 C 
ATOM     39  C   UNL     1     -30.047 -21.280 103.728  1.00  0.00     0.012 C 
ENDBRANCH  35  37
ENDBRANCH  34  35
ENDBRANCH   1  34
TORSDOF 9
ENDMDL
MODEL 3
REMARK VINA RESULT:    -7.612      1.909      9.216
REMARK INTER + INTRA:         -13.255
REMARK INTER:                 -12.235
REMARK INTRA:                  -1.020
REMARK UNBOUND:                -1.861
REMARK SMILES C=C(CC[C@H](C(=O)[O-])[C@H]1[C@@H](O)C[C@@]2(C)C3=C(CC[C@@]12C)[C@@]1(C)CC[C@H](OC(C)=O)C(C)(C)[C@H]1CC3)C(C)C
REMARK SMILES IDX 4 1 5 2 6 3 7 4 8 5 9 6 10 7 19 8 12 9 13 10 18 11 20 12
REMARK SMILES IDX 14 13 15 14 17 15 16 16 35 17 21 18 34 19 33 20 23 21 22 22
REMARK SMILES IDX 30 23 24 24 25 25 31 26 32 27 11 28 26 30 27 31 29 32 28 33
REMARK SMILES IDX 3 34 2 35 1 36 36 37 37 38 38 39
REMARK H PARENT 11 29
REMARK Flexibility Score: inf
ROOT
ATOM      1  C   UNL     1     -26.794 -23.043 103.447  1.00  0.00     0.014 C 
ENDROOT
BRANCH   1   2
ATOM      2  C   UNL     1     -27.541 -24.410 103.460  1.00  0.00     0.042 C 
BRANCH   2   3
ATOM      3  C   UNL     1     -28.275 -24.673 102.171  1.00  0.00     0.045 C 
ATOM      4  O   UNL     1     -27.964 -25.649 101.436  1.00  0.00    -0.550 OA
ATOM      5  O   UNL     1     -29.295 -23.816 101.772  1.00  0.00    -0.550 OA
ENDBRANCH   2   3
BRANCH   2   6
ATOM      6  C   UNL     1     -28.405 -24.764 104.746  1.00  0.00     0.033 C 
ATOM      7  C   UNL     1     -29.340 -25.991 104.654  1.00  0.00     0.119 C 
ATOM      8  C   UNL     1     -27.796 -24.822 106.190  1.00  0.00    -0.017 C 
ATOM      9  C   UNL     1     -29.841 -26.252 106.086  1.00  0.00     0.043 C 
ATOM     10  C   UNL     1     -29.028 -25.348 107.057  1.00  0.00    -0.003 C 
ATOM     11  C   UNL     1     -26.553 -25.782 106.252  1.00  0.00     0.012 C 
ATOM     12  C   UNL     1     -27.329 -23.422 106.694  1.00  0.00     0.013 C 
ATOM     13  C   UNL     1     -29.976 -24.174 107.474  1.00  0.00     0.017 C 
ATOM     14  C   UNL     1     -28.561 -26.150 108.309  1.00  0.00    -0.064 C 
ATOM     15  C   UNL     1     -26.835 -27.136 106.885  1.00  0.00     0.032 C 
ATOM     16  C   UNL     1     -27.438 -26.923 108.257  1.00  0.00    -0.064 C 
ATOM     17  C   UNL     1     -29.278 -26.067 109.639  1.00  0.00     0.032 C 
ATOM     18  C   UNL     1     -26.854 -27.631 109.521  1.00  0.00    -0.008 C 
ATOM     19  C   UNL     1     -28.255 -25.722 110.700  1.00  0.00     0.009 C 
ATOM     20  C   UNL     1     -27.261 -26.893 110.888  1.00  0.00     0.009 C 
ATOM     21  C   UNL     1     -25.299 -27.776 109.377  1.00  0.00     0.015 C 
ATOM     22  C   UNL     1     -27.445 -29.065 109.519  1.00  0.00     0.016 C 
ATOM     23  C   UNL     1     -26.072 -26.497 111.845  1.00  0.00     0.005 C 
ATOM     24  C   UNL     1     -24.512 -28.162 110.636  1.00  0.00     0.047 C 
ATOM     25  C   UNL     1     -25.115 -27.712 111.976  1.00  0.00     0.182 C 
ATOM     26  C   UNL     1     -25.299 -25.237 111.355  1.00  0.00     0.015 C 
ATOM     27  C   UNL     1     -26.608 -26.167 113.266  1.00  0.00     0.015 C 
BRANCH   7  28
ATOM     28  O   UNL     1     -28.660 -27.133 104.202  1.00  0.00    -0.393 OA
ATOM     29  H   UNL     1     -28.060 -27.425 104.939  1.00  0.00     0.210 HD
ENDBRANCH   7  28
BRANCH  25  30
ATOM     30  O   UNL     1     -25.802 -28.830 112.557  1.00  0.00    -0.462 OA
BRANCH  30  31
ATOM     31  C   UNL     1     -25.433 -29.449 113.757  1.00  0.00     0.302 C 
ATOM     32  O   UNL     1     -26.287 -29.692 114.652  1.00  0.00    -0.253 OA
ATOM     33  C   UNL     1     -23.997 -29.772 113.998  1.00  0.00     0.139 C 
ENDBRANCH  30  31
ENDBRANCH  25  30
ENDBRANCH   2   6
ENDBRANCH   1   2
BRANCH   1  34
ATOM     34  C   UNL     1     -26.054 -22.704 102.136  1.00  0.00     0.031 C 
BRANCH  34  35
ATOM     35  C   UNL     1     -24.592 -23.107 102.144  1.00  0.00    -0.075 C 
ATOM     36  C   UNL     1     -24.258 -24.391 102.368  1.00  0.00     0.008 C 
BRANCH  35  37
ATOM     37  C   UNL     1     -23.526 -22.060 101.850  1.00  0.00     0.008 C 
ATOM     38  C   UNL     1     -22.445 -22.586 100.889  1.00  0.00     0.012 C 
ATOM     39  C   UNL     1     -24.163 -20.774 101.306  1.00  0.00     0.012 C 
ENDBRANCH  35  37
ENDBRANCH  34  35
ENDBRANCH   1  34
TORSDOF 9
ENDMDL
MODEL 4
REMARK VINA RESULT:    -7.531      4.262      8.519
REMARK INTER + INTRA:         -13.134
REMARK INTER:                 -11.708
REMARK INTRA:                  -1.426
REMARK UNBOUND:                -1.861
REMARK SMILES C=C(CC[C@H](C(=O)[O-])[C@H]1[C@@H](O)C[C@@]2(C)C3=C(CC[C@@]12C)[C@@]1(C)CC[C@H](OC(C)=O)C(C)(C)[C@H]1CC3)C(C)C
REMARK SMILES IDX 4 1 5 2 6 3 7 4 8 5 9 6 10 7 19 8 12 9 13 10 18 11 20 12
REMARK SMILES IDX 14 13 15 14 17 15 16 16 35 17 21 18 34 19 33 20 23 21 22 22
REMARK SMILES IDX 30 23 24 24 25 25 31 26 32 27 11 28 26 30 27 31 29 32 28 33
REMARK SMILES IDX 3 34 2 35 1 36 36 37 37 38 38 39
REMARK H PARENT 11 29
REMARK Flexibility Score: inf
ROOT
ATOM      1  C   UNL     1     -27.025 -25.898 103.989  1.00  0.00     0.014 C 
ENDROOT
BRANCH   1   2
ATOM      2  C   UNL     1     -28.248 -25.432 103.145  1.00  0.00     0.042 C 
BRANCH   2   3
ATOM      3  C   UNL     1     -28.234 -26.004 101.752  1.00  0.00     0.045 C 
ATOM      4  O   UNL     1     -28.801 -27.100 101.495  1.00  0.00    -0.550 OA
ATOM      5  O   UNL     1     -27.565 -25.327 100.737  1.00  0.00    -0.550 OA
ENDBRANCH   2   3
BRANCH   2   6
ATOM      6  C   UNL     1     -28.616 -23.886 103.174  1.00  0.00     0.033 C 
ATOM      7  C   UNL     1     -30.077 -23.500 102.851  1.00  0.00     0.119 C 
ATOM      8  C   UNL     1     -28.190 -22.933 104.345  1.00  0.00    -0.017 C 
ATOM      9  C   UNL     1     -30.210 -22.007 103.203  1.00  0.00     0.043 C 
ATOM     10  C   UNL     1     -28.919 -21.568 103.953  1.00  0.00    -0.003 C 
ATOM     11  C   UNL     1     -28.653 -23.492 105.739  1.00  0.00     0.012 C 
ATOM     12  C   UNL     1     -26.646 -22.729 104.414  1.00  0.00     0.013 C 
ATOM     13  C   UNL     1     -28.070 -20.739 102.933  1.00  0.00     0.017 C 
ATOM     14  C   UNL     1     -29.265 -20.711 105.208  1.00  0.00    -0.064 C 
ATOM     15  C   UNL     1     -29.875 -22.799 106.321  1.00  0.00     0.032 C 
ATOM     16  C   UNL     1     -29.616 -21.310 106.381  1.00  0.00    -0.064 C 
ATOM     17  C   UNL     1     -29.172 -19.199 105.207  1.00  0.00     0.032 C 
ATOM     18  C   UNL     1     -29.835 -20.499 107.699  1.00  0.00    -0.008 C 
ATOM     19  C   UNL     1     -28.310 -18.785 106.380  1.00  0.00     0.009 C 
ATOM     20  C   UNL     1     -29.026 -19.111 107.713  1.00  0.00     0.009 C 
ATOM     21  C   UNL     1     -29.479 -21.394 108.937  1.00  0.00     0.015 C 
ATOM     22  C   UNL     1     -31.355 -20.204 107.772  1.00  0.00     0.016 C 
ATOM     23  C   UNL     1     -28.082 -18.870 108.953  1.00  0.00     0.005 C 
ATOM     24  C   UNL     1     -29.334 -20.689 110.291  1.00  0.00     0.047 C 
ATOM     25  C   UNL     1     -28.862 -19.227 110.247  1.00  0.00     0.182 C 
ATOM     26  C   UNL     1     -26.756 -19.682 108.867  1.00  0.00     0.015 C 
ATOM     27  C   UNL     1     -27.683 -17.370 109.046  1.00  0.00     0.015 C 
BRANCH   7  28
ATOM     28  O   UNL     1     -30.992 -24.227 103.628  1.00  0.00    -0.393 OA
ATOM     29  H   UNL     1     -31.727 -23.603 103.872  1.00  0.00     0.210 HD
ENDBRANCH   7  28
BRANCH  25  30
ATOM     30  O   UNL     1     -30.012 -18.380 110.389  1.00  0.00    -0.462 OA
BRANCH  30  31
ATOM     31  C   UNL     1     -30.975 -18.517 111.394  1.00  0.00     0.302 C 
ATOM     32  O   UNL     1     -32.184 -18.736 111.111  1.00  0.00    -0.253 OA
ATOM     33  C   UNL     1     -30.571 -18.343 112.820  1.00  0.00     0.139 C 
ENDBRANCH  30  31
ENDBRANCH  25  30
ENDBRANCH   2   6
ENDBRANCH   1   2
BRANCH   1  34
ATOM     34  C   UNL     1     -27.310 -27.026 105.004  1.00  0.00     0.031 C 
BRANCH  34  35
ATOM     35  C   UNL     1     -26.312 -27.080 106.145  1.00  0.00    -0.075 C 
ATOM     36  C   UNL     1     -25.042 -27.448 105.900  1.00  0.00     0.008 C 
BRANCH  35  37
ATOM     37  C   UNL     1     -26.754 -26.667 107.543  1.00  0.00     0.008 C 
ATOM     38  C   UNL     1     -28.283 -26.708 107.705  1.00  0.00     0.012 C 
ATOM     39  C   UNL     1     -26.067 -27.533 108.607  1.00  0.00     0.012 C 
ENDBRANCH  35  37
ENDBRANCH  34  35
ENDBRANCH   1  34
TORSDOF 9
ENDMDL
MODEL 5
REMARK VINA RESULT:    -7.437      6.105      9.831
REMARK INTER + INTRA:         -12.994
REMARK INTER:                 -11.409
REMARK INTRA:                  -1.585
REMARK UNBOUND:                -1.861
REMARK SMILES C=C(CC[C@H](C(=O)[O-])[C@H]1[C@@H](O)C[C@@]2(C)C3=C(CC[C@@]12C)[C@@]1(C)CC[C@H](OC(C)=O)C(C)(C)[C@H]1CC3)C(C)C
REMARK SMILES IDX 4 1 5 2 6 3 7 4 8 5 9 6 10 7 19 8 12 9 13 10 18 11 20 12
REMARK SMILES IDX 14 13 15 14 17 15 16 16 35 17 21 18 34 19 33 20 23 21 22 22
REMARK SMILES IDX 30 23 24 24 25 25 31 26 32 27 11 28 26 30 27 31 29 32 28 33
REMARK SMILES IDX 3 34 2 35 1 36 36 37 37 38 38 39
REMARK H PARENT 11 29
REMARK Flexibility Score: inf
ROOT
ATOM      1  C   UNL     1     -25.350 -24.331 114.195  1.00  0.00     0.014 C 
ENDROOT
BRANCH   1   2
ATOM      2  C   UNL     1     -26.593 -24.896 114.945  1.00  0.00     0.042 C 
BRANCH   2   3
ATOM      3  C   UNL     1     -27.166 -23.909 115.928  1.00  0.00     0.045 C 
ATOM      4  O   UNL     1     -26.413 -23.184 116.632  1.00  0.00    -0.550 OA
ATOM      5  O   UNL     1     -28.545 -23.811 116.081  1.00  0.00    -0.550 OA
ENDBRANCH   2   3
BRANCH   2   6
ATOM      6  C   UNL     1     -26.489 -26.367 115.536  1.00  0.00     0.033 C 
ATOM      7  C   UNL     1     -26.383 -26.506 117.072  1.00  0.00     0.119 C 
ATOM      8  C   UNL     1     -27.436 -27.535 115.085  1.00  0.00    -0.017 C 
ATOM      9  C   UNL     1     -26.560 -28.005 117.377  1.00  0.00     0.043 C 
ATOM     10  C   UNL     1     -27.007 -28.717 116.068  1.00  0.00    -0.003 C 
ATOM     11  C   UNL     1     -28.949 -27.137 115.233  1.00  0.00     0.012 C 
ATOM     12  C   UNL     1     -27.205 -27.945 113.599  1.00  0.00     0.013 C 
ATOM     13  C   UNL     1     -25.756 -29.485 115.526  1.00  0.00     0.017 C 
ATOM     14  C   UNL     1     -28.184 -29.702 116.341  1.00  0.00    -0.064 C 
ATOM     15  C   UNL     1     -29.644 -27.745 116.441  1.00  0.00     0.032 C 
ATOM     16  C   UNL     1     -29.468 -29.248 116.408  1.00  0.00    -0.064 C 
ATOM     17  C   UNL     1     -27.974 -31.195 116.483  1.00  0.00     0.032 C 
ATOM     18  C   UNL     1     -30.689 -30.212 116.540  1.00  0.00    -0.008 C 
ATOM     19  C   UNL     1     -28.914 -31.891 115.522  1.00  0.00     0.009 C 
ATOM     20  C   UNL     1     -30.383 -31.680 115.963  1.00  0.00     0.009 C 
ATOM     21  C   UNL     1     -31.949 -29.570 115.862  1.00  0.00     0.015 C 
ATOM     22  C   UNL     1     -30.992 -30.315 118.057  1.00  0.00     0.016 C 
ATOM     23  C   UNL     1     -31.396 -32.227 114.885  1.00  0.00     0.005 C 
ATOM     24  C   UNL     1     -33.155 -30.485 115.617  1.00  0.00     0.047 C 
ATOM     25  C   UNL     1     -32.842 -31.972 115.389  1.00  0.00     0.182 C 
ATOM     26  C   UNL     1     -31.182 -31.592 113.479  1.00  0.00     0.015 C 
ATOM     27  C   UNL     1     -31.225 -33.763 114.712  1.00  0.00     0.015 C 
BRANCH   7  28
ATOM     28  O   UNL     1     -27.396 -25.792 117.732  1.00  0.00    -0.393 OA
ATOM     29  H   UNL     1     -28.202 -25.828 117.152  1.00  0.00     0.210 HD
ENDBRANCH   7  28
BRANCH  25  30
ATOM     30  O   UNL     1     -33.075 -32.674 116.619  1.00  0.00    -0.462 OA
BRANCH  30  31
ATOM     31  C   UNL     1     -34.301 -33.242 116.985  1.00  0.00     0.302 C 
ATOM     32  O   UNL     1     -35.021 -32.714 117.875  1.00  0.00    -0.253 OA
ATOM     33  C   UNL     1     -34.731 -34.521 116.349  1.00  0.00     0.139 C 
ENDBRANCH  30  31
ENDBRANCH  25  30
ENDBRANCH   2   6
ENDBRANCH   1   2
BRANCH   1  34
ATOM     34  C   UNL     1     -24.118 -25.262 114.158  1.00  0.00     0.031 C 
BRANCH  34  35
ATOM     35  C   UNL     1     -23.491 -25.381 112.783  1.00  0.00    -0.075 C 
ATOM     36  C   UNL     1     -23.114 -24.269 112.126  1.00  0.00     0.008 C 
BRANCH  35  37
ATOM     37  C   UNL     1     -23.253 -26.762 112.188  1.00  0.00     0.008 C 
ATOM     38  C   UNL     1     -23.389 -27.878 113.239  1.00  0.00     0.012 C 
ATOM     39  C   UNL     1     -24.190 -27.012 110.999  1.00  0.00     0.012 C 
ENDBRANCH  35  37
ENDBRANCH  34  35
ENDBRANCH   1  34
TORSDOF 9
ENDMDL
MODEL 6
REMARK VINA RESULT:    -7.399      5.184      8.540
REMARK INTER + INTRA:         -12.936
REMARK INTER:                 -10.889
REMARK INTRA:                  -2.047
REMARK UNBOUND:                -1.861
REMARK SMILES C=C(CC[C@H](C(=O)[O-])[C@H]1[C@@H](O)C[C@@]2(C)C3=C(CC[C@@]12C)[C@@]1(C)CC[C@H](OC(C)=O)C(C)(C)[C@H]1CC3)C(C)C
REMARK SMILES IDX 4 1 5 2 6 3 7 4 8 5 9 6 10 7 19 8 12 9 13 10 18 11 20 12
REMARK SMILES IDX 14 13 15 14 17 15 16 16 35 17 21 18 34 19 33 20 23 21 22 22
REMARK SMILES IDX 30 23 24 24 25 25 31 26 32 27 11 28 26 30 27 31 29 32 28 33
REMARK SMILES IDX 3 34 2 35 1 36 36 37 37 38 38 39
REMARK H PARENT 11 29
REMARK Flexibility Score: inf
ROOT
ATOM      1  C   UNL     1     -23.929 -26.733 114.200  1.00  0.00     0.014 C 
ENDROOT
BRANCH   1   2
ATOM      2  C   UNL     1     -25.345 -26.385 113.653  1.00  0.00     0.042 C 
BRANCH   2   3
ATOM      3  C   UNL     1     -25.429 -24.971 113.141  1.00  0.00     0.045 C 
ATOM      4  O   UNL     1     -25.694 -24.733 111.931  1.00  0.00    -0.550 OA
ATOM      5  O   UNL     1     -25.189 -23.909 114.007  1.00  0.00    -0.550 OA
ENDBRANCH   2   3
BRANCH   2   6
ATOM      6  C   UNL     1     -26.598 -26.795 114.540  1.00  0.00     0.033 C 
ATOM      7  C   UNL     1     -27.808 -25.833 114.545  1.00  0.00     0.119 C 
ATOM      8  C   UNL     1     -27.221 -28.235 114.518  1.00  0.00    -0.017 C 
ATOM      9  C   UNL     1     -28.948 -26.587 115.254  1.00  0.00     0.043 C 
ATOM     10  C   UNL     1     -28.502 -28.064 115.454  1.00  0.00    -0.003 C 
ATOM     11  C   UNL     1     -27.589 -28.680 113.057  1.00  0.00     0.012 C 
ATOM     12  C   UNL     1     -26.254 -29.309 115.103  1.00  0.00     0.013 C 
ATOM     13  C   UNL     1     -28.131 -28.219 116.966  1.00  0.00     0.017 C 
ATOM     14  C   UNL     1     -29.645 -29.050 115.063  1.00  0.00    -0.064 C 
ATOM     15  C   UNL     1     -29.072 -28.604 112.729  1.00  0.00     0.032 C 
ATOM     16  C   UNL     1     -29.846 -29.397 113.760  1.00  0.00    -0.064 C 
ATOM     17  C   UNL     1     -30.535 -29.709 116.096  1.00  0.00     0.032 C 
ATOM     18  C   UNL     1     -30.883 -30.485 113.337  1.00  0.00    -0.008 C 
ATOM     19  C   UNL     1     -30.502 -31.203 115.855  1.00  0.00     0.009 C 
ATOM     20  C   UNL     1     -31.183 -31.543 114.507  1.00  0.00     0.009 C 
ATOM     21  C   UNL     1     -30.405 -31.191 112.021  1.00  0.00     0.015 C 
ATOM     22  C   UNL     1     -32.188 -29.721 112.994  1.00  0.00     0.016 C 
ATOM     23  C   UNL     1     -31.000 -33.064 114.133  1.00  0.00     0.005 C 
ATOM     24  C   UNL     1     -31.124 -32.486 111.620  1.00  0.00     0.047 C 
ATOM     25  C   UNL     1     -31.697 -33.327 112.771  1.00  0.00     0.182 C 
ATOM     26  C   UNL     1     -29.504 -33.495 114.079  1.00  0.00     0.015 C 
ATOM     27  C   UNL     1     -31.688 -33.969 115.194  1.00  0.00     0.015 C 
BRANCH   7  28
ATOM     28  O   UNL     1     -28.224 -25.513 113.243  1.00  0.00    -0.393 OA
ATOM     29  H   UNL     1     -28.872 -24.762 113.321  1.00  0.00     0.210 HD
ENDBRANCH   7  28
BRANCH  25  30
ATOM     30  O   UNL     1     -33.103 -33.057 112.868  1.00  0.00    -0.462 OA
BRANCH  30  31
ATOM     31  C   UNL     1     -33.980 -33.034 111.777  1.00  0.00     0.302 C 
ATOM     32  O   UNL     1     -34.126 -34.046 111.039  1.00  0.00    -0.253 OA
ATOM     33  C   UNL     1     -34.709 -31.773 111.455  1.00  0.00     0.139 C 
ENDBRANCH  30  31
ENDBRANCH  25  30
ENDBRANCH   2   6
ENDBRANCH   1   2
BRANCH   1  34
ATOM     34  C   UNL     1     -23.166 -27.824 113.417  1.00  0.00     0.031 C 
BRANCH  34  35
ATOM     35  C   UNL     1     -23.143 -27.590 111.920  1.00  0.00    -0.075 C 
ATOM     36  C   UNL     1     -22.426 -26.569 111.417  1.00  0.00     0.008 C 
BRANCH  35  37
ATOM     37  C   UNL     1     -23.893 -28.547 111.003  1.00  0.00     0.008 C 
ATOM     38  C   UNL     1     -24.468 -29.753 111.767  1.00  0.00     0.012 C 
ATOM     39  C   UNL     1     -24.998 -27.809 110.235  1.00  0.00     0.012 C 
ENDBRANCH  35  37
ENDBRANCH  34  35
ENDBRANCH   1  34
TORSDOF 9
ENDMDL
MODEL 7
REMARK VINA RESULT:    -7.362      1.876      9.154
REMARK INTER + INTRA:         -12.881
REMARK INTER:                 -11.124
REMARK INTRA:                  -1.758
REMARK UNBOUND:                -1.861
REMARK SMILES C=C(CC[C@H](C(=O)[O-])[C@H]1[C@@H](O)C[C@@]2(C)C3=C(CC[C@@]12C)[C@@]1(C)CC[C@H](OC(C)=O)C(C)(C)[C@H]1CC3)C(C)C
REMARK SMILES IDX 4 1 5 2 6 3 7 4 8 5 9 6 10 7 19 8 12 9 13 10 18 11 20 12
REMARK SMILES IDX 14 13 15 14 17 15 16 16 35 17 21 18 34 19 33 20 23 21 22 22
REMARK SMILES IDX 30 23 24 24 25 25 31 26 32 27 11 28 26 30 27 31 29 32 28 33
REMARK SMILES IDX 3 34 2 35 1 36 36 37 37 38 38 39
REMARK H PARENT 11 29
REMARK Flexibility Score: inf
ROOT
ATOM      1  C   UNL     1     -30.257 -23.004 103.572  1.00  0.00     0.014 C 
ENDROOT
BRANCH   1   2
ATOM      2  C   UNL     1     -29.464 -23.050 104.912  1.00  0.00     0.042 C 
BRANCH   2   3
ATOM      3  C   UNL     1     -28.703 -21.776 105.171  1.00  0.00     0.045 C 
ATOM      4  O   UNL     1     -28.128 -21.162 104.232  1.00  0.00    -0.550 OA
ATOM      5  O   UNL     1     -28.613 -21.279 106.467  1.00  0.00    -0.550 OA
ENDBRANCH   2   3
BRANCH   2   6
ATOM      6  C   UNL     1     -28.607 -24.353 105.214  1.00  0.00     0.033 C 
ATOM      7  C   UNL     1     -27.071 -24.235 105.085  1.00  0.00     0.119 C 
ATOM      8  C   UNL     1     -28.843 -25.252 106.478  1.00  0.00    -0.017 C 
ATOM      9  C   UNL     1     -26.494 -25.535 105.677  1.00  0.00     0.043 C 
ATOM     10  C   UNL     1     -27.652 -26.310 106.369  1.00  0.00    -0.003 C 
ATOM     11  C   UNL     1     -28.790 -24.408 107.802  1.00  0.00     0.012 C 
ATOM     12  C   UNL     1     -30.224 -25.976 106.442  1.00  0.00     0.013 C 
ATOM     13  C   UNL     1     -28.026 -27.496 105.421  1.00  0.00     0.017 C 
ATOM     14  C   UNL     1     -27.213 -26.838 107.768  1.00  0.00    -0.064 C 
ATOM     15  C   UNL     1     -27.498 -24.554 108.590  1.00  0.00     0.032 C 
ATOM     16  C   UNL     1     -27.247 -26.022 108.860  1.00  0.00    -0.064 C 
ATOM     17  C   UNL     1     -26.793 -28.275 107.995  1.00  0.00     0.032 C 
ATOM     18  C   UNL     1     -26.951 -26.545 110.302  1.00  0.00    -0.008 C 
ATOM     19  C   UNL     1     -27.617 -28.826 109.139  1.00  0.00     0.009 C 
ATOM     20  C   UNL     1     -27.241 -28.117 110.462  1.00  0.00     0.009 C 
ATOM     21  C   UNL     1     -27.752 -25.695 111.349  1.00  0.00     0.015 C 
ATOM     22  C   UNL     1     -25.445 -26.275 110.554  1.00  0.00     0.016 C 
ATOM     23  C   UNL     1     -28.210 -28.529 111.637  1.00  0.00     0.005 C 
ATOM     24  C   UNL     1     -27.836 -26.244 112.779  1.00  0.00     0.047 C 
ATOM     25  C   UNL     1     -27.779 -27.772 112.923  1.00  0.00     0.182 C 
ATOM     26  C   UNL     1     -29.706 -28.251 111.309  1.00  0.00     0.015 C 
ATOM     27  C   UNL     1     -28.090 -30.051 111.927  1.00  0.00     0.015 C 
BRANCH   7  28
ATOM     28  O   UNL     1     -26.568 -23.148 105.816  1.00  0.00    -0.393 OA
ATOM     29  H   UNL     1     -27.329 -22.765 106.330  1.00  0.00     0.210 HD
ENDBRANCH   7  28
BRANCH  25  30
ATOM     30  O   UNL     1     -26.442 -28.139 113.295  1.00  0.00    -0.462 OA
BRANCH  30  31
ATOM     31  C   UNL     1     -25.749 -27.597 114.383  1.00  0.00     0.302 C 
ATOM     32  O   UNL     1     -26.227 -27.647 115.549  1.00  0.00    -0.253 OA
ATOM     33  C   UNL     1     -24.450 -26.902 114.147  1.00  0.00     0.139 C 
ENDBRANCH  30  31
ENDBRANCH  25  30
ENDBRANCH   2   6
ENDBRANCH   1   2
BRANCH   1  34
ATOM     34  C   UNL     1     -30.152 -24.270 102.694  1.00  0.00     0.031 C 
BRANCH  34  35
ATOM     35  C   UNL     1     -28.998 -24.230 101.711  1.00  0.00    -0.075 C 
ATOM     36  C   UNL     1     -28.647 -23.061 101.144  1.00  0.00     0.008 C 
BRANCH  35  37
ATOM     37  C   UNL     1     -28.221 -25.507 101.420  1.00  0.00     0.008 C 
ATOM     38  C   UNL     1     -28.905 -26.751 102.013  1.00  0.00     0.012 C 
ATOM     39  C   UNL     1     -27.996 -25.673  99.911  1.00  0.00     0.012 C 
ENDBRANCH  35  37
ENDBRANCH  34  35
ENDBRANCH   1  34
TORSDOF 9
ENDMDL
MODEL 8
REMARK VINA RESULT:    -7.192      5.508      8.261
REMARK INTER + INTRA:         -12.627
REMARK INTER:                 -11.028
REMARK INTRA:                  -1.598
REMARK UNBOUND:                -1.861
REMARK SMILES C=C(CC[C@H](C(=O)[O-])[C@H]1[C@@H](O)C[C@@]2(C)C3=C(CC[C@@]12C)[C@@]1(C)CC[C@H](OC(C)=O)C(C)(C)[C@H]1CC3)C(C)C
REMARK SMILES IDX 4 1 5 2 6 3 7 4 8 5 9 6 10 7 19 8 12 9 13 10 18 11 20 12
REMARK SMILES IDX 14 13 15 14 17 15 16 16 35 17 21 18 34 19 33 20 23 21 22 22
REMARK SMILES IDX 30 23 24 24 25 25 31 26 32 27 11 28 26 30 27 31 29 32 28 33
REMARK SMILES IDX 3 34 2 35 1 36 36 37 37 38 38 39
REMARK H PARENT 11 29
REMARK Flexibility Score: inf
ROOT
ATOM      1  C   UNL     1     -24.385 -25.630 115.102  1.00  0.00     0.014 C 
ENDROOT
BRANCH   1   2
ATOM      2  C   UNL     1     -25.921 -25.832 114.936  1.00  0.00     0.042 C 
BRANCH   2   3
ATOM      3  C   UNL     1     -26.699 -24.580 115.248  1.00  0.00     0.045 C 
ATOM      4  O   UNL     1     -26.407 -23.866 116.245  1.00  0.00    -0.550 OA
ATOM      5  O   UNL     1     -27.772 -24.217 114.440  1.00  0.00    -0.550 OA
ENDBRANCH   2   3
BRANCH   2   6
ATOM      6  C   UNL     1     -26.564 -27.135 115.578  1.00  0.00     0.033 C 
ATOM      7  C   UNL     1     -27.534 -26.935 116.765  1.00  0.00     0.119 C 
ATOM      8  C   UNL     1     -27.204 -28.280 114.716  1.00  0.00    -0.017 C 
ATOM      9  C   UNL     1     -28.196 -28.304 117.009  1.00  0.00     0.043 C 
ATOM     10  C   UNL     1     -27.810 -29.247 115.832  1.00  0.00    -0.003 C 
ATOM     11  C   UNL     1     -28.298 -27.719 113.737  1.00  0.00     0.012 C 
ATOM     12  C   UNL     1     -26.148 -29.034 113.852  1.00  0.00     0.013 C 
ATOM     13  C   UNL     1     -26.726 -30.231 116.385  1.00  0.00     0.017 C 
ATOM     14  C   UNL     1     -29.053 -30.030 115.313  1.00  0.00    -0.064 C 
ATOM     15  C   UNL     1     -29.730 -27.971 114.181  1.00  0.00     0.032 C 
ATOM     16  C   UNL     1     -29.916 -29.453 114.429  1.00  0.00    -0.064 C 
ATOM     17  C   UNL     1     -29.329 -31.465 115.707  1.00  0.00     0.032 C 
ATOM     18  C   UNL     1     -31.093 -30.244 113.775  1.00  0.00    -0.008 C 
ATOM     19  C   UNL     1     -29.523 -32.268 114.438  1.00  0.00     0.009 C 
ATOM     20  C   UNL     1     -30.820 -31.826 113.718  1.00  0.00     0.009 C 
ATOM     21  C   UNL     1     -31.405 -29.655 112.355  1.00  0.00     0.015 C 
ATOM     22  C   UNL     1     -32.336 -29.974 114.662  1.00  0.00     0.016 C 
ATOM     23  C   UNL     1     -30.955 -32.504 112.300  1.00  0.00     0.005 C 
ATOM     24  C   UNL     1     -32.312 -30.485 111.437  1.00  0.00     0.047 C 
ATOM     25  C   UNL     1     -32.268 -32.008 111.636  1.00  0.00     0.182 C 
ATOM     26  C   UNL     1     -29.731 -32.224 111.379  1.00  0.00     0.015 C 
ATOM     27  C   UNL     1     -31.060 -34.049 112.447  1.00  0.00     0.015 C 
BRANCH   7  28
ATOM     28  O   UNL     1     -28.537 -25.999 116.467  1.00  0.00    -0.393 OA
ATOM     29  H   UNL     1     -28.940 -25.718 117.331  1.00  0.00     0.210 HD
ENDBRANCH   7  28
BRANCH  25  30
ATOM     30  O   UNL     1     -33.404 -32.390 112.426  1.00  0.00    -0.462 OA
BRANCH  30  31
ATOM     31  C   UNL     1     -34.630 -32.805 111.895  1.00  0.00     0.302 C 
ATOM     32  O   UNL     1     -35.613 -32.017 111.836  1.00  0.00    -0.253 OA
ATOM     33  C   UNL     1     -34.790 -34.219 111.448  1.00  0.00     0.139 C 
ENDBRANCH  30  31
ENDBRANCH  25  30
ENDBRANCH   2   6
ENDBRANCH   1   2
BRANCH   1  34
ATOM     34  C   UNL     1     -23.513 -26.205 113.965  1.00  0.00     0.031 C 
BRANCH  34  35
ATOM     35  C   UNL     1     -23.673 -25.468 112.649  1.00  0.00    -0.075 C 
ATOM     36  C   UNL     1     -23.526 -24.131 112.613  1.00  0.00     0.008 C 
BRANCH  35  37
ATOM     37  C   UNL     1     -23.949 -26.261 111.378  1.00  0.00     0.008 C 
ATOM     38  C   UNL     1     -23.190 -27.599 111.352  1.00  0.00     0.012 C 
ATOM     39  C   UNL     1     -25.456 -26.482 111.192  1.00  0.00     0.012 C 
ENDBRANCH  35  37
ENDBRANCH  34  35
ENDBRANCH   1  34
TORSDOF 9
ENDMDL
MODEL 9
REMARK VINA RESULT:    -7.174      6.173      9.607
REMARK INTER + INTRA:         -12.599
REMARK INTER:                 -10.573
REMARK INTRA:                  -2.025
REMARK UNBOUND:                -1.861
REMARK SMILES C=C(CC[C@H](C(=O)[O-])[C@H]1[C@@H](O)C[C@@]2(C)C3=C(CC[C@@]12C)[C@@]1(C)CC[C@H](OC(C)=O)C(C)(C)[C@H]1CC3)C(C)C
REMARK SMILES IDX 4 1 5 2 6 3 7 4 8 5 9 6 10 7 19 8 12 9 13 10 18 11 20 12
REMARK SMILES IDX 14 13 15 14 17 15 16 16 35 17 21 18 34 19 33 20 23 21 22 22
REMARK SMILES IDX 30 23 24 24 25 25 31 26 32 27 11 28 26 30 27 31 29 32 28 33
REMARK SMILES IDX 3 34 2 35 1 36 36 37 37 38 38 39
REMARK H PARENT 11 29
REMARK Flexibility Score: inf
ROOT
ATOM      1  C   UNL     1     -34.041 -31.677 113.482  1.00  0.00     0.014 C 
ENDROOT
BRANCH   1   2
ATOM      2  C   UNL     1     -32.711 -32.333 113.005  1.00  0.00     0.042 C 
BRANCH   2   3
ATOM      3  C   UNL     1     -32.937 -33.666 112.341  1.00  0.00     0.045 C 
ATOM      4  O   UNL     1     -33.485 -34.616 112.963  1.00  0.00    -0.550 OA
ATOM      5  O   UNL     1     -32.515 -33.863 111.030  1.00  0.00    -0.550 OA
ENDBRANCH   2   3
BRANCH   2   6
ATOM      6  C   UNL     1     -31.492 -32.349 114.024  1.00  0.00     0.033 C 
ATOM      7  C   UNL     1     -30.330 -33.322 113.721  1.00  0.00     0.119 C 
ATOM      8  C   UNL     1     -30.804 -31.039 114.547  1.00  0.00    -0.017 C 
ATOM      9  C   UNL     1     -29.197 -32.947 114.695  1.00  0.00     0.043 C 
ATOM     10  C   UNL     1     -29.585 -31.616 115.402  1.00  0.00    -0.003 C 
ATOM     11  C   UNL     1     -30.336 -30.122 113.360  1.00  0.00     0.012 C 
ATOM     12  C   UNL     1     -31.751 -30.190 115.448  1.00  0.00     0.013 C 
ATOM     13  C   UNL     1     -30.032 -31.994 116.853  1.00  0.00     0.017 C 
ATOM     14  C   UNL     1     -28.379 -30.629 115.435  1.00  0.00    -0.064 C 
ATOM     15  C   UNL     1     -28.842 -30.168 113.080  1.00  0.00     0.032 C 
ATOM     16  C   UNL     1     -28.091 -29.849 114.354  1.00  0.00    -0.064 C 
ATOM     17  C   UNL     1     -27.518 -30.444 116.666  1.00  0.00     0.032 C 
ATOM     18  C   UNL     1     -26.983 -28.749 114.391  1.00  0.00    -0.008 C 
ATOM     19  C   UNL     1     -27.470 -28.964 116.983  1.00  0.00     0.009 C 
ATOM     20  C   UNL     1     -26.700 -28.204 115.875  1.00  0.00     0.009 C 
ATOM     21  C   UNL     1     -27.355 -27.587 113.405  1.00  0.00     0.015 C 
ATOM     22  C   UNL     1     -25.697 -29.418 113.840  1.00  0.00     0.016 C 
ATOM     23  C   UNL     1     -26.793 -26.642 116.072  1.00  0.00     0.005 C 
ATOM     24  C   UNL     1     -26.557 -26.283 113.526  1.00  0.00     0.047 C 
ATOM     25  C   UNL     1     -26.010 -25.950 114.923  1.00  0.00     0.182 C 
ATOM     26  C   UNL     1     -28.262 -26.128 116.126  1.00  0.00     0.015 C 
ATOM     27  C   UNL     1     -26.124 -26.225 117.412  1.00  0.00     0.015 C 
BRANCH   7  28
ATOM     28  O   UNL     1     -29.857 -33.177 112.407  1.00  0.00    -0.393 OA
ATOM     29  H   UNL     1     -30.518 -32.615 111.920  1.00  0.00     0.210 HD
ENDBRANCH   7  28
BRANCH  25  30
ATOM     30  O   UNL     1     -24.626 -26.325 114.964  1.00  0.00    -0.462 OA
BRANCH  30  31
ATOM     31  C   UNL     1     -23.716 -26.105 113.923  1.00  0.00     0.302 C 
ATOM     32  O   UNL     1     -23.451 -24.937 113.528  1.00  0.00    -0.253 OA
ATOM     33  C   UNL     1     -23.098 -27.276 113.236  1.00  0.00     0.139 C 
ENDBRANCH  30  31
ENDBRANCH  25  30
ENDBRANCH   2   6
ENDBRANCH   1   2
BRANCH   1  34
ATOM     34  C   UNL     1     -34.897 -31.029 112.373  1.00  0.00     0.031 C 
BRANCH  34  35
ATOM     35  C   UNL     1     -34.153 -29.982 111.568  1.00  0.00    -0.075 C 
ATOM     36  C   UNL     1     -34.002 -30.145 110.241  1.00  0.00     0.008 C 
BRANCH  35  37
ATOM     37  C   UNL     1     -33.631 -28.734 112.268  1.00  0.00     0.008 C 
ATOM     38  C   UNL     1     -32.620 -27.962 111.402  1.00  0.00     0.012 C 
ATOM     39  C   UNL     1     -34.790 -27.826 112.698  1.00  0.00     0.012 C 
ENDBRANCH  35  37
ENDBRANCH  34  35
ENDBRANCH   1  34
TORSDOF 9
ENDMDL
