MODEL 1
REMARK VINA RESULT:    -8.127      0.000      0.000
REMARK INTER + INTRA:         -11.944
REMARK INTER:                 -10.741
REMARK INTRA:                  -1.203
REMARK UNBOUND:                -1.203
REMARK SMILES CC[C@H](C=C[C@H](C)[C@H]1CC[C@@H]2C3=CC[C@@H]4C[C@H](O)CC[C@@]4(C)[C@@H]3CC[C@@]21C)C(C)C
REMARK SMILES IDX 6 1 7 2 5 3 4 4 3 5 2 6 1 7 28 8 29 9 30 10 8 11 9 12 26 13
REMARK SMILES IDX 10 14 11 15 25 16 27 17 12 18 24 19 23 20 13 21 21 22 14 23
REMARK SMILES IDX 15 24 20 25 22 26 16 27 19 28 17 29 18 30
REMARK H PARENT 18 31
REMARK Flexibility Score: inf
ROOT
ATOM      1  C   UNL     1     115.357 120.105 129.623  1.00  0.00     0.012 C 
ATOM      2  C   UNL     1     115.124 118.892 128.711  1.00  0.00     0.012 C 
ENDROOT
BRANCH   1   3
ATOM      3  C   UNL     1     116.548 119.851 130.535  1.00  0.00    -0.028 C 
ATOM      4  C   UNL     1     116.775 120.587 131.637  1.00  0.00    -0.027 C 
BRANCH   4   5
ATOM      5  C   UNL     1     117.904 120.258 132.597  1.00  0.00     0.014 C 
BRANCH   5   6
ATOM      6  C   UNL     1     118.927 121.422 132.649  1.00  0.00     0.004 C 
ATOM      7  C   UNL     1     119.405 121.850 131.257  1.00  0.00     0.004 C 
ENDBRANCH   5   6
BRANCH   5   8
ATOM      8  C   UNL     1     117.323 119.886 133.999  1.00  0.00    -0.011 C 
ATOM      9  C   UNL     1     115.798 120.077 134.108  1.00  0.00     0.008 C 
ATOM     10  C   UNL     1     118.036 120.645 135.125  1.00  0.00     0.008 C 
ENDBRANCH   5   8
ENDBRANCH   4   5
ENDBRANCH   1   3
BRANCH   1  11
ATOM     11  C   UNL     1     115.392 121.445 128.817  1.00  0.00     0.002 C 
ATOM     12  C   UNL     1     114.723 121.338 127.437  1.00  0.00     0.005 C 
ATOM     13  C   UNL     1     114.864 122.779 129.438  1.00  0.00    -0.023 C 
ATOM     14  C   UNL     1     114.335 122.755 127.025  1.00  0.00     0.009 C 
ATOM     15  C   UNL     1     114.776 123.676 128.173  1.00  0.00     0.021 C 
ATOM     16  C   UNL     1     115.839 123.387 130.507  1.00  0.00     0.008 C 
ATOM     17  C   UNL     1     113.445 122.669 130.056  1.00  0.00     0.012 C 
ATOM     18  C   UNL     1     116.095 124.435 127.981  1.00  0.00    -0.067 C 
ATOM     19  C   UNL     1     115.875 124.934 130.454  1.00  0.00     0.009 C 
ATOM     20  C   UNL     1     116.365 125.477 129.069  1.00  0.00     0.021 C 
ATOM     21  C   UNL     1     116.999 124.144 127.010  1.00  0.00    -0.027 C 
ATOM     22  C   UNL     1     117.825 126.076 129.065  1.00  0.00    -0.023 C 
ATOM     23  C   UNL     1     118.313 124.867 126.875  1.00  0.00     0.031 C 
ATOM     24  C   UNL     1     118.275 126.229 127.574  1.00  0.00     0.002 C 
ATOM     25  C   UNL     1     117.793 127.502 129.699  1.00  0.00     0.010 C 
ATOM     26  C   UNL     1     118.811 125.166 129.861  1.00  0.00     0.012 C 
ATOM     27  C   UNL     1     119.618 126.973 127.415  1.00  0.00     0.036 C 
ATOM     28  C   UNL     1     119.134 128.249 129.567  1.00  0.00     0.032 C 
ATOM     29  C   UNL     1     119.576 128.352 128.097  1.00  0.00     0.114 C 
BRANCH  29  30
ATOM     30  O   UNL     1     120.855 128.930 128.028  1.00  0.00    -0.393 OA
ATOM     31  H   UNL     1     121.352 128.610 128.823  1.00  0.00     0.210 HD
ENDBRANCH  29  30
ENDBRANCH   1  11
TORSDOF 6
ENDMDL
MODEL 2
REMARK VINA RESULT:    -7.718      1.191      1.886
REMARK INTER + INTRA:         -11.403
REMARK INTER:                  -9.529
REMARK INTRA:                  -1.873
REMARK UNBOUND:                -1.203
REMARK SMILES CC[C@H](C=C[C@H](C)[C@H]1CC[C@@H]2C3=CC[C@@H]4C[C@H](O)CC[C@@]4(C)[C@@H]3CC[C@@]21C)C(C)C
REMARK SMILES IDX 6 1 7 2 5 3 4 4 3 5 2 6 1 7 28 8 29 9 30 10 8 11 9 12 26 13
REMARK SMILES IDX 10 14 11 15 25 16 27 17 12 18 24 19 23 20 13 21 21 22 14 23
REMARK SMILES IDX 15 24 20 25 22 26 16 27 19 28 17 29 18 30
REMARK H PARENT 18 31
REMARK Flexibility Score: inf
ROOT
ATOM      1  C   UNL     1     115.349 120.180 129.650  1.00  0.00     0.012 C 
ATOM      2  C   UNL     1     115.157 118.970 128.724  1.00  0.00     0.012 C 
ENDROOT
BRANCH   1   3
ATOM      3  C   UNL     1     116.516 119.935 130.595  1.00  0.00    -0.028 C 
ATOM      4  C   UNL     1     117.791 119.919 130.169  1.00  0.00    -0.027 C 
BRANCH   4   5
ATOM      5  C   UNL     1     118.953 119.782 131.135  1.00  0.00     0.014 C 
BRANCH   5   6
ATOM      6  C   UNL     1     119.822 118.552 130.763  1.00  0.00     0.004 C 
ATOM      7  C   UNL     1     119.373 117.885 129.459  1.00  0.00     0.004 C 
ENDBRANCH   5   6
BRANCH   5   8
ATOM      8  C   UNL     1     119.765 121.116 131.190  1.00  0.00    -0.011 C 
ATOM      9  C   UNL     1     119.226 122.126 132.221  1.00  0.00     0.008 C 
ATOM     10  C   UNL     1     119.869 121.771 129.807  1.00  0.00     0.008 C 
ENDBRANCH   5   8
ENDBRANCH   4   5
ENDBRANCH   1   3
BRANCH   1  11
ATOM     11  C   UNL     1     115.391 121.525 128.853  1.00  0.00     0.002 C 
ATOM     12  C   UNL     1     114.695 121.440 127.485  1.00  0.00     0.005 C 
ATOM     13  C   UNL     1     114.897 122.863 129.493  1.00  0.00    -0.023 C 
ATOM     14  C   UNL     1     114.324 122.866 127.090  1.00  0.00     0.009 C 
ATOM     15  C   UNL     1     114.801 123.771 128.237  1.00  0.00     0.021 C 
ATOM     16  C   UNL     1     115.902 123.447 130.548  1.00  0.00     0.008 C 
ATOM     17  C   UNL     1     113.489 122.772 130.137  1.00  0.00     0.012 C 
ATOM     18  C   UNL     1     116.128 124.509 128.025  1.00  0.00    -0.067 C 
ATOM     19  C   UNL     1     115.963 124.993 130.506  1.00  0.00     0.009 C 
ATOM     20  C   UNL     1     116.436 125.538 129.116  1.00  0.00     0.021 C 
ATOM     21  C   UNL     1     117.010 124.211 127.036  1.00  0.00    -0.027 C 
ATOM     22  C   UNL     1     117.906 126.114 129.089  1.00  0.00    -0.023 C 
ATOM     23  C   UNL     1     118.332 124.913 126.881  1.00  0.00     0.031 C 
ATOM     24  C   UNL     1     118.330 126.270 127.591  1.00  0.00     0.002 C 
ATOM     25  C   UNL     1     117.909 127.535 129.734  1.00  0.00     0.010 C 
ATOM     26  C   UNL     1     118.891 125.181 129.860  1.00  0.00     0.012 C 
ATOM     27  C   UNL     1     119.682 126.993 127.412  1.00  0.00     0.036 C 
ATOM     28  C   UNL     1     119.259 128.260 129.583  1.00  0.00     0.032 C 
ATOM     29  C   UNL     1     119.675 128.367 128.105  1.00  0.00     0.114 C 
BRANCH  29  30
ATOM     30  O   UNL     1     120.962 128.924 128.017  1.00  0.00    -0.393 OA
ATOM     31  H   UNL     1     121.273 128.773 127.089  1.00  0.00     0.210 HD
ENDBRANCH  29  30
ENDBRANCH   1  11
TORSDOF 6
ENDMDL
MODEL 3
REMARK VINA RESULT:    -7.678      3.440      7.259
REMARK INTER + INTRA:         -11.350
REMARK INTER:                  -9.413
REMARK INTRA:                  -1.937
REMARK UNBOUND:                -1.203
REMARK SMILES CC[C@H](C=C[C@H](C)[C@H]1CC[C@@H]2C3=CC[C@@H]4C[C@H](O)CC[C@@]4(C)[C@@H]3CC[C@@]21C)C(C)C
REMARK SMILES IDX 6 1 7 2 5 3 4 4 3 5 2 6 1 7 28 8 29 9 30 10 8 11 9 12 26 13
REMARK SMILES IDX 10 14 11 15 25 16 27 17 12 18 24 19 23 20 13 21 21 22 14 23
REMARK SMILES IDX 15 24 20 25 22 26 16 27 19 28 17 29 18 30
REMARK H PARENT 18 31
REMARK Flexibility Score: inf
ROOT
ATOM      1  C   UNL     1     120.622 121.105 125.867  1.00  0.00     0.012 C 
ATOM      2  C   UNL     1     120.772 120.481 124.472  1.00  0.00     0.012 C 
ENDROOT
BRANCH   1   3
ATOM      3  C   UNL     1     120.225 122.568 125.746  1.00  0.00    -0.028 C 
ATOM      4  C   UNL     1     119.236 123.104 126.482  1.00  0.00    -0.027 C 
BRANCH   4   5
ATOM      5  C   UNL     1     118.920 124.588 126.432  1.00  0.00     0.014 C 
BRANCH   5   6
ATOM      6  C   UNL     1     117.446 124.841 126.842  1.00  0.00     0.004 C 
ATOM      7  C   UNL     1     116.720 123.555 127.254  1.00  0.00     0.004 C 
ENDBRANCH   5   6
BRANCH   5   8
ATOM      8  C   UNL     1     119.945 125.384 127.301  1.00  0.00    -0.011 C 
ATOM      9  C   UNL     1     120.135 124.809 128.718  1.00  0.00     0.008 C 
ATOM     10  C   UNL     1     119.585 126.874 127.376  1.00  0.00     0.008 C 
ENDBRANCH   5   8
ENDBRANCH   4   5
ENDBRANCH   1   3
BRANCH   1  11
ATOM     11  C   UNL     1     119.723 120.232 126.804  1.00  0.00     0.002 C 
ATOM     12  C   UNL     1     119.181 118.968 126.116  1.00  0.00     0.005 C 
ATOM     13  C   UNL     1     120.228 119.764 128.207  1.00  0.00    -0.023 C 
ATOM     14  C   UNL     1     118.827 117.982 127.225  1.00  0.00     0.009 C 
ATOM     15  C   UNL     1     119.173 118.678 128.551  1.00  0.00     0.021 C 
ATOM     16  C   UNL     1     120.235 120.916 129.273  1.00  0.00     0.008 C 
ATOM     17  C   UNL     1     121.626 119.093 128.183  1.00  0.00     0.012 C 
ATOM     18  C   UNL     1     118.007 119.310 129.322  1.00  0.00    -0.067 C 
ATOM     19  C   UNL     1     119.837 120.412 130.682  1.00  0.00     0.009 C 
ATOM     20  C   UNL     1     118.394 119.805 130.718  1.00  0.00     0.021 C 
ATOM     21  C   UNL     1     116.776 119.522 128.789  1.00  0.00    -0.027 C 
ATOM     22  C   UNL     1     117.307 120.703 131.427  1.00  0.00    -0.023 C 
ATOM     23  C   UNL     1     115.663 120.195 129.547  1.00  0.00     0.031 C 
ATOM     24  C   UNL     1     115.899 120.130 131.059  1.00  0.00     0.002 C 
ATOM     25  C   UNL     1     117.479 120.584 132.973  1.00  0.00     0.010 C 
ATOM     26  C   UNL     1     117.440 122.197 130.994  1.00  0.00     0.012 C 
ATOM     27  C   UNL     1     114.745 120.805 131.831  1.00  0.00     0.036 C 
ATOM     28  C   UNL     1     116.345 121.272 133.758  1.00  0.00     0.032 C 
ATOM     29  C   UNL     1     114.967 120.721 133.351  1.00  0.00     0.114 C 
BRANCH  29  30
ATOM     30  O   UNL     1     113.957 121.454 133.998  1.00  0.00    -0.393 OA
ATOM     31  H   UNL     1     114.126 122.408 133.794  1.00  0.00     0.210 HD
ENDBRANCH  29  30
ENDBRANCH   1  11
TORSDOF 6
ENDMDL
MODEL 4
REMARK VINA RESULT:    -7.588      2.673      4.024
REMARK INTER + INTRA:         -11.230
REMARK INTER:                  -9.613
REMARK INTRA:                  -1.618
REMARK UNBOUND:                -1.203
REMARK SMILES CC[C@H](C=C[C@H](C)[C@H]1CC[C@@H]2C3=CC[C@@H]4C[C@H](O)CC[C@@]4(C)[C@@H]3CC[C@@]21C)C(C)C
REMARK SMILES IDX 6 1 7 2 5 3 4 4 3 5 2 6 1 7 28 8 29 9 30 10 8 11 9 12 26 13
REMARK SMILES IDX 10 14 11 15 25 16 27 17 12 18 24 19 23 20 13 21 21 22 14 23
REMARK SMILES IDX 15 24 20 25 22 26 16 27 19 28 17 29 18 30
REMARK H PARENT 18 31
REMARK Flexibility Score: inf
ROOT
ATOM      1  C   UNL     1     116.746 118.851 128.714  1.00  0.00     0.012 C 
ATOM      2  C   UNL     1     115.910 117.733 128.072  1.00  0.00     0.012 C 
ENDROOT
BRANCH   1   3
ATOM      3  C   UNL     1     118.213 118.681 128.351  1.00  0.00    -0.028 C 
ATOM      4  C   UNL     1     118.782 119.357 127.338  1.00  0.00    -0.027 C 
BRANCH   4   5
ATOM      5  C   UNL     1     120.269 119.262 127.051  1.00  0.00     0.014 C 
BRANCH   5   6
ATOM      6  C   UNL     1     120.530 118.315 125.852  1.00  0.00     0.004 C 
ATOM      7  C   UNL     1     119.251 117.980 125.076  1.00  0.00     0.004 C 
ENDBRANCH   5   6
BRANCH   5   8
ATOM      8  C   UNL     1     120.868 120.692 126.848  1.00  0.00    -0.011 C 
ATOM      9  C   UNL     1     119.863 121.828 127.119  1.00  0.00     0.008 C 
ATOM     10  C   UNL     1     121.488 120.851 125.454  1.00  0.00     0.008 C 
ENDBRANCH   5   8
ENDBRANCH   4   5
ENDBRANCH   1   3
BRANCH   1  11
ATOM     11  C   UNL     1     116.137 120.266 128.441  1.00  0.00     0.002 C 
ATOM     12  C   UNL     1     115.137 120.279 127.274  1.00  0.00     0.005 C 
ATOM     13  C   UNL     1     115.461 121.092 129.583  1.00  0.00    -0.023 C 
ATOM     14  C   UNL     1     114.245 121.501 127.472  1.00  0.00     0.009 C 
ATOM     15  C   UNL     1     114.730 122.187 128.760  1.00  0.00     0.021 C 
ATOM     16  C   UNL     1     116.496 121.721 130.582  1.00  0.00     0.008 C 
ATOM     17  C   UNL     1     114.399 120.301 130.391  1.00  0.00     0.012 C 
ATOM     18  C   UNL     1     115.643 123.407 128.589  1.00  0.00    -0.067 C 
ATOM     19  C   UNL     1     116.061 123.123 131.071  1.00  0.00     0.009 C 
ATOM     20  C   UNL     1     115.919 124.151 129.898  1.00  0.00     0.021 C 
ATOM     21  C   UNL     1     116.247 123.741 127.419  1.00  0.00    -0.027 C 
ATOM     22  C   UNL     1     117.064 125.234 129.815  1.00  0.00    -0.023 C 
ATOM     23  C   UNL     1     117.184 124.912 127.289  1.00  0.00     0.031 C 
ATOM     24  C   UNL     1     116.967 125.927 128.417  1.00  0.00     0.002 C 
ATOM     25  C   UNL     1     116.814 126.324 130.903  1.00  0.00     0.010 C 
ATOM     26  C   UNL     1     118.469 124.587 130.028  1.00  0.00     0.012 C 
ATOM     27  C   UNL     1     117.917 127.135 128.266  1.00  0.00     0.036 C 
ATOM     28  C   UNL     1     117.770 127.527 130.780  1.00  0.00     0.032 C 
ATOM     29  C   UNL     1     117.686 128.168 129.383  1.00  0.00     0.114 C 
BRANCH  29  30
ATOM     30  O   UNL     1     118.654 129.180 129.271  1.00  0.00    -0.393 OA
ATOM     31  H   UNL     1     119.536 128.728 129.261  1.00  0.00     0.210 HD
ENDBRANCH  29  30
ENDBRANCH   1  11
TORSDOF 6
ENDMDL
MODEL 5
REMARK VINA RESULT:    -7.476      3.937      6.229
REMARK INTER + INTRA:         -11.083
REMARK INTER:                  -9.796
REMARK INTRA:                  -1.288
REMARK UNBOUND:                -1.203
REMARK SMILES CC[C@H](C=C[C@H](C)[C@H]1CC[C@@H]2C3=CC[C@@H]4C[C@H](O)CC[C@@]4(C)[C@@H]3CC[C@@]21C)C(C)C
REMARK SMILES IDX 6 1 7 2 5 3 4 4 3 5 2 6 1 7 28 8 29 9 30 10 8 11 9 12 26 13
REMARK SMILES IDX 10 14 11 15 25 16 27 17 12 18 24 19 23 20 13 21 21 22 14 23
REMARK SMILES IDX 15 24 20 25 22 26 16 27 19 28 17 29 18 30
REMARK H PARENT 18 31
REMARK Flexibility Score: inf
ROOT
ATOM      1  C   UNL     1     115.633 121.113 133.233  1.00  0.00     0.012 C 
ATOM      2  C   UNL     1     114.314 120.939 134.000  1.00  0.00     0.012 C 
ENDROOT
BRANCH   1   3
ATOM      3  C   UNL     1     116.737 120.308 133.902  1.00  0.00    -0.028 C 
ATOM      4  C   UNL     1     117.993 120.774 134.017  1.00  0.00    -0.027 C 
BRANCH   4   5
ATOM      5  C   UNL     1     119.059 120.011 134.781  1.00  0.00     0.014 C 
BRANCH   5   6
ATOM      6  C   UNL     1     119.428 118.702 134.035  1.00  0.00     0.004 C 
ATOM      7  C   UNL     1     118.974 117.447 134.788  1.00  0.00     0.004 C 
ENDBRANCH   5   6
BRANCH   5   8
ATOM      8  C   UNL     1     120.292 120.935 135.047  1.00  0.00    -0.011 C 
ATOM      9  C   UNL     1     120.432 122.087 134.035  1.00  0.00     0.008 C 
ATOM     10  C   UNL     1     121.595 120.130 135.121  1.00  0.00     0.008 C 
ENDBRANCH   5   8
ENDBRANCH   4   5
ENDBRANCH   1   3
BRANCH   1  11
ATOM     11  C   UNL     1     115.453 120.872 131.697  1.00  0.00     0.002 C 
ATOM     12  C   UNL     1     113.989 120.972 131.238  1.00  0.00     0.005 C 
ATOM     13  C   UNL     1     116.280 121.681 130.647  1.00  0.00    -0.023 C 
ATOM     14  C   UNL     1     114.017 121.274 129.742  1.00  0.00     0.009 C 
ATOM     15  C   UNL     1     115.500 121.354 129.344  1.00  0.00     0.021 C 
ATOM     16  C   UNL     1     117.776 121.216 130.552  1.00  0.00     0.008 C 
ATOM     17  C   UNL     1     116.244 123.217 130.862  1.00  0.00     0.012 C 
ATOM     18  C   UNL     1     116.101 120.112 128.675  1.00  0.00    -0.067 C 
ATOM     19  C   UNL     1     118.314 121.267 129.102  1.00  0.00     0.009 C 
ATOM     20  C   UNL     1     117.515 120.336 128.130  1.00  0.00     0.021 C 
ATOM     21  C   UNL     1     115.499 118.895 128.661  1.00  0.00    -0.027 C 
ATOM     22  C   UNL     1     118.270 119.023 127.688  1.00  0.00    -0.023 C 
ATOM     23  C   UNL     1     116.135 117.677 128.045  1.00  0.00     0.031 C 
ATOM     24  C   UNL     1     117.220 118.064 127.036  1.00  0.00     0.002 C 
ATOM     25  C   UNL     1     119.325 119.384 126.596  1.00  0.00     0.010 C 
ATOM     26  C   UNL     1     118.977 118.344 128.903  1.00  0.00     0.012 C 
ATOM     27  C   UNL     1     117.854 116.810 126.394  1.00  0.00     0.036 C 
ATOM     28  C   UNL     1     119.982 118.144 125.962  1.00  0.00     0.032 C 
ATOM     29  C   UNL     1     118.929 117.196 125.363  1.00  0.00     0.114 C 
BRANCH  29  30
ATOM     30  O   UNL     1     119.555 116.025 124.903  1.00  0.00    -0.393 OA
ATOM     31  H   UNL     1     120.318 115.855 125.512  1.00  0.00     0.210 HD
ENDBRANCH  29  30
ENDBRANCH   1  11
TORSDOF 6
ENDMDL
MODEL 6
REMARK VINA RESULT:    -7.463      2.174      3.396
REMARK INTER + INTRA:         -11.065
REMARK INTER:                  -9.853
REMARK INTRA:                  -1.212
REMARK UNBOUND:                -1.203
REMARK SMILES CC[C@H](C=C[C@H](C)[C@H]1CC[C@@H]2C3=CC[C@@H]4C[C@H](O)CC[C@@]4(C)[C@@H]3CC[C@@]21C)C(C)C
REMARK SMILES IDX 6 1 7 2 5 3 4 4 3 5 2 6 1 7 28 8 29 9 30 10 8 11 9 12 26 13
REMARK SMILES IDX 10 14 11 15 25 16 27 17 12 18 24 19 23 20 13 21 21 22 14 23
REMARK SMILES IDX 15 24 20 25 22 26 16 27 19 28 17 29 18 30
REMARK H PARENT 18 31
REMARK Flexibility Score: inf
ROOT
ATOM      1  C   UNL     1     115.756 120.250 129.524  1.00  0.00     0.012 C 
ATOM      2  C   UNL     1     114.564 119.363 129.135  1.00  0.00     0.012 C 
ENDROOT
BRANCH   1   3
ATOM      3  C   UNL     1     117.050 119.457 129.426  1.00  0.00    -0.028 C 
ATOM      4  C   UNL     1     117.575 119.086 128.245  1.00  0.00    -0.027 C 
BRANCH   4   5
ATOM      5  C   UNL     1     118.920 118.390 128.153  1.00  0.00     0.014 C 
BRANCH   5   6
ATOM      6  C   UNL     1     118.729 116.855 128.040  1.00  0.00     0.004 C 
ATOM      7  C   UNL     1     119.780 116.071 128.834  1.00  0.00     0.004 C 
ENDBRANCH   5   6
BRANCH   5   8
ATOM      8  C   UNL     1     119.756 118.994 126.978  1.00  0.00    -0.011 C 
ATOM      9  C   UNL     1     119.655 120.527 126.870  1.00  0.00     0.008 C 
ATOM     10  C   UNL     1     119.398 118.341 125.637  1.00  0.00     0.008 C 
ENDBRANCH   5   8
ENDBRANCH   4   5
ENDBRANCH   1   3
BRANCH   1  11
ATOM     11  C   UNL     1     115.739 121.619 128.768  1.00  0.00     0.002 C 
ATOM     12  C   UNL     1     115.053 121.542 127.394  1.00  0.00     0.005 C 
ATOM     13  C   UNL     1     115.180 122.912 129.445  1.00  0.00    -0.023 C 
ATOM     14  C   UNL     1     114.617 122.960 127.039  1.00  0.00     0.009 C 
ATOM     15  C   UNL     1     115.047 123.852 128.215  1.00  0.00     0.021 C 
ATOM     16  C   UNL     1     116.153 123.511 130.522  1.00  0.00     0.008 C 
ATOM     17  C   UNL     1     113.775 122.737 130.077  1.00  0.00     0.012 C 
ATOM     18  C   UNL     1     116.339 124.657 128.033  1.00  0.00    -0.067 C 
ATOM     19  C   UNL     1     116.141 125.059 130.525  1.00  0.00     0.009 C 
ATOM     20  C   UNL     1     116.595 125.667 129.155  1.00  0.00     0.021 C 
ATOM     21  C   UNL     1     117.238 124.430 127.040  1.00  0.00    -0.027 C 
ATOM     22  C   UNL     1     118.036 126.310 129.153  1.00  0.00    -0.023 C 
ATOM     23  C   UNL     1     118.527 125.196 126.913  1.00  0.00     0.031 C 
ATOM     24  C   UNL     1     118.458 126.531 127.663  1.00  0.00     0.002 C 
ATOM     25  C   UNL     1     117.969 127.710 129.839  1.00  0.00     0.010 C 
ATOM     26  C   UNL     1     119.060 125.401 129.902  1.00  0.00     0.012 C 
ATOM     27  C   UNL     1     119.776 127.321 127.513  1.00  0.00     0.036 C 
ATOM     28  C   UNL     1     119.285 128.502 129.717  1.00  0.00     0.032 C 
ATOM     29  C   UNL     1     119.702 128.672 128.246  1.00  0.00     0.114 C 
BRANCH  29  30
ATOM     30  O   UNL     1     120.962 129.291 128.181  1.00  0.00    -0.393 OA
ATOM     31  H   UNL     1     121.564 128.770 128.771  1.00  0.00     0.210 HD
ENDBRANCH  29  30
ENDBRANCH   1  11
TORSDOF 6
ENDMDL
MODEL 7
REMARK VINA RESULT:    -7.243      2.894      4.509
REMARK INTER + INTRA:         -10.775
REMARK INTER:                  -8.933
REMARK INTRA:                  -1.842
REMARK UNBOUND:                -1.203
REMARK SMILES CC[C@H](C=C[C@H](C)[C@H]1CC[C@@H]2C3=CC[C@@H]4C[C@H](O)CC[C@@]4(C)[C@@H]3CC[C@@]21C)C(C)C
REMARK SMILES IDX 6 1 7 2 5 3 4 4 3 5 2 6 1 7 28 8 29 9 30 10 8 11 9 12 26 13
REMARK SMILES IDX 10 14 11 15 25 16 27 17 12 18 24 19 23 20 13 21 21 22 14 23
REMARK SMILES IDX 15 24 20 25 22 26 16 27 19 28 17 29 18 30
REMARK H PARENT 18 31
REMARK Flexibility Score: inf
ROOT
ATOM      1  C   UNL     1     115.395 121.589 133.197  1.00  0.00     0.012 C 
ATOM      2  C   UNL     1     114.230 120.858 133.881  1.00  0.00     0.012 C 
ENDROOT
BRANCH   1   3
ATOM      3  C   UNL     1     116.657 121.459 134.037  1.00  0.00    -0.028 C 
ATOM      4  C   UNL     1     117.659 120.630 133.699  1.00  0.00    -0.027 C 
BRANCH   4   5
ATOM      5  C   UNL     1     118.958 120.587 134.484  1.00  0.00     0.014 C 
BRANCH   5   6
ATOM      6  C   UNL     1     119.165 119.184 135.112  1.00  0.00     0.004 C 
ATOM      7  C   UNL     1     118.302 118.107 134.445  1.00  0.00     0.004 C 
ENDBRANCH   5   6
BRANCH   5   8
ATOM      8  C   UNL     1     120.148 121.036 133.575  1.00  0.00    -0.011 C 
ATOM      9  C   UNL     1     120.425 122.551 133.622  1.00  0.00     0.008 C 
ATOM     10  C   UNL     1     119.956 120.575 132.125  1.00  0.00     0.008 C 
ENDBRANCH   5   8
ENDBRANCH   4   5
ENDBRANCH   1   3
BRANCH   1  11
ATOM     11  C   UNL     1     115.537 121.185 131.692  1.00  0.00     0.002 C 
ATOM     12  C   UNL     1     114.585 120.051 131.278  1.00  0.00     0.005 C 
ATOM     13  C   UNL     1     115.440 122.253 130.554  1.00  0.00    -0.023 C 
ATOM     14  C   UNL     1     114.421 120.145 129.764  1.00  0.00     0.009 C 
ATOM     15  C   UNL     1     115.275 121.339 129.309  1.00  0.00     0.021 C 
ATOM     16  C   UNL     1     116.723 123.150 130.443  1.00  0.00     0.008 C 
ATOM     17  C   UNL     1     114.192 123.169 130.653  1.00  0.00     0.012 C 
ATOM     18  C   UNL     1     116.652 121.015 128.716  1.00  0.00    -0.067 C 
ATOM     19  C   UNL     1     117.066 123.500 128.974  1.00  0.00     0.009 C 
ATOM     20  C   UNL     1     117.356 122.230 128.105  1.00  0.00     0.021 C 
ATOM     21  C   UNL     1     117.251 119.800 128.816  1.00  0.00    -0.027 C 
ATOM     22  C   UNL     1     118.874 122.002 127.739  1.00  0.00    -0.023 C 
ATOM     23  C   UNL     1     118.627 119.521 128.273  1.00  0.00     0.031 C 
ATOM     24  C   UNL     1     119.020 120.541 127.199  1.00  0.00     0.002 C 
ATOM     25  C   UNL     1     119.271 122.975 126.586  1.00  0.00     0.010 C 
ATOM     26  C   UNL     1     119.794 122.242 128.976  1.00  0.00     0.012 C 
ATOM     27  C   UNL     1     120.424 120.237 126.633  1.00  0.00     0.036 C 
ATOM     28  C   UNL     1     120.680 122.699 126.026  1.00  0.00     0.032 C 
ATOM     29  C   UNL     1     120.813 121.246 125.538  1.00  0.00     0.114 C 
BRANCH  29  30
ATOM     30  O   UNL     1     122.141 121.000 125.147  1.00  0.00    -0.393 OA
ATOM     31  H   UNL     1     122.713 121.252 125.916  1.00  0.00     0.210 HD
ENDBRANCH  29  30
ENDBRANCH   1  11
TORSDOF 6
ENDMDL
MODEL 8
REMARK VINA RESULT:    -7.201      1.724      2.435
REMARK INTER + INTRA:         -10.720
REMARK INTER:                  -8.819
REMARK INTRA:                  -1.901
REMARK UNBOUND:                -1.203
REMARK SMILES CC[C@H](C=C[C@H](C)[C@H]1CC[C@@H]2C3=CC[C@@H]4C[C@H](O)CC[C@@]4(C)[C@@H]3CC[C@@]21C)C(C)C
REMARK SMILES IDX 6 1 7 2 5 3 4 4 3 5 2 6 1 7 28 8 29 9 30 10 8 11 9 12 26 13
REMARK SMILES IDX 10 14 11 15 25 16 27 17 12 18 24 19 23 20 13 21 21 22 14 23
REMARK SMILES IDX 15 24 20 25 22 26 16 27 19 28 17 29 18 30
REMARK H PARENT 18 31
REMARK Flexibility Score: inf
ROOT
ATOM      1  C   UNL     1     116.623 118.897 128.760  1.00  0.00     0.012 C 
ATOM      2  C   UNL     1     116.225 117.862 127.697  1.00  0.00     0.012 C 
ENDROOT
BRANCH   1   3
ATOM      3  C   UNL     1     118.115 118.807 129.044  1.00  0.00    -0.028 C 
ATOM      4  C   UNL     1     118.863 119.895 129.295  1.00  0.00    -0.027 C 
BRANCH   4   5
ATOM      5  C   UNL     1     120.326 119.785 129.683  1.00  0.00     0.014 C 
BRANCH   5   6
ATOM      6  C   UNL     1     121.153 120.902 128.996  1.00  0.00     0.004 C 
ATOM      7  C   UNL     1     120.272 121.932 128.279  1.00  0.00     0.004 C 
ENDBRANCH   5   6
BRANCH   5   8
ATOM      8  C   UNL     1     120.469 119.783 131.239  1.00  0.00    -0.011 C 
ATOM      9  C   UNL     1     120.283 118.392 131.876  1.00  0.00     0.008 C 
ATOM     10  C   UNL     1     119.524 120.798 131.895  1.00  0.00     0.008 C 
ENDBRANCH   5   8
ENDBRANCH   4   5
ENDBRANCH   1   3
BRANCH   1  11
ATOM     11  C   UNL     1     116.082 120.325 128.418  1.00  0.00     0.002 C 
ATOM     12  C   UNL     1     115.195 120.350 127.163  1.00  0.00     0.005 C 
ATOM     13  C   UNL     1     115.327 121.182 129.485  1.00  0.00    -0.023 C 
ATOM     14  C   UNL     1     114.323 121.598 127.266  1.00  0.00     0.009 C 
ATOM     15  C   UNL     1     114.705 122.286 128.586  1.00  0.00     0.021 C 
ATOM     16  C   UNL     1     116.283 121.795 130.568  1.00  0.00     0.008 C 
ATOM     17  C   UNL     1     114.174 120.430 130.199  1.00  0.00     0.012 C 
ATOM     18  C   UNL     1     115.664 123.479 128.489  1.00  0.00    -0.067 C 
ATOM     19  C   UNL     1     115.843 123.215 131.001  1.00  0.00     0.009 C 
ATOM     20  C   UNL     1     115.839 124.232 129.810  1.00  0.00     0.021 C 
ATOM     21  C   UNL     1     116.382 123.783 127.377  1.00  0.00    -0.027 C 
ATOM     22  C   UNL     1     117.017 125.283 129.823  1.00  0.00    -0.023 C 
ATOM     23  C   UNL     1     117.359 124.927 127.322  1.00  0.00     0.031 C 
ATOM     24  C   UNL     1     117.067 125.961 128.414  1.00  0.00     0.002 C 
ATOM     25  C   UNL     1     116.698 126.393 130.872  1.00  0.00     0.010 C 
ATOM     26  C   UNL     1     118.377 124.601 130.171  1.00  0.00     0.012 C 
ATOM     27  C   UNL     1     118.060 127.141 128.340  1.00  0.00     0.036 C 
ATOM     28  C   UNL     1     117.693 127.567 130.826  1.00  0.00     0.032 C 
ATOM     29  C   UNL     1     117.757 128.193 129.422  1.00  0.00     0.114 C 
BRANCH  29  30
ATOM     30  O   UNL     1     118.759 129.178 129.389  1.00  0.00    -0.393 OA
ATOM     31  H   UNL     1     118.295 130.052 129.344  1.00  0.00     0.210 HD
ENDBRANCH  29  30
ENDBRANCH   1  11
TORSDOF 6
ENDMDL
MODEL 9
REMARK VINA RESULT:    -7.191      2.416      6.508
REMARK INTER + INTRA:         -10.707
REMARK INTER:                  -8.807
REMARK INTRA:                  -1.899
REMARK UNBOUND:                -1.203
REMARK SMILES CC[C@H](C=C[C@H](C)[C@H]1CC[C@@H]2C3=CC[C@@H]4C[C@H](O)CC[C@@]4(C)[C@@H]3CC[C@@]21C)C(C)C
REMARK SMILES IDX 6 1 7 2 5 3 4 4 3 5 2 6 1 7 28 8 29 9 30 10 8 11 9 12 26 13
REMARK SMILES IDX 10 14 11 15 25 16 27 17 12 18 24 19 23 20 13 21 21 22 14 23
REMARK SMILES IDX 15 24 20 25 22 26 16 27 19 28 17 29 18 30
REMARK H PARENT 18 31
REMARK Flexibility Score: inf
ROOT
ATOM      1  C   UNL     1     115.039 122.252 126.868  1.00  0.00     0.012 C 
ATOM      2  C   UNL     1     113.538 122.354 126.555  1.00  0.00     0.012 C 
ENDROOT
BRANCH   1   3
ATOM      3  C   UNL     1     115.679 123.631 126.810  1.00  0.00    -0.028 C 
ATOM      4  C   UNL     1     116.641 124.010 127.668  1.00  0.00    -0.027 C 
BRANCH   4   5
ATOM      5  C   UNL     1     117.348 125.346 127.535  1.00  0.00     0.014 C 
BRANCH   5   6
ATOM      6  C   UNL     1     117.715 125.906 128.934  1.00  0.00     0.004 C 
ATOM      7  C   UNL     1     117.603 124.850 130.039  1.00  0.00     0.004 C 
ENDBRANCH   5   6
BRANCH   5   8
ATOM      8  C   UNL     1     118.581 125.208 126.585  1.00  0.00    -0.011 C 
ATOM      9  C   UNL     1     119.206 123.800 126.582  1.00  0.00     0.008 C 
ATOM     10  C   UNL     1     119.651 126.264 126.890  1.00  0.00     0.008 C 
ENDBRANCH   5   8
ENDBRANCH   4   5
ENDBRANCH   1   3
BRANCH   1  11
ATOM     11  C   UNL     1     115.311 121.431 128.171  1.00  0.00     0.002 C 
ATOM     12  C   UNL     1     114.028 120.893 128.825  1.00  0.00     0.005 C 
ATOM     13  C   UNL     1     116.321 120.238 128.182  1.00  0.00    -0.023 C 
ATOM     14  C   UNL     1     114.441 119.709 129.695  1.00  0.00     0.009 C 
ATOM     15  C   UNL     1     115.963 119.563 129.534  1.00  0.00     0.021 C 
ATOM     16  C   UNL     1     117.820 120.702 128.151  1.00  0.00     0.008 C 
ATOM     17  C   UNL     1     116.091 119.206 127.047  1.00  0.00     0.012 C 
ATOM     18  C   UNL     1     116.833 120.146 130.654  1.00  0.00    -0.067 C 
ATOM     19  C   UNL     1     118.731 119.795 129.014  1.00  0.00     0.009 C 
ATOM     20  C   UNL     1     118.316 119.788 130.524  1.00  0.00     0.021 C 
ATOM     21  C   UNL     1     116.369 120.992 131.609  1.00  0.00    -0.027 C 
ATOM     22  C   UNL     1     119.277 120.589 131.486  1.00  0.00    -0.023 C 
ATOM     23  C   UNL     1     117.255 121.595 132.666  1.00  0.00     0.031 C 
ATOM     24  C   UNL     1     118.538 120.778 132.851  1.00  0.00     0.002 C 
ATOM     25  C   UNL     1     120.556 119.735 131.754  1.00  0.00     0.010 C 
ATOM     26  C   UNL     1     119.679 121.963 130.865  1.00  0.00     0.012 C 
ATOM     27  C   UNL     1     119.432 121.392 133.950  1.00  0.00     0.036 C 
ATOM     28  C   UNL     1     121.470 120.346 132.833  1.00  0.00     0.032 C 
ATOM     29  C   UNL     1     120.711 120.561 134.154  1.00  0.00     0.114 C 
BRANCH  29  30
ATOM     30  O   UNL     1     121.542 121.227 135.072  1.00  0.00    -0.393 OA
ATOM     31  H   UNL     1     121.528 120.693 135.905  1.00  0.00     0.210 HD
ENDBRANCH  29  30
ENDBRANCH   1  11
TORSDOF 6
ENDMDL
