MODEL 1
REMARK VINA RESULT:    -4.208      0.000      0.000
REMARK INTER + INTRA:          -5.982
REMARK INTER:                  -5.685
REMARK INTRA:                  -0.297
REMARK UNBOUND:                -0.297
REMARK SMILES CCCCCCCC(=O)[O-]
REMARK SMILES IDX 5 1 6 2 7 3 8 4 9 5 10 6 4 7 3 8 2 9 1 10
REMARK H PARENT
REMARK Flexibility Score: inf
ROOT
ATOM      1  C   UNL     1      33.276   7.801  11.283  1.00  0.00     0.000 C 
ENDROOT
BRANCH   1   2
ATOM      2  C   UNL     1      34.572   7.718  12.111  1.00  0.00     0.006 C 
BRANCH   2   3
ATOM      3  C   UNL     1      35.182   6.307  12.175  1.00  0.00     0.053 C 
BRANCH   3   4
ATOM      4  C   UNL     1      34.848   5.594  13.449  1.00  0.00     0.041 C 
ATOM      5  O   UNL     1      35.615   5.681  14.443  1.00  0.00    -0.550 OA
ATOM      6  O   UNL     1      33.673   4.859  13.552  1.00  0.00    -0.550 OA
ENDBRANCH   3   4
ENDBRANCH   2   3
ENDBRANCH   1   2
BRANCH   1   7
ATOM      7  C   UNL     1      32.006   7.644  12.136  1.00  0.00     0.000 C 
BRANCH   7   8
ATOM      8  C   UNL     1      31.611   8.945  12.853  1.00  0.00    -0.000 C 
BRANCH   8   9
ATOM      9  C   UNL     1      31.596  10.155  11.910  1.00  0.00    -0.003 C 
ATOM     10  C   UNL     1      30.443  11.098  12.244  1.00  0.00     0.004 C 
ENDBRANCH   8   9
ENDBRANCH   7   8
ENDBRANCH   1   7
TORSDOF 6
ENDMDL
MODEL 2
REMARK VINA RESULT:    -4.151      2.378      2.512
REMARK INTER + INTRA:          -5.904
REMARK INTER:                  -5.703
REMARK INTRA:                  -0.201
REMARK UNBOUND:                -0.297
REMARK SMILES CCCCCCCC(=O)[O-]
REMARK SMILES IDX 5 1 6 2 7 3 8 4 9 5 10 6 4 7 3 8 2 9 1 10
REMARK H PARENT
REMARK Flexibility Score: inf
ROOT
ATOM      1  C   UNL     1      33.939   8.214  12.186  1.00  0.00     0.000 C 
ENDROOT
BRANCH   1   2
ATOM      2  C   UNL     1      34.698   7.468  11.073  1.00  0.00     0.006 C 
BRANCH   2   3
ATOM      3  C   UNL     1      36.224   7.656  11.127  1.00  0.00     0.053 C 
BRANCH   3   4
ATOM      4  C   UNL     1      36.968   6.482  10.566  1.00  0.00     0.041 C 
ATOM      5  O   UNL     1      38.217   6.402  10.699  1.00  0.00    -0.550 OA
ATOM      6  O   UNL     1      36.279   5.459   9.926  1.00  0.00    -0.550 OA
ENDBRANCH   3   4
ENDBRANCH   2   3
ENDBRANCH   1   2
BRANCH   1   7
ATOM      7  C   UNL     1      32.592   7.561  12.538  1.00  0.00     0.000 C 
BRANCH   7   8
ATOM      8  C   UNL     1      31.398   8.492  12.278  1.00  0.00    -0.000 C 
BRANCH   8   9
ATOM      9  C   UNL     1      31.817   9.961  12.135  1.00  0.00    -0.003 C 
ATOM     10  C   UNL     1      30.601  10.884  12.148  1.00  0.00     0.004 C 
ENDBRANCH   8   9
ENDBRANCH   7   8
ENDBRANCH   1   7
TORSDOF 6
ENDMDL
MODEL 3
REMARK VINA RESULT:    -4.098      2.916      3.383
REMARK INTER + INTRA:          -5.833
REMARK INTER:                  -5.485
REMARK INTRA:                  -0.348
REMARK UNBOUND:                -0.297
REMARK SMILES CCCCCCCC(=O)[O-]
REMARK SMILES IDX 5 1 6 2 7 3 8 4 9 5 10 6 4 7 3 8 2 9 1 10
REMARK H PARENT
REMARK Flexibility Score: inf
ROOT
ATOM      1  C   UNL     1      34.196   7.810  12.163  1.00  0.00     0.000 C 
ENDROOT
BRANCH   1   2
ATOM      2  C   UNL     1      34.899   7.485  10.833  1.00  0.00     0.006 C 
BRANCH   2   3
ATOM      3  C   UNL     1      33.988   7.617   9.599  1.00  0.00     0.053 C 
BRANCH   3   4
ATOM      4  C   UNL     1      34.299   6.600   8.544  1.00  0.00     0.041 C 
ATOM      5  O   UNL     1      35.257   5.798   8.700  1.00  0.00    -0.550 OA
ATOM      6  O   UNL     1      33.512   6.513   7.403  1.00  0.00    -0.550 OA
ENDBRANCH   3   4
ENDBRANCH   2   3
ENDBRANCH   1   2
BRANCH   1   7
ATOM      7  C   UNL     1      32.774   7.229  12.251  1.00  0.00     0.000 C 
BRANCH   7   8
ATOM      8  C   UNL     1      31.719   8.296  12.580  1.00  0.00    -0.000 C 
BRANCH   8   9
ATOM      9  C   UNL     1      32.070   9.671  11.995  1.00  0.00    -0.003 C 
ATOM     10  C   UNL     1      30.945  10.675  12.235  1.00  0.00     0.004 C 
ENDBRANCH   8   9
ENDBRANCH   7   8
ENDBRANCH   1   7
TORSDOF 6
ENDMDL
MODEL 4
REMARK VINA RESULT:    -4.093      2.559      4.598
REMARK INTER + INTRA:          -5.826
REMARK INTER:                  -5.204
REMARK INTRA:                  -0.623
REMARK UNBOUND:                -0.297
REMARK SMILES CCCCCCCC(=O)[O-]
REMARK SMILES IDX 5 1 6 2 7 3 8 4 9 5 10 6 4 7 3 8 2 9 1 10
REMARK H PARENT
REMARK Flexibility Score: inf
ROOT
ATOM      1  C   UNL     1      33.995   7.625   9.392  1.00  0.00     0.000 C 
ENDROOT
BRANCH   1   2
ATOM      2  C   UNL     1      33.510   7.592  10.853  1.00  0.00     0.006 C 
BRANCH   2   3
ATOM      3  C   UNL     1      34.623   7.855  11.884  1.00  0.00     0.053 C 
BRANCH   3   4
ATOM      4  C   UNL     1      35.370   6.611  12.254  1.00  0.00     0.041 C 
ATOM      5  O   UNL     1      36.459   6.334  11.688  1.00  0.00    -0.550 OA
ATOM      6  O   UNL     1      34.881   5.771  13.247  1.00  0.00    -0.550 OA
ENDBRANCH   3   4
ENDBRANCH   2   3
ENDBRANCH   1   2
BRANCH   1   7
ATOM      7  C   UNL     1      33.800   6.285   8.663  1.00  0.00     0.000 C 
BRANCH   7   8
ATOM      8  C   UNL     1      35.132   5.610   8.302  1.00  0.00    -0.000 C 
BRANCH   8   9
ATOM      9  C   UNL     1      35.378   4.325   9.104  1.00  0.00    -0.003 C 
ATOM     10  C   UNL     1      34.143   3.936   9.912  1.00  0.00     0.004 C 
ENDBRANCH   8   9
ENDBRANCH   7   8
ENDBRANCH   1   7
TORSDOF 6
ENDMDL
MODEL 5
REMARK VINA RESULT:    -4.061      3.397      4.822
REMARK INTER + INTRA:          -5.782
REMARK INTER:                  -5.134
REMARK INTRA:                  -0.648
REMARK UNBOUND:                -0.297
REMARK SMILES CCCCCCCC(=O)[O-]
REMARK SMILES IDX 5 1 6 2 7 3 8 4 9 5 10 6 4 7 3 8 2 9 1 10
REMARK H PARENT
REMARK Flexibility Score: inf
ROOT
ATOM      1  C   UNL     1      33.834   7.417  10.716  1.00  0.00     0.000 C 
ENDROOT
BRANCH   1   2
ATOM      2  C   UNL     1      35.095   7.800  11.511  1.00  0.00     0.006 C 
BRANCH   2   3
ATOM      3  C   UNL     1      36.064   6.627  11.746  1.00  0.00     0.053 C 
BRANCH   3   4
ATOM      4  C   UNL     1      37.361   6.799  11.017  1.00  0.00     0.041 C 
ATOM      5  O   UNL     1      37.377   6.868   9.760  1.00  0.00    -0.550 OA
ATOM      6  O   UNL     1      38.551   6.915  11.725  1.00  0.00    -0.550 OA
ENDBRANCH   3   4
ENDBRANCH   2   3
ENDBRANCH   1   2
BRANCH   1   7
ATOM      7  C   UNL     1      33.919   7.802   9.229  1.00  0.00     0.000 C 
BRANCH   7   8
ATOM      8  C   UNL     1      33.976   6.577   8.304  1.00  0.00    -0.000 C 
BRANCH   8   9
ATOM      9  C   UNL     1      33.815   5.255   9.067  1.00  0.00    -0.003 C 
ATOM     10  C   UNL     1      35.058   4.381   8.921  1.00  0.00     0.004 C 
ENDBRANCH   8   9
ENDBRANCH   7   8
ENDBRANCH   1   7
TORSDOF 6
ENDMDL
MODEL 6
REMARK VINA RESULT:    -3.978      2.352      4.107
REMARK INTER + INTRA:          -5.671
REMARK INTER:                  -5.141
REMARK INTRA:                  -0.530
REMARK UNBOUND:                -0.297
REMARK SMILES CCCCCCCC(=O)[O-]
REMARK SMILES IDX 5 1 6 2 7 3 8 4 9 5 10 6 4 7 3 8 2 9 1 10
REMARK H PARENT
REMARK Flexibility Score: inf
ROOT
ATOM      1  C   UNL     1      33.623   7.546  10.542  1.00  0.00     0.000 C 
ENDROOT
BRANCH   1   2
ATOM      2  C   UNL     1      34.447   7.762  11.824  1.00  0.00     0.006 C 
BRANCH   2   3
ATOM      3  C   UNL     1      35.357   6.574  12.187  1.00  0.00     0.053 C 
BRANCH   3   4
ATOM      4  C   UNL     1      34.826   5.774  13.337  1.00  0.00     0.041 C 
ATOM      5  O   UNL     1      35.521   5.618  14.374  1.00  0.00    -0.550 OA
ATOM      6  O   UNL     1      33.550   5.228  13.278  1.00  0.00    -0.550 OA
ENDBRANCH   3   4
ENDBRANCH   2   3
ENDBRANCH   1   2
BRANCH   1   7
ATOM      7  C   UNL     1      34.481   7.118   9.339  1.00  0.00     0.000 C 
BRANCH   7   8
ATOM      8  C   UNL     1      33.913   5.886   8.617  1.00  0.00    -0.000 C 
BRANCH   8   9
ATOM      9  C   UNL     1      34.708   4.608   8.918  1.00  0.00    -0.003 C 
ATOM     10  C   UNL     1      34.045   3.797  10.028  1.00  0.00     0.004 C 
ENDBRANCH   8   9
ENDBRANCH   7   8
ENDBRANCH   1   7
TORSDOF 6
ENDMDL
MODEL 7
REMARK VINA RESULT:    -3.922      3.144      4.805
REMARK INTER + INTRA:          -5.594
REMARK INTER:                  -5.096
REMARK INTRA:                  -0.499
REMARK UNBOUND:                -0.297
REMARK SMILES CCCCCCCC(=O)[O-]
REMARK SMILES IDX 5 1 6 2 7 3 8 4 9 5 10 6 4 7 3 8 2 9 1 10
REMARK H PARENT
REMARK Flexibility Score: inf
ROOT
ATOM      1  C   UNL     1      34.709   7.292  12.291  1.00  0.00     0.000 C 
ENDROOT
BRANCH   1   2
ATOM      2  C   UNL     1      35.115   6.014  13.047  1.00  0.00     0.006 C 
BRANCH   2   3
ATOM      3  C   UNL     1      33.942   5.061  13.337  1.00  0.00     0.053 C 
BRANCH   3   4
ATOM      4  C   UNL     1      33.113   4.783  12.120  1.00  0.00     0.041 C 
ATOM      5  O   UNL     1      33.583   4.094  11.178  1.00  0.00    -0.550 OA
ATOM      6  O   UNL     1      31.809   5.256  12.039  1.00  0.00    -0.550 OA
ENDBRANCH   3   4
ENDBRANCH   2   3
ENDBRANCH   1   2
BRANCH   1   7
ATOM      7  C   UNL     1      35.525   7.518  11.007  1.00  0.00     0.000 C 
BRANCH   7   8
ATOM      8  C   UNL     1      36.403   6.311  10.645  1.00  0.00    -0.000 C 
BRANCH   8   9
ATOM      9  C   UNL     1      37.829   6.718  10.249  1.00  0.00    -0.003 C 
ATOM     10  C   UNL     1      38.749   6.752  11.467  1.00  0.00     0.004 C 
ENDBRANCH   8   9
ENDBRANCH   7   8
ENDBRANCH   1   7
TORSDOF 6
ENDMDL
MODEL 8
REMARK VINA RESULT:    -3.917      3.077      4.593
REMARK INTER + INTRA:          -5.588
REMARK INTER:                  -4.988
REMARK INTRA:                  -0.600
REMARK UNBOUND:                -0.297
REMARK SMILES CCCCCCCC(=O)[O-]
REMARK SMILES IDX 5 1 6 2 7 3 8 4 9 5 10 6 4 7 3 8 2 9 1 10
REMARK H PARENT
REMARK Flexibility Score: inf
ROOT
ATOM      1  C   UNL     1      36.795   6.193   9.994  1.00  0.00     0.000 C 
ENDROOT
BRANCH   1   2
ATOM      2  C   UNL     1      36.184   4.827   9.635  1.00  0.00     0.006 C 
BRANCH   2   3
ATOM      3  C   UNL     1      35.148   4.887   8.499  1.00  0.00     0.053 C 
BRANCH   3   4
ATOM      4  C   UNL     1      33.935   5.684   8.869  1.00  0.00     0.041 C 
ATOM      5  O   UNL     1      33.122   5.242   9.722  1.00  0.00    -0.550 OA
ATOM      6  O   UNL     1      33.717   6.932   8.296  1.00  0.00    -0.550 OA
ENDBRANCH   3   4
ENDBRANCH   2   3
ENDBRANCH   1   2
BRANCH   1   7
ATOM      7  C   UNL     1      36.853   6.447  11.510  1.00  0.00     0.000 C 
BRANCH   7   8
ATOM      8  C   UNL     1      35.459   6.628  12.132  1.00  0.00    -0.000 C 
BRANCH   8   9
ATOM      9  C   UNL     1      34.815   7.968  11.752  1.00  0.00    -0.003 C 
ATOM     10  C   UNL     1      33.325   7.977  12.087  1.00  0.00     0.004 C 
ENDBRANCH   8   9
ENDBRANCH   7   8
ENDBRANCH   1   7
TORSDOF 6
ENDMDL
MODEL 9
REMARK VINA RESULT:    -3.917      2.448      4.987
REMARK INTER + INTRA:          -5.587
REMARK INTER:                  -5.149
REMARK INTRA:                  -0.438
REMARK UNBOUND:                -0.297
REMARK SMILES CCCCCCCC(=O)[O-]
REMARK SMILES IDX 5 1 6 2 7 3 8 4 9 5 10 6 4 7 3 8 2 9 1 10
REMARK H PARENT
REMARK Flexibility Score: inf
ROOT
ATOM      1  C   UNL     1      35.299   6.558  12.166  1.00  0.00     0.000 C 
ENDROOT
BRANCH   1   2
ATOM      2  C   UNL     1      34.586   7.901  11.926  1.00  0.00     0.006 C 
BRANCH   2   3
ATOM      3  C   UNL     1      33.265   7.774  11.146  1.00  0.00     0.053 C 
BRANCH   3   4
ATOM      4  C   UNL     1      32.096   7.485  12.039  1.00  0.00     0.041 C 
ATOM      5  O   UNL     1      31.408   8.430  12.507  1.00  0.00    -0.550 OA
ATOM      6  O   UNL     1      31.745   6.173  12.328  1.00  0.00    -0.550 OA
ENDBRANCH   3   4
ENDBRANCH   2   3
ENDBRANCH   1   2
BRANCH   1   7
ATOM      7  C   UNL     1      36.695   6.494  11.522  1.00  0.00     0.000 C 
BRANCH   7   8
ATOM      8  C   UNL     1      36.635   6.281  10.002  1.00  0.00    -0.000 C 
BRANCH   8   9
ATOM      9  C   UNL     1      35.966   4.954   9.619  1.00  0.00    -0.003 C 
ATOM     10  C   UNL     1      35.002   5.141   8.451  1.00  0.00     0.004 C 
ENDBRANCH   8   9
ENDBRANCH   7   8
ENDBRANCH   1   7
TORSDOF 6
ENDMDL
