MODEL 1
REMARK VINA RESULT:    -1.742      0.000      0.000
REMARK INTER + INTRA:          -2.106
REMARK INTER:                  -2.353
REMARK INTRA:                   0.246
REMARK UNBOUND:                 0.246
REMARK SMILES O=c1c(-c2ccc(O)cc2)coc2c([C@H]3O[C@H](CO)[C@H](O)[C@H](O)[C@@H]3O)c(O)ccc12
REMARK SMILES IDX 3 1 11 2 12 3 13 4 30 5 2 6 1 7 29 8 28 9 26 10 14 11 4 12
REMARK SMILES IDX 5 13 6 14 7 15 10 16 9 17 8 18 15 20 24 21 16 22 22 23 17 24
REMARK SMILES IDX 20 25 25 26 23 28 18 30 19 31 21 33 27 35
REMARK H PARENT 8 19 25 27 23 29 19 32 21 34 27 36
REMARK Flexibility Score: inf
ROOT
ATOM      1  C   UNL     1      34.112  23.794  19.593  1.00  0.00     0.065 A 
ATOM      2  C   UNL     1      34.816  24.374  20.655  1.00  0.00     0.208 A 
ATOM      3  O   UNL     1      34.815  25.689  20.825  1.00  0.00    -0.463 OA
ATOM      4  C   UNL     1      34.129  26.526  20.041  1.00  0.00     0.147 A 
ATOM      5  C   UNL     1      33.322  26.003  18.999  1.00  0.00     0.066 A 
ATOM      6  C   UNL     1      33.358  24.619  18.745  1.00  0.00     0.200 A 
ATOM      7  O   UNL     1      32.724  24.127  17.773  1.00  0.00    -0.288 OA
ATOM      8  C   UNL     1      32.517  26.862  18.246  1.00  0.00     0.020 A 
ATOM      9  C   UNL     1      32.500  28.223  18.528  1.00  0.00     0.047 A 
ATOM     10  C   UNL     1      33.320  28.764  19.529  1.00  0.00     0.125 A 
ATOM     11  C   UNL     1      34.204  27.929  20.268  1.00  0.00     0.069 A 
ENDROOT
BRANCH   1  12
ATOM     12  C   UNL     1      34.251  22.352  19.319  1.00  0.00    -0.011 A 
ATOM     13  C   UNL     1      34.256  21.446  20.384  1.00  0.00     0.013 A 
ATOM     14  C   UNL     1      34.372  20.077  20.142  1.00  0.00     0.047 A 
ATOM     15  C   UNL     1      34.471  19.599  18.832  1.00  0.00     0.115 A 
ATOM     16  C   UNL     1      34.379  21.880  18.004  1.00  0.00     0.013 A 
ATOM     17  C   UNL     1      34.493  20.506  17.763  1.00  0.00     0.047 A 
BRANCH  15  18
ATOM     18  O   UNL     1      34.538  18.225  18.609  1.00  0.00    -0.508 OA
ATOM     19  H   UNL     1      35.369  17.691  18.821  1.00  0.00     0.293 HD
ENDBRANCH  15  18
ENDBRANCH   1  12
BRANCH  11  20
ATOM     20  C   UNL     1      35.357  28.473  21.149  1.00  0.00     0.188 C 
ATOM     21  C   UNL     1      36.459  27.494  21.674  1.00  0.00     0.179 C 
ATOM     22  O   UNL     1      34.881  29.365  22.142  1.00  0.00    -0.362 OA
ATOM     23  C   UNL     1      36.211  26.973  23.117  1.00  0.00     0.177 C 
ATOM     24  C   UNL     1      34.370  28.694  23.276  1.00  0.00     0.176 C 
ATOM     25  C   UNL     1      35.509  28.002  24.042  1.00  0.00     0.177 C 
BRANCH  21  26
ATOM     26  O   UNL     1      37.698  28.170  21.638  1.00  0.00    -0.387 OA
ATOM     27  H   UNL     1      37.703  28.828  22.375  1.00  0.00     0.211 HD
ENDBRANCH  21  26
BRANCH  23  28
ATOM     28  O   UNL     1      37.394  26.439  23.669  1.00  0.00    -0.387 OA
ATOM     29  H   UNL     1      38.164  26.671  23.094  1.00  0.00     0.211 HD
ENDBRANCH  23  28
BRANCH  24  30
ATOM     30  C   UNL     1      33.642  29.720  24.151  1.00  0.00     0.191 C 
BRANCH  30  31
ATOM     31  O   UNL     1      33.646  29.303  25.493  1.00  0.00    -0.394 OA
ATOM     32  H   UNL     1      34.097  30.023  26.008  1.00  0.00     0.210 HD
ENDBRANCH  30  31
ENDBRANCH  24  30
BRANCH  25  33
ATOM     33  O   UNL     1      36.404  28.976  24.522  1.00  0.00    -0.388 OA
ATOM     34  H   UNL     1      36.446  29.689  23.832  1.00  0.00     0.211 HD
ENDBRANCH  25  33
ENDBRANCH  11  20
BRANCH  10  35
ATOM     35  O   UNL     1      33.224  30.125  19.788  1.00  0.00    -0.507 OA
ATOM     36  H   UNL     1      32.503  30.495  20.405  1.00  0.00     0.293 HD
ENDBRANCH  10  35
TORSDOF 9
ENDMDL
MODEL 2
REMARK VINA RESULT:    -1.678      1.899      7.255
REMARK INTER + INTRA:          -2.020
REMARK INTER:                  -3.927
REMARK INTRA:                   1.907
REMARK UNBOUND:                 0.246
REMARK SMILES O=c1c(-c2ccc(O)cc2)coc2c([C@H]3O[C@H](CO)[C@H](O)[C@H](O)[C@@H]3O)c(O)ccc12
REMARK SMILES IDX 3 1 11 2 12 3 13 4 30 5 2 6 1 7 29 8 28 9 26 10 14 11 4 12
REMARK SMILES IDX 5 13 6 14 7 15 10 16 9 17 8 18 15 20 24 21 16 22 22 23 17 24
REMARK SMILES IDX 20 25 25 26 23 28 18 30 19 31 21 33 27 35
REMARK H PARENT 8 19 25 27 23 29 19 32 21 34 27 36
REMARK Flexibility Score: inf
ROOT
ATOM      1  C   UNL     1      34.562  26.655  21.633  1.00  0.00     0.065 A 
ATOM      2  C   UNL     1      35.346  25.495  21.659  1.00  0.00     0.208 A 
ATOM      3  O   UNL     1      35.231  24.583  20.705  1.00  0.00    -0.463 OA
ATOM      4  C   UNL     1      34.411  24.720  19.659  1.00  0.00     0.147 A 
ATOM      5  C   UNL     1      33.651  25.909  19.520  1.00  0.00     0.066 A 
ATOM      6  C   UNL     1      33.694  26.864  20.552  1.00  0.00     0.200 A 
ATOM      7  O   UNL     1      32.966  27.893  20.507  1.00  0.00    -0.288 OA
ATOM      8  C   UNL     1      32.875  26.107  18.374  1.00  0.00     0.020 A 
ATOM      9  C   UNL     1      32.860  25.146  17.370  1.00  0.00     0.047 A 
ATOM     10  C   UNL     1      33.575  23.947  17.507  1.00  0.00     0.125 A 
ATOM     11  C   UNL     1      34.320  23.681  18.691  1.00  0.00     0.069 A 
ENDROOT
BRANCH   1  12
ATOM     12  C   UNL     1      34.582  27.581  22.780  1.00  0.00    -0.011 A 
ATOM     13  C   UNL     1      34.020  27.184  23.997  1.00  0.00     0.013 A 
ATOM     14  C   UNL     1      34.044  28.042  25.097  1.00  0.00     0.047 A 
ATOM     15  C   UNL     1      34.641  29.302  24.994  1.00  0.00     0.115 A 
ATOM     16  C   UNL     1      35.157  28.856  22.664  1.00  0.00     0.013 A 
ATOM     17  C   UNL     1      35.182  29.715  23.768  1.00  0.00     0.047 A 
BRANCH  15  18
ATOM     18  O   UNL     1      34.697  30.125  26.117  1.00  0.00    -0.508 OA
ATOM     19  H   UNL     1      35.572  30.346  26.571  1.00  0.00     0.293 HD
ENDBRANCH  15  18
ENDBRANCH   1  12
BRANCH  11  20
ATOM     20  C   UNL     1      34.863  22.278  19.061  1.00  0.00     0.188 C 
ATOM     21  C   UNL     1      34.090  21.000  18.596  1.00  0.00     0.179 C 
ATOM     22  O   UNL     1      35.280  22.220  20.415  1.00  0.00    -0.362 OA
ATOM     23  C   UNL     1      33.131  20.412  19.668  1.00  0.00     0.177 C 
ATOM     24  C   UNL     1      34.203  22.007  21.306  1.00  0.00     0.176 C 
ATOM     25  C   UNL     1      33.635  20.589  21.124  1.00  0.00     0.177 C 
BRANCH  21  26
ATOM     26  O   UNL     1      35.041  20.017  18.244  1.00  0.00    -0.387 OA
ATOM     27  H   UNL     1      34.636  19.442  17.549  1.00  0.00     0.211 HD
ENDBRANCH  21  26
BRANCH  23  28
ATOM     28  O   UNL     1      32.782  19.082  19.354  1.00  0.00    -0.387 OA
ATOM     29  H   UNL     1      31.839  18.918  19.602  1.00  0.00     0.211 HD
ENDBRANCH  23  28
BRANCH  24  30
ATOM     30  C   UNL     1      34.713  22.232  22.734  1.00  0.00     0.191 C 
BRANCH  30  31
ATOM     31  O   UNL     1      34.477  23.558  23.130  1.00  0.00    -0.394 OA
ATOM     32  H   UNL     1      33.493  23.690  23.097  1.00  0.00     0.210 HD
ENDBRANCH  30  31
ENDBRANCH  24  30
BRANCH  25  33
ATOM     33  O   UNL     1      34.625  19.646  21.458  1.00  0.00    -0.388 OA
ATOM     34  H   UNL     1      35.109  19.431  20.618  1.00  0.00     0.211 HD
ENDBRANCH  25  33
ENDBRANCH  11  20
BRANCH  10  35
ATOM     35  O   UNL     1      33.552  23.047  16.450  1.00  0.00    -0.507 OA
ATOM     36  H   UNL     1      33.723  23.353  15.493  1.00  0.00     0.293 HD
ENDBRANCH  10  35
TORSDOF 9
ENDMDL
MODEL 3
REMARK VINA RESULT:    -0.933      1.231      2.396
REMARK INTER + INTRA:          -1.013
REMARK INTER:                  -1.218
REMARK INTRA:                   0.204
REMARK UNBOUND:                 0.246
REMARK SMILES O=c1c(-c2ccc(O)cc2)coc2c([C@H]3O[C@H](CO)[C@H](O)[C@H](O)[C@@H]3O)c(O)ccc12
REMARK SMILES IDX 3 1 11 2 12 3 13 4 30 5 2 6 1 7 29 8 28 9 26 10 14 11 4 12
REMARK SMILES IDX 5 13 6 14 7 15 10 16 9 17 8 18 15 20 24 21 16 22 22 23 17 24
REMARK SMILES IDX 20 25 25 26 23 28 18 30 19 31 21 33 27 35
REMARK H PARENT 8 19 25 27 23 29 19 32 21 34 27 36
REMARK Flexibility Score: inf
ROOT
ATOM      1  C   UNL     1      34.300  22.905  19.691  1.00  0.00     0.065 A 
ATOM      2  C   UNL     1      34.637  23.262  21.002  1.00  0.00     0.208 A 
ATOM      3  O   UNL     1      34.672  24.536  21.365  1.00  0.00    -0.463 OA
ATOM      4  C   UNL     1      34.359  25.539  20.540  1.00  0.00     0.147 A 
ATOM      5  C   UNL     1      33.923  25.248  19.222  1.00  0.00     0.066 A 
ATOM      6  C   UNL     1      33.944  23.912  18.782  1.00  0.00     0.200 A 
ATOM      7  O   UNL     1      33.648  23.622  17.591  1.00  0.00    -0.288 OA
ATOM      8  C   UNL     1      33.489  26.283  18.390  1.00  0.00     0.020 A 
ATOM      9  C   UNL     1      33.474  27.592  18.858  1.00  0.00     0.047 A 
ATOM     10  C   UNL     1      33.938  27.905  20.145  1.00  0.00     0.125 A 
ATOM     11  C   UNL     1      34.452  26.885  20.994  1.00  0.00     0.069 A 
ENDROOT
BRANCH   1  12
ATOM     12  C   UNL     1      34.421  21.500  19.258  1.00  0.00    -0.011 A 
ATOM     13  C   UNL     1      35.365  21.158  18.285  1.00  0.00     0.013 A 
ATOM     14  C   UNL     1      35.504  19.833  17.874  1.00  0.00     0.047 A 
ATOM     15  C   UNL     1      34.708  18.833  18.442  1.00  0.00     0.115 A 
ATOM     16  C   UNL     1      33.601  20.506  19.810  1.00  0.00     0.013 A 
ATOM     17  C   UNL     1      33.741  19.175  19.399  1.00  0.00     0.047 A 
BRANCH  15  18
ATOM     18  O   UNL     1      34.894  17.508  18.053  1.00  0.00    -0.508 OA
ATOM     19  H   UNL     1      34.480  17.138  17.208  1.00  0.00     0.293 HD
ENDBRANCH  15  18
ENDBRANCH   1  12
BRANCH  11  20
ATOM     20  C   UNL     1      35.269  27.174  22.278  1.00  0.00     0.188 C 
ATOM     21  C   UNL     1      34.525  27.559  23.599  1.00  0.00     0.179 C 
ATOM     22  O   UNL     1      36.394  27.995  22.008  1.00  0.00    -0.362 OA
ATOM     23  C   UNL     1      34.437  29.089  23.857  1.00  0.00     0.177 C 
ATOM     24  C   UNL     1      36.063  29.367  21.944  1.00  0.00     0.176 C 
ATOM     25  C   UNL     1      35.664  29.884  23.337  1.00  0.00     0.177 C 
BRANCH  21  26
ATOM     26  O   UNL     1      35.206  26.952  24.678  1.00  0.00    -0.387 OA
ATOM     27  H   UNL     1      35.473  27.668  25.306  1.00  0.00     0.211 HD
ENDBRANCH  21  26
BRANCH  23  28
ATOM     28  O   UNL     1      34.130  29.356  25.207  1.00  0.00    -0.387 OA
ATOM     29  H   UNL     1      34.596  28.707  25.789  1.00  0.00     0.211 HD
ENDBRANCH  23  28
BRANCH  24  30
ATOM     30  C   UNL     1      37.272  30.125  21.385  1.00  0.00     0.191 C 
BRANCH  30  31
ATOM     31  O   UNL     1      38.438  29.357  21.537  1.00  0.00    -0.394 OA
ATOM     32  H   UNL     1      39.032  29.597  20.778  1.00  0.00     0.210 HD
ENDBRANCH  30  31
ENDBRANCH  24  30
BRANCH  25  33
ATOM     33  O   UNL     1      36.768  29.778  24.204  1.00  0.00    -0.388 OA
ATOM     34  H   UNL     1      37.567  30.056  23.683  1.00  0.00     0.211 HD
ENDBRANCH  25  33
ENDBRANCH  11  20
BRANCH  10  35
ATOM     35  O   UNL     1      33.856  29.225  20.567  1.00  0.00    -0.507 OA
ATOM     36  H   UNL     1      32.987  29.609  20.931  1.00  0.00     0.293 HD
ENDBRANCH  10  35
TORSDOF 9
ENDMDL
MODEL 4
REMARK VINA RESULT:    -0.454      1.789      4.720
REMARK INTER + INTRA:          -0.367
REMARK INTER:                  -1.237
REMARK INTRA:                   0.870
REMARK UNBOUND:                 0.246
REMARK SMILES O=c1c(-c2ccc(O)cc2)coc2c([C@H]3O[C@H](CO)[C@H](O)[C@H](O)[C@@H]3O)c(O)ccc12
REMARK SMILES IDX 3 1 11 2 12 3 13 4 30 5 2 6 1 7 29 8 28 9 26 10 14 11 4 12
REMARK SMILES IDX 5 13 6 14 7 15 10 16 9 17 8 18 15 20 24 21 16 22 22 23 17 24
REMARK SMILES IDX 20 25 25 26 23 28 18 30 19 31 21 33 27 35
REMARK H PARENT 8 19 25 27 23 29 19 32 21 34 27 36
REMARK Flexibility Score: inf
ROOT
ATOM      1  C   UNL     1      34.265  24.237  19.663  1.00  0.00     0.065 A 
ATOM      2  C   UNL     1      33.478  25.186  19.001  1.00  0.00     0.208 A 
ATOM      3  O   UNL     1      33.503  26.459  19.371  1.00  0.00    -0.463 OA
ATOM      4  C   UNL     1      34.290  26.919  20.348  1.00  0.00     0.147 A 
ATOM      5  C   UNL     1      35.180  26.031  21.004  1.00  0.00     0.066 A 
ATOM      6  C   UNL     1      35.125  24.661  20.686  1.00  0.00     0.200 A 
ATOM      7  O   UNL     1      35.838  23.828  21.309  1.00  0.00    -0.288 OA
ATOM      8  C   UNL     1      36.083  26.525  21.950  1.00  0.00     0.020 A 
ATOM      9  C   UNL     1      36.115  27.885  22.236  1.00  0.00     0.047 A 
ATOM     10  C   UNL     1      35.217  28.773  21.626  1.00  0.00     0.125 A 
ATOM     11  C   UNL     1      34.237  28.294  20.710  1.00  0.00     0.069 A 
ENDROOT
BRANCH   1  12
ATOM     12  C   UNL     1      34.108  22.804  19.350  1.00  0.00    -0.011 A 
ATOM     13  C   UNL     1      34.525  21.846  20.279  1.00  0.00     0.013 A 
ATOM     14  C   UNL     1      34.369  20.487  20.006  1.00  0.00     0.047 A 
ATOM     15  C   UNL     1      33.784  20.073  18.806  1.00  0.00     0.115 A 
ATOM     16  C   UNL     1      33.546  22.393  18.132  1.00  0.00     0.013 A 
ATOM     17  C   UNL     1      33.389  21.030  17.859  1.00  0.00     0.047 A 
BRANCH  15  18
ATOM     18  O   UNL     1      33.594  18.712  18.572  1.00  0.00    -0.508 OA
ATOM     19  H   UNL     1      32.890  18.376  17.931  1.00  0.00     0.293 HD
ENDBRANCH  15  18
ENDBRANCH   1  12
BRANCH  11  20
ATOM     20  C   UNL     1      33.020  29.133  20.246  1.00  0.00     0.188 C 
ATOM     21  C   UNL     1      31.613  28.459  20.134  1.00  0.00     0.179 C 
ATOM     22  O   UNL     1      33.342  29.948  19.131  1.00  0.00    -0.362 OA
ATOM     23  C   UNL     1      31.251  27.977  18.702  1.00  0.00     0.177 C 
ATOM     24  C   UNL     1      33.286  29.243  17.907  1.00  0.00     0.176 C 
ATOM     25  C   UNL     1      31.832  28.870  17.574  1.00  0.00     0.177 C 
BRANCH  21  26
ATOM     26  O   UNL     1      30.644  29.395  20.560  1.00  0.00    -0.387 OA
ATOM     27  H   UNL     1      31.115  30.115  21.046  1.00  0.00     0.211 HD
ENDBRANCH  21  26
BRANCH  23  28
ATOM     28  O   UNL     1      29.863  27.755  18.581  1.00  0.00    -0.387 OA
ATOM     29  H   UNL     1      29.488  27.508  19.461  1.00  0.00     0.211 HD
ENDBRANCH  23  28
BRANCH  24  30
ATOM     30  C   UNL     1      33.907  30.125  16.819  1.00  0.00     0.191 C 
BRANCH  30  31
ATOM     31  O   UNL     1      33.148  30.046  15.639  1.00  0.00    -0.394 OA
ATOM     32  H   UNL     1      33.054  29.079  15.432  1.00  0.00     0.210 HD
ENDBRANCH  30  31
ENDBRANCH  24  30
BRANCH  25  33
ATOM     33  O   UNL     1      31.081  30.046  17.393  1.00  0.00    -0.388 OA
ATOM     34  H   UNL     1      31.170  30.573  18.231  1.00  0.00     0.211 HD
ENDBRANCH  25  33
ENDBRANCH  11  20
BRANCH  10  35
ATOM     35  O   UNL     1      35.329  30.125  21.923  1.00  0.00    -0.507 OA
ATOM     36  H   UNL     1      34.605  30.611  22.449  1.00  0.00     0.293 HD
ENDBRANCH  10  35
TORSDOF 9
ENDMDL
MODEL 5
REMARK VINA RESULT:     0.188      1.715      4.548
REMARK INTER + INTRA:           0.500
REMARK INTER:                  -1.078
REMARK INTRA:                   1.578
REMARK UNBOUND:                 0.246
REMARK SMILES O=c1c(-c2ccc(O)cc2)coc2c([C@H]3O[C@H](CO)[C@H](O)[C@H](O)[C@@H]3O)c(O)ccc12
REMARK SMILES IDX 3 1 11 2 12 3 13 4 30 5 2 6 1 7 29 8 28 9 26 10 14 11 4 12
REMARK SMILES IDX 5 13 6 14 7 15 10 16 9 17 8 18 15 20 24 21 16 22 22 23 17 24
REMARK SMILES IDX 20 25 25 26 23 28 18 30 19 31 21 33 27 35
REMARK H PARENT 8 19 25 27 23 29 19 32 21 34 27 36
REMARK Flexibility Score: inf
ROOT
ATOM      1  C   UNL     1      34.739  22.723  20.070  1.00  0.00     0.065 A 
ATOM      2  C   UNL     1      34.847  23.796  19.179  1.00  0.00     0.208 A 
ATOM      3  O   UNL     1      34.811  25.045  19.621  1.00  0.00    -0.463 OA
ATOM      4  C   UNL     1      34.714  25.358  20.916  1.00  0.00     0.147 A 
ATOM      5  C   UNL     1      34.689  24.323  21.885  1.00  0.00     0.066 A 
ATOM      6  C   UNL     1      34.651  22.987  21.445  1.00  0.00     0.200 A 
ATOM      7  O   UNL     1      34.541  22.041  22.272  1.00  0.00    -0.288 OA
ATOM      8  C   UNL     1      34.698  24.643  23.245  1.00  0.00     0.020 A 
ATOM      9  C   UNL     1      34.743  25.974  23.645  1.00  0.00     0.047 A 
ATOM     10  C   UNL     1      34.729  27.013  22.703  1.00  0.00     0.125 A 
ATOM     11  C   UNL     1      34.649  26.724  21.311  1.00  0.00     0.069 A 
ENDROOT
BRANCH   1  12
ATOM     12  C   UNL     1      34.617  21.347  19.553  1.00  0.00    -0.011 A 
ATOM     13  C   UNL     1      35.487  20.908  18.550  1.00  0.00     0.013 A 
ATOM     14  C   UNL     1      35.396  19.605  18.060  1.00  0.00     0.047 A 
ATOM     15  C   UNL     1      34.442  18.724  18.578  1.00  0.00     0.115 A 
ATOM     16  C   UNL     1      33.640  20.475  20.056  1.00  0.00     0.013 A 
ATOM     17  C   UNL     1      33.550  19.167  19.566  1.00  0.00     0.047 A 
BRANCH  15  18
ATOM     18  O   UNL     1      34.398  17.412  18.109  1.00  0.00    -0.508 OA
ATOM     19  H   UNL     1      33.636  16.790  18.340  1.00  0.00     0.293 HD
ENDBRANCH  15  18
ENDBRANCH   1  12
BRANCH  11  20
ATOM     20  C   UNL     1      34.307  27.787  20.237  1.00  0.00     0.188 C 
ATOM     21  C   UNL     1      33.324  28.952  20.586  1.00  0.00     0.179 C 
ATOM     22  O   UNL     1      34.046  27.191  18.977  1.00  0.00    -0.362 OA
ATOM     23  C   UNL     1      31.855  28.697  20.148  1.00  0.00     0.177 C 
ATOM     24  C   UNL     1      32.725  26.700  18.871  1.00  0.00     0.176 C 
ATOM     25  C   UNL     1      31.724  27.868  18.844  1.00  0.00     0.177 C 
BRANCH  21  26
ATOM     26  O   UNL     1      33.792  30.125  19.953  1.00  0.00    -0.387 OA
ATOM     27  H   UNL     1      33.641  30.881  20.571  1.00  0.00     0.211 HD
ENDBRANCH  21  26
BRANCH  23  28
ATOM     28  O   UNL     1      31.121  29.901  20.121  1.00  0.00    -0.387 OA
ATOM     29  H   UNL     1      30.766  30.055  19.212  1.00  0.00     0.211 HD
ENDBRANCH  23  28
BRANCH  24  30
ATOM     30  C   UNL     1      32.632  25.847  17.601  1.00  0.00     0.191 C 
BRANCH  30  31
ATOM     31  O   UNL     1      33.716  26.123  16.752  1.00  0.00    -0.394 OA
ATOM     32  H   UNL     1      34.298  25.318  16.771  1.00  0.00     0.210 HD
ENDBRANCH  30  31
ENDBRANCH  24  30
BRANCH  25  33
ATOM     33  O   UNL     1      31.955  28.649  17.697  1.00  0.00    -0.388 OA
ATOM     34  H   UNL     1      32.872  29.020  17.784  1.00  0.00     0.211 HD
ENDBRANCH  25  33
ENDBRANCH  11  20
BRANCH  10  35
ATOM     35  O   UNL     1      34.818  28.318  23.167  1.00  0.00    -0.507 OA
ATOM     36  H   UNL     1      35.508  28.583  23.868  1.00  0.00     0.293 HD
ENDBRANCH  10  35
TORSDOF 9
ENDMDL
MODEL 6
REMARK VINA RESULT:     0.380      2.157      5.095
REMARK INTER + INTRA:           0.759
REMARK INTER:                  -0.097
REMARK INTRA:                   0.856
REMARK UNBOUND:                 0.246
REMARK SMILES O=c1c(-c2ccc(O)cc2)coc2c([C@H]3O[C@H](CO)[C@H](O)[C@H](O)[C@@H]3O)c(O)ccc12
REMARK SMILES IDX 3 1 11 2 12 3 13 4 30 5 2 6 1 7 29 8 28 9 26 10 14 11 4 12
REMARK SMILES IDX 5 13 6 14 7 15 10 16 9 17 8 18 15 20 24 21 16 22 22 23 17 24
REMARK SMILES IDX 20 25 25 26 23 28 18 30 19 31 21 33 27 35
REMARK H PARENT 8 19 25 27 23 29 19 32 21 34 27 36
REMARK Flexibility Score: inf
ROOT
ATOM      1  C   UNL     1      33.994  26.042  18.541  1.00  0.00     0.065 A 
ATOM      2  C   UNL     1      34.429  27.061  19.396  1.00  0.00     0.208 A 
ATOM      3  O   UNL     1      34.758  26.793  20.651  1.00  0.00    -0.463 OA
ATOM      4  C   UNL     1      34.736  25.559  21.164  1.00  0.00     0.147 A 
ATOM      5  C   UNL     1      34.391  24.464  20.332  1.00  0.00     0.066 A 
ATOM      6  C   UNL     1      33.966  24.722  19.016  1.00  0.00     0.200 A 
ATOM      7  O   UNL     1      33.567  23.784  18.273  1.00  0.00    -0.288 OA
ATOM      8  C   UNL     1      34.472  23.161  20.830  1.00  0.00     0.020 A 
ATOM      9  C   UNL     1      34.903  22.940  22.134  1.00  0.00     0.047 A 
ATOM     10  C   UNL     1      35.211  24.013  22.983  1.00  0.00     0.125 A 
ATOM     11  C   UNL     1      35.073  25.356  22.532  1.00  0.00     0.069 A 
ENDROOT
BRANCH   1  12
ATOM     12  C   UNL     1      33.479  26.376  17.200  1.00  0.00    -0.011 A 
ATOM     13  C   UNL     1      33.615  25.452  16.160  1.00  0.00     0.013 A 
ATOM     14  C   UNL     1      33.120  25.746  14.889  1.00  0.00     0.047 A 
ATOM     15  C   UNL     1      32.473  26.962  14.649  1.00  0.00     0.115 A 
ATOM     16  C   UNL     1      32.856  27.609  16.958  1.00  0.00     0.013 A 
ATOM     17  C   UNL     1      32.357  27.902  15.683  1.00  0.00     0.047 A 
BRANCH  15  18
ATOM     18  O   UNL     1      31.943  27.216  13.386  1.00  0.00    -0.508 OA
ATOM     19  H   UNL     1      31.487  28.091  13.166  1.00  0.00     0.293 HD
ENDBRANCH  15  18
ENDBRANCH   1  12
BRANCH  11  20
ATOM     20  C   UNL     1      35.078  26.581  23.480  1.00  0.00     0.188 C 
ATOM     21  C   UNL     1      34.103  27.774  23.208  1.00  0.00     0.179 C 
ATOM     22  O   UNL     1      36.397  26.994  23.794  1.00  0.00    -0.362 OA
ATOM     23  C   UNL     1      34.745  28.952  22.423  1.00  0.00     0.177 C 
ATOM     24  C   UNL     1      36.966  27.807  22.787  1.00  0.00     0.176 C 
ATOM     25  C   UNL     1      36.250  29.167  22.734  1.00  0.00     0.177 C 
BRANCH  21  26
ATOM     26  O   UNL     1      33.640  28.253  24.454  1.00  0.00    -0.387 OA
ATOM     27  H   UNL     1      34.424  28.356  25.047  1.00  0.00     0.211 HD
ENDBRANCH  21  26
BRANCH  23  28
ATOM     28  O   UNL     1      33.973  30.125  22.557  1.00  0.00    -0.387 OA
ATOM     29  H   UNL     1      33.468  30.097  23.406  1.00  0.00     0.211 HD
ENDBRANCH  23  28
BRANCH  24  30
ATOM     30  C   UNL     1      38.460  27.967  23.089  1.00  0.00     0.191 C 
BRANCH  30  31
ATOM     31  O   UNL     1      38.808  29.328  23.106  1.00  0.00    -0.394 OA
ATOM     32  H   UNL     1      38.168  29.788  22.502  1.00  0.00     0.210 HD
ENDBRANCH  30  31
ENDBRANCH  24  30
BRANCH  25  33
ATOM     33  O   UNL     1      36.445  29.842  23.953  1.00  0.00    -0.388 OA
ATOM     34  H   UNL     1      37.309  30.327  23.875  1.00  0.00     0.211 HD
ENDBRANCH  25  33
ENDBRANCH  11  20
BRANCH  10  35
ATOM     35  O   UNL     1      35.675  23.723  24.260  1.00  0.00    -0.507 OA
ATOM     36  H   UNL     1      36.224  22.886  24.444  1.00  0.00     0.293 HD
ENDBRANCH  10  35
TORSDOF 9
ENDMDL
