MODEL 1
REMARK VINA RESULT:    -4.059      0.000      0.000
REMARK INTER + INTRA:          -9.050
REMARK INTER:                  -7.855
REMARK INTRA:                  -1.195
REMARK UNBOUND:                -1.195
REMARK SMILES CCCCCCCCCCCCCCCCCC(=O)[O-]
REMARK SMILES IDX 10 1 11 2 12 3 13 4 14 5 15 6 16 7 17 8 18 9 19 10 20 11
REMARK SMILES IDX 9 12 8 13 7 14 6 15 5 16 4 17 3 18 2 19 1 20
REMARK H PARENT
REMARK Flexibility Score: inf
ROOT
ATOM      1  C   UNL     1      32.146  -0.618  42.556  1.00  0.00     0.000 C 
ENDROOT
BRANCH   1   2
ATOM      2  C   UNL     1      32.601   0.689  41.890  1.00  0.00     0.000 C 
BRANCH   2   3
ATOM      3  C   UNL     1      34.127   0.829  41.937  1.00  0.00     0.000 C 
BRANCH   3   4
ATOM      4  C   UNL     1      34.806  -0.548  41.939  1.00  0.00     0.000 C 
BRANCH   4   5
ATOM      5  C   UNL     1      36.325  -0.466  42.167  1.00  0.00     0.000 C 
BRANCH   5   6
ATOM      6  C   UNL     1      36.840  -1.198  43.424  1.00  0.00     0.000 C 
BRANCH   6   7
ATOM      7  C   UNL     1      37.578  -2.521  43.151  1.00  0.00     0.006 C 
BRANCH   7   8
ATOM      8  C   UNL     1      36.935  -3.719  43.861  1.00  0.00     0.053 C 
BRANCH   8   9
ATOM      9  C   UNL     1      35.609  -4.040  43.247  1.00  0.00     0.041 C 
ATOM     10  O   UNL     1      34.665  -4.464  43.963  1.00  0.00    -0.550 OA
ATOM     11  O   UNL     1      35.431  -3.918  41.875  1.00  0.00    -0.550 OA
ENDBRANCH   8   9
ENDBRANCH   7   8
ENDBRANCH   6   7
ENDBRANCH   5   6
ENDBRANCH   4   5
ENDBRANCH   3   4
ENDBRANCH   2   3
ENDBRANCH   1   2
BRANCH   1  12
ATOM     12  C   UNL     1      30.646  -0.901  42.361  1.00  0.00     0.000 C 
BRANCH  12  13
ATOM     13  C   UNL     1      29.913  -1.416  43.614  1.00  0.00    -0.000 C 
BRANCH  13  14
ATOM     14  C   UNL     1      30.660  -1.102  44.917  1.00  0.00    -0.000 C 
BRANCH  14  15
ATOM     15  C   UNL     1      30.531  -2.261  45.917  1.00  0.00    -0.000 C 
BRANCH  15  16
ATOM     16  C   UNL     1      29.860  -3.507  45.311  1.00  0.00    -0.000 C 
BRANCH  16  17
ATOM     17  C   UNL     1      28.460  -3.829  45.865  1.00  0.00    -0.000 C 
BRANCH  17  18
ATOM     18  C   UNL     1      27.669  -2.573  46.264  1.00  0.00    -0.000 C 
BRANCH  18  19
ATOM     19  C   UNL     1      26.628  -2.856  47.359  1.00  0.00    -0.003 C 
ATOM     20  C   UNL     1      26.673  -4.299  47.861  1.00  0.00     0.004 C 
ENDBRANCH  18  19
ENDBRANCH  17  18
ENDBRANCH  16  17
ENDBRANCH  15  16
ENDBRANCH  14  15
ENDBRANCH  13  14
ENDBRANCH  12  13
ENDBRANCH   1  12
TORSDOF 16
ENDMDL
MODEL 2
REMARK VINA RESULT:    -4.049      3.175      7.729
REMARK INTER + INTRA:          -9.031
REMARK INTER:                  -7.982
REMARK INTRA:                  -1.049
REMARK UNBOUND:                -1.195
REMARK SMILES CCCCCCCCCCCCCCCCCC(=O)[O-]
REMARK SMILES IDX 10 1 11 2 12 3 13 4 14 5 15 6 16 7 17 8 18 9 19 10 20 11
REMARK SMILES IDX 9 12 8 13 7 14 6 15 5 16 4 17 3 18 2 19 1 20
REMARK H PARENT
REMARK Flexibility Score: inf
ROOT
ATOM      1  C   UNL     1      32.923  -0.093  42.782  1.00  0.00     0.000 C 
ENDROOT
BRANCH   1   2
ATOM      2  C   UNL     1      31.626  -0.418  42.026  1.00  0.00     0.000 C 
BRANCH   2   3
ATOM      3  C   UNL     1      30.579  -1.029  42.965  1.00  0.00     0.000 C 
BRANCH   3   4
ATOM      4  C   UNL     1      31.250  -1.748  44.143  1.00  0.00     0.000 C 
BRANCH   4   5
ATOM      5  C   UNL     1      30.672  -1.331  45.507  1.00  0.00     0.000 C 
BRANCH   5   6
ATOM      6  C   UNL     1      29.134  -1.214  45.558  1.00  0.00     0.000 C 
BRANCH   6   7
ATOM      7  C   UNL     1      28.370  -2.490  45.162  1.00  0.00     0.006 C 
BRANCH   7   8
ATOM      8  C   UNL     1      28.429  -3.579  46.241  1.00  0.00     0.053 C 
BRANCH   8   9
ATOM      9  C   UNL     1      27.172  -3.578  47.052  1.00  0.00     0.041 C 
ATOM     10  O   UNL     1      26.481  -2.529  47.149  1.00  0.00    -0.550 OA
ATOM     11  O   UNL     1      26.788  -4.721  47.740  1.00  0.00    -0.550 OA
ENDBRANCH   8   9
ENDBRANCH   7   8
ENDBRANCH   6   7
ENDBRANCH   5   6
ENDBRANCH   4   5
ENDBRANCH   3   4
ENDBRANCH   2   3
ENDBRANCH   1   2
BRANCH   1  12
ATOM     12  C   UNL     1      33.750   1.016  42.107  1.00  0.00     0.000 C 
BRANCH  12  13
ATOM     13  C   UNL     1      35.265   0.751  42.045  1.00  0.00    -0.000 C 
BRANCH  13  14
ATOM     14  C   UNL     1      35.632  -0.707  42.357  1.00  0.00    -0.000 C 
BRANCH  14  15
ATOM     15  C   UNL     1      36.571  -0.789  43.569  1.00  0.00    -0.000 C 
BRANCH  15  16
ATOM     16  C   UNL     1      37.774  -1.722  43.336  1.00  0.00    -0.000 C 
BRANCH  16  17
ATOM     17  C   UNL     1      37.679  -2.611  42.083  1.00  0.00    -0.000 C 
BRANCH  17  18
ATOM     18  C   UNL     1      37.226  -4.046  42.399  1.00  0.00    -0.000 C 
BRANCH  18  19
ATOM     19  C   UNL     1      36.576  -4.165  43.787  1.00  0.00    -0.003 C 
ATOM     20  C   UNL     1      35.050  -4.224  43.724  1.00  0.00     0.004 C 
ENDBRANCH  18  19
ENDBRANCH  17  18
ENDBRANCH  16  17
ENDBRANCH  15  16
ENDBRANCH  14  15
ENDBRANCH  13  14
ENDBRANCH  12  13
ENDBRANCH   1  12
TORSDOF 16
ENDMDL
MODEL 3
REMARK VINA RESULT:    -4.024      0.839      1.494
REMARK INTER + INTRA:          -8.983
REMARK INTER:                  -8.116
REMARK INTRA:                  -0.867
REMARK UNBOUND:                -1.195
REMARK SMILES CCCCCCCCCCCCCCCCCC(=O)[O-]
REMARK SMILES IDX 10 1 11 2 12 3 13 4 14 5 15 6 16 7 17 8 18 9 19 10 20 11
REMARK SMILES IDX 9 12 8 13 7 14 6 15 5 16 4 17 3 18 2 19 1 20
REMARK H PARENT
REMARK Flexibility Score: inf
ROOT
ATOM      1  C   UNL     1      33.547  -0.478  42.210  1.00  0.00     0.000 C 
ENDROOT
BRANCH   1   2
ATOM      2  C   UNL     1      34.215   0.905  42.191  1.00  0.00     0.000 C 
BRANCH   2   3
ATOM      3  C   UNL     1      35.734   0.780  42.024  1.00  0.00     0.000 C 
BRANCH   3   4
ATOM      4  C   UNL     1      36.177  -0.688  42.095  1.00  0.00     0.000 C 
BRANCH   4   5
ATOM      5  C   UNL     1      36.947  -1.019  43.386  1.00  0.00     0.000 C 
BRANCH   5   6
ATOM      6  C   UNL     1      38.146  -1.973  43.206  1.00  0.00     0.000 C 
BRANCH   6   7
ATOM      7  C   UNL     1      37.775  -3.440  42.925  1.00  0.00     0.006 C 
BRANCH   7   8
ATOM      8  C   UNL     1      36.806  -4.019  43.964  1.00  0.00     0.053 C 
BRANCH   8   9
ATOM      9  C   UNL     1      35.430  -4.127  43.390  1.00  0.00     0.041 C 
ATOM     10  O   UNL     1      35.218  -3.816  42.189  1.00  0.00    -0.550 OA
ATOM     11  O   UNL     1      34.370  -4.525  44.195  1.00  0.00    -0.550 OA
ENDBRANCH   8   9
ENDBRANCH   7   8
ENDBRANCH   6   7
ENDBRANCH   5   6
ENDBRANCH   4   5
ENDBRANCH   3   4
ENDBRANCH   2   3
ENDBRANCH   1   2
BRANCH   1  12
ATOM     12  C   UNL     1      32.304  -0.532  43.115  1.00  0.00     0.000 C 
BRANCH  12  13
ATOM     13  C   UNL     1      30.973  -0.770  42.379  1.00  0.00    -0.000 C 
BRANCH  13  14
ATOM     14  C   UNL     1      29.895  -1.397  43.274  1.00  0.00    -0.000 C 
BRANCH  14  15
ATOM     15  C   UNL     1      30.525  -2.053  44.513  1.00  0.00    -0.000 C 
BRANCH  15  16
ATOM     16  C   UNL     1      29.875  -1.595  45.832  1.00  0.00    -0.000 C 
BRANCH  16  17
ATOM     17  C   UNL     1      28.834  -2.567  46.419  1.00  0.00    -0.000 C 
BRANCH  17  18
ATOM     18  C   UNL     1      27.392  -2.053  46.283  1.00  0.00    -0.000 C 
BRANCH  18  19
ATOM     19  C   UNL     1      26.372  -2.971  46.976  1.00  0.00    -0.003 C 
ATOM     20  C   UNL     1      26.987  -3.790  48.111  1.00  0.00     0.004 C 
ENDBRANCH  18  19
ENDBRANCH  17  18
ENDBRANCH  16  17
ENDBRANCH  15  16
ENDBRANCH  14  15
ENDBRANCH  13  14
ENDBRANCH  12  13
ENDBRANCH   1  12
TORSDOF 16
ENDMDL
MODEL 4
REMARK VINA RESULT:    -3.592      1.521      2.264
REMARK INTER + INTRA:          -8.147
REMARK INTER:                  -6.830
REMARK INTRA:                  -1.317
REMARK UNBOUND:                -1.195
REMARK SMILES CCCCCCCCCCCCCCCCCC(=O)[O-]
REMARK SMILES IDX 10 1 11 2 12 3 13 4 14 5 15 6 16 7 17 8 18 9 19 10 20 11
REMARK SMILES IDX 9 12 8 13 7 14 6 15 5 16 4 17 3 18 2 19 1 20
REMARK H PARENT
REMARK Flexibility Score: inf
ROOT
ATOM      1  C   UNL     1      33.085  -0.617  42.523  1.00  0.00     0.000 C 
ENDROOT
BRANCH   1   2
ATOM      2  C   UNL     1      33.541   0.804  42.159  1.00  0.00     0.000 C 
BRANCH   2   3
ATOM      3  C   UNL     1      35.067   0.875  42.027  1.00  0.00     0.000 C 
BRANCH   3   4
ATOM      4  C   UNL     1      35.750  -0.089  43.006  1.00  0.00     0.000 C 
BRANCH   4   5
ATOM      5  C   UNL     1      36.831  -0.956  42.336  1.00  0.00     0.000 C 
BRANCH   5   6
ATOM      6  C   UNL     1      37.708  -1.774  43.306  1.00  0.00     0.000 C 
BRANCH   6   7
ATOM      7  C   UNL     1      37.781  -3.282  43.005  1.00  0.00     0.006 C 
BRANCH   7   8
ATOM      8  C   UNL     1      36.847  -4.112  43.896  1.00  0.00     0.053 C 
BRANCH   8   9
ATOM      9  C   UNL     1      35.455  -4.098  43.349  1.00  0.00     0.041 C 
ATOM     10  O   UNL     1      35.249  -3.779  42.148  1.00  0.00    -0.550 OA
ATOM     11  O   UNL     1      34.380  -4.389  44.178  1.00  0.00    -0.550 OA
ENDBRANCH   8   9
ENDBRANCH   7   8
ENDBRANCH   6   7
ENDBRANCH   5   6
ENDBRANCH   4   5
ENDBRANCH   3   4
ENDBRANCH   2   3
ENDBRANCH   1   2
BRANCH   1  12
ATOM     12  C   UNL     1      31.622  -0.676  42.997  1.00  0.00     0.000 C 
BRANCH  12  13
ATOM     13  C   UNL     1      30.602  -1.062  41.910  1.00  0.00    -0.000 C 
BRANCH  13  14
ATOM     14  C   UNL     1      29.294  -0.262  42.004  1.00  0.00    -0.000 C 
BRANCH  14  15
ATOM     15  C   UNL     1      28.137  -1.156  42.475  1.00  0.00    -0.000 C 
BRANCH  15  16
ATOM     16  C   UNL     1      28.614  -2.426  43.204  1.00  0.00    -0.000 C 
BRANCH  16  17
ATOM     17  C   UNL     1      28.216  -2.516  44.689  1.00  0.00    -0.000 C 
BRANCH  17  18
ATOM     18  C   UNL     1      28.292  -1.161  45.412  1.00  0.00    -0.000 C 
BRANCH  18  19
ATOM     19  C   UNL     1      29.682  -0.891  46.011  1.00  0.00    -0.003 C 
ATOM     20  C   UNL     1      30.447  -2.174  46.337  1.00  0.00     0.004 C 
ENDBRANCH  18  19
ENDBRANCH  17  18
ENDBRANCH  16  17
ENDBRANCH  15  16
ENDBRANCH  14  15
ENDBRANCH  13  14
ENDBRANCH  12  13
ENDBRANCH   1  12
TORSDOF 16
ENDMDL
MODEL 5
REMARK VINA RESULT:    -3.454      1.892      7.135
REMARK INTER + INTRA:          -7.879
REMARK INTER:                  -6.506
REMARK INTRA:                  -1.373
REMARK UNBOUND:                -1.195
REMARK SMILES CCCCCCCCCCCCCCCCCC(=O)[O-]
REMARK SMILES IDX 10 1 11 2 12 3 13 4 14 5 15 6 16 7 17 8 18 9 19 10 20 11
REMARK SMILES IDX 9 12 8 13 7 14 6 15 5 16 4 17 3 18 2 19 1 20
REMARK H PARENT
REMARK Flexibility Score: inf
ROOT
ATOM      1  C   UNL     1      32.022  -0.713  43.219  1.00  0.00     0.000 C 
ENDROOT
BRANCH   1   2
ATOM      2  C   UNL     1      30.756  -1.369  42.650  1.00  0.00     0.000 C 
BRANCH   2   3
ATOM      3  C   UNL     1      29.909  -0.352  41.875  1.00  0.00     0.000 C 
BRANCH   3   4
ATOM      4  C   UNL     1      28.413  -0.555  42.153  1.00  0.00     0.000 C 
BRANCH   4   5
ATOM      5  C   UNL     1      28.146  -1.564  43.284  1.00  0.00     0.000 C 
BRANCH   5   6
ATOM      6  C   UNL     1      27.937  -0.941  44.680  1.00  0.00     0.000 C 
BRANCH   6   7
ATOM      7  C   UNL     1      28.289  -1.859  45.864  1.00  0.00     0.006 C 
BRANCH   7   8
ATOM      8  C   UNL     1      29.801  -2.063  46.030  1.00  0.00     0.053 C 
BRANCH   8   9
ATOM      9  C   UNL     1      30.219  -3.371  45.436  1.00  0.00     0.041 C 
ATOM     10  O   UNL     1      29.360  -4.259  45.192  1.00  0.00    -0.550 OA
ATOM     11  O   UNL     1      31.562  -3.628  45.196  1.00  0.00    -0.550 OA
ENDBRANCH   8   9
ENDBRANCH   7   8
ENDBRANCH   6   7
ENDBRANCH   5   6
ENDBRANCH   4   5
ENDBRANCH   3   4
ENDBRANCH   2   3
ENDBRANCH   1   2
BRANCH   1  12
ATOM     12  C   UNL     1      33.155  -0.597  42.184  1.00  0.00     0.000 C 
BRANCH  12  13
ATOM     13  C   UNL     1      33.663   0.835  41.933  1.00  0.00    -0.000 C 
BRANCH  13  14
ATOM     14  C   UNL     1      35.189   0.959  42.043  1.00  0.00    -0.000 C 
BRANCH  14  15
ATOM     15  C   UNL     1      35.857  -0.424  41.986  1.00  0.00    -0.000 C 
BRANCH  15  16
ATOM     16  C   UNL     1      36.565  -0.804  43.300  1.00  0.00    -0.000 C 
BRANCH  16  17
ATOM     17  C   UNL     1      37.630  -1.909  43.172  1.00  0.00    -0.000 C 
BRANCH  17  18
ATOM     18  C   UNL     1      37.049  -3.248  42.688  1.00  0.00    -0.000 C 
BRANCH  18  19
ATOM     19  C   UNL     1      36.462  -4.084  43.836  1.00  0.00    -0.003 C 
ATOM     20  C   UNL     1      34.934  -4.136  43.810  1.00  0.00     0.004 C 
ENDBRANCH  18  19
ENDBRANCH  17  18
ENDBRANCH  16  17
ENDBRANCH  15  16
ENDBRANCH  14  15
ENDBRANCH  13  14
ENDBRANCH  12  13
ENDBRANCH   1  12
TORSDOF 16
ENDMDL
MODEL 6
REMARK VINA RESULT:    -3.304      2.992      8.122
REMARK INTER + INTRA:          -7.590
REMARK INTER:                  -6.554
REMARK INTRA:                  -1.036
REMARK UNBOUND:                -1.195
REMARK SMILES CCCCCCCCCCCCCCCCCC(=O)[O-]
REMARK SMILES IDX 10 1 11 2 12 3 13 4 14 5 15 6 16 7 17 8 18 9 19 10 20 11
REMARK SMILES IDX 9 12 8 13 7 14 6 15 5 16 4 17 3 18 2 19 1 20
REMARK H PARENT
REMARK Flexibility Score: inf
ROOT
ATOM      1  C   UNL     1      31.806  -0.743  44.103  1.00  0.00     0.000 C 
ENDROOT
BRANCH   1   2
ATOM      2  C   UNL     1      31.836  -2.218  44.530  1.00  0.00     0.000 C 
BRANCH   2   3
ATOM      3  C   UNL     1      30.817  -2.490  45.643  1.00  0.00     0.000 C 
BRANCH   3   4
ATOM      4  C   UNL     1      29.663  -3.362  45.133  1.00  0.00     0.000 C 
BRANCH   4   5
ATOM      5  C   UNL     1      28.630  -2.568  44.313  1.00  0.00     0.000 C 
BRANCH   5   6
ATOM      6  C   UNL     1      27.886  -1.463  45.092  1.00  0.00     0.000 C 
BRANCH   6   7
ATOM      7  C   UNL     1      27.685  -1.745  46.591  1.00  0.00     0.006 C 
BRANCH   7   8
ATOM      8  C   UNL     1      26.496  -2.674  46.869  1.00  0.00     0.053 C 
BRANCH   8   9
ATOM      9  C   UNL     1      26.918  -3.815  47.738  1.00  0.00     0.041 C 
ATOM     10  O   UNL     1      27.241  -4.918  47.224  1.00  0.00    -0.550 OA
ATOM     11  O   UNL     1      26.907  -3.677  49.120  1.00  0.00    -0.550 OA
ENDBRANCH   8   9
ENDBRANCH   7   8
ENDBRANCH   6   7
ENDBRANCH   5   6
ENDBRANCH   4   5
ENDBRANCH   3   4
ENDBRANCH   2   3
ENDBRANCH   1   2
BRANCH   1  12
ATOM     12  C   UNL     1      31.927  -0.556  42.580  1.00  0.00     0.000 C 
BRANCH  12  13
ATOM     13  C   UNL     1      33.364  -0.601  42.031  1.00  0.00    -0.000 C 
BRANCH  13  14
ATOM     14  C   UNL     1      34.109   0.732  42.191  1.00  0.00    -0.000 C 
BRANCH  14  15
ATOM     15  C   UNL     1      35.630   0.514  42.194  1.00  0.00    -0.000 C 
BRANCH  15  16
ATOM     16  C   UNL     1      36.025  -0.974  42.154  1.00  0.00    -0.000 C 
BRANCH  16  17
ATOM     17  C   UNL     1      36.767  -1.486  43.402  1.00  0.00    -0.000 C 
BRANCH  17  18
ATOM     18  C   UNL     1      37.685  -2.683  43.104  1.00  0.00    -0.000 C 
BRANCH  18  19
ATOM     19  C   UNL     1      36.998  -4.032  43.374  1.00  0.00    -0.003 C 
ATOM     20  C   UNL     1      35.501  -3.891  43.649  1.00  0.00     0.004 C 
ENDBRANCH  18  19
ENDBRANCH  17  18
ENDBRANCH  16  17
ENDBRANCH  15  16
ENDBRANCH  14  15
ENDBRANCH  13  14
ENDBRANCH  12  13
ENDBRANCH   1  12
TORSDOF 16
ENDMDL
MODEL 7
REMARK VINA RESULT:    -3.132      2.844      7.746
REMARK INTER + INTRA:          -7.257
REMARK INTER:                  -5.479
REMARK INTRA:                  -1.777
REMARK UNBOUND:                -1.195
REMARK SMILES CCCCCCCCCCCCCCCCCC(=O)[O-]
REMARK SMILES IDX 10 1 11 2 12 3 13 4 14 5 15 6 16 7 17 8 18 9 19 10 20 11
REMARK SMILES IDX 9 12 8 13 7 14 6 15 5 16 4 17 3 18 2 19 1 20
REMARK H PARENT
REMARK Flexibility Score: inf
ROOT
ATOM      1  C   UNL     1      34.866  -4.274  43.843  1.00  0.00     0.000 C 
ENDROOT
BRANCH   1   2
ATOM      2  C   UNL     1      33.764  -3.308  44.301  1.00  0.00     0.000 C 
BRANCH   2   3
ATOM      3  C   UNL     1      32.629  -4.061  45.005  1.00  0.00     0.000 C 
BRANCH   3   4
ATOM      4  C   UNL     1      31.321  -3.261  44.953  1.00  0.00     0.000 C 
BRANCH   4   5
ATOM      5  C   UNL     1      31.164  -2.291  46.138  1.00  0.00     0.000 C 
BRANCH   5   6
ATOM      6  C   UNL     1      30.163  -1.139  45.913  1.00  0.00     0.000 C 
BRANCH   6   7
ATOM      7  C   UNL     1      28.920  -1.508  45.084  1.00  0.00     0.006 C 
BRANCH   7   8
ATOM      8  C   UNL     1      27.628  -1.499  45.912  1.00  0.00     0.053 C 
BRANCH   8   9
ATOM      9  C   UNL     1      27.385  -2.847  46.515  1.00  0.00     0.041 C 
ATOM     10  O   UNL     1      28.092  -3.831  46.172  1.00  0.00    -0.550 OA
ATOM     11  O   UNL     1      26.347  -3.027  47.419  1.00  0.00    -0.550 OA
ENDBRANCH   8   9
ENDBRANCH   7   8
ENDBRANCH   6   7
ENDBRANCH   5   6
ENDBRANCH   4   5
ENDBRANCH   3   4
ENDBRANCH   2   3
ENDBRANCH   1   2
BRANCH   1  12
ATOM     12  C   UNL     1      35.446  -3.913  42.464  1.00  0.00     0.000 C 
BRANCH  12  13
ATOM     13  C   UNL     1      36.975  -4.050  42.345  1.00  0.00    -0.000 C 
BRANCH  13  14
ATOM     14  C   UNL     1      37.728  -3.407  43.519  1.00  0.00    -0.000 C 
BRANCH  14  15
ATOM     15  C   UNL     1      38.008  -1.922  43.244  1.00  0.00    -0.000 C 
BRANCH  15  16
ATOM     16  C   UNL     1      36.822  -1.009  43.604  1.00  0.00    -0.000 C 
BRANCH  16  17
ATOM     17  C   UNL     1      36.078  -0.399  42.402  1.00  0.00    -0.000 C 
BRANCH  17  18
ATOM     18  C   UNL     1      34.678   0.124  42.766  1.00  0.00    -0.000 C 
BRANCH  18  19
ATOM     19  C   UNL     1      33.571  -0.513  41.912  1.00  0.00    -0.003 C 
ATOM     20  C   UNL     1      32.192  -0.423  42.565  1.00  0.00     0.004 C 
ENDBRANCH  18  19
ENDBRANCH  17  18
ENDBRANCH  16  17
ENDBRANCH  15  16
ENDBRANCH  14  15
ENDBRANCH  13  14
ENDBRANCH  12  13
ENDBRANCH   1  12
TORSDOF 16
ENDMDL
MODEL 8
REMARK VINA RESULT:    -3.093      1.705      2.832
REMARK INTER + INTRA:          -7.181
REMARK INTER:                  -5.964
REMARK INTRA:                  -1.216
REMARK UNBOUND:                -1.195
REMARK SMILES CCCCCCCCCCCCCCCCCC(=O)[O-]
REMARK SMILES IDX 10 1 11 2 12 3 13 4 14 5 15 6 16 7 17 8 18 9 19 10 20 11
REMARK SMILES IDX 9 12 8 13 7 14 6 15 5 16 4 17 3 18 2 19 1 20
REMARK H PARENT
REMARK Flexibility Score: inf
ROOT
ATOM      1  C   UNL     1      30.848  -1.151  42.070  1.00  0.00     0.000 C 
ENDROOT
BRANCH   1   2
ATOM      2  C   UNL     1      32.145  -0.352  41.875  1.00  0.00     0.000 C 
BRANCH   2   3
ATOM      3  C   UNL     1      32.797  -0.024  43.224  1.00  0.00     0.000 C 
BRANCH   3   4
ATOM      4  C   UNL     1      34.327   0.009  43.102  1.00  0.00     0.000 C 
BRANCH   4   5
ATOM      5  C   UNL     1      34.854  -0.863  41.949  1.00  0.00     0.000 C 
BRANCH   5   6
ATOM      6  C   UNL     1      36.363  -1.179  42.004  1.00  0.00     0.000 C 
BRANCH   6   7
ATOM      7  C   UNL     1      36.952  -1.303  43.420  1.00  0.00     0.006 C 
BRANCH   7   8
ATOM      8  C   UNL     1      38.194  -2.202  43.473  1.00  0.00     0.053 C 
BRANCH   8   9
ATOM      9  C   UNL     1      37.798  -3.643  43.410  1.00  0.00     0.041 C 
ATOM     10  O   UNL     1      38.626  -4.512  43.028  1.00  0.00    -0.550 OA
ATOM     11  O   UNL     1      36.500  -4.021  43.728  1.00  0.00    -0.550 OA
ENDBRANCH   8   9
ENDBRANCH   7   8
ENDBRANCH   6   7
ENDBRANCH   5   6
ENDBRANCH   4   5
ENDBRANCH   3   4
ENDBRANCH   2   3
ENDBRANCH   1   2
BRANCH   1  12
ATOM     12  C   UNL     1      29.584  -0.279  41.961  1.00  0.00     0.000 C 
BRANCH  12  13
ATOM     13  C   UNL     1      28.320  -0.884  42.600  1.00  0.00    -0.000 C 
BRANCH  13  14
ATOM     14  C   UNL     1      28.526  -2.325  43.088  1.00  0.00    -0.000 C 
BRANCH  14  15
ATOM     15  C   UNL     1      28.127  -2.467  44.565  1.00  0.00    -0.000 C 
BRANCH  15  16
ATOM     16  C   UNL     1      28.325  -1.168  45.369  1.00  0.00    -0.000 C 
BRANCH  16  17
ATOM     17  C   UNL     1      29.520  -1.176  46.340  1.00  0.00    -0.000 C 
BRANCH  17  18
ATOM     18  C   UNL     1      30.844  -1.561  45.657  1.00  0.00    -0.000 C 
BRANCH  18  19
ATOM     19  C   UNL     1      30.961  -3.074  45.412  1.00  0.00    -0.003 C 
ATOM     20  C   UNL     1      32.371  -3.501  45.004  1.00  0.00     0.004 C 
ENDBRANCH  18  19
ENDBRANCH  17  18
ENDBRANCH  16  17
ENDBRANCH  15  16
ENDBRANCH  14  15
ENDBRANCH  13  14
ENDBRANCH  12  13
ENDBRANCH   1  12
TORSDOF 16
ENDMDL
MODEL 9
REMARK VINA RESULT:    -2.951      1.437      2.069
REMARK INTER + INTRA:          -6.905
REMARK INTER:                  -6.032
REMARK INTRA:                  -0.874
REMARK UNBOUND:                -1.195
REMARK SMILES CCCCCCCCCCCCCCCCCC(=O)[O-]
REMARK SMILES IDX 10 1 11 2 12 3 13 4 14 5 15 6 16 7 17 8 18 9 19 10 20 11
REMARK SMILES IDX 9 12 8 13 7 14 6 15 5 16 4 17 3 18 2 19 1 20
REMARK H PARENT
REMARK Flexibility Score: inf
ROOT
ATOM      1  C   UNL     1      30.791  -0.769  41.875  1.00  0.00     0.000 C 
ENDROOT
BRANCH   1   2
ATOM      2  C   UNL     1      31.493  -0.746  43.241  1.00  0.00     0.000 C 
BRANCH   2   3
ATOM      3  C   UNL     1      32.978  -1.101  43.104  1.00  0.00     0.000 C 
BRANCH   3   4
ATOM      4  C   UNL     1      33.752   0.026  42.407  1.00  0.00     0.000 C 
BRANCH   4   5
ATOM      5  C   UNL     1      35.213   0.131  42.879  1.00  0.00     0.000 C 
BRANCH   5   6
ATOM      6  C   UNL     1      36.255  -0.485  41.923  1.00  0.00     0.000 C 
BRANCH   6   7
ATOM      7  C   UNL     1      36.474  -2.000  42.085  1.00  0.00     0.006 C 
BRANCH   7   8
ATOM      8  C   UNL     1      37.518  -2.339  43.156  1.00  0.00     0.053 C 
BRANCH   8   9
ATOM      9  C   UNL     1      37.351  -3.752  43.619  1.00  0.00     0.041 C 
ATOM     10  O   UNL     1      38.336  -4.536  43.630  1.00  0.00    -0.550 OA
ATOM     11  O   UNL     1      36.096  -4.217  43.991  1.00  0.00    -0.550 OA
ENDBRANCH   8   9
ENDBRANCH   7   8
ENDBRANCH   6   7
ENDBRANCH   5   6
ENDBRANCH   4   5
ENDBRANCH   3   4
ENDBRANCH   2   3
ENDBRANCH   1   2
BRANCH   1  12
ATOM     12  C   UNL     1      29.380  -1.379  41.935  1.00  0.00     0.000 C 
BRANCH  12  13
ATOM     13  C   UNL     1      28.385  -0.630  42.840  1.00  0.00    -0.000 C 
BRANCH  13  14
ATOM     14  C   UNL     1      27.748  -1.532  43.906  1.00  0.00    -0.000 C 
BRANCH  14  15
ATOM     15  C   UNL     1      27.938  -0.940  45.311  1.00  0.00    -0.000 C 
BRANCH  15  16
ATOM     16  C   UNL     1      29.315  -1.263  45.919  1.00  0.00    -0.000 C 
BRANCH  16  17
ATOM     17  C   UNL     1      29.679  -2.759  45.955  1.00  0.00    -0.000 C 
BRANCH  17  18
ATOM     18  C   UNL     1      28.445  -3.674  46.027  1.00  0.00    -0.000 C 
BRANCH  18  19
ATOM     19  C   UNL     1      27.833  -3.727  47.436  1.00  0.00    -0.003 C 
ATOM     20  C   UNL     1      26.354  -3.339  47.455  1.00  0.00     0.004 C 
ENDBRANCH  18  19
ENDBRANCH  17  18
ENDBRANCH  16  17
ENDBRANCH  15  16
ENDBRANCH  14  15
ENDBRANCH  13  14
ENDBRANCH  12  13
ENDBRANCH   1  12
TORSDOF 16
ENDMDL
