MODEL 1
REMARK VINA RESULT:    -3.255      0.000      0.000
REMARK INTER + INTRA:          -6.041
REMARK INTER:                  -4.967
REMARK INTRA:                  -1.074
REMARK UNBOUND:                -1.074
REMARK SMILES CCCCCCCCCCC(=O)[O-]
REMARK SMILES IDX 7 1 8 2 9 3 10 4 11 5 12 6 13 7 6 8 5 9 4 10 3 11 2 12 1 13
REMARK H PARENT
REMARK Flexibility Score: inf
ROOT
ATOM      1  C   UNL     1      55.394  28.646  51.914  1.00  0.00     0.000 C 
ENDROOT
BRANCH   1   2
ATOM      2  C   UNL     1      56.763  27.937  51.834  1.00  0.00     0.000 C 
BRANCH   2   3
ATOM      3  C   UNL     1      57.176  27.627  50.387  1.00  0.00     0.006 C 
BRANCH   3   4
ATOM      4  C   UNL     1      58.570  28.182  50.082  1.00  0.00     0.053 C 
BRANCH   4   5
ATOM      5  C   UNL     1      59.505  27.075  49.711  1.00  0.00     0.041 C 
ATOM      6  O   UNL     1      59.087  25.889  49.641  1.00  0.00    -0.550 OA
ATOM      7  O   UNL     1      60.849  27.345  49.494  1.00  0.00    -0.550 OA
ENDBRANCH   4   5
ENDBRANCH   3   4
ENDBRANCH   2   3
ENDBRANCH   1   2
BRANCH   1   8
ATOM      8  C   UNL     1      54.730  28.873  50.542  1.00  0.00     0.000 C 
BRANCH   8   9
ATOM      9  C   UNL     1      53.237  28.510  50.471  1.00  0.00    -0.000 C 
BRANCH   9  10
ATOM     10  C   UNL     1      52.959  27.048  50.860  1.00  0.00    -0.000 C 
BRANCH  10  11
ATOM     11  C   UNL     1      53.038  26.094  49.659  1.00  0.00    -0.000 C 
BRANCH  11  12
ATOM     12  C   UNL     1      54.340  25.279  49.634  1.00  0.00    -0.003 C 
ATOM     13  C   UNL     1      54.788  24.916  51.047  1.00  0.00     0.004 C 
ENDBRANCH  11  12
ENDBRANCH  10  11
ENDBRANCH   9  10
ENDBRANCH   8   9
ENDBRANCH   1   8
TORSDOF 9
ENDMDL
MODEL 2
REMARK VINA RESULT:    -3.218      1.310      2.618
REMARK INTER + INTRA:          -5.985
REMARK INTER:                  -4.936
REMARK INTRA:                  -1.049
REMARK UNBOUND:                -1.074
REMARK SMILES CCCCCCCCCCC(=O)[O-]
REMARK SMILES IDX 7 1 8 2 9 3 10 4 11 5 12 6 13 7 6 8 5 9 4 10 3 11 2 12 1 13
REMARK H PARENT
REMARK Flexibility Score: inf
ROOT
ATOM      1  C   UNL     1      57.271  27.539  51.722  1.00  0.00     0.000 C 
ENDROOT
BRANCH   1   2
ATOM      2  C   UNL     1      57.352  28.276  50.368  1.00  0.00     0.000 C 
BRANCH   2   3
ATOM      3  C   UNL     1      58.790  28.679  50.008  1.00  0.00     0.006 C 
BRANCH   3   4
ATOM      4  C   UNL     1      59.583  27.479  49.485  1.00  0.00     0.053 C 
BRANCH   4   5
ATOM      5  C   UNL     1      60.856  27.317  50.253  1.00  0.00     0.041 C 
ATOM      6  O   UNL     1      61.916  26.984  49.661  1.00  0.00    -0.550 OA
ATOM      7  O   UNL     1      60.862  27.483  51.632  1.00  0.00    -0.550 OA
ENDBRANCH   4   5
ENDBRANCH   3   4
ENDBRANCH   2   3
ENDBRANCH   1   2
BRANCH   1   8
ATOM      8  C   UNL     1      56.568  26.169  51.644  1.00  0.00     0.000 C 
BRANCH   8   9
ATOM      9  C   UNL     1      56.177  25.716  50.228  1.00  0.00    -0.000 C 
BRANCH   9  10
ATOM     10  C   UNL     1      54.683  25.370  50.103  1.00  0.00    -0.000 C 
BRANCH  10  11
ATOM     11  C   UNL     1      53.786  26.346  50.880  1.00  0.00    -0.000 C 
BRANCH  11  12
ATOM     12  C   UNL     1      53.326  27.537  50.026  1.00  0.00    -0.003 C 
ATOM     13  C   UNL     1      53.741  28.861  50.662  1.00  0.00     0.004 C 
ENDBRANCH  11  12
ENDBRANCH  10  11
ENDBRANCH   9  10
ENDBRANCH   8   9
ENDBRANCH   1   8
TORSDOF 9
ENDMDL
MODEL 3
REMARK VINA RESULT:    -3.213      1.577      2.736
REMARK INTER + INTRA:          -5.978
REMARK INTER:                  -4.992
REMARK INTRA:                  -0.986
REMARK UNBOUND:                -1.074
REMARK SMILES CCCCCCCCCCC(=O)[O-]
REMARK SMILES IDX 7 1 8 2 9 3 10 4 11 5 12 6 13 7 6 8 5 9 4 10 3 11 2 12 1 13
REMARK H PARENT
REMARK Flexibility Score: inf
ROOT
ATOM      1  C   UNL     1      58.892  29.028  51.259  1.00  0.00     0.000 C 
ENDROOT
BRANCH   1   2
ATOM      2  C   UNL     1      58.698  28.391  49.865  1.00  0.00     0.000 C 
BRANCH   2   3
ATOM      3  C   UNL     1      59.591  27.159  49.657  1.00  0.00     0.006 C 
BRANCH   3   4
ATOM      4  C   UNL     1      58.774  25.867  49.737  1.00  0.00     0.053 C 
BRANCH   4   5
ATOM      5  C   UNL     1      59.195  25.053  50.918  1.00  0.00     0.041 C 
ATOM      6  O   UNL     1      59.428  23.822  50.789  1.00  0.00    -0.550 OA
ATOM      7  O   UNL     1      59.281  25.641  52.173  1.00  0.00    -0.550 OA
ENDBRANCH   4   5
ENDBRANCH   3   4
ENDBRANCH   2   3
ENDBRANCH   1   2
BRANCH   1   8
ATOM      8  C   UNL     1      57.596  29.118  52.088  1.00  0.00     0.000 C 
BRANCH   8   9
ATOM      9  C   UNL     1      56.548  28.035  51.780  1.00  0.00    -0.000 C 
BRANCH   9  10
ATOM     10  C   UNL     1      55.239  28.616  51.217  1.00  0.00    -0.000 C 
BRANCH  10  11
ATOM     11  C   UNL     1      54.496  27.621  50.311  1.00  0.00    -0.000 C 
BRANCH  11  12
ATOM     12  C   UNL     1      55.156  26.235  50.286  1.00  0.00    -0.003 C 
ATOM     13  C   UNL     1      54.250  25.208  49.612  1.00  0.00     0.004 C 
ENDBRANCH  11  12
ENDBRANCH  10  11
ENDBRANCH   9  10
ENDBRANCH   8   9
ENDBRANCH   1   8
TORSDOF 9
ENDMDL
MODEL 4
REMARK VINA RESULT:    -3.197     12.383     13.781
REMARK INTER + INTRA:          -5.954
REMARK INTER:                  -5.083
REMARK INTRA:                  -0.870
REMARK UNBOUND:                -1.074
REMARK SMILES CCCCCCCCCCC(=O)[O-]
REMARK SMILES IDX 7 1 8 2 9 3 10 4 11 5 12 6 13 7 6 8 5 9 4 10 3 11 2 12 1 13
REMARK H PARENT
REMARK Flexibility Score: inf
ROOT
ATOM      1  C   UNL     1      63.603  31.814  60.762  1.00  0.00     0.000 C 
ENDROOT
BRANCH   1   2
ATOM      2  C   UNL     1      62.081  31.818  60.499  1.00  0.00     0.000 C 
BRANCH   2   3
ATOM      3  C   UNL     1      61.324  30.867  61.438  1.00  0.00     0.006 C 
BRANCH   3   4
ATOM      4  C   UNL     1      62.218  29.707  61.883  1.00  0.00     0.053 C 
BRANCH   4   5
ATOM      5  C   UNL     1      61.794  28.435  61.220  1.00  0.00     0.041 C 
ATOM      6  O   UNL     1      60.851  28.438  60.386  1.00  0.00    -0.550 OA
ATOM      7  O   UNL     1      62.407  27.236  61.562  1.00  0.00    -0.550 OA
ENDBRANCH   4   5
ENDBRANCH   3   4
ENDBRANCH   2   3
ENDBRANCH   1   2
BRANCH   1   8
ATOM      8  C   UNL     1      64.215  33.222  60.896  1.00  0.00     0.000 C 
BRANCH   8   9
ATOM      9  C   UNL     1      63.403  34.352  60.240  1.00  0.00    -0.000 C 
BRANCH   9  10
ATOM     10  C   UNL     1      63.003  35.455  61.236  1.00  0.00    -0.000 C 
BRANCH  10  11
ATOM     11  C   UNL     1      61.586  35.991  60.983  1.00  0.00    -0.000 C 
BRANCH  11  12
ATOM     12  C   UNL     1      60.850  35.223  59.874  1.00  0.00    -0.003 C 
ATOM     13  C   UNL     1      59.580  34.569  60.410  1.00  0.00     0.004 C 
ENDBRANCH  11  12
ENDBRANCH  10  11
ENDBRANCH   9  10
ENDBRANCH   8   9
ENDBRANCH   1   8
TORSDOF 9
ENDMDL
MODEL 5
REMARK VINA RESULT:    -3.173      2.770      5.803
REMARK INTER + INTRA:          -5.917
REMARK INTER:                  -5.355
REMARK INTRA:                  -0.562
REMARK UNBOUND:                -1.074
REMARK SMILES CCCCCCCCCCC(=O)[O-]
REMARK SMILES IDX 7 1 8 2 9 3 10 4 11 5 12 6 13 7 6 8 5 9 4 10 3 11 2 12 1 13
REMARK H PARENT
REMARK Flexibility Score: inf
ROOT
ATOM      1  C   UNL     1      56.912  27.636  50.641  1.00  0.00     0.000 C 
ENDROOT
BRANCH   1   2
ATOM      2  C   UNL     1      55.520  28.298  50.733  1.00  0.00     0.000 C 
BRANCH   2   3
ATOM      3  C   UNL     1      54.384  27.314  50.410  1.00  0.00     0.006 C 
BRANCH   3   4
ATOM      4  C   UNL     1      54.940  25.945  50.010  1.00  0.00     0.053 C 
BRANCH   4   5
ATOM      5  C   UNL     1      54.220  24.855  50.737  1.00  0.00     0.041 C 
ATOM      6  O   UNL     1      54.360  24.723  51.982  1.00  0.00    -0.550 OA
ATOM      7  O   UNL     1      53.436  23.950  50.034  1.00  0.00    -0.550 OA
ENDBRANCH   4   5
ENDBRANCH   3   4
ENDBRANCH   2   3
ENDBRANCH   1   2
BRANCH   1   8
ATOM      8  C   UNL     1      58.037  28.608  50.236  1.00  0.00     0.000 C 
BRANCH   8   9
ATOM      9  C   UNL     1      59.268  27.950  49.590  1.00  0.00    -0.000 C 
BRANCH   9  10
ATOM     10  C   UNL     1      59.230  26.413  49.663  1.00  0.00    -0.000 C 
BRANCH  10  11
ATOM     11  C   UNL     1      60.557  25.814  50.153  1.00  0.00    -0.000 C 
BRANCH  11  12
ATOM     12  C   UNL     1      61.758  26.734  49.885  1.00  0.00    -0.003 C 
ATOM     13  C   UNL     1      63.053  26.108  50.395  1.00  0.00     0.004 C 
ENDBRANCH  11  12
ENDBRANCH  10  11
ENDBRANCH   9  10
ENDBRANCH   8   9
ENDBRANCH   1   8
TORSDOF 9
ENDMDL
MODEL 6
REMARK VINA RESULT:    -3.163      2.853      5.100
REMARK INTER + INTRA:          -5.901
REMARK INTER:                  -4.927
REMARK INTRA:                  -0.974
REMARK UNBOUND:                -1.074
REMARK SMILES CCCCCCCCCCC(=O)[O-]
REMARK SMILES IDX 7 1 8 2 9 3 10 4 11 5 12 6 13 7 6 8 5 9 4 10 3 11 2 12 1 13
REMARK H PARENT
REMARK Flexibility Score: inf
ROOT
ATOM      1  C   UNL     1      56.662  27.755  51.563  1.00  0.00     0.000 C 
ENDROOT
BRANCH   1   2
ATOM      2  C   UNL     1      55.497  28.364  50.753  1.00  0.00     0.000 C 
BRANCH   2   3
ATOM      3  C   UNL     1      54.483  27.302  50.302  1.00  0.00     0.006 C 
BRANCH   3   4
ATOM      4  C   UNL     1      55.154  25.938  50.130  1.00  0.00     0.053 C 
BRANCH   4   5
ATOM      5  C   UNL     1      54.289  24.854  50.689  1.00  0.00     0.041 C 
ATOM      6  O   UNL     1      53.606  24.128  49.919  1.00  0.00    -0.550 OA
ATOM      7  O   UNL     1      54.197  24.677  52.063  1.00  0.00    -0.550 OA
ENDBRANCH   4   5
ENDBRANCH   3   4
ENDBRANCH   2   3
ENDBRANCH   1   2
BRANCH   1   8
ATOM      8  C   UNL     1      57.935  28.625  51.573  1.00  0.00     0.000 C 
BRANCH   8   9
ATOM      9  C   UNL     1      58.576  28.860  50.195  1.00  0.00    -0.000 C 
BRANCH   9  10
ATOM     10  C   UNL     1      58.879  27.550  49.447  1.00  0.00    -0.000 C 
BRANCH  10  11
ATOM     11  C   UNL     1      60.286  27.013  49.747  1.00  0.00    -0.000 C 
BRANCH  11  12
ATOM     12  C   UNL     1      60.263  25.712  50.563  1.00  0.00    -0.003 C 
ATOM     13  C   UNL     1      58.910  25.015  50.448  1.00  0.00     0.004 C 
ENDBRANCH  11  12
ENDBRANCH  10  11
ENDBRANCH   9  10
ENDBRANCH   8   9
ENDBRANCH   1   8
TORSDOF 9
ENDMDL
MODEL 7
REMARK VINA RESULT:    -3.114     11.787     13.679
REMARK INTER + INTRA:          -5.826
REMARK INTER:                  -4.826
REMARK INTRA:                  -1.000
REMARK UNBOUND:                -1.074
REMARK SMILES CCCCCCCCCCC(=O)[O-]
REMARK SMILES IDX 7 1 8 2 9 3 10 4 11 5 12 6 13 7 6 8 5 9 4 10 3 11 2 12 1 13
REMARK H PARENT
REMARK Flexibility Score: inf
ROOT
ATOM      1  C   UNL     1      60.975  32.783  59.060  1.00  0.00     0.000 C 
ENDROOT
BRANCH   1   2
ATOM      2  C   UNL     1      61.801  31.615  59.641  1.00  0.00     0.000 C 
BRANCH   2   3
ATOM      3  C   UNL     1      61.737  31.563  61.175  1.00  0.00     0.006 C 
BRANCH   3   4
ATOM      4  C   UNL     1      61.532  30.128  61.669  1.00  0.00     0.053 C 
BRANCH   4   5
ATOM      5  C   UNL     1      62.745  29.300  61.389  1.00  0.00     0.041 C 
ATOM      6  O   UNL     1      63.891  29.733  61.683  1.00  0.00    -0.550 OA
ATOM      7  O   UNL     1      62.616  28.070  60.757  1.00  0.00    -0.550 OA
ENDBRANCH   4   5
ENDBRANCH   3   4
ENDBRANCH   2   3
ENDBRANCH   1   2
BRANCH   1   8
ATOM      8  C   UNL     1      59.949  33.372  60.048  1.00  0.00     0.000 C 
BRANCH   8   9
ATOM      9  C   UNL     1      60.149  34.858  60.389  1.00  0.00    -0.000 C 
BRANCH   9  10
ATOM     10  C   UNL     1      61.540  35.380  59.990  1.00  0.00    -0.000 C 
BRANCH  10  11
ATOM     11  C   UNL     1      62.450  35.618  61.205  1.00  0.00    -0.000 C 
BRANCH  11  12
ATOM     12  C   UNL     1      63.940  35.450  60.873  1.00  0.00    -0.003 C 
ATOM     13  C   UNL     1      64.455  34.089  61.333  1.00  0.00     0.004 C 
ENDBRANCH  11  12
ENDBRANCH  10  11
ENDBRANCH   9  10
ENDBRANCH   8   9
ENDBRANCH   1   8
TORSDOF 9
ENDMDL
MODEL 8
REMARK VINA RESULT:    -3.039      1.516      2.393
REMARK INTER + INTRA:          -5.712
REMARK INTER:                  -4.729
REMARK INTRA:                  -0.983
REMARK UNBOUND:                -1.074
REMARK SMILES CCCCCCCCCCC(=O)[O-]
REMARK SMILES IDX 7 1 8 2 9 3 10 4 11 5 12 6 13 7 6 8 5 9 4 10 3 11 2 12 1 13
REMARK H PARENT
REMARK Flexibility Score: inf
ROOT
ATOM      1  C   UNL     1      57.229  27.840  50.809  1.00  0.00     0.000 C 
ENDROOT
BRANCH   1   2
ATOM      2  C   UNL     1      58.263  28.628  49.975  1.00  0.00     0.000 C 
BRANCH   2   3
ATOM      3  C   UNL     1      59.400  27.732  49.459  1.00  0.00     0.006 C 
BRANCH   3   4
ATOM      4  C   UNL     1      59.155  26.267  49.827  1.00  0.00     0.053 C 
BRANCH   4   5
ATOM      5  C   UNL     1      60.275  25.742  50.667  1.00  0.00     0.041 C 
ATOM      6  O   UNL     1      60.769  26.454  51.581  1.00  0.00    -0.550 OA
ATOM      7  O   UNL     1      60.811  24.487  50.407  1.00  0.00    -0.550 OA
ENDBRANCH   4   5
ENDBRANCH   3   4
ENDBRANCH   2   3
ENDBRANCH   1   2
BRANCH   1   8
ATOM      8  C   UNL     1      55.800  28.411  50.728  1.00  0.00     0.000 C 
BRANCH   8   9
ATOM      9  C   UNL     1      54.713  27.398  50.330  1.00  0.00    -0.000 C 
BRANCH   9  10
ATOM     10  C   UNL     1      55.263  25.972  50.151  1.00  0.00    -0.000 C 
BRANCH  10  11
ATOM     11  C   UNL     1      54.691  24.987  51.180  1.00  0.00    -0.000 C 
BRANCH  11  12
ATOM     12  C   UNL     1      55.433  25.035  52.524  1.00  0.00    -0.003 C 
ATOM     13  C   UNL     1      56.898  24.642  52.356  1.00  0.00     0.004 C 
ENDBRANCH  11  12
ENDBRANCH  10  11
ENDBRANCH   9  10
ENDBRANCH   8   9
ENDBRANCH   1   8
TORSDOF 9
ENDMDL
MODEL 9
REMARK VINA RESULT:    -3.038     11.804     13.632
REMARK INTER + INTRA:          -5.711
REMARK INTER:                  -4.971
REMARK INTRA:                  -0.740
REMARK UNBOUND:                -1.074
REMARK SMILES CCCCCCCCCCC(=O)[O-]
REMARK SMILES IDX 7 1 8 2 9 3 10 4 11 5 12 6 13 7 6 8 5 9 4 10 3 11 2 12 1 13
REMARK H PARENT
REMARK Flexibility Score: inf
ROOT
ATOM      1  C   UNL     1      61.388  31.305  59.365  1.00  0.00     0.000 C 
ENDROOT
BRANCH   1   2
ATOM      2  C   UNL     1      61.094  30.311  60.509  1.00  0.00     0.000 C 
BRANCH   2   3
ATOM      3  C   UNL     1      62.211  30.290  61.564  1.00  0.00     0.006 C 
BRANCH   3   4
ATOM      4  C   UNL     1      63.208  29.162  61.286  1.00  0.00     0.053 C 
BRANCH   4   5
ATOM      5  C   UNL     1      64.580  29.716  61.069  1.00  0.00     0.041 C 
ATOM      6  O   UNL     1      64.745  30.954  60.911  1.00  0.00    -0.550 OA
ATOM      7  O   UNL     1      65.671  28.860  60.988  1.00  0.00    -0.550 OA
ENDBRANCH   4   5
ENDBRANCH   3   4
ENDBRANCH   2   3
ENDBRANCH   1   2
BRANCH   1   8
ATOM      8  C   UNL     1      60.472  32.545  59.367  1.00  0.00     0.000 C 
BRANCH   8   9
ATOM      9  C   UNL     1      60.566  33.424  60.626  1.00  0.00    -0.000 C 
BRANCH   9  10
ATOM     10  C   UNL     1      60.937  34.883  60.309  1.00  0.00    -0.000 C 
BRANCH  10  11
ATOM     11  C   UNL     1      62.259  35.310  60.964  1.00  0.00    -0.000 C 
BRANCH  11  12
ATOM     12  C   UNL     1      63.336  34.216  60.896  1.00  0.00    -0.003 C 
ATOM     13  C   UNL     1      64.608  34.653  61.617  1.00  0.00     0.004 C 
ENDBRANCH  11  12
ENDBRANCH  10  11
ENDBRANCH   9  10
ENDBRANCH   8   9
ENDBRANCH   1   8
TORSDOF 9
ENDMDL
