MODEL 1
REMARK VINA RESULT:    -4.329      0.000      0.000
REMARK INTER + INTRA:          -9.574
REMARK INTER:                  -7.618
REMARK INTRA:                  -1.956
REMARK UNBOUND:                -1.956
REMARK SMILES CCCCCCCCCCCCCCC(=O)[O-]
REMARK SMILES IDX 9 1 10 2 11 3 12 4 13 5 14 6 15 7 16 8 17 9 8 10 7 11 6 12
REMARK SMILES IDX 5 13 4 14 3 15 2 16 1 17
REMARK H PARENT
REMARK Flexibility Score: inf
ROOT
ATOM      1  C   UNL     1      57.137   0.927  30.029  1.00  0.00     0.000 C 
ENDROOT
BRANCH   1   2
ATOM      2  C   UNL     1      58.122   0.277  31.011  1.00  0.00     0.000 C 
BRANCH   2   3
ATOM      3  C   UNL     1      59.034  -0.760  30.334  1.00  0.00     0.000 C 
BRANCH   3   4
ATOM      4  C   UNL     1      59.555  -1.822  31.320  1.00  0.00     0.000 C 
BRANCH   4   5
ATOM      5  C   UNL     1      59.862  -3.163  30.634  1.00  0.00     0.006 C 
BRANCH   5   6
ATOM      6  C   UNL     1      59.696  -3.098  29.110  1.00  0.00     0.053 C 
BRANCH   6   7
ATOM      7  C   UNL     1      61.032  -3.130  28.439  1.00  0.00     0.041 C 
ATOM      8  O   UNL     1      61.452  -2.120  27.814  1.00  0.00    -0.550 OA
ATOM      9  O   UNL     1      61.836  -4.258  28.542  1.00  0.00    -0.550 OA
ENDBRANCH   6   7
ENDBRANCH   5   6
ENDBRANCH   4   5
ENDBRANCH   3   4
ENDBRANCH   2   3
ENDBRANCH   1   2
BRANCH   1  10
ATOM     10  C   UNL     1      57.042   0.116  28.728  1.00  0.00     0.000 C 
BRANCH  10  11
ATOM     11  C   UNL     1      55.599  -0.027  28.211  1.00  0.00    -0.000 C 
BRANCH  11  12
ATOM     12  C   UNL     1      54.914  -1.365  28.543  1.00  0.00    -0.000 C 
BRANCH  12  13
ATOM     13  C   UNL     1      54.456  -1.457  30.008  1.00  0.00    -0.000 C 
BRANCH  13  14
ATOM     14  C   UNL     1      55.360  -2.370  30.854  1.00  0.00    -0.000 C 
BRANCH  14  15
ATOM     15  C   UNL     1      56.142  -3.382  30.003  1.00  0.00    -0.000 C 
BRANCH  15  16
ATOM     16  C   UNL     1      56.301  -4.714  30.747  1.00  0.00    -0.003 C 
ATOM     17  C   UNL     1      55.221  -4.883  31.812  1.00  0.00     0.004 C 
ENDBRANCH  15  16
ENDBRANCH  14  15
ENDBRANCH  13  14
ENDBRANCH  12  13
ENDBRANCH  11  12
ENDBRANCH  10  11
ENDBRANCH   1  10
TORSDOF 13
ENDMDL
MODEL 2
REMARK VINA RESULT:    -4.240      1.159      3.543
REMARK INTER + INTRA:          -9.418
REMARK INTER:                  -7.458
REMARK INTRA:                  -1.960
REMARK UNBOUND:                -1.956
REMARK SMILES CCCCCCCCCCCCCCC(=O)[O-]
REMARK SMILES IDX 9 1 10 2 11 3 12 4 13 5 14 6 15 7 16 8 17 9 8 10 7 11 6 12
REMARK SMILES IDX 5 13 4 14 3 15 2 16 1 17
REMARK H PARENT
REMARK Flexibility Score: inf
ROOT
ATOM      1  C   UNL     1      57.179  -4.310  30.433  1.00  0.00     0.000 C 
ENDROOT
BRANCH   1   2
ATOM      2  C   UNL     1      58.593  -3.756  30.202  1.00  0.00     0.000 C 
BRANCH   2   3
ATOM      3  C   UNL     1      58.991  -2.698  31.244  1.00  0.00     0.000 C 
BRANCH   3   4
ATOM      4  C   UNL     1      59.900  -1.603  30.658  1.00  0.00     0.000 C 
BRANCH   4   5
ATOM      5  C   UNL     1      59.939  -1.630  29.121  1.00  0.00     0.006 C 
BRANCH   5   6
ATOM      6  C   UNL     1      61.369  -1.595  28.566  1.00  0.00     0.053 C 
BRANCH   6   7
ATOM      7  C   UNL     1      61.731  -2.920  27.974  1.00  0.00     0.041 C 
ATOM      8  O   UNL     1      62.106  -2.996  26.774  1.00  0.00    -0.550 OA
ATOM      9  O   UNL     1      61.700  -4.065  28.759  1.00  0.00    -0.550 OA
ENDBRANCH   6   7
ENDBRANCH   5   6
ENDBRANCH   4   5
ENDBRANCH   3   4
ENDBRANCH   2   3
ENDBRANCH   1   2
BRANCH   1  10
ATOM     10  C   UNL     1      56.567  -3.735  31.719  1.00  0.00     0.000 C 
BRANCH  10  11
ATOM     11  C   UNL     1      55.080  -4.092  31.890  1.00  0.00    -0.000 C 
BRANCH  11  12
ATOM     12  C   UNL     1      54.110  -2.897  31.849  1.00  0.00    -0.000 C 
BRANCH  12  13
ATOM     13  C   UNL     1      54.768  -1.608  31.328  1.00  0.00    -0.000 C 
BRANCH  13  14
ATOM     14  C   UNL     1      54.610  -1.438  29.807  1.00  0.00    -0.000 C 
BRANCH  14  15
ATOM     15  C   UNL     1      55.916  -1.010  29.121  1.00  0.00    -0.000 C 
BRANCH  15  16
ATOM     16  C   UNL     1      56.657   0.038  29.960  1.00  0.00    -0.003 C 
ATOM     17  C   UNL     1      57.220   1.151  29.081  1.00  0.00     0.004 C 
ENDBRANCH  15  16
ENDBRANCH  14  15
ENDBRANCH  13  14
ENDBRANCH  12  13
ENDBRANCH  11  12
ENDBRANCH  10  11
ENDBRANCH   1  10
TORSDOF 13
ENDMDL
MODEL 3
REMARK VINA RESULT:    -4.122      1.153      3.513
REMARK INTER + INTRA:          -9.211
REMARK INTER:                  -7.309
REMARK INTRA:                  -1.902
REMARK UNBOUND:                -1.956
REMARK SMILES CCCCCCCCCCCCCCC(=O)[O-]
REMARK SMILES IDX 9 1 10 2 11 3 12 4 13 5 14 6 15 7 16 8 17 9 8 10 7 11 6 12
REMARK SMILES IDX 5 13 4 14 3 15 2 16 1 17
REMARK H PARENT
REMARK Flexibility Score: inf
ROOT
ATOM      1  C   UNL     1      55.709  -4.044  31.259  1.00  0.00     0.000 C 
ENDROOT
BRANCH   1   2
ATOM      2  C   UNL     1      56.941  -3.744  32.125  1.00  0.00     0.000 C 
BRANCH   2   3
ATOM      3  C   UNL     1      58.200  -3.468  31.287  1.00  0.00     0.000 C 
BRANCH   3   4
ATOM      4  C   UNL     1      58.008  -3.816  29.800  1.00  0.00     0.000 C 
BRANCH   4   5
ATOM      5  C   UNL     1      59.341  -4.070  29.077  1.00  0.00     0.006 C 
BRANCH   5   6
ATOM      6  C   UNL     1      60.462  -3.140  29.561  1.00  0.00     0.053 C 
BRANCH   6   7
ATOM      7  C   UNL     1      61.056  -2.396  28.408  1.00  0.00     0.041 C 
ATOM      8  O   UNL     1      60.946  -1.143  28.337  1.00  0.00    -0.550 OA
ATOM      9  O   UNL     1      61.775  -3.079  27.434  1.00  0.00    -0.550 OA
ENDBRANCH   6   7
ENDBRANCH   5   6
ENDBRANCH   4   5
ENDBRANCH   3   4
ENDBRANCH   2   3
ENDBRANCH   1   2
BRANCH   1  10
ATOM     10  C   UNL     1      54.538  -3.123  31.631  1.00  0.00     0.000 C 
BRANCH  10  11
ATOM     11  C   UNL     1      54.682  -1.703  31.055  1.00  0.00    -0.000 C 
BRANCH  11  12
ATOM     12  C   UNL     1      54.440  -1.583  29.539  1.00  0.00    -0.000 C 
BRANCH  12  13
ATOM     13  C   UNL     1      55.715  -1.234  28.754  1.00  0.00    -0.000 C 
BRANCH  13  14
ATOM     14  C   UNL     1      55.793   0.257  28.385  1.00  0.00    -0.000 C 
BRANCH  14  15
ATOM     15  C   UNL     1      57.075   0.929  28.898  1.00  0.00    -0.000 C 
BRANCH  15  16
ATOM     16  C   UNL     1      58.000  -0.096  29.567  1.00  0.00    -0.003 C 
ATOM     17  C   UNL     1      58.178   0.208  31.051  1.00  0.00     0.004 C 
ENDBRANCH  15  16
ENDBRANCH  14  15
ENDBRANCH  13  14
ENDBRANCH  12  13
ENDBRANCH  11  12
ENDBRANCH  10  11
ENDBRANCH   1  10
TORSDOF 13
ENDMDL
MODEL 4
REMARK VINA RESULT:    -4.060      1.638      3.724
REMARK INTER + INTRA:          -9.101
REMARK INTER:                  -7.482
REMARK INTRA:                  -1.619
REMARK UNBOUND:                -1.956
REMARK SMILES CCCCCCCCCCCCCCC(=O)[O-]
REMARK SMILES IDX 9 1 10 2 11 3 12 4 13 5 14 6 15 7 16 8 17 9 8 10 7 11 6 12
REMARK SMILES IDX 5 13 4 14 3 15 2 16 1 17
REMARK H PARENT
REMARK Flexibility Score: inf
ROOT
ATOM      1  C   UNL     1      57.657  -4.082  31.054  1.00  0.00     0.000 C 
ENDROOT
BRANCH   1   2
ATOM      2  C   UNL     1      58.565  -3.896  29.831  1.00  0.00     0.000 C 
BRANCH   2   3
ATOM      3  C   UNL     1      59.937  -3.304  30.197  1.00  0.00     0.000 C 
BRANCH   3   4
ATOM      4  C   UNL     1      60.518  -2.422  29.078  1.00  0.00     0.000 C 
BRANCH   4   5
ATOM      5  C   UNL     1      61.223  -3.243  27.986  1.00  0.00     0.006 C 
BRANCH   5   6
ATOM      6  C   UNL     1      62.579  -2.649  27.583  1.00  0.00     0.053 C 
BRANCH   6   7
ATOM      7  C   UNL     1      62.876  -2.953  26.149  1.00  0.00     0.041 C 
ATOM      8  O   UNL     1      62.934  -2.022  25.302  1.00  0.00    -0.550 OA
ATOM      9  O   UNL     1      63.135  -4.260  25.754  1.00  0.00    -0.550 OA
ENDBRANCH   6   7
ENDBRANCH   5   6
ENDBRANCH   4   5
ENDBRANCH   3   4
ENDBRANCH   2   3
ENDBRANCH   1   2
BRANCH   1  10
ATOM     10  C   UNL     1      56.215  -4.392  30.626  1.00  0.00     0.000 C 
BRANCH  10  11
ATOM     11  C   UNL     1      55.195  -4.203  31.763  1.00  0.00    -0.000 C 
BRANCH  11  12
ATOM     12  C   UNL     1      54.458  -2.850  31.765  1.00  0.00    -0.000 C 
BRANCH  12  13
ATOM     13  C   UNL     1      54.743  -2.011  30.508  1.00  0.00    -0.000 C 
BRANCH  13  14
ATOM     14  C   UNL     1      55.565  -0.748  30.815  1.00  0.00    -0.000 C 
BRANCH  14  15
ATOM     15  C   UNL     1      56.722  -0.539  29.826  1.00  0.00    -0.000 C 
BRANCH  15  16
ATOM     16  C   UNL     1      57.986  -0.067  30.555  1.00  0.00    -0.003 C 
ATOM     17  C   UNL     1      57.997  -0.544  32.004  1.00  0.00     0.004 C 
ENDBRANCH  15  16
ENDBRANCH  14  15
ENDBRANCH  13  14
ENDBRANCH  12  13
ENDBRANCH  11  12
ENDBRANCH  10  11
ENDBRANCH   1  10
TORSDOF 13
ENDMDL
MODEL 5
REMARK VINA RESULT:    -3.971      2.349      5.682
REMARK INTER + INTRA:          -8.945
REMARK INTER:                  -7.275
REMARK INTRA:                  -1.670
REMARK UNBOUND:                -1.956
REMARK SMILES CCCCCCCCCCCCCCC(=O)[O-]
REMARK SMILES IDX 9 1 10 2 11 3 12 4 13 5 14 6 15 7 16 8 17 9 8 10 7 11 6 12
REMARK SMILES IDX 5 13 4 14 3 15 2 16 1 17
REMARK H PARENT
REMARK Flexibility Score: inf
ROOT
ATOM      1  C   UNL     1      55.971  -4.385  30.357  1.00  0.00     0.000 C 
ENDROOT
BRANCH   1   2
ATOM      2  C   UNL     1      55.473  -4.263  31.804  1.00  0.00     0.000 C 
BRANCH   2   3
ATOM      3  C   UNL     1      54.530  -3.065  32.006  1.00  0.00     0.000 C 
BRANCH   3   4
ATOM      4  C   UNL     1      54.514  -2.115  30.795  1.00  0.00     0.000 C 
BRANCH   4   5
ATOM      5  C   UNL     1      55.493  -0.941  30.953  1.00  0.00     0.006 C 
BRANCH   5   6
ATOM      6  C   UNL     1      56.230  -0.607  29.649  1.00  0.00     0.053 C 
BRANCH   6   7
ATOM      7  C   UNL     1      57.129   0.572  29.846  1.00  0.00     0.041 C 
ATOM      8  O   UNL     1      57.085   1.543  29.044  1.00  0.00    -0.550 OA
ATOM      9  O   UNL     1      57.982   0.623  30.941  1.00  0.00    -0.550 OA
ENDBRANCH   6   7
ENDBRANCH   5   6
ENDBRANCH   4   5
ENDBRANCH   3   4
ENDBRANCH   2   3
ENDBRANCH   1   2
BRANCH   1  10
ATOM     10  C   UNL     1      57.505  -4.385  30.301  1.00  0.00     0.000 C 
BRANCH  10  11
ATOM     11  C   UNL     1      58.150  -3.590  31.451  1.00  0.00    -0.000 C 
BRANCH  11  12
ATOM     12  C   UNL     1      59.321  -2.678  31.042  1.00  0.00    -0.000 C 
BRANCH  12  13
ATOM     13  C   UNL     1      59.437  -2.497  29.520  1.00  0.00    -0.000 C 
BRANCH  13  14
ATOM     14  C   UNL     1      60.258  -1.255  29.133  1.00  0.00    -0.000 C 
BRANCH  14  15
ATOM     15  C   UNL     1      61.540  -1.608  28.364  1.00  0.00    -0.000 C 
BRANCH  15  16
ATOM     16  C   UNL     1      61.637  -3.121  28.128  1.00  0.00    -0.003 C 
ATOM     17  C   UNL     1      62.301  -3.428  26.789  1.00  0.00     0.004 C 
ENDBRANCH  15  16
ENDBRANCH  14  15
ENDBRANCH  13  14
ENDBRANCH  12  13
ENDBRANCH  11  12
ENDBRANCH  10  11
ENDBRANCH   1  10
TORSDOF 13
ENDMDL
MODEL 6
REMARK VINA RESULT:    -3.887      1.609      2.441
REMARK INTER + INTRA:          -8.798
REMARK INTER:                  -7.123
REMARK INTRA:                  -1.674
REMARK UNBOUND:                -1.956
REMARK SMILES CCCCCCCCCCCCCCC(=O)[O-]
REMARK SMILES IDX 9 1 10 2 11 3 12 4 13 5 14 6 15 7 16 8 17 9 8 10 7 11 6 12
REMARK SMILES IDX 5 13 4 14 3 15 2 16 1 17
REMARK H PARENT
REMARK Flexibility Score: inf
ROOT
ATOM      1  C   UNL     1      58.588  -0.870  31.953  1.00  0.00     0.000 C 
ENDROOT
BRANCH   1   2
ATOM      2  C   UNL     1      59.701  -1.758  31.379  1.00  0.00     0.000 C 
BRANCH   2   3
ATOM      3  C   UNL     1      59.811  -1.653  29.849  1.00  0.00     0.000 C 
BRANCH   3   4
ATOM      4  C   UNL     1      60.561  -2.844  29.227  1.00  0.00     0.000 C 
BRANCH   4   5
ATOM      5  C   UNL     1      61.342  -2.454  27.962  1.00  0.00     0.006 C 
BRANCH   5   6
ATOM      6  C   UNL     1      62.263  -3.578  27.467  1.00  0.00     0.053 C 
BRANCH   6   7
ATOM      7  C   UNL     1      63.047  -3.123  26.277  1.00  0.00     0.041 C 
ATOM      8  O   UNL     1      62.646  -3.392  25.114  1.00  0.00    -0.550 OA
ATOM      9  O   UNL     1      64.195  -2.360  26.450  1.00  0.00    -0.550 OA
ENDBRANCH   6   7
ENDBRANCH   5   6
ENDBRANCH   4   5
ENDBRANCH   3   4
ENDBRANCH   2   3
ENDBRANCH   1   2
BRANCH   1  10
ATOM     10  C   UNL     1      58.201   0.236  30.962  1.00  0.00     0.000 C 
BRANCH  10  11
ATOM     11  C   UNL     1      56.694   0.266  30.650  1.00  0.00    -0.000 C 
BRANCH  11  12
ATOM     12  C   UNL     1      56.258  -0.583  29.441  1.00  0.00    -0.000 C 
BRANCH  12  13
ATOM     13  C   UNL     1      55.627  -1.925  29.847  1.00  0.00    -0.000 C 
BRANCH  13  14
ATOM     14  C   UNL     1      56.369  -3.132  29.249  1.00  0.00    -0.000 C 
BRANCH  14  15
ATOM     15  C   UNL     1      56.998  -4.033  30.322  1.00  0.00    -0.000 C 
BRANCH  15  16
ATOM     16  C   UNL     1      56.278  -3.865  31.667  1.00  0.00    -0.003 C 
ATOM     17  C   UNL     1      55.215  -4.943  31.861  1.00  0.00     0.004 C 
ENDBRANCH  15  16
ENDBRANCH  14  15
ENDBRANCH  13  14
ENDBRANCH  12  13
ENDBRANCH  11  12
ENDBRANCH  10  11
ENDBRANCH   1  10
TORSDOF 13
ENDMDL
MODEL 7
REMARK VINA RESULT:    -3.867      2.471      6.001
REMARK INTER + INTRA:          -8.761
REMARK INTER:                  -7.132
REMARK INTRA:                  -1.629
REMARK UNBOUND:                -1.956
REMARK SMILES CCCCCCCCCCCCCCC(=O)[O-]
REMARK SMILES IDX 9 1 10 2 11 3 12 4 13 5 14 6 15 7 16 8 17 9 8 10 7 11 6 12
REMARK SMILES IDX 5 13 4 14 3 15 2 16 1 17
REMARK H PARENT
REMARK Flexibility Score: inf
ROOT
ATOM      1  C   UNL     1      58.683  -3.973  30.223  1.00  0.00     0.000 C 
ENDROOT
BRANCH   1   2
ATOM      2  C   UNL     1      57.220  -4.255  30.592  1.00  0.00     0.000 C 
BRANCH   2   3
ATOM      3  C   UNL     1      56.231  -3.404  29.777  1.00  0.00     0.000 C 
BRANCH   3   4
ATOM      4  C   UNL     1      55.327  -2.533  30.669  1.00  0.00     0.000 C 
BRANCH   4   5
ATOM      5  C   UNL     1      55.817  -1.079  30.763  1.00  0.00     0.006 C 
BRANCH   5   6
ATOM      6  C   UNL     1      56.371  -0.555  29.431  1.00  0.00     0.053 C 
BRANCH   6   7
ATOM      7  C   UNL     1      57.119   0.722  29.643  1.00  0.00     0.041 C 
ATOM      8  O   UNL     1      57.845   0.869  30.662  1.00  0.00    -0.550 OA
ATOM      9  O   UNL     1      57.054   1.733  28.693  1.00  0.00    -0.550 OA
ENDBRANCH   6   7
ENDBRANCH   5   6
ENDBRANCH   4   5
ENDBRANCH   3   4
ENDBRANCH   2   3
ENDBRANCH   1   2
BRANCH   1  10
ATOM     10  C   UNL     1      59.351  -3.072  31.272  1.00  0.00     0.000 C 
BRANCH  10  11
ATOM     11  C   UNL     1      60.058  -1.852  30.656  1.00  0.00    -0.000 C 
BRANCH  11  12
ATOM     12  C   UNL     1      59.854  -1.671  29.140  1.00  0.00    -0.000 C 
BRANCH  12  13
ATOM     13  C   UNL     1      61.159  -1.355  28.392  1.00  0.00    -0.000 C 
BRANCH  13  14
ATOM     14  C   UNL     1      62.266  -2.384  28.674  1.00  0.00    -0.000 C 
BRANCH  14  15
ATOM     15  C   UNL     1      61.983  -3.750  28.032  1.00  0.00    -0.000 C 
BRANCH  15  16
ATOM     16  C   UNL     1      63.070  -4.112  27.013  1.00  0.00    -0.003 C 
ATOM     17  C   UNL     1      62.796  -3.462  25.660  1.00  0.00     0.004 C 
ENDBRANCH  15  16
ENDBRANCH  14  15
ENDBRANCH  13  14
ENDBRANCH  12  13
ENDBRANCH  11  12
ENDBRANCH  10  11
ENDBRANCH   1  10
TORSDOF 13
ENDMDL
MODEL 8
REMARK VINA RESULT:    -3.785      1.786      3.556
REMARK INTER + INTRA:          -8.616
REMARK INTER:                  -6.881
REMARK INTRA:                  -1.735
REMARK UNBOUND:                -1.956
REMARK SMILES CCCCCCCCCCCCCCC(=O)[O-]
REMARK SMILES IDX 9 1 10 2 11 3 12 4 13 5 14 6 15 7 16 8 17 9 8 10 7 11 6 12
REMARK SMILES IDX 5 13 4 14 3 15 2 16 1 17
REMARK H PARENT
REMARK Flexibility Score: inf
ROOT
ATOM      1  C   UNL     1      59.429  -1.700  30.889  1.00  0.00     0.000 C 
ENDROOT
BRANCH   1   2
ATOM      2  C   UNL     1      59.462  -1.476  29.370  1.00  0.00     0.000 C 
BRANCH   2   3
ATOM      3  C   UNL     1      60.880  -1.587  28.786  1.00  0.00     0.000 C 
BRANCH   3   4
ATOM      4  C   UNL     1      61.071  -2.854  27.934  1.00  0.00     0.000 C 
BRANCH   4   5
ATOM      5  C   UNL     1      61.954  -3.904  28.627  1.00  0.00     0.006 C 
BRANCH   5   6
ATOM      6  C   UNL     1      63.363  -3.982  28.024  1.00  0.00     0.053 C 
BRANCH   6   7
ATOM      7  C   UNL     1      63.334  -4.729  26.728  1.00  0.00     0.041 C 
ATOM      8  O   UNL     1      63.422  -4.107  25.636  1.00  0.00    -0.550 OA
ATOM      9  O   UNL     1      63.259  -6.116  26.726  1.00  0.00    -0.550 OA
ENDBRANCH   6   7
ENDBRANCH   5   6
ENDBRANCH   4   5
ENDBRANCH   3   4
ENDBRANCH   2   3
ENDBRANCH   1   2
BRANCH   1  10
ATOM     10  C   UNL     1      59.116  -3.165  31.221  1.00  0.00     0.000 C 
BRANCH  10  11
ATOM     11  C   UNL     1      58.275  -3.863  30.137  1.00  0.00    -0.000 C 
BRANCH  11  12
ATOM     12  C   UNL     1      56.900  -4.377  30.603  1.00  0.00    -0.000 C 
BRANCH  12  13
ATOM     13  C   UNL     1      56.331  -3.578  31.787  1.00  0.00    -0.000 C 
BRANCH  13  14
ATOM     14  C   UNL     1      55.155  -2.676  31.380  1.00  0.00    -0.000 C 
BRANCH  14  15
ATOM     15  C   UNL     1      55.583  -1.223  31.123  1.00  0.00    -0.000 C 
BRANCH  15  16
ATOM     16  C   UNL     1      55.805  -0.975  29.625  1.00  0.00    -0.003 C 
ATOM     17  C   UNL     1      54.780  -1.730  28.784  1.00  0.00     0.004 C 
ENDBRANCH  15  16
ENDBRANCH  14  15
ENDBRANCH  13  14
ENDBRANCH  12  13
ENDBRANCH  11  12
ENDBRANCH  10  11
ENDBRANCH   1  10
TORSDOF 13
ENDMDL
MODEL 9
REMARK VINA RESULT:    -3.769      1.439      3.051
REMARK INTER + INTRA:          -8.589
REMARK INTER:                  -6.637
REMARK INTRA:                  -1.952
REMARK UNBOUND:                -1.956
REMARK SMILES CCCCCCCCCCCCCCC(=O)[O-]
REMARK SMILES IDX 9 1 10 2 11 3 12 4 13 5 14 6 15 7 16 8 17 9 8 10 7 11 6 12
REMARK SMILES IDX 5 13 4 14 3 15 2 16 1 17
REMARK H PARENT
REMARK Flexibility Score: inf
ROOT
ATOM      1  C   UNL     1      59.518  -2.293  32.125  1.00  0.00     0.000 C 
ENDROOT
BRANCH   1   2
ATOM      2  C   UNL     1      58.273  -3.059  31.657  1.00  0.00     0.000 C 
BRANCH   2   3
ATOM      3  C   UNL     1      58.527  -3.876  30.379  1.00  0.00     0.000 C 
BRANCH   3   4
ATOM      4  C   UNL     1      59.973  -3.741  29.869  1.00  0.00     0.000 C 
BRANCH   4   5
ATOM      5  C   UNL     1      60.111  -2.685  28.760  1.00  0.00     0.006 C 
BRANCH   5   6
ATOM      6  C   UNL     1      61.421  -1.892  28.860  1.00  0.00     0.053 C 
BRANCH   6   7
ATOM      7  C   UNL     1      62.434  -2.436  27.905  1.00  0.00     0.041 C 
ATOM      8  O   UNL     1      63.628  -2.035  27.951  1.00  0.00    -0.550 OA
ATOM      9  O   UNL     1      62.074  -3.422  26.995  1.00  0.00    -0.550 OA
ENDBRANCH   6   7
ENDBRANCH   5   6
ENDBRANCH   4   5
ENDBRANCH   3   4
ENDBRANCH   2   3
ENDBRANCH   1   2
BRANCH   1  10
ATOM     10  C   UNL     1      59.281  -0.776  32.077  1.00  0.00     0.000 C 
BRANCH  10  11
ATOM     11  C   UNL     1      57.939  -0.397  31.424  1.00  0.00    -0.000 C 
BRANCH  11  12
ATOM     12  C   UNL     1      58.047   0.238  30.025  1.00  0.00    -0.000 C 
BRANCH  12  13
ATOM     13  C   UNL     1      56.745   0.126  29.214  1.00  0.00    -0.000 C 
BRANCH  13  14
ATOM     14  C   UNL     1      56.180  -1.304  29.197  1.00  0.00    -0.000 C 
BRANCH  14  15
ATOM     15  C   UNL     1      54.649  -1.335  29.081  1.00  0.00    -0.000 C 
BRANCH  15  16
ATOM     16  C   UNL     1      53.995  -1.340  30.469  1.00  0.00    -0.003 C 
ATOM     17  C   UNL     1      54.653  -2.368  31.385  1.00  0.00     0.004 C 
ENDBRANCH  15  16
ENDBRANCH  14  15
ENDBRANCH  13  14
ENDBRANCH  12  13
ENDBRANCH  11  12
ENDBRANCH  10  11
ENDBRANCH   1  10
TORSDOF 13
ENDMDL
