MODEL 1
REMARK VINA RESULT:    -3.538      0.000      0.000
REMARK INTER + INTRA:          -4.485
REMARK INTER:                  -4.366
REMARK INTRA:                  -0.120
REMARK UNBOUND:                -0.120
REMARK SMILES CCCCCC(=O)[O-]
REMARK SMILES IDX 4 1 5 2 6 3 7 4 8 5 3 6 2 7 1 8
REMARK H PARENT
REMARK Flexibility Score: inf
ROOT
ATOM      1  C   UNL     1     191.736 192.556 190.804  1.00  0.00     0.006 C 
ENDROOT
BRANCH   1   2
ATOM      2  C   UNL     1     191.563 191.476 191.876  1.00  0.00     0.053 C 
BRANCH   2   3
ATOM      3  C   UNL     1     190.112 191.183 192.097  1.00  0.00     0.041 C 
ATOM      4  O   UNL     1     189.761 190.337 192.961  1.00  0.00    -0.550 OA
ATOM      5  O   UNL     1     189.149 191.808 191.315  1.00  0.00    -0.550 OA
ENDBRANCH   2   3
ENDBRANCH   1   2
BRANCH   1   6
ATOM      6  C   UNL     1     192.374 193.818 191.394  1.00  0.00     0.000 C 
BRANCH   6   7
ATOM      7  C   UNL     1     193.726 194.111 190.734  1.00  0.00    -0.003 C 
ATOM      8  C   UNL     1     194.882 193.799 191.680  1.00  0.00     0.004 C 
ENDBRANCH   6   7
ENDBRANCH   1   6
TORSDOF 4
ENDMDL
MODEL 2
REMARK VINA RESULT:    -3.493      3.199      3.938
REMARK INTER + INTRA:          -4.430
REMARK INTER:                  -4.283
REMARK INTRA:                  -0.147
REMARK UNBOUND:                -0.120
REMARK SMILES CCCCCC(=O)[O-]
REMARK SMILES IDX 4 1 5 2 6 3 7 4 8 5 3 6 2 7 1 8
REMARK H PARENT
REMARK Flexibility Score: inf
ROOT
ATOM      1  C   UNL     1     191.191 194.136 191.585  1.00  0.00     0.006 C 
ENDROOT
BRANCH   1   2
ATOM      2  C   UNL     1     191.538 195.621 191.444  1.00  0.00     0.053 C 
BRANCH   2   3
ATOM      3  C   UNL     1     191.269 196.346 192.725  1.00  0.00     0.041 C 
ATOM      4  O   UNL     1     190.525 195.831 193.601  1.00  0.00    -0.550 OA
ATOM      5  O   UNL     1     191.800 197.614 192.931  1.00  0.00    -0.550 OA
ENDBRANCH   2   3
ENDBRANCH   1   2
BRANCH   1   6
ATOM      6  C   UNL     1     192.408 193.255 191.280  1.00  0.00     0.000 C 
BRANCH   6   7
ATOM      7  C   UNL     1     193.579 194.096 190.760  1.00  0.00    -0.003 C 
ATOM      8  C   UNL     1     194.837 193.868 191.593  1.00  0.00     0.004 C 
ENDBRANCH   6   7
ENDBRANCH   1   6
TORSDOF 4
ENDMDL
MODEL 3
REMARK VINA RESULT:    -3.378      7.662      8.719
REMARK INTER + INTRA:          -4.288
REMARK INTER:                  -4.165
REMARK INTRA:                  -0.123
REMARK UNBOUND:                -0.120
REMARK SMILES CCCCCC(=O)[O-]
REMARK SMILES IDX 4 1 5 2 6 3 7 4 8 5 3 6 2 7 1 8
REMARK H PARENT
REMARK Flexibility Score: inf
ROOT
ATOM      1  C   UNL     1     193.328 199.044 194.097  1.00  0.00     0.006 C 
ENDROOT
BRANCH   1   2
ATOM      2  C   UNL     1     193.419 200.220 193.121  1.00  0.00     0.053 C 
BRANCH   2   3
ATOM      3  C   UNL     1     192.794 199.864 191.809  1.00  0.00     0.041 C 
ATOM      4  O   UNL     1     193.151 200.455 190.757  1.00  0.00    -0.550 OA
ATOM      5  O   UNL     1     191.781 198.914 191.756  1.00  0.00    -0.550 OA
ENDBRANCH   2   3
ENDBRANCH   1   2
BRANCH   1   6
ATOM      6  C   UNL     1     193.649 199.489 195.528  1.00  0.00     0.000 C 
BRANCH   6   7
ATOM      7  C   UNL     1     193.875 201.003 195.594  1.00  0.00    -0.003 C 
ATOM      8  C   UNL     1     193.106 201.627 196.756  1.00  0.00     0.004 C 
ENDBRANCH   6   7
ENDBRANCH   1   6
TORSDOF 4
ENDMDL
MODEL 4
REMARK VINA RESULT:    -3.332      1.495      2.108
REMARK INTER + INTRA:          -4.231
REMARK INTER:                  -4.000
REMARK INTRA:                  -0.231
REMARK UNBOUND:                -0.120
REMARK SMILES CCCCCC(=O)[O-]
REMARK SMILES IDX 4 1 5 2 6 3 7 4 8 5 3 6 2 7 1 8
REMARK H PARENT
REMARK Flexibility Score: inf
ROOT
ATOM      1  C   UNL     1     191.900 192.600 191.679  1.00  0.00     0.006 C 
ENDROOT
BRANCH   1   2
ATOM      2  C   UNL     1     191.108 191.911 190.564  1.00  0.00     0.053 C 
BRANCH   2   3
ATOM      3  C   UNL     1     189.639 192.122 190.755  1.00  0.00     0.041 C 
ATOM      4  O   UNL     1     189.178 192.361 191.902  1.00  0.00    -0.550 OA
ATOM      5  O   UNL     1     188.773 192.006 189.675  1.00  0.00    -0.550 OA
ENDBRANCH   2   3
ENDBRANCH   1   2
BRANCH   1   6
ATOM      6  C   UNL     1     192.698 193.789 191.133  1.00  0.00     0.000 C 
BRANCH   6   7
ATOM      7  C   UNL     1     191.863 195.073 191.166  1.00  0.00    -0.003 C 
ATOM      8  C   UNL     1     191.179 195.254 192.519  1.00  0.00     0.004 C 
ENDBRANCH   6   7
ENDBRANCH   1   6
TORSDOF 4
ENDMDL
MODEL 5
REMARK VINA RESULT:    -3.329      2.567      4.040
REMARK INTER + INTRA:          -4.228
REMARK INTER:                  -4.028
REMARK INTRA:                  -0.200
REMARK UNBOUND:                -0.120
REMARK SMILES CCCCCC(=O)[O-]
REMARK SMILES IDX 4 1 5 2 6 3 7 4 8 5 3 6 2 7 1 8
REMARK H PARENT
REMARK Flexibility Score: inf
ROOT
ATOM      1  C   UNL     1     192.350 193.562 191.404  1.00  0.00     0.006 C 
ENDROOT
BRANCH   1   2
ATOM      2  C   UNL     1     191.513 194.836 191.267  1.00  0.00     0.053 C 
BRANCH   2   3
ATOM      3  C   UNL     1     191.093 195.336 192.614  1.00  0.00     0.041 C 
ATOM      4  O   UNL     1     190.360 194.626 193.353  1.00  0.00    -0.550 OA
ATOM      5  O   UNL     1     191.468 196.606 193.033  1.00  0.00    -0.550 OA
ENDBRANCH   2   3
ENDBRANCH   1   2
BRANCH   1   6
ATOM      6  C   UNL     1     191.555 192.331 190.957  1.00  0.00     0.000 C 
BRANCH   6   7
ATOM      7  C   UNL     1     191.528 191.264 192.057  1.00  0.00    -0.003 C 
ATOM      8  C   UNL     1     190.131 191.122 192.654  1.00  0.00     0.004 C 
ENDBRANCH   6   7
ENDBRANCH   1   6
TORSDOF 4
ENDMDL
MODEL 6
REMARK VINA RESULT:    -3.316      8.741      9.606
REMARK INTER + INTRA:          -4.212
REMARK INTER:                  -4.152
REMARK INTRA:                  -0.059
REMARK UNBOUND:                -0.120
REMARK SMILES CCCCCC(=O)[O-]
REMARK SMILES IDX 4 1 5 2 6 3 7 4 8 5 3 6 2 7 1 8
REMARK H PARENT
REMARK Flexibility Score: inf
ROOT
ATOM      1  C   UNL     1     193.797 201.154 195.114  1.00  0.00     0.006 C 
ENDROOT
BRANCH   1   2
ATOM      2  C   UNL     1     193.686 199.627 195.075  1.00  0.00     0.053 C 
BRANCH   2   3
ATOM      3  C   UNL     1     193.369 199.158 193.690  1.00  0.00     0.041 C 
ATOM      4  O   UNL     1     193.178 197.935 193.464  1.00  0.00    -0.550 OA
ATOM      5  O   UNL     1     193.335 200.066 192.639  1.00  0.00    -0.550 OA
ENDBRANCH   2   3
ENDBRANCH   1   2
BRANCH   1   6
ATOM      6  C   UNL     1     194.001 201.655 196.547  1.00  0.00     0.000 C 
BRANCH   6   7
ATOM      7  C   UNL     1     192.656 201.911 197.237  1.00  0.00    -0.003 C 
ATOM      8  C   UNL     1     192.820 202.828 198.445  1.00  0.00     0.004 C 
ENDBRANCH   6   7
ENDBRANCH   1   6
TORSDOF 4
ENDMDL
MODEL 7
REMARK VINA RESULT:    -3.314      3.614      4.721
REMARK INTER + INTRA:          -4.208
REMARK INTER:                  -4.127
REMARK INTRA:                  -0.082
REMARK UNBOUND:                -0.120
REMARK SMILES CCCCCC(=O)[O-]
REMARK SMILES IDX 4 1 5 2 6 3 7 4 8 5 3 6 2 7 1 8
REMARK H PARENT
REMARK Flexibility Score: inf
ROOT
ATOM      1  C   UNL     1     192.265 194.867 191.124  1.00  0.00     0.006 C 
ENDROOT
BRANCH   1   2
ATOM      2  C   UNL     1     191.485 195.490 192.285  1.00  0.00     0.053 C 
BRANCH   2   3
ATOM      3  C   UNL     1     191.390 196.974 192.117  1.00  0.00     0.041 C 
ATOM      4  O   UNL     1     191.431 197.729 193.124  1.00  0.00    -0.550 OA
ATOM      5  O   UNL     1     191.205 197.521 190.854  1.00  0.00    -0.550 OA
ENDBRANCH   2   3
ENDBRANCH   1   2
BRANCH   1   6
ATOM      6  C   UNL     1     192.616 193.405 191.419  1.00  0.00     0.000 C 
BRANCH   6   7
ATOM      7  C   UNL     1     191.446 192.478 191.075  1.00  0.00    -0.003 C 
ATOM      8  C   UNL     1     191.478 191.209 191.923  1.00  0.00     0.004 C 
ENDBRANCH   6   7
ENDBRANCH   1   6
TORSDOF 4
ENDMDL
MODEL 8
REMARK VINA RESULT:    -3.262      2.570      4.270
REMARK INTER + INTRA:          -4.145
REMARK INTER:                  -3.965
REMARK INTRA:                  -0.180
REMARK UNBOUND:                -0.120
REMARK SMILES CCCCCC(=O)[O-]
REMARK SMILES IDX 4 1 5 2 6 3 7 4 8 5 3 6 2 7 1 8
REMARK H PARENT
REMARK Flexibility Score: inf
ROOT
ATOM      1  C   UNL     1     192.016 192.611 191.679  1.00  0.00     0.006 C 
ENDROOT
BRANCH   1   2
ATOM      2  C   UNL     1     192.485 193.938 191.075  1.00  0.00     0.053 C 
BRANCH   2   3
ATOM      3  C   UNL     1     191.619 195.064 191.545  1.00  0.00     0.041 C 
ATOM      4  O   UNL     1     190.868 194.911 192.544  1.00  0.00    -0.550 OA
ATOM      5  O   UNL     1     191.603 196.266 190.850  1.00  0.00    -0.550 OA
ENDBRANCH   2   3
ENDBRANCH   1   2
BRANCH   1   6
ATOM      6  C   UNL     1     191.135 191.838 190.692  1.00  0.00     0.000 C 
BRANCH   6   7
ATOM      7  C   UNL     1     189.676 191.813 191.160  1.00  0.00    -0.003 C 
ATOM      8  C   UNL     1     188.721 192.121 190.011  1.00  0.00     0.004 C 
ENDBRANCH   6   7
ENDBRANCH   1   6
TORSDOF 4
ENDMDL
