MODEL 1
REMARK VINA RESULT:     9.843      0.000      0.000
REMARK INTER + INTRA:          12.372
REMARK INTER:                  11.857
REMARK INTRA:                   0.516
REMARK UNBOUND:                 0.516
REMARK SMILES O=c1c(O)c(-c2ccc(O)c(O)c2)oc2cc(O)cc(O)c12
REMARK SMILES IDX 5 1 3 2 2 3 1 4 22 5 20 6 19 7 17 8 16 9 15 10 14 11 6 12
REMARK SMILES IDX 7 13 8 14 9 15 13 16 11 17 10 18 12 20 4 22 21 24 18 26
REMARK H PARENT 10 19 12 21 4 23 21 25 18 27
REMARK Flexibility Score: inf
ROOT
ATOM      1  C   UNL     1       3.025 135.322 155.741  1.00  0.00     0.180 A 
ATOM      2  C   UNL     1       3.838 136.000 154.816  1.00  0.00     0.208 A 
ATOM      3  C   UNL     1       4.287 135.315 153.674  1.00  0.00     0.238 A 
ATOM      4  O   UNL     1       4.970 135.943 152.824  1.00  0.00    -0.285 OA
ATOM      5  C   UNL     1       3.930 133.959 153.480  1.00  0.00     0.111 A 
ATOM      6  C   UNL     1       4.362 133.158 152.380  1.00  0.00     0.134 A 
ATOM      7  C   UNL     1       3.842 131.868 152.221  1.00  0.00     0.093 A 
ATOM      8  C   UNL     1       2.956 131.328 153.155  1.00  0.00     0.123 A 
ATOM      9  C   UNL     1       2.576 132.080 154.265  1.00  0.00     0.094 A 
ATOM     10  C   UNL     1       3.049 133.383 154.432  1.00  0.00     0.146 A 
ATOM     11  O   UNL     1       2.653 134.070 155.497  1.00  0.00    -0.452 OA
ENDROOT
BRANCH   1  12
ATOM     12  C   UNL     1       2.533 135.967 156.980  1.00  0.00     0.025 A 
ATOM     13  C   UNL     1       1.898 135.223 157.990  1.00  0.00     0.016 A 
ATOM     14  C   UNL     1       1.420 135.857 159.140  1.00  0.00     0.051 A 
ATOM     15  C   UNL     1       1.559 137.243 159.292  1.00  0.00     0.157 A 
ATOM     16  C   UNL     1       2.651 137.359 157.128  1.00  0.00     0.062 A 
ATOM     17  C   UNL     1       2.172 137.995 158.282  1.00  0.00     0.158 A 
BRANCH  15  18
ATOM     18  O   UNL     1       1.085 137.879 160.438  1.00  0.00    -0.504 OA
ATOM     19  H   UNL     1       1.638 137.921 161.287  1.00  0.00     0.293 HD
ENDBRANCH  15  18
BRANCH  17  20
ATOM     20  O   UNL     1       2.302 139.375 158.432  1.00  0.00    -0.504 OA
ATOM     21  H   UNL     1       2.045 140.015 157.690  1.00  0.00     0.293 HD
ENDBRANCH  17  20
ENDBRANCH   1  12
BRANCH   2  22
ATOM     22  O   UNL     1       4.160 137.345 155.017  1.00  0.00    -0.502 OA
ATOM     23  H   UNL     1       5.092 137.648 155.273  1.00  0.00     0.293 HD
ENDBRANCH   2  22
BRANCH   6  24
ATOM     24  O   UNL     1       5.312 133.569 151.441  1.00  0.00    -0.507 OA
ATOM     25  H   UNL     1       5.193 133.514 150.441  1.00  0.00     0.293 HD
ENDBRANCH   6  24
BRANCH   8  26
ATOM     26  O   UNL     1       2.455 130.037 152.997  1.00  0.00    -0.508 OA
ATOM     27  H   UNL     1       2.953 129.338 152.458  1.00  0.00     0.293 HD
ENDBRANCH   8  26
TORSDOF 6
ENDMDL
MODEL 2
REMARK VINA RESULT:    10.388      0.669      1.445
REMARK INTER + INTRA:          13.029
REMARK INTER:                  12.558
REMARK INTRA:                   0.471
REMARK UNBOUND:                 0.516
REMARK SMILES O=c1c(O)c(-c2ccc(O)c(O)c2)oc2cc(O)cc(O)c12
REMARK SMILES IDX 5 1 3 2 2 3 1 4 22 5 20 6 19 7 17 8 16 9 15 10 14 11 6 12
REMARK SMILES IDX 7 13 8 14 9 15 13 16 11 17 10 18 12 20 4 22 21 24 18 26
REMARK H PARENT 10 19 12 21 4 23 21 25 18 27
REMARK Flexibility Score: inf
ROOT
ATOM      1  C   UNL     1       3.154 135.314 155.488  1.00  0.00     0.180 A 
ATOM      2  C   UNL     1       3.913 135.888 154.453  1.00  0.00     0.208 A 
ATOM      3  C   UNL     1       4.294 135.086 153.364  1.00  0.00     0.238 A 
ATOM      4  O   UNL     1       4.927 135.619 152.415  1.00  0.00    -0.285 OA
ATOM      5  C   UNL     1       3.927 133.720 153.332  1.00  0.00     0.111 A 
ATOM      6  C   UNL     1       4.293 132.807 152.297  1.00  0.00     0.134 A 
ATOM      7  C   UNL     1       3.764 131.511 152.302  1.00  0.00     0.093 A 
ATOM      8  C   UNL     1       2.934 131.075 153.338  1.00  0.00     0.123 A 
ATOM      9  C   UNL     1       2.619 131.940 154.383  1.00  0.00     0.094 A 
ATOM     10  C   UNL     1       3.102 133.251 154.387  1.00  0.00     0.146 A 
ATOM     11  O   UNL     1       2.769 134.046 155.397  1.00  0.00    -0.452 OA
ENDROOT
BRANCH   1  12
ATOM     12  C   UNL     1       2.736 136.087 156.680  1.00  0.00     0.025 A 
ATOM     13  C   UNL     1       3.106 137.433 156.846  1.00  0.00     0.016 A 
ATOM     14  C   UNL     1       2.720 138.137 157.990  1.00  0.00     0.051 A 
ATOM     15  C   UNL     1       1.971 137.502 158.989  1.00  0.00     0.157 A 
ATOM     16  C   UNL     1       2.002 135.450 157.694  1.00  0.00     0.062 A 
ATOM     17  C   UNL     1       1.615 136.155 158.843  1.00  0.00     0.158 A 
BRANCH  15  18
ATOM     18  O   UNL     1       1.582 138.200 160.132  1.00  0.00    -0.504 OA
ATOM     19  H   UNL     1       0.767 137.926 160.668  1.00  0.00     0.293 HD
ENDBRANCH  15  18
BRANCH  17  20
ATOM     20  O   UNL     1       0.876 135.524 159.842  1.00  0.00    -0.504 OA
ATOM     21  H   UNL     1       0.382 136.054 160.551  1.00  0.00     0.293 HD
ENDBRANCH  17  20
ENDBRANCH   1  12
BRANCH   2  22
ATOM     22  O   UNL     1       4.247 137.244 154.494  1.00  0.00    -0.502 OA
ATOM     23  H   UNL     1       3.563 137.977 154.352  1.00  0.00     0.293 HD
ENDBRANCH   2  22
BRANCH   6  24
ATOM     24  O   UNL     1       5.188 133.112 151.267  1.00  0.00    -0.507 OA
ATOM     25  H   UNL     1       6.120 132.737 151.186  1.00  0.00     0.293 HD
ENDBRANCH   6  24
BRANCH   8  26
ATOM     26  O   UNL     1       2.424 129.778 153.343  1.00  0.00    -0.508 OA
ATOM     27  H   UNL     1       2.365 129.229 152.493  1.00  0.00     0.293 HD
ENDBRANCH   8  26
TORSDOF 6
ENDMDL
MODEL 3
REMARK VINA RESULT:    12.261      1.235      3.089
REMARK INTER + INTRA:          15.285
REMARK INTER:                  14.770
REMARK INTRA:                   0.515
REMARK UNBOUND:                 0.516
REMARK SMILES O=c1c(O)c(-c2ccc(O)c(O)c2)oc2cc(O)cc(O)c12
REMARK SMILES IDX 5 1 3 2 2 3 1 4 22 5 20 6 19 7 17 8 16 9 15 10 14 11 6 12
REMARK SMILES IDX 7 13 8 14 9 15 13 16 11 17 10 18 12 20 4 22 21 24 18 26
REMARK H PARENT 10 19 12 21 4 23 21 25 18 27
REMARK Flexibility Score: inf
ROOT
ATOM      1  C   UNL     1       2.754 134.684 155.818  1.00  0.00     0.180 A 
ATOM      2  C   UNL     1       2.006 133.497 155.908  1.00  0.00     0.208 A 
ATOM      3  C   UNL     1       2.210 132.489 154.951  1.00  0.00     0.238 A 
ATOM      4  O   UNL     1       1.576 131.408 155.068  1.00  0.00    -0.285 OA
ATOM      5  C   UNL     1       3.146 132.688 153.907  1.00  0.00     0.111 A 
ATOM      6  C   UNL     1       3.402 131.752 152.861  1.00  0.00     0.134 A 
ATOM      7  C   UNL     1       4.442 131.996 151.956  1.00  0.00     0.093 A 
ATOM      8  C   UNL     1       5.192 133.173 152.021  1.00  0.00     0.123 A 
ATOM      9  C   UNL     1       4.909 134.121 153.002  1.00  0.00     0.094 A 
ATOM     10  C   UNL     1       3.901 133.888 153.941  1.00  0.00     0.146 A 
ATOM     11  O   UNL     1       3.671 134.813 154.866  1.00  0.00    -0.452 OA
ENDROOT
BRANCH   1  12
ATOM     12  C   UNL     1       2.579 135.801 156.774  1.00  0.00     0.025 A 
ATOM     13  C   UNL     1       3.189 137.050 156.561  1.00  0.00     0.016 A 
ATOM     14  C   UNL     1       3.030 138.082 157.489  1.00  0.00     0.051 A 
ATOM     15  C   UNL     1       2.269 137.878 158.648  1.00  0.00     0.157 A 
ATOM     16  C   UNL     1       1.835 135.595 157.948  1.00  0.00     0.062 A 
ATOM     17  C   UNL     1       1.675 136.631 158.880  1.00  0.00     0.158 A 
BRANCH  15  18
ATOM     18  O   UNL     1       2.106 138.905 159.576  1.00  0.00    -0.504 OA
ATOM     19  H   UNL     1       2.876 139.225 160.153  1.00  0.00     0.293 HD
ENDBRANCH  15  18
BRANCH  17  20
ATOM     20  O   UNL     1       0.925 136.428 160.037  1.00  0.00    -0.504 OA
ATOM     21  H   UNL     1       0.262 137.120 160.367  1.00  0.00     0.293 HD
ENDBRANCH  17  20
ENDBRANCH   1  12
BRANCH   2  22
ATOM     22  O   UNL     1       1.103 133.313 156.959  1.00  0.00    -0.502 OA
ATOM     23  H   UNL     1       0.110 133.479 156.858  1.00  0.00     0.293 HD
ENDBRANCH   2  22
BRANCH   6  24
ATOM     24  O   UNL     1       2.653 130.590 152.651  1.00  0.00    -0.507 OA
ATOM     25  H   UNL     1       3.002 129.753 152.211  1.00  0.00     0.293 HD
ENDBRANCH   6  24
BRANCH   8  26
ATOM     26  O   UNL     1       6.215 133.416 151.107  1.00  0.00    -0.508 OA
ATOM     27  H   UNL     1       7.159 133.083 151.268  1.00  0.00     0.293 HD
ENDBRANCH   8  26
TORSDOF 6
ENDMDL
