MODEL 1
REMARK VINA RESULT:    -3.641      0.000      0.000
REMARK INTER + INTRA:          -8.996
REMARK INTER:                  -7.046
REMARK INTRA:                  -1.950
REMARK UNBOUND:                -1.950
REMARK SMILES CCCCCCCCCCCCCCCCCC(=O)[O-]
REMARK SMILES IDX 10 1 11 2 12 3 13 4 14 5 15 6 16 7 17 8 18 9 19 10 20 11
REMARK SMILES IDX 9 12 8 13 7 14 6 15 5 16 4 17 3 18 2 19 1 20
REMARK H PARENT
REMARK Flexibility Score: inf
ROOT
ATOM      1  C   UNL     1     -13.868 -16.313   3.119  1.00  0.00     0.000 C 
ENDROOT
BRANCH   1   2
ATOM      2  C   UNL     1     -13.346 -15.192   2.202  1.00  0.00     0.000 C 
BRANCH   2   3
ATOM      3  C   UNL     1     -13.789 -13.796   2.667  1.00  0.00     0.000 C 
BRANCH   3   4
ATOM      4  C   UNL     1     -12.633 -12.780   2.663  1.00  0.00     0.000 C 
BRANCH   4   5
ATOM      5  C   UNL     1     -12.690 -11.815   3.857  1.00  0.00     0.000 C 
BRANCH   5   6
ATOM      6  C   UNL     1     -13.725 -12.238   4.910  1.00  0.00     0.000 C 
BRANCH   6   7
ATOM      7  C   UNL     1     -14.886 -11.233   4.972  1.00  0.00     0.006 C 
BRANCH   7   8
ATOM      8  C   UNL     1     -14.657 -10.027   4.053  1.00  0.00     0.053 C 
BRANCH   8   9
ATOM      9  C   UNL     1     -14.755  -8.732   4.801  1.00  0.00     0.041 C 
ATOM     10  O   UNL     1     -13.808  -7.904   4.764  1.00  0.00    -0.550 OA
ATOM     11  O   UNL     1     -15.908  -8.428   5.513  1.00  0.00    -0.550 OA
ENDBRANCH   8   9
ENDBRANCH   7   8
ENDBRANCH   6   7
ENDBRANCH   5   6
ENDBRANCH   4   5
ENDBRANCH   3   4
ENDBRANCH   2   3
ENDBRANCH   1   2
BRANCH   1  12
ATOM     12  C   UNL     1     -14.224 -15.793   4.529  1.00  0.00     0.000 C 
BRANCH  12  13
ATOM     13  C   UNL     1     -15.662 -16.130   4.970  1.00  0.00    -0.000 C 
BRANCH  13  14
ATOM     14  C   UNL     1     -15.813 -16.538   6.445  1.00  0.00    -0.000 C 
BRANCH  14  15
ATOM     15  C   UNL     1     -15.187 -17.910   6.752  1.00  0.00    -0.000 C 
BRANCH  15  16
ATOM     16  C   UNL     1     -15.604 -18.988   5.741  1.00  0.00    -0.000 C 
BRANCH  16  17
ATOM     17  C   UNL     1     -14.408 -19.786   5.193  1.00  0.00    -0.000 C 
BRANCH  17  18
ATOM     18  C   UNL     1     -13.062 -19.267   5.744  1.00  0.00    -0.000 C 
BRANCH  18  19
ATOM     19  C   UNL     1     -12.016 -18.994   4.650  1.00  0.00    -0.003 C 
ATOM     20  C   UNL     1     -10.715 -18.410   5.197  1.00  0.00     0.004 C 
ENDBRANCH  18  19
ENDBRANCH  17  18
ENDBRANCH  16  17
ENDBRANCH  15  16
ENDBRANCH  14  15
ENDBRANCH  13  14
ENDBRANCH  12  13
ENDBRANCH   1  12
TORSDOF 16
ENDMDL
MODEL 2
REMARK VINA RESULT:    -3.545      4.616      7.822
REMARK INTER + INTRA:          -8.811
REMARK INTER:                  -6.654
REMARK INTRA:                  -2.157
REMARK UNBOUND:                -1.950
REMARK SMILES CCCCCCCCCCCCCCCCCC(=O)[O-]
REMARK SMILES IDX 10 1 11 2 12 3 13 4 14 5 15 6 16 7 17 8 18 9 19 10 20 11
REMARK SMILES IDX 9 12 8 13 7 14 6 15 5 16 4 17 3 18 2 19 1 20
REMARK H PARENT
REMARK Flexibility Score: inf
ROOT
ATOM      1  C   UNL     1     -15.150 -17.973   6.800  1.00  0.00     0.000 C 
ENDROOT
BRANCH   1   2
ATOM      2  C   UNL     1     -14.546 -18.675   5.570  1.00  0.00     0.000 C 
BRANCH   2   3
ATOM      3  C   UNL     1     -13.090 -19.109   5.794  1.00  0.00     0.000 C 
BRANCH   3   4
ATOM      4  C   UNL     1     -12.142 -18.578   4.704  1.00  0.00     0.000 C 
BRANCH   4   5
ATOM      5  C   UNL     1     -12.864 -17.704   3.668  1.00  0.00     0.000 C 
BRANCH   5   6
ATOM      6  C   UNL     1     -12.755 -18.265   2.242  1.00  0.00     0.000 C 
BRANCH   6   7
ATOM      7  C   UNL     1     -13.915 -19.227   1.941  1.00  0.00     0.006 C 
BRANCH   7   8
ATOM      8  C   UNL     1     -13.448 -20.685   1.845  1.00  0.00     0.053 C 
BRANCH   8   9
ATOM      9  C   UNL     1     -13.857 -21.479   3.048  1.00  0.00     0.041 C 
ATOM     10  O   UNL     1     -15.076 -21.620   3.332  1.00  0.00    -0.550 OA
ATOM     11  O   UNL     1     -12.892 -22.089   3.839  1.00  0.00    -0.550 OA
ENDBRANCH   8   9
ENDBRANCH   7   8
ENDBRANCH   6   7
ENDBRANCH   5   6
ENDBRANCH   4   5
ENDBRANCH   3   4
ENDBRANCH   2   3
ENDBRANCH   1   2
BRANCH   1  12
ATOM     12  C   UNL     1     -15.920 -16.691   6.418  1.00  0.00     0.000 C 
BRANCH  12  13
ATOM     13  C   UNL     1     -16.061 -16.480   4.897  1.00  0.00    -0.000 C 
BRANCH  13  14
ATOM     14  C   UNL     1     -15.524 -15.138   4.372  1.00  0.00    -0.000 C 
BRANCH  14  15
ATOM     15  C   UNL     1     -14.331 -14.611   5.188  1.00  0.00    -0.000 C 
BRANCH  15  16
ATOM     16  C   UNL     1     -14.366 -13.085   5.366  1.00  0.00    -0.000 C 
BRANCH  16  17
ATOM     17  C   UNL     1     -12.963 -12.452   5.353  1.00  0.00    -0.000 C 
BRANCH  17  18
ATOM     18  C   UNL     1     -12.714 -11.621   4.076  1.00  0.00    -0.000 C 
BRANCH  18  19
ATOM     19  C   UNL     1     -13.341 -12.234   2.813  1.00  0.00    -0.003 C 
ATOM     20  C   UNL     1     -12.344 -13.033   1.976  1.00  0.00     0.004 C 
ENDBRANCH  18  19
ENDBRANCH  17  18
ENDBRANCH  16  17
ENDBRANCH  15  16
ENDBRANCH  14  15
ENDBRANCH  13  14
ENDBRANCH  12  13
ENDBRANCH   1  12
TORSDOF 16
ENDMDL
MODEL 3
REMARK VINA RESULT:    -3.510      4.907      8.086
REMARK INTER + INTRA:          -8.743
REMARK INTER:                  -6.229
REMARK INTRA:                  -2.515
REMARK UNBOUND:                -1.950
REMARK SMILES CCCCCCCCCCCCCCCCCC(=O)[O-]
REMARK SMILES IDX 10 1 11 2 12 3 13 4 14 5 15 6 16 7 17 8 18 9 19 10 20 11
REMARK SMILES IDX 9 12 8 13 7 14 6 15 5 16 4 17 3 18 2 19 1 20
REMARK H PARENT
REMARK Flexibility Score: inf
ROOT
ATOM      1  C   UNL     1     -13.347 -19.377   5.770  1.00  0.00     0.000 C 
ENDROOT
BRANCH   1   2
ATOM      2  C   UNL     1     -12.234 -18.633   5.012  1.00  0.00     0.000 C 
BRANCH   2   3
ATOM      3  C   UNL     1     -12.060 -19.139   3.572  1.00  0.00     0.000 C 
BRANCH   3   4
ATOM      4  C   UNL     1     -13.084 -18.522   2.603  1.00  0.00     0.000 C 
BRANCH   4   5
ATOM      5  C   UNL     1     -14.007 -19.574   1.969  1.00  0.00     0.000 C 
BRANCH   5   6
ATOM      6  C   UNL     1     -15.435 -19.524   2.533  1.00  0.00     0.000 C 
BRANCH   6   7
ATOM      7  C   UNL     1     -15.732 -20.767   3.386  1.00  0.00     0.006 C 
BRANCH   7   8
ATOM      8  C   UNL     1     -14.807 -21.941   3.041  1.00  0.00     0.053 C 
BRANCH   8   9
ATOM      9  C   UNL     1     -14.167 -22.522   4.265  1.00  0.00     0.041 C 
ATOM     10  O   UNL     1     -12.919 -22.681   4.315  1.00  0.00    -0.550 OA
ATOM     11  O   UNL     1     -14.948 -22.860   5.363  1.00  0.00    -0.550 OA
ENDBRANCH   8   9
ENDBRANCH   7   8
ENDBRANCH   6   7
ENDBRANCH   5   6
ENDBRANCH   4   5
ENDBRANCH   3   4
ENDBRANCH   2   3
ENDBRANCH   1   2
BRANCH   1  12
ATOM     12  C   UNL     1     -14.222 -18.420   6.607  1.00  0.00     0.000 C 
BRANCH  12  13
ATOM     13  C   UNL     1     -15.621 -18.174   6.007  1.00  0.00    -0.000 C 
BRANCH  13  14
ATOM     14  C   UNL     1     -15.943 -16.705   5.682  1.00  0.00    -0.000 C 
BRANCH  14  15
ATOM     15  C   UNL     1     -15.311 -16.235   4.360  1.00  0.00    -0.000 C 
BRANCH  15  16
ATOM     16  C   UNL     1     -14.155 -15.246   4.578  1.00  0.00    -0.000 C 
BRANCH  16  17
ATOM     17  C   UNL     1     -14.588 -13.983   5.343  1.00  0.00    -0.000 C 
BRANCH  17  18
ATOM     18  C   UNL     1     -13.401 -13.034   5.616  1.00  0.00    -0.000 C 
BRANCH  18  19
ATOM     19  C   UNL     1     -13.454 -11.734   4.796  1.00  0.00    -0.003 C 
ATOM     20  C   UNL     1     -12.627 -11.800   3.513  1.00  0.00     0.004 C 
ENDBRANCH  18  19
ENDBRANCH  17  18
ENDBRANCH  16  17
ENDBRANCH  15  16
ENDBRANCH  14  15
ENDBRANCH  13  14
ENDBRANCH  12  13
ENDBRANCH   1  12
TORSDOF 16
ENDMDL
MODEL 4
REMARK VINA RESULT:    -3.501      2.403      4.600
REMARK INTER + INTRA:          -8.726
REMARK INTER:                  -6.214
REMARK INTRA:                  -2.511
REMARK UNBOUND:                -1.950
REMARK SMILES CCCCCCCCCCCCCCCCCC(=O)[O-]
REMARK SMILES IDX 10 1 11 2 12 3 13 4 14 5 15 6 16 7 17 8 18 9 19 10 20 11
REMARK SMILES IDX 9 12 8 13 7 14 6 15 5 16 4 17 3 18 2 19 1 20
REMARK H PARENT
REMARK Flexibility Score: inf
ROOT
ATOM      1  C   UNL     1     -12.310 -18.821   5.187  1.00  0.00     0.000 C 
ENDROOT
BRANCH   1   2
ATOM      2  C   UNL     1     -13.480 -19.141   6.134  1.00  0.00     0.000 C 
BRANCH   2   3
ATOM      3  C   UNL     1     -14.797 -18.487   5.687  1.00  0.00     0.000 C 
BRANCH   3   4
ATOM      4  C   UNL     1     -15.383 -17.553   6.760  1.00  0.00     0.000 C 
BRANCH   4   5
ATOM      5  C   UNL     1     -15.927 -16.243   6.170  1.00  0.00     0.000 C 
BRANCH   5   6
ATOM      6  C   UNL     1     -14.973 -15.615   5.143  1.00  0.00     0.000 C 
BRANCH   6   7
ATOM      7  C   UNL     1     -15.022 -14.081   5.216  1.00  0.00     0.006 C 
BRANCH   7   8
ATOM      8  C   UNL     1     -14.018 -13.424   4.259  1.00  0.00     0.053 C 
BRANCH   8   9
ATOM      9  C   UNL     1     -13.171 -12.405   4.958  1.00  0.00     0.041 C 
ATOM     10  O   UNL     1     -12.944 -11.290   4.419  1.00  0.00    -0.550 OA
ATOM     11  O   UNL     1     -12.657 -12.676   6.220  1.00  0.00    -0.550 OA
ENDBRANCH   8   9
ENDBRANCH   7   8
ENDBRANCH   6   7
ENDBRANCH   5   6
ENDBRANCH   4   5
ENDBRANCH   3   4
ENDBRANCH   2   3
ENDBRANCH   1   2
BRANCH   1  12
ATOM     12  C   UNL     1     -12.797 -18.328   3.807  1.00  0.00     0.000 C 
BRANCH  12  13
ATOM     13  C   UNL     1     -12.352 -19.225   2.635  1.00  0.00    -0.000 C 
BRANCH  13  14
ATOM     14  C   UNL     1     -13.498 -19.830   1.805  1.00  0.00    -0.000 C 
BRANCH  14  15
ATOM     15  C   UNL     1     -14.849 -19.142   2.063  1.00  0.00    -0.000 C 
BRANCH  15  16
ATOM     16  C   UNL     1     -15.876 -20.082   2.714  1.00  0.00    -0.000 C 
BRANCH  16  17
ATOM     17  C   UNL     1     -15.295 -21.472   3.029  1.00  0.00    -0.000 C 
BRANCH  17  18
ATOM     18  C   UNL     1     -15.681 -21.955   4.443  1.00  0.00    -0.000 C 
BRANCH  18  19
ATOM     19  C   UNL     1     -14.488 -22.487   5.256  1.00  0.00    -0.003 C 
ATOM     20  C   UNL     1     -13.204 -22.593   4.437  1.00  0.00     0.004 C 
ENDBRANCH  18  19
ENDBRANCH  17  18
ENDBRANCH  16  17
ENDBRANCH  15  16
ENDBRANCH  14  15
ENDBRANCH  13  14
ENDBRANCH  12  13
ENDBRANCH   1  12
TORSDOF 16
ENDMDL
MODEL 5
REMARK VINA RESULT:    -3.490      1.590      3.097
REMARK INTER + INTRA:          -8.704
REMARK INTER:                  -6.630
REMARK INTRA:                  -2.074
REMARK UNBOUND:                -1.950
REMARK SMILES CCCCCCCCCCCCCCCCCC(=O)[O-]
REMARK SMILES IDX 10 1 11 2 12 3 13 4 14 5 15 6 16 7 17 8 18 9 19 10 20 11
REMARK SMILES IDX 9 12 8 13 7 14 6 15 5 16 4 17 3 18 2 19 1 20
REMARK H PARENT
REMARK Flexibility Score: inf
ROOT
ATOM      1  C   UNL     1     -14.618 -12.732   5.763  1.00  0.00     0.000 C 
ENDROOT
BRANCH   1   2
ATOM      2  C   UNL     1     -13.112 -12.692   5.448  1.00  0.00     0.000 C 
BRANCH   2   3
ATOM      3  C   UNL     1     -12.774 -11.722   4.305  1.00  0.00     0.000 C 
BRANCH   3   4
ATOM      4  C   UNL     1     -12.660 -12.433   2.945  1.00  0.00     0.000 C 
BRANCH   4   5
ATOM      5  C   UNL     1     -13.649 -11.884   1.905  1.00  0.00     0.000 C 
BRANCH   5   6
ATOM      6  C   UNL     1     -14.670 -10.913   2.516  1.00  0.00     0.000 C 
BRANCH   6   7
ATOM      7  C   UNL     1     -14.422  -9.477   2.028  1.00  0.00     0.006 C 
BRANCH   7   8
ATOM      8  C   UNL     1     -14.358  -8.474   3.187  1.00  0.00     0.053 C 
BRANCH   8   9
ATOM      9  C   UNL     1     -13.646  -7.216   2.793  1.00  0.00     0.041 C 
ATOM     10  O   UNL     1     -12.989  -7.167   1.720  1.00  0.00    -0.550 OA
ATOM     11  O   UNL     1     -13.733  -6.088   3.599  1.00  0.00    -0.550 OA
ENDBRANCH   8   9
ENDBRANCH   7   8
ENDBRANCH   6   7
ENDBRANCH   5   6
ENDBRANCH   4   5
ENDBRANCH   3   4
ENDBRANCH   2   3
ENDBRANCH   1   2
BRANCH   1  12
ATOM     12  C   UNL     1     -15.324 -13.921   5.076  1.00  0.00     0.000 C 
BRANCH  12  13
ATOM     13  C   UNL     1     -14.396 -15.120   4.802  1.00  0.00    -0.000 C 
BRANCH  13  14
ATOM     14  C   UNL     1     -14.491 -15.708   3.383  1.00  0.00    -0.000 C 
BRANCH  14  15
ATOM     15  C   UNL     1     -13.285 -16.591   3.021  1.00  0.00    -0.000 C 
BRANCH  15  16
ATOM     16  C   UNL     1     -13.524 -18.076   3.336  1.00  0.00    -0.000 C 
BRANCH  16  17
ATOM     17  C   UNL     1     -12.476 -18.657   4.301  1.00  0.00    -0.000 C 
BRANCH  17  18
ATOM     18  C   UNL     1     -13.025 -18.799   5.737  1.00  0.00    -0.000 C 
BRANCH  18  19
ATOM     19  C   UNL     1     -14.561 -18.770   5.812  1.00  0.00    -0.003 C 
ATOM     20  C   UNL     1     -15.087 -17.995   7.018  1.00  0.00     0.004 C 
ENDBRANCH  18  19
ENDBRANCH  17  18
ENDBRANCH  16  17
ENDBRANCH  15  16
ENDBRANCH  14  15
ENDBRANCH  13  14
ENDBRANCH  12  13
ENDBRANCH   1  12
TORSDOF 16
ENDMDL
MODEL 6
REMARK VINA RESULT:    -3.482      1.967      3.457
REMARK INTER + INTRA:          -8.688
REMARK INTER:                  -6.019
REMARK INTRA:                  -2.669
REMARK UNBOUND:                -1.950
REMARK SMILES CCCCCCCCCCCCCCCCCC(=O)[O-]
REMARK SMILES IDX 10 1 11 2 12 3 13 4 14 5 15 6 16 7 17 8 18 9 19 10 20 11
REMARK SMILES IDX 9 12 8 13 7 14 6 15 5 16 4 17 3 18 2 19 1 20
REMARK H PARENT
REMARK Flexibility Score: inf
ROOT
ATOM      1  C   UNL     1     -15.748 -16.189   5.732  1.00  0.00     0.000 C 
ENDROOT
BRANCH   1   2
ATOM      2  C   UNL     1     -14.530 -15.598   5.000  1.00  0.00     0.000 C 
BRANCH   2   3
ATOM      3  C   UNL     1     -14.792 -15.377   3.503  1.00  0.00     0.000 C 
BRANCH   3   4
ATOM      4  C   UNL     1     -13.520 -15.541   2.653  1.00  0.00     0.000 C 
BRANCH   4   5
ATOM      5  C   UNL     1     -13.075 -14.225   1.995  1.00  0.00     0.000 C 
BRANCH   5   6
ATOM      6  C   UNL     1     -14.176 -13.154   2.011  1.00  0.00     0.000 C 
BRANCH   6   7
ATOM      7  C   UNL     1     -13.638 -11.823   2.555  1.00  0.00     0.006 C 
BRANCH   7   8
ATOM      8  C   UNL     1     -12.638 -12.026   3.700  1.00  0.00     0.053 C 
BRANCH   8   9
ATOM      9  C   UNL     1     -13.325 -12.111   5.029  1.00  0.00     0.041 C 
ATOM     10  O   UNL     1     -14.493 -11.665   5.169  1.00  0.00    -0.550 OA
ATOM     11  O   UNL     1     -12.684 -12.713   6.104  1.00  0.00    -0.550 OA
ENDBRANCH   8   9
ENDBRANCH   7   8
ENDBRANCH   6   7
ENDBRANCH   5   6
ENDBRANCH   4   5
ENDBRANCH   3   4
ENDBRANCH   2   3
ENDBRANCH   1   2
BRANCH   1  12
ATOM     12  C   UNL     1     -15.408 -17.510   6.455  1.00  0.00     0.000 C 
BRANCH  12  13
ATOM     13  C   UNL     1     -15.606 -18.765   5.581  1.00  0.00    -0.000 C 
BRANCH  13  14
ATOM     14  C   UNL     1     -14.357 -19.646   5.413  1.00  0.00    -0.000 C 
BRANCH  14  15
ATOM     15  C   UNL     1     -13.059 -18.924   5.813  1.00  0.00    -0.000 C 
BRANCH  15  16
ATOM     16  C   UNL     1     -12.197 -18.545   4.599  1.00  0.00    -0.000 C 
BRANCH  16  17
ATOM     17  C   UNL     1     -12.290 -19.572   3.457  1.00  0.00    -0.000 C 
BRANCH  17  18
ATOM     18  C   UNL     1     -12.775 -18.932   2.139  1.00  0.00    -0.000 C 
BRANCH  18  19
ATOM     19  C   UNL     1     -14.081 -19.544   1.604  1.00  0.00    -0.003 C 
ATOM     20  C   UNL     1     -15.309 -18.683   1.895  1.00  0.00     0.004 C 
ENDBRANCH  18  19
ENDBRANCH  17  18
ENDBRANCH  16  17
ENDBRANCH  15  16
ENDBRANCH  14  15
ENDBRANCH  13  14
ENDBRANCH  12  13
ENDBRANCH   1  12
TORSDOF 16
ENDMDL
MODEL 7
REMARK VINA RESULT:    -3.467      3.755      8.150
REMARK INTER + INTRA:          -8.661
REMARK INTER:                  -6.743
REMARK INTRA:                  -1.918
REMARK UNBOUND:                -1.950
REMARK SMILES CCCCCCCCCCCCCCCCCC(=O)[O-]
REMARK SMILES IDX 10 1 11 2 12 3 13 4 14 5 15 6 16 7 17 8 18 9 19 10 20 11
REMARK SMILES IDX 9 12 8 13 7 14 6 15 5 16 4 17 3 18 2 19 1 20
REMARK H PARENT
REMARK Flexibility Score: inf
ROOT
ATOM      1  C   UNL     1     -14.727 -12.343   5.377  1.00  0.00     0.000 C 
ENDROOT
BRANCH   1   2
ATOM      2  C   UNL     1     -15.345 -13.753   5.386  1.00  0.00     0.000 C 
BRANCH   2   3
ATOM      3  C   UNL     1     -14.347 -14.838   4.954  1.00  0.00     0.000 C 
BRANCH   3   4
ATOM      4  C   UNL     1     -14.987 -16.236   4.894  1.00  0.00     0.000 C 
BRANCH   4   5
ATOM      5  C   UNL     1     -15.686 -16.624   6.206  1.00  0.00     0.000 C 
BRANCH   5   6
ATOM      6  C   UNL     1     -15.171 -17.952   6.780  1.00  0.00     0.000 C 
BRANCH   6   7
ATOM      7  C   UNL     1     -14.803 -18.930   5.653  1.00  0.00     0.006 C 
BRANCH   7   8
ATOM      8  C   UNL     1     -13.411 -19.545   5.851  1.00  0.00     0.053 C 
BRANCH   8   9
ATOM      9  C   UNL     1     -12.457 -19.117   4.779  1.00  0.00     0.041 C 
ATOM     10  O   UNL     1     -12.703 -19.374   3.571  1.00  0.00    -0.550 OA
ATOM     11  O   UNL     1     -11.311 -18.406   5.111  1.00  0.00    -0.550 OA
ENDBRANCH   8   9
ENDBRANCH   7   8
ENDBRANCH   6   7
ENDBRANCH   5   6
ENDBRANCH   4   5
ENDBRANCH   3   4
ENDBRANCH   2   3
ENDBRANCH   1   2
BRANCH   1  12
ATOM     12  C   UNL     1     -13.188 -12.384   5.257  1.00  0.00     0.000 C 
BRANCH  12  13
ATOM     13  C   UNL     1     -12.648 -11.722   3.974  1.00  0.00    -0.000 C 
BRANCH  13  14
ATOM     14  C   UNL     1     -12.577 -12.644   2.744  1.00  0.00    -0.000 C 
BRANCH  14  15
ATOM     15  C   UNL     1     -13.329 -12.076   1.529  1.00  0.00    -0.000 C 
BRANCH  15  16
ATOM     16  C   UNL     1     -14.782 -11.699   1.858  1.00  0.00    -0.000 C 
BRANCH  16  17
ATOM     17  C   UNL     1     -15.106 -10.231   1.528  1.00  0.00    -0.000 C 
BRANCH  17  18
ATOM     18  C   UNL     1     -15.317  -9.383   2.801  1.00  0.00    -0.000 C 
BRANCH  18  19
ATOM     19  C   UNL     1     -14.156  -8.419   3.096  1.00  0.00    -0.003 C 
ATOM     20  C   UNL     1     -13.798  -8.347   4.578  1.00  0.00     0.004 C 
ENDBRANCH  18  19
ENDBRANCH  17  18
ENDBRANCH  16  17
ENDBRANCH  15  16
ENDBRANCH  14  15
ENDBRANCH  13  14
ENDBRANCH  12  13
ENDBRANCH   1  12
TORSDOF 16
ENDMDL
MODEL 8
REMARK VINA RESULT:    -3.441      4.921      8.295
REMARK INTER + INTRA:          -8.610
REMARK INTER:                  -5.960
REMARK INTRA:                  -2.650
REMARK UNBOUND:                -1.950
REMARK SMILES CCCCCCCCCCCCCCCCCC(=O)[O-]
REMARK SMILES IDX 10 1 11 2 12 3 13 4 14 5 15 6 16 7 17 8 18 9 19 10 20 11
REMARK SMILES IDX 9 12 8 13 7 14 6 15 5 16 4 17 3 18 2 19 1 20
REMARK H PARENT
REMARK Flexibility Score: inf
ROOT
ATOM      1  C   UNL     1     -12.226 -18.456   4.836  1.00  0.00     0.000 C 
ENDROOT
BRANCH   1   2
ATOM      2  C   UNL     1     -13.180 -19.241   5.756  1.00  0.00     0.000 C 
BRANCH   2   3
ATOM      3  C   UNL     1     -14.330 -18.373   6.290  1.00  0.00     0.000 C 
BRANCH   3   4
ATOM      4  C   UNL     1     -15.683 -18.732   5.651  1.00  0.00     0.000 C 
BRANCH   4   5
ATOM      5  C   UNL     1     -15.753 -20.198   5.198  1.00  0.00     0.000 C 
BRANCH   5   6
ATOM      6  C   UNL     1     -16.052 -20.340   3.698  1.00  0.00     0.000 C 
BRANCH   6   7
ATOM      7  C   UNL     1     -15.548 -21.689   3.163  1.00  0.00     0.006 C 
BRANCH   7   8
ATOM      8  C   UNL     1     -14.365 -21.525   2.200  1.00  0.00     0.053 C 
BRANCH   8   9
ATOM      9  C   UNL     1     -13.116 -22.150   2.744  1.00  0.00     0.041 C 
ATOM     10  O   UNL     1     -12.162 -22.435   1.974  1.00  0.00    -0.550 OA
ATOM     11  O   UNL     1     -12.996 -22.389   4.107  1.00  0.00    -0.550 OA
ENDBRANCH   8   9
ENDBRANCH   7   8
ENDBRANCH   6   7
ENDBRANCH   5   6
ENDBRANCH   4   5
ENDBRANCH   3   4
ENDBRANCH   2   3
ENDBRANCH   1   2
BRANCH   1  12
ATOM     12  C   UNL     1     -12.661 -18.521   3.357  1.00  0.00     0.000 C 
BRANCH  12  13
ATOM     13  C   UNL     1     -13.133 -17.167   2.789  1.00  0.00    -0.000 C 
BRANCH  13  14
ATOM     14  C   UNL     1     -14.649 -17.053   2.551  1.00  0.00    -0.000 C 
BRANCH  14  15
ATOM     15  C   UNL     1     -15.281 -15.865   3.296  1.00  0.00    -0.000 C 
BRANCH  15  16
ATOM     16  C   UNL     1     -14.320 -15.223   4.308  1.00  0.00    -0.000 C 
BRANCH  16  17
ATOM     17  C   UNL     1     -15.053 -14.548   5.481  1.00  0.00    -0.000 C 
BRANCH  17  18
ATOM     18  C   UNL     1     -14.689 -13.053   5.609  1.00  0.00    -0.000 C 
BRANCH  18  19
ATOM     19  C   UNL     1     -13.175 -12.785   5.573  1.00  0.00    -0.003 C 
ATOM     20  C   UNL     1     -12.760 -11.845   4.443  1.00  0.00     0.004 C 
ENDBRANCH  18  19
ENDBRANCH  17  18
ENDBRANCH  16  17
ENDBRANCH  15  16
ENDBRANCH  14  15
ENDBRANCH  13  14
ENDBRANCH  12  13
ENDBRANCH   1  12
TORSDOF 16
ENDMDL
MODEL 9
REMARK VINA RESULT:    -3.425      4.069      7.330
REMARK INTER + INTRA:          -8.578
REMARK INTER:                  -6.282
REMARK INTRA:                  -2.297
REMARK UNBOUND:                -1.950
REMARK SMILES CCCCCCCCCCCCCCCCCC(=O)[O-]
REMARK SMILES IDX 10 1 11 2 12 3 13 4 14 5 15 6 16 7 17 8 18 9 19 10 20 11
REMARK SMILES IDX 9 12 8 13 7 14 6 15 5 16 4 17 3 18 2 19 1 20
REMARK H PARENT
REMARK Flexibility Score: inf
ROOT
ATOM      1  C   UNL     1     -13.497 -12.938   5.534  1.00  0.00     0.000 C 
ENDROOT
BRANCH   1   2
ATOM      2  C   UNL     1     -14.151 -14.123   4.801  1.00  0.00     0.000 C 
BRANCH   2   3
ATOM      3  C   UNL     1     -15.666 -14.203   5.043  1.00  0.00     0.000 C 
BRANCH   3   4
ATOM      4  C   UNL     1     -16.059 -15.399   5.928  1.00  0.00     0.000 C 
BRANCH   4   5
ATOM      5  C   UNL     1     -15.311 -16.686   5.548  1.00  0.00     0.000 C 
BRANCH   5   6
ATOM      6  C   UNL     1     -15.191 -17.669   6.722  1.00  0.00     0.000 C 
BRANCH   6   7
ATOM      7  C   UNL     1     -14.169 -18.773   6.411  1.00  0.00     0.006 C 
BRANCH   7   8
ATOM      8  C   UNL     1     -14.162 -19.155   4.926  1.00  0.00     0.053 C 
BRANCH   8   9
ATOM      9  C   UNL     1     -12.890 -19.843   4.534  1.00  0.00     0.041 C 
ATOM     10  O   UNL     1     -12.897 -21.064   4.226  1.00  0.00    -0.550 OA
ATOM     11  O   UNL     1     -11.701 -19.126   4.481  1.00  0.00    -0.550 OA
ENDBRANCH   8   9
ENDBRANCH   7   8
ENDBRANCH   6   7
ENDBRANCH   5   6
ENDBRANCH   4   5
ENDBRANCH   3   4
ENDBRANCH   2   3
ENDBRANCH   1   2
BRANCH   1  12
ATOM     12  C   UNL     1     -13.997 -11.578   5.003  1.00  0.00     0.000 C 
BRANCH  12  13
ATOM     13  C   UNL     1     -13.113 -10.983   3.889  1.00  0.00    -0.000 C 
BRANCH  13  14
ATOM     14  C   UNL     1     -13.820 -10.766   2.541  1.00  0.00    -0.000 C 
BRANCH  14  15
ATOM     15  C   UNL     1     -13.843 -12.032   1.668  1.00  0.00    -0.000 C 
BRANCH  15  16
ATOM     16  C   UNL     1     -12.503 -12.784   1.685  1.00  0.00    -0.000 C 
BRANCH  16  17
ATOM     17  C   UNL     1     -12.657 -14.282   1.366  1.00  0.00    -0.000 C 
BRANCH  17  18
ATOM     18  C   UNL     1     -14.133 -14.684   1.164  1.00  0.00    -0.000 C 
BRANCH  18  19
ATOM     19  C   UNL     1     -14.433 -16.138   1.566  1.00  0.00    -0.003 C 
ATOM     20  C   UNL     1     -13.313 -16.778   2.383  1.00  0.00     0.004 C 
ENDBRANCH  18  19
ENDBRANCH  17  18
ENDBRANCH  16  17
ENDBRANCH  15  16
ENDBRANCH  14  15
ENDBRANCH  13  14
ENDBRANCH  12  13
ENDBRANCH   1  12
TORSDOF 16
ENDMDL
