MODEL 1
REMARK VINA RESULT:    -4.369      0.000      0.000
REMARK INTER + INTRA:          -4.369
REMARK INTER:                  -4.369
REMARK INTRA:                   0.000
REMARK UNBOUND:                 0.000
REMARK SMILES c1ccc2ccccc2c1
REMARK SMILES IDX 2 1 1 2 10 3 9 4 8 5 7 6 6 7 5 8 4 9 3 10
REMARK H PARENT
REMARK Flexibility Score: inf
ROOT
ATOM      1  C   UNL     1      -3.799  -5.638   9.326  1.00  0.00     0.001 A 
ATOM      2  C   UNL     1      -3.632  -6.792  10.097  1.00  0.00     0.001 A 
ATOM      3  C   UNL     1      -2.357  -7.334  10.284  1.00  0.00     0.009 A 
ATOM      4  C   UNL     1      -1.238  -6.722   9.698  1.00  0.00    -0.018 A 
ATOM      5  C   UNL     1       0.047  -7.256   9.879  1.00  0.00     0.009 A 
ATOM      6  C   UNL     1       1.153  -6.636   9.290  1.00  0.00     0.001 A 
ATOM      7  C   UNL     1       0.985  -5.483   8.518  1.00  0.00     0.001 A 
ATOM      8  C   UNL     1      -0.289  -4.940   8.331  1.00  0.00     0.009 A 
ATOM      9  C   UNL     1      -1.408  -5.553   8.917  1.00  0.00    -0.018 A 
ATOM     10  C   UNL     1      -2.693  -5.019   8.736  1.00  0.00     0.009 A 
ENDROOT
TORSDOF 0
ENDMDL
MODEL 2
REMARK VINA RESULT:    -4.277     14.251     14.599
REMARK INTER + INTRA:          -4.277
REMARK INTER:                  -4.277
REMARK INTRA:                   0.000
REMARK UNBOUND:                 0.000
REMARK SMILES c1ccc2ccccc2c1
REMARK SMILES IDX 2 1 1 2 10 3 9 4 8 5 7 6 6 7 5 8 4 9 3 10
REMARK H PARENT
REMARK Flexibility Score: inf
ROOT
ATOM      1  C   UNL     1      -0.259  -1.019  -4.649  1.00  0.00     0.001 A 
ATOM      2  C   UNL     1       0.362  -2.267  -4.530  1.00  0.00     0.001 A 
ATOM      3  C   UNL     1       1.662  -2.360  -4.026  1.00  0.00     0.009 A 
ATOM      4  C   UNL     1       2.350  -1.201  -3.635  1.00  0.00    -0.018 A 
ATOM      5  C   UNL     1       3.656  -1.281  -3.126  1.00  0.00     0.009 A 
ATOM      6  C   UNL     1       4.331  -0.119  -2.741  1.00  0.00     0.001 A 
ATOM      7  C   UNL     1       3.710   1.128  -2.860  1.00  0.00     0.001 A 
ATOM      8  C   UNL     1       2.410   1.221  -3.365  1.00  0.00     0.009 A 
ATOM      9  C   UNL     1       1.721   0.062  -3.756  1.00  0.00    -0.018 A 
ATOM     10  C   UNL     1       0.416   0.143  -4.264  1.00  0.00     0.009 A 
ENDROOT
TORSDOF 0
ENDMDL
MODEL 3
REMARK VINA RESULT:    -4.271     14.304     14.934
REMARK INTER + INTRA:          -4.271
REMARK INTER:                  -4.271
REMARK INTRA:                   0.000
REMARK UNBOUND:                 0.000
REMARK SMILES c1ccc2ccccc2c1
REMARK SMILES IDX 2 1 1 2 10 3 9 4 8 5 7 6 6 7 5 8 4 9 3 10
REMARK H PARENT
REMARK Flexibility Score: inf
ROOT
ATOM      1  C   UNL     1       3.704   1.158  -2.864  1.00  0.00     0.001 A 
ATOM      2  C   UNL     1       4.335  -0.086  -2.765  1.00  0.00     0.001 A 
ATOM      3  C   UNL     1       3.669  -1.247  -3.164  1.00  0.00     0.009 A 
ATOM      4  C   UNL     1       2.360  -1.170  -3.668  1.00  0.00    -0.018 A 
ATOM      5  C   UNL     1       1.680  -2.329  -4.072  1.00  0.00     0.009 A 
ATOM      6  C   UNL     1       0.377  -2.239  -4.571  1.00  0.00     0.001 A 
ATOM      7  C   UNL     1      -0.255  -0.996  -4.669  1.00  0.00     0.001 A 
ATOM      8  C   UNL     1       0.412   0.166  -4.270  1.00  0.00     0.009 A 
ATOM      9  C   UNL     1       1.721   0.089  -3.767  1.00  0.00    -0.018 A 
ATOM     10  C   UNL     1       2.401   1.248  -3.362  1.00  0.00     0.009 A 
ENDROOT
TORSDOF 0
ENDMDL
MODEL 4
REMARK VINA RESULT:    -4.271     14.259     14.731
REMARK INTER + INTRA:          -4.271
REMARK INTER:                  -4.271
REMARK INTRA:                   0.000
REMARK UNBOUND:                 0.000
REMARK SMILES c1ccc2ccccc2c1
REMARK SMILES IDX 2 1 1 2 10 3 9 4 8 5 7 6 6 7 5 8 4 9 3 10
REMARK H PARENT
REMARK Flexibility Score: inf
ROOT
ATOM      1  C   UNL     1       0.371  -2.247  -4.513  1.00  0.00     0.001 A 
ATOM      2  C   UNL     1      -0.253  -1.002  -4.631  1.00  0.00     0.001 A 
ATOM      3  C   UNL     1       0.423   0.162  -4.252  1.00  0.00     0.009 A 
ATOM      4  C   UNL     1       1.733   0.085  -3.752  1.00  0.00    -0.018 A 
ATOM      5  C   UNL     1       2.422   1.245  -3.368  1.00  0.00     0.009 A 
ATOM      6  C   UNL     1       3.725   1.154  -2.872  1.00  0.00     0.001 A 
ATOM      7  C   UNL     1       4.349  -0.091  -2.754  1.00  0.00     0.001 A 
ATOM      8  C   UNL     1       3.674  -1.255  -3.133  1.00  0.00     0.009 A 
ATOM      9  C   UNL     1       2.364  -1.178  -3.633  1.00  0.00    -0.018 A 
ATOM     10  C   UNL     1       1.674  -2.338  -4.017  1.00  0.00     0.009 A 
ENDROOT
TORSDOF 0
ENDMDL
MODEL 5
REMARK VINA RESULT:    -4.268     14.273     15.033
REMARK INTER + INTRA:          -4.268
REMARK INTER:                  -4.268
REMARK INTRA:                   0.000
REMARK UNBOUND:                 0.000
REMARK SMILES c1ccc2ccccc2c1
REMARK SMILES IDX 2 1 1 2 10 3 9 4 8 5 7 6 6 7 5 8 4 9 3 10
REMARK H PARENT
REMARK Flexibility Score: inf
ROOT
ATOM      1  C   UNL     1       4.342  -0.084  -2.752  1.00  0.00     0.001 A 
ATOM      2  C   UNL     1       3.712   1.160  -2.858  1.00  0.00     0.001 A 
ATOM      3  C   UNL     1       2.408   1.248  -3.354  1.00  0.00     0.009 A 
ATOM      4  C   UNL     1       1.724   0.086  -3.747  1.00  0.00    -0.018 A 
ATOM      5  C   UNL     1       0.415   0.161  -4.246  1.00  0.00     0.009 A 
ATOM      6  C   UNL     1      -0.255  -1.003  -4.634  1.00  0.00     0.001 A 
ATOM      7  C   UNL     1       0.375  -2.246  -4.528  1.00  0.00     0.001 A 
ATOM      8  C   UNL     1       1.679  -2.334  -4.032  1.00  0.00     0.009 A 
ATOM      9  C   UNL     1       2.363  -1.173  -3.639  1.00  0.00    -0.018 A 
ATOM     10  C   UNL     1       3.672  -1.248  -3.140  1.00  0.00     0.009 A 
ENDROOT
TORSDOF 0
ENDMDL
MODEL 6
REMARK VINA RESULT:    -4.159     14.249     15.737
REMARK INTER + INTRA:          -4.159
REMARK INTER:                  -4.159
REMARK INTRA:                   0.000
REMARK UNBOUND:                 0.000
REMARK SMILES c1ccc2ccccc2c1
REMARK SMILES IDX 2 1 1 2 10 3 9 4 8 5 7 6 6 7 5 8 4 9 3 10
REMARK H PARENT
REMARK Flexibility Score: inf
ROOT
ATOM      1  C   UNL     1       0.446  -4.453  -6.784  1.00  0.00     0.001 A 
ATOM      2  C   UNL     1       0.098  -3.446  -7.688  1.00  0.00     0.001 A 
ATOM      3  C   UNL     1       0.073  -2.110  -7.278  1.00  0.00     0.009 A 
ATOM      4  C   UNL     1       0.398  -1.773  -5.954  1.00  0.00    -0.018 A 
ATOM      5  C   UNL     1       0.377  -0.436  -5.530  1.00  0.00     0.009 A 
ATOM      6  C   UNL     1       0.702  -0.115  -4.209  1.00  0.00     0.001 A 
ATOM      7  C   UNL     1       1.050  -1.122  -3.304  1.00  0.00     0.001 A 
ATOM      8  C   UNL     1       1.075  -2.458  -3.715  1.00  0.00     0.009 A 
ATOM      9  C   UNL     1       0.750  -2.795  -5.038  1.00  0.00    -0.018 A 
ATOM     10  C   UNL     1       0.771  -4.132  -5.463  1.00  0.00     0.009 A 
ENDROOT
TORSDOF 0
ENDMDL
MODEL 7
REMARK VINA RESULT:    -4.144     14.101     15.474
REMARK INTER + INTRA:          -4.144
REMARK INTER:                  -4.144
REMARK INTRA:                   0.000
REMARK UNBOUND:                 0.000
REMARK SMILES c1ccc2ccccc2c1
REMARK SMILES IDX 2 1 1 2 10 3 9 4 8 5 7 6 6 7 5 8 4 9 3 10
REMARK H PARENT
REMARK Flexibility Score: inf
ROOT
ATOM      1  C   UNL     1       0.755  -0.128  -3.980  1.00  0.00     0.001 A 
ATOM      2  C   UNL     1       1.160  -1.158  -3.127  1.00  0.00     0.001 A 
ATOM      3  C   UNL     1       1.193  -2.479  -3.583  1.00  0.00     0.009 A 
ATOM      4  C   UNL     1       0.820  -2.777  -4.904  1.00  0.00    -0.018 A 
ATOM      5  C   UNL     1       0.849  -4.098  -5.375  1.00  0.00     0.009 A 
ATOM      6  C   UNL     1       0.474  -4.381  -6.691  1.00  0.00     0.001 A 
ATOM      7  C   UNL     1       0.068  -3.351  -7.545  1.00  0.00     0.001 A 
ATOM      8  C   UNL     1       0.035  -2.031  -7.088  1.00  0.00     0.009 A 
ATOM      9  C   UNL     1       0.409  -1.733  -5.768  1.00  0.00    -0.018 A 
ATOM     10  C   UNL     1       0.380  -0.411  -5.297  1.00  0.00     0.009 A 
ENDROOT
TORSDOF 0
ENDMDL
MODEL 8
REMARK VINA RESULT:    -4.140     14.100     15.608
REMARK INTER + INTRA:          -4.140
REMARK INTER:                  -4.140
REMARK INTRA:                   0.000
REMARK UNBOUND:                 0.000
REMARK SMILES c1ccc2ccccc2c1
REMARK SMILES IDX 2 1 1 2 10 3 9 4 8 5 7 6 6 7 5 8 4 9 3 10
REMARK H PARENT
REMARK Flexibility Score: inf
ROOT
ATOM      1  C   UNL     1       1.145  -1.162  -3.125  1.00  0.00     0.001 A 
ATOM      2  C   UNL     1       0.753  -0.128  -3.981  1.00  0.00     0.001 A 
ATOM      3  C   UNL     1       0.383  -0.409  -5.299  1.00  0.00     0.009 A 
ATOM      4  C   UNL     1       0.401  -1.732  -5.769  1.00  0.00    -0.018 A 
ATOM      5  C   UNL     1       0.031  -2.028  -7.090  1.00  0.00     0.009 A 
ATOM      6  C   UNL     1       0.055  -3.349  -7.546  1.00  0.00     0.001 A 
ATOM      7  C   UNL     1       0.447  -4.382  -6.689  1.00  0.00     0.001 A 
ATOM      8  C   UNL     1       0.817  -4.101  -5.371  1.00  0.00     0.009 A 
ATOM      9  C   UNL     1       0.798  -2.778  -4.901  1.00  0.00    -0.018 A 
ATOM     10  C   UNL     1       1.168  -2.483  -3.580  1.00  0.00     0.009 A 
ENDROOT
TORSDOF 0
ENDMDL
MODEL 9
REMARK VINA RESULT:    -4.133     14.127     15.480
REMARK INTER + INTRA:          -4.133
REMARK INTER:                  -4.133
REMARK INTRA:                   0.000
REMARK UNBOUND:                 0.000
REMARK SMILES c1ccc2ccccc2c1
REMARK SMILES IDX 2 1 1 2 10 3 9 4 8 5 7 6 6 7 5 8 4 9 3 10
REMARK H PARENT
REMARK Flexibility Score: inf
ROOT
ATOM      1  C   UNL     1       0.005  -3.307  -7.568  1.00  0.00     0.001 A 
ATOM      2  C   UNL     1       0.371  -4.348  -6.710  1.00  0.00     0.001 A 
ATOM      3  C   UNL     1       0.747  -4.074  -5.392  1.00  0.00     0.009 A 
ATOM      4  C   UNL     1       0.757  -2.750  -4.923  1.00  0.00    -0.018 A 
ATOM      5  C   UNL     1       1.132  -2.461  -3.602  1.00  0.00     0.009 A 
ATOM      6  C   UNL     1       1.138  -1.139  -3.149  1.00  0.00     0.001 A 
ATOM      7  C   UNL     1       0.772  -0.098  -4.007  1.00  0.00     0.001 A 
ATOM      8  C   UNL     1       0.396  -0.373  -5.325  1.00  0.00     0.009 A 
ATOM      9  C   UNL     1       0.386  -1.696  -5.794  1.00  0.00    -0.018 A 
ATOM     10  C   UNL     1       0.011  -1.985  -7.115  1.00  0.00     0.009 A 
ENDROOT
TORSDOF 0
ENDMDL
