MODEL 1
REMARK VINA RESULT:    -4.425      0.000      0.000
REMARK INTER + INTRA:          -9.345
REMARK INTER:                  -8.046
REMARK INTRA:                  -1.299
REMARK UNBOUND:                -1.299
REMARK SMILES CCCCCCCCCCCCCC[C@H](C)C(=O)[O-]
REMARK SMILES IDX 9 1 10 2 11 3 12 4 13 5 14 6 15 7 16 8 17 9 18 10 19 11 8 12
REMARK SMILES IDX 7 13 6 14 5 15 4 16 3 17 2 18 1 19
REMARK H PARENT
REMARK Flexibility Score: inf
ROOT
ATOM      1  C   UNL     1       9.397  10.766  25.601  1.00  0.00     0.000 C 
ENDROOT
BRANCH   1   2
ATOM      2  C   UNL     1       8.028  11.467  25.648  1.00  0.00     0.000 C 
BRANCH   2   3
ATOM      3  C   UNL     1       7.956  12.700  24.734  1.00  0.00     0.000 C 
BRANCH   3   4
ATOM      4  C   UNL     1       9.345  13.240  24.358  1.00  0.00     0.000 C 
BRANCH   4   5
ATOM      5  C   UNL     1       9.341  14.045  23.046  1.00  0.00     0.001 C 
BRANCH   5   6
ATOM      6  C   UNL     1      10.527  13.768  22.097  1.00  0.00     0.009 C 
BRANCH   6   7
ATOM      7  C   UNL     1      10.906  14.953  21.182  1.00  0.00     0.032 C 
ATOM      8  C   UNL     1      10.487  16.280  21.824  1.00  0.00     0.014 C 
BRANCH   7   9
ATOM      9  C   UNL     1      10.271  14.823  19.823  1.00  0.00     0.044 C 
ATOM     10  O   UNL     1      10.792  14.080  18.951  1.00  0.00    -0.550 OA
ATOM     11  O   UNL     1       9.108  15.520  19.522  1.00  0.00    -0.550 OA
ENDBRANCH   7   9
ENDBRANCH   6   7
ENDBRANCH   5   6
ENDBRANCH   4   5
ENDBRANCH   3   4
ENDBRANCH   2   3
ENDBRANCH   1   2
BRANCH   1  12
ATOM     12  C   UNL     1       9.411   9.580  24.613  1.00  0.00     0.000 C 
BRANCH  12  13
ATOM     13  C   UNL     1       9.319   8.202  25.297  1.00  0.00    -0.000 C 
BRANCH  13  14
ATOM     14  C   UNL     1       8.033   7.971  26.110  1.00  0.00    -0.000 C 
BRANCH  14  15
ATOM     15  C   UNL     1       8.286   7.184  27.409  1.00  0.00    -0.000 C 
BRANCH  15  16
ATOM     16  C   UNL     1       8.987   8.033  28.481  1.00  0.00    -0.000 C 
BRANCH  16  17
ATOM     17  C   UNL     1       8.069   9.120  29.063  1.00  0.00    -0.000 C 
BRANCH  17  18
ATOM     18  C   UNL     1       8.797  10.465  29.152  1.00  0.00    -0.003 C 
ATOM     19  C   UNL     1       7.997  11.472  29.973  1.00  0.00     0.004 C 
ENDBRANCH  17  18
ENDBRANCH  16  17
ENDBRANCH  15  16
ENDBRANCH  14  15
ENDBRANCH  13  14
ENDBRANCH  12  13
ENDBRANCH   1  12
TORSDOF 14
ENDMDL
MODEL 2
REMARK VINA RESULT:    -4.291      2.981      5.212
REMARK INTER + INTRA:          -9.101
REMARK INTER:                  -7.451
REMARK INTRA:                  -1.649
REMARK UNBOUND:                -1.299
REMARK SMILES CCCCCCCCCCCCCC[C@H](C)C(=O)[O-]
REMARK SMILES IDX 9 1 10 2 11 3 12 4 13 5 14 6 15 7 16 8 17 9 18 10 19 11 8 12
REMARK SMILES IDX 7 13 6 14 5 15 4 16 3 17 2 18 1 19
REMARK H PARENT
REMARK Flexibility Score: inf
ROOT
ATOM      1  C   UNL     1      11.056  13.559  22.963  1.00  0.00     0.000 C 
ENDROOT
BRANCH   1   2
ATOM      2  C   UNL     1      10.421  13.690  21.567  1.00  0.00     0.000 C 
BRANCH   2   3
ATOM      3  C   UNL     1      10.824  14.986  20.846  1.00  0.00     0.000 C 
BRANCH   3   4
ATOM      4  C   UNL     1       9.843  16.140  21.112  1.00  0.00     0.000 C 
BRANCH   4   5
ATOM      5  C   UNL     1      10.411  17.201  22.072  1.00  0.00     0.001 C 
BRANCH   5   6
ATOM      6  C   UNL     1       9.471  17.620  23.222  1.00  0.00     0.009 C 
BRANCH   6   7
ATOM      7  C   UNL     1       9.257  19.145  23.352  1.00  0.00     0.032 C 
ATOM      8  C   UNL     1       9.072  19.778  21.968  1.00  0.00     0.014 C 
BRANCH   7   9
ATOM      9  C   UNL     1      10.410  19.804  24.060  1.00  0.00     0.044 C 
ATOM     10  O   UNL     1      10.632  19.553  25.274  1.00  0.00    -0.550 OA
ATOM     11  O   UNL     1      11.237  20.691  23.382  1.00  0.00    -0.550 OA
ENDBRANCH   7   9
ENDBRANCH   6   7
ENDBRANCH   5   6
ENDBRANCH   4   5
ENDBRANCH   3   4
ENDBRANCH   2   3
ENDBRANCH   1   2
BRANCH   1  12
ATOM     12  C   UNL     1      10.073  13.945  24.088  1.00  0.00     0.000 C 
BRANCH  12  13
ATOM     13  C   UNL     1       8.593  13.709  23.728  1.00  0.00    -0.000 C 
BRANCH  13  14
ATOM     14  C   UNL     1       7.934  12.524  24.454  1.00  0.00    -0.000 C 
BRANCH  14  15
ATOM     15  C   UNL     1       8.559  12.253  25.835  1.00  0.00    -0.000 C 
BRANCH  15  16
ATOM     16  C   UNL     1       9.126  10.830  25.952  1.00  0.00    -0.000 C 
BRANCH  16  17
ATOM     17  C   UNL     1       9.591  10.269  24.599  1.00  0.00    -0.000 C 
BRANCH  17  18
ATOM     18  C   UNL     1       9.325   8.764  24.506  1.00  0.00    -0.003 C 
ATOM     19  C   UNL     1       9.005   8.175  25.877  1.00  0.00     0.004 C 
ENDBRANCH  17  18
ENDBRANCH  16  17
ENDBRANCH  15  16
ENDBRANCH  14  15
ENDBRANCH  13  14
ENDBRANCH  12  13
ENDBRANCH   1  12
TORSDOF 14
ENDMDL
MODEL 3
REMARK VINA RESULT:    -4.160      2.625      4.455
REMARK INTER + INTRA:          -8.864
REMARK INTER:                  -7.469
REMARK INTRA:                  -1.394
REMARK UNBOUND:                -1.299
REMARK SMILES CCCCCCCCCCCCCC[C@H](C)C(=O)[O-]
REMARK SMILES IDX 9 1 10 2 11 3 12 4 13 5 14 6 15 7 16 8 17 9 18 10 19 11 8 12
REMARK SMILES IDX 7 13 6 14 5 15 4 16 3 17 2 18 1 19
REMARK H PARENT
REMARK Flexibility Score: inf
ROOT
ATOM      1  C   UNL     1      10.682  12.748  22.415  1.00  0.00     0.000 C 
ENDROOT
BRANCH   1   2
ATOM      2  C   UNL     1      10.372  13.001  20.928  1.00  0.00     0.000 C 
BRANCH   2   3
ATOM      3  C   UNL     1       9.758  14.386  20.673  1.00  0.00     0.000 C 
BRANCH   3   4
ATOM      4  C   UNL     1      10.780  15.392  20.117  1.00  0.00     0.000 C 
BRANCH   4   5
ATOM      5  C   UNL     1      10.987  16.608  21.038  1.00  0.00     0.001 C 
BRANCH   5   6
ATOM      6  C   UNL     1      10.032  16.689  22.249  1.00  0.00     0.009 C 
BRANCH   6   7
ATOM      7  C   UNL     1      10.705  17.133  23.566  1.00  0.00     0.032 C 
ATOM      8  C   UNL     1      10.603  16.023  24.619  1.00  0.00     0.014 C 
BRANCH   7   9
ATOM      9  C   UNL     1      10.086  18.397  24.101  1.00  0.00     0.044 C 
ATOM     10  O   UNL     1       8.852  18.441  24.347  1.00  0.00    -0.550 OA
ATOM     11  O   UNL     1      10.870  19.522  24.326  1.00  0.00    -0.550 OA
ENDBRANCH   7   9
ENDBRANCH   6   7
ENDBRANCH   5   6
ENDBRANCH   4   5
ENDBRANCH   3   4
ENDBRANCH   2   3
ENDBRANCH   1   2
BRANCH   1  12
ATOM     12  C   UNL     1       9.421  12.359  23.215  1.00  0.00     0.000 C 
BRANCH  12  13
ATOM     13  C   UNL     1       9.613  12.419  24.744  1.00  0.00    -0.000 C 
BRANCH  13  14
ATOM     14  C   UNL     1       9.653  11.050  25.443  1.00  0.00    -0.000 C 
BRANCH  14  15
ATOM     15  C   UNL     1       9.750   9.879  24.448  1.00  0.00    -0.000 C 
BRANCH  15  16
ATOM     16  C   UNL     1       8.531   8.947  24.521  1.00  0.00    -0.000 C 
BRANCH  16  17
ATOM     17  C   UNL     1       8.020   8.758  25.958  1.00  0.00    -0.000 C 
BRANCH  17  18
ATOM     18  C   UNL     1       8.656   7.527  26.611  1.00  0.00    -0.003 C 
ATOM     19  C   UNL     1       8.913   7.762  28.097  1.00  0.00     0.004 C 
ENDBRANCH  17  18
ENDBRANCH  16  17
ENDBRANCH  15  16
ENDBRANCH  14  15
ENDBRANCH  13  14
ENDBRANCH  12  13
ENDBRANCH   1  12
TORSDOF 14
ENDMDL
MODEL 4
REMARK VINA RESULT:    -4.119     15.196     16.902
REMARK INTER + INTRA:          -8.789
REMARK INTER:                  -6.361
REMARK INTRA:                  -2.428
REMARK UNBOUND:                -1.299
REMARK SMILES CCCCCCCCCCCCCC[C@H](C)C(=O)[O-]
REMARK SMILES IDX 9 1 10 2 11 3 12 4 13 5 14 6 15 7 16 8 17 9 18 10 19 11 8 12
REMARK SMILES IDX 7 13 6 14 5 15 4 16 3 17 2 18 1 19
REMARK H PARENT
REMARK Flexibility Score: inf
ROOT
ATOM      1  C   UNL     1      22.474   1.963  29.621  1.00  0.00     0.000 C 
ENDROOT
BRANCH   1   2
ATOM      2  C   UNL     1      23.737   1.294  29.051  1.00  0.00     0.000 C 
BRANCH   2   3
ATOM      3  C   UNL     1      24.311   2.037  27.835  1.00  0.00     0.000 C 
BRANCH   3   4
ATOM      4  C   UNL     1      25.586   2.827  28.172  1.00  0.00     0.000 C 
BRANCH   4   5
ATOM      5  C   UNL     1      25.297   4.272  28.616  1.00  0.00     0.001 C 
BRANCH   5   6
ATOM      6  C   UNL     1      24.133   4.969  27.880  1.00  0.00     0.009 C 
BRANCH   6   7
ATOM      7  C   UNL     1      24.346   6.478  27.628  1.00  0.00     0.032 C 
ATOM      8  C   UNL     1      23.719   7.302  28.759  1.00  0.00     0.014 C 
BRANCH   7   9
ATOM      9  C   UNL     1      23.762   6.903  26.307  1.00  0.00     0.044 C 
ATOM     10  O   UNL     1      23.000   7.904  26.247  1.00  0.00    -0.550 OA
ATOM     11  O   UNL     1      24.060   6.198  25.148  1.00  0.00    -0.550 OA
ENDBRANCH   7   9
ENDBRANCH   6   7
ENDBRANCH   5   6
ENDBRANCH   4   5
ENDBRANCH   3   4
ENDBRANCH   2   3
ENDBRANCH   1   2
BRANCH   1  12
ATOM     12  C   UNL     1      22.537   2.117  31.155  1.00  0.00     0.000 C 
BRANCH  12  13
ATOM     13  C   UNL     1      23.936   2.493  31.684  1.00  0.00    -0.000 C 
BRANCH  13  14
ATOM     14  C   UNL     1      23.999   3.828  32.445  1.00  0.00    -0.000 C 
BRANCH  14  15
ATOM     15  C   UNL     1      23.611   5.031  31.566  1.00  0.00    -0.000 C 
BRANCH  15  16
ATOM     16  C   UNL     1      22.285   5.671  32.004  1.00  0.00    -0.000 C 
BRANCH  16  17
ATOM     17  C   UNL     1      21.175   5.501  30.955  1.00  0.00    -0.000 C 
BRANCH  17  18
ATOM     18  C   UNL     1      19.947   4.815  31.560  1.00  0.00    -0.003 C 
ATOM     19  C   UNL     1      20.190   4.435  33.018  1.00  0.00     0.004 C 
ENDBRANCH  17  18
ENDBRANCH  16  17
ENDBRANCH  15  16
ENDBRANCH  14  15
ENDBRANCH  13  14
ENDBRANCH  12  13
ENDBRANCH   1  12
TORSDOF 14
ENDMDL
MODEL 5
REMARK VINA RESULT:    -4.104      4.205      7.529
REMARK INTER + INTRA:          -8.761
REMARK INTER:                  -6.871
REMARK INTRA:                  -1.890
REMARK UNBOUND:                -1.299
REMARK SMILES CCCCCCCCCCCCCC[C@H](C)C(=O)[O-]
REMARK SMILES IDX 9 1 10 2 11 3 12 4 13 5 14 6 15 7 16 8 17 9 18 10 19 11 8 12
REMARK SMILES IDX 7 13 6 14 5 15 4 16 3 17 2 18 1 19
REMARK H PARENT
REMARK Flexibility Score: inf
ROOT
ATOM      1  C   UNL     1      10.659  16.112  24.648  1.00  0.00     0.000 C 
ENDROOT
BRANCH   1   2
ATOM      2  C   UNL     1       9.142  15.912  24.811  1.00  0.00     0.000 C 
BRANCH   2   3
ATOM      3  C   UNL     1       8.706  14.452  24.612  1.00  0.00     0.000 C 
BRANCH   3   4
ATOM      4  C   UNL     1       9.872  13.537  24.203  1.00  0.00     0.000 C 
BRANCH   4   5
ATOM      5  C   UNL     1       9.737  12.998  22.767  1.00  0.00     0.001 C 
BRANCH   5   6
ATOM      6  C   UNL     1      10.533  13.772  21.695  1.00  0.00     0.009 C 
BRANCH   6   7
ATOM      7  C   UNL     1       9.992  13.614  20.257  1.00  0.00     0.032 C 
ATOM      8  C   UNL     1      10.850  12.617  19.469  1.00  0.00     0.014 C 
BRANCH   7   9
ATOM      9  C   UNL     1       9.956  14.934  19.534  1.00  0.00     0.044 C 
ATOM     10  O   UNL     1       8.993  15.725  19.712  1.00  0.00    -0.550 OA
ATOM     11  O   UNL     1      10.982  15.288  18.667  1.00  0.00    -0.550 OA
ENDBRANCH   7   9
ENDBRANCH   6   7
ENDBRANCH   5   6
ENDBRANCH   4   5
ENDBRANCH   3   4
ENDBRANCH   2   3
ENDBRANCH   1   2
BRANCH   1  12
ATOM     12  C   UNL     1      11.009  16.911  23.375  1.00  0.00     0.000 C 
BRANCH  12  13
ATOM     13  C   UNL     1       9.775  17.382  22.579  1.00  0.00    -0.000 C 
BRANCH  13  14
ATOM     14  C   UNL     1       9.876  18.811  22.019  1.00  0.00    -0.000 C 
BRANCH  14  15
ATOM     15  C   UNL     1      10.564  19.783  22.994  1.00  0.00    -0.000 C 
BRANCH  15  16
ATOM     16  C   UNL     1       9.569  20.445  23.959  1.00  0.00    -0.000 C 
BRANCH  16  17
ATOM     17  C   UNL     1      10.261  21.068  25.182  1.00  0.00    -0.000 C 
BRANCH  17  18
ATOM     18  C   UNL     1      10.237  20.109  26.376  1.00  0.00    -0.003 C 
ATOM     19  C   UNL     1       8.992  19.226  26.349  1.00  0.00     0.004 C 
ENDBRANCH  17  18
ENDBRANCH  16  17
ENDBRANCH  15  16
ENDBRANCH  14  15
ENDBRANCH  13  14
ENDBRANCH  12  13
ENDBRANCH   1  12
TORSDOF 14
ENDMDL
MODEL 6
REMARK VINA RESULT:    -4.081     15.043     16.969
REMARK INTER + INTRA:          -8.720
REMARK INTER:                  -6.554
REMARK INTRA:                  -2.166
REMARK UNBOUND:                -1.299
REMARK SMILES CCCCCCCCCCCCCC[C@H](C)C(=O)[O-]
REMARK SMILES IDX 9 1 10 2 11 3 12 4 13 5 14 6 15 7 16 8 17 9 18 10 19 11 8 12
REMARK SMILES IDX 7 13 6 14 5 15 4 16 3 17 2 18 1 19
REMARK H PARENT
REMARK Flexibility Score: inf
ROOT
ATOM      1  C   UNL     1      23.198   5.328  27.590  1.00  0.00     0.000 C 
ENDROOT
BRANCH   1   2
ATOM      2  C   UNL     1      24.162   4.130  27.655  1.00  0.00     0.000 C 
BRANCH   2   3
ATOM      3  C   UNL     1      24.267   3.522  29.062  1.00  0.00     0.000 C 
BRANCH   3   4
ATOM      4  C   UNL     1      24.898   4.489  30.078  1.00  0.00     0.000 C 
BRANCH   4   5
ATOM      5  C   UNL     1      23.867   5.109  31.038  1.00  0.00     0.001 C 
BRANCH   5   6
ATOM      6  C   UNL     1      22.459   4.479  30.990  1.00  0.00     0.009 C 
BRANCH   6   7
ATOM      7  C   UNL     1      21.299   5.494  31.088  1.00  0.00     0.032 C 
ATOM      8  C   UNL     1      21.642   6.602  32.090  1.00  0.00     0.014 C 
BRANCH   7   9
ATOM      9  C   UNL     1      20.013   4.824  31.493  1.00  0.00     0.044 C 
ATOM     10  O   UNL     1      19.149   4.537  30.623  1.00  0.00    -0.550 OA
ATOM     11  O   UNL     1      19.771   4.517  32.826  1.00  0.00    -0.550 OA
ENDBRANCH   7   9
ENDBRANCH   6   7
ENDBRANCH   5   6
ENDBRANCH   4   5
ENDBRANCH   3   4
ENDBRANCH   2   3
ENDBRANCH   1   2
BRANCH   1  12
ATOM     12  C   UNL     1      23.581   6.325  26.475  1.00  0.00     0.000 C 
BRANCH  12  13
ATOM     13  C   UNL     1      24.015   7.707  27.001  1.00  0.00    -0.000 C 
BRANCH  13  14
ATOM     14  C   UNL     1      25.250   7.689  27.919  1.00  0.00    -0.000 C 
BRANCH  14  15
ATOM     15  C   UNL     1      24.976   8.324  29.294  1.00  0.00    -0.000 C 
BRANCH  15  16
ATOM     16  C   UNL     1      23.476   8.416  29.608  1.00  0.00    -0.000 C 
BRANCH  16  17
ATOM     17  C   UNL     1      23.031   9.848  29.945  1.00  0.00    -0.000 C 
BRANCH  17  18
ATOM     18  C   UNL     1      23.585  10.849  28.926  1.00  0.00    -0.003 C 
ATOM     19  C   UNL     1      22.495  11.318  27.965  1.00  0.00     0.004 C 
ENDBRANCH  17  18
ENDBRANCH  16  17
ENDBRANCH  15  16
ENDBRANCH  14  15
ENDBRANCH  13  14
ENDBRANCH  12  13
ENDBRANCH   1  12
TORSDOF 14
ENDMDL
MODEL 7
REMARK VINA RESULT:    -4.065     15.048     16.111
REMARK INTER + INTRA:          -8.691
REMARK INTER:                  -6.391
REMARK INTRA:                  -2.300
REMARK UNBOUND:                -1.299
REMARK SMILES CCCCCCCCCCCCCC[C@H](C)C(=O)[O-]
REMARK SMILES IDX 9 1 10 2 11 3 12 4 13 5 14 6 15 7 16 8 17 9 18 10 19 11 8 12
REMARK SMILES IDX 7 13 6 14 5 15 4 16 3 17 2 18 1 19
REMARK H PARENT
REMARK Flexibility Score: inf
ROOT
ATOM      1  C   UNL     1      23.236   5.346  27.877  1.00  0.00     0.000 C 
ENDROOT
BRANCH   1   2
ATOM      2  C   UNL     1      23.139   6.126  26.553  1.00  0.00     0.000 C 
BRANCH   2   3
ATOM      3  C   UNL     1      23.622   7.579  26.679  1.00  0.00     0.000 C 
BRANCH   3   4
ATOM      4  C   UNL     1      24.985   7.691  27.383  1.00  0.00     0.000 C 
BRANCH   4   5
ATOM      5  C   UNL     1      24.922   8.508  28.685  1.00  0.00     0.001 C 
BRANCH   5   6
ATOM      6  C   UNL     1      23.569   9.195  28.969  1.00  0.00     0.009 C 
BRANCH   6   7
ATOM      7  C   UNL     1      23.684  10.607  29.586  1.00  0.00     0.032 C 
ATOM      8  C   UNL     1      22.780  10.726  30.819  1.00  0.00     0.014 C 
BRANCH   7   9
ATOM      9  C   UNL     1      23.324  11.675  28.588  1.00  0.00     0.044 C 
ATOM     10  O   UNL     1      22.225  11.623  27.977  1.00  0.00    -0.550 OA
ATOM     11  O   UNL     1      24.200  12.723  28.335  1.00  0.00    -0.550 OA
ENDBRANCH   7   9
ENDBRANCH   6   7
ENDBRANCH   5   6
ENDBRANCH   4   5
ENDBRANCH   3   4
ENDBRANCH   2   3
ENDBRANCH   1   2
BRANCH   1  12
ATOM     12  C   UNL     1      24.013   4.022  27.717  1.00  0.00     0.000 C 
BRANCH  12  13
ATOM     13  C   UNL     1      25.102   3.809  28.788  1.00  0.00    -0.000 C 
BRANCH  13  14
ATOM     14  C   UNL     1      25.216   4.940  29.825  1.00  0.00    -0.000 C 
BRANCH  14  15
ATOM     15  C   UNL     1      24.992   4.447  31.267  1.00  0.00    -0.000 C 
BRANCH  15  16
ATOM     16  C   UNL     1      23.704   5.011  31.885  1.00  0.00    -0.000 C 
BRANCH  16  17
ATOM     17  C   UNL     1      23.402   6.442  31.413  1.00  0.00    -0.000 C 
BRANCH  17  18
ATOM     18  C   UNL     1      21.892   6.686  31.330  1.00  0.00    -0.003 C 
ATOM     19  C   UNL     1      21.151   5.422  30.904  1.00  0.00     0.004 C 
ENDBRANCH  17  18
ENDBRANCH  16  17
ENDBRANCH  15  16
ENDBRANCH  14  15
ENDBRANCH  13  14
ENDBRANCH  12  13
ENDBRANCH   1  12
TORSDOF 14
ENDMDL
MODEL 8
REMARK VINA RESULT:    -4.065      3.773      7.742
REMARK INTER + INTRA:          -8.691
REMARK INTER:                  -7.009
REMARK INTRA:                  -1.681
REMARK UNBOUND:                -1.299
REMARK SMILES CCCCCCCCCCCCCC[C@H](C)C(=O)[O-]
REMARK SMILES IDX 9 1 10 2 11 3 12 4 13 5 14 6 15 7 16 8 17 9 18 10 19 11 8 12
REMARK SMILES IDX 7 13 6 14 5 15 4 16 3 17 2 18 1 19
REMARK H PARENT
REMARK Flexibility Score: inf
ROOT
ATOM      1  C   UNL     1       9.491  15.920  25.821  1.00  0.00     0.000 C 
ENDROOT
BRANCH   1   2
ATOM      2  C   UNL     1       8.881  14.513  25.958  1.00  0.00     0.000 C 
BRANCH   2   3
ATOM      3  C   UNL     1       8.722  13.797  24.608  1.00  0.00     0.000 C 
BRANCH   3   4
ATOM      4  C   UNL     1       9.957  12.962  24.231  1.00  0.00     0.000 C 
BRANCH   4   5
ATOM      5  C   UNL     1      10.485  13.275  22.820  1.00  0.00     0.001 C 
BRANCH   5   6
ATOM      6  C   UNL     1       9.789  14.449  22.099  1.00  0.00     0.009 C 
BRANCH   6   7
ATOM      7  C   UNL     1      10.719  15.289  21.197  1.00  0.00     0.032 C 
ATOM      8  C   UNL     1      10.880  16.704  21.766  1.00  0.00     0.014 C 
BRANCH   7   9
ATOM      9  C   UNL     1      10.195  15.366  19.787  1.00  0.00     0.044 C 
ATOM     10  O   UNL     1       8.971  15.574  19.579  1.00  0.00    -0.550 OA
ATOM     11  O   UNL     1      11.056  15.210  18.709  1.00  0.00    -0.550 OA
ENDBRANCH   7   9
ENDBRANCH   6   7
ENDBRANCH   5   6
ENDBRANCH   4   5
ENDBRANCH   3   4
ENDBRANCH   2   3
ENDBRANCH   1   2
BRANCH   1  12
ATOM     12  C   UNL     1       8.648  16.834  24.906  1.00  0.00     0.000 C 
BRANCH  12  13
ATOM     13  C   UNL     1       8.471  18.265  25.453  1.00  0.00    -0.000 C 
BRANCH  13  14
ATOM     14  C   UNL     1       9.595  18.741  26.389  1.00  0.00    -0.000 C 
BRANCH  14  15
ATOM     15  C   UNL     1      10.137  20.130  26.006  1.00  0.00    -0.000 C 
BRANCH  15  16
ATOM     16  C   UNL     1       9.310  20.796  24.897  1.00  0.00    -0.000 C 
BRANCH  16  17
ATOM     17  C   UNL     1      10.030  20.785  23.539  1.00  0.00    -0.000 C 
BRANCH  17  18
ATOM     18  C   UNL     1       9.042  21.012  22.391  1.00  0.00    -0.003 C 
ATOM     19  C   UNL     1       8.631  19.691  21.746  1.00  0.00     0.004 C 
ENDBRANCH  17  18
ENDBRANCH  16  17
ENDBRANCH  15  16
ENDBRANCH  14  15
ENDBRANCH  13  14
ENDBRANCH  12  13
ENDBRANCH   1  12
TORSDOF 14
ENDMDL
MODEL 9
REMARK VINA RESULT:    -3.994      2.495      5.290
REMARK INTER + INTRA:          -8.561
REMARK INTER:                  -6.777
REMARK INTRA:                  -1.784
REMARK UNBOUND:                -1.299
REMARK SMILES CCCCCCCCCCCCCC[C@H](C)C(=O)[O-]
REMARK SMILES IDX 9 1 10 2 11 3 12 4 13 5 14 6 15 7 16 8 17 9 18 10 19 11 8 12
REMARK SMILES IDX 7 13 6 14 5 15 4 16 3 17 2 18 1 19
REMARK H PARENT
REMARK Flexibility Score: inf
ROOT
ATOM      1  C   UNL     1       9.764  17.407  25.681  1.00  0.00     0.000 C 
ENDROOT
BRANCH   1   2
ATOM      2  C   UNL     1       9.659  18.783  25.000  1.00  0.00     0.000 C 
BRANCH   2   3
ATOM      3  C   UNL     1      10.238  18.792  23.577  1.00  0.00     0.000 C 
BRANCH   3   4
ATOM      4  C   UNL     1       9.395  17.968  22.590  1.00  0.00     0.000 C 
BRANCH   4   5
ATOM      5  C   UNL     1      10.240  17.005  21.736  1.00  0.00     0.001 C 
BRANCH   5   6
ATOM      6  C   UNL     1       9.477  15.796  21.155  1.00  0.00     0.009 C 
BRANCH   6   7
ATOM      7  C   UNL     1      10.170  14.433  21.378  1.00  0.00     0.032 C 
ATOM      8  C   UNL     1      11.503  14.625  22.109  1.00  0.00     0.014 C 
BRANCH   7   9
ATOM      9  C   UNL     1      10.405  13.716  20.076  1.00  0.00     0.044 C 
ATOM     10  O   UNL     1      10.082  12.505  19.955  1.00  0.00    -0.550 OA
ATOM     11  O   UNL     1      10.978  14.382  19.000  1.00  0.00    -0.550 OA
ENDBRANCH   7   9
ENDBRANCH   6   7
ENDBRANCH   5   6
ENDBRANCH   4   5
ENDBRANCH   3   4
ENDBRANCH   2   3
ENDBRANCH   1   2
BRANCH   1  12
ATOM     12  C   UNL     1       8.380  16.825  26.037  1.00  0.00     0.000 C 
BRANCH  12  13
ATOM     13  C   UNL     1       8.326  15.284  25.999  1.00  0.00    -0.000 C 
BRANCH  13  14
ATOM     14  C   UNL     1       8.900  14.650  24.721  1.00  0.00    -0.000 C 
BRANCH  14  15
ATOM     15  C   UNL     1       7.875  13.770  23.983  1.00  0.00    -0.000 C 
BRANCH  15  16
ATOM     16  C   UNL     1       8.146  12.270  24.174  1.00  0.00    -0.000 C 
BRANCH  16  17
ATOM     17  C   UNL     1       9.582  11.987  24.643  1.00  0.00    -0.000 C 
BRANCH  17  18
ATOM     18  C   UNL     1       9.672  10.631  25.351  1.00  0.00    -0.003 C 
ATOM     19  C   UNL     1       9.368   9.486  24.390  1.00  0.00     0.004 C 
ENDBRANCH  17  18
ENDBRANCH  16  17
ENDBRANCH  15  16
ENDBRANCH  14  15
ENDBRANCH  13  14
ENDBRANCH  12  13
ENDBRANCH   1  12
TORSDOF 14
ENDMDL
