MODEL 1
REMARK VINA RESULT:    -3.646      0.000      0.000
REMARK INTER + INTRA:          -4.380
REMARK INTER:                  -4.286
REMARK INTRA:                  -0.094
REMARK UNBOUND:                -0.094
REMARK SMILES O=C([O-])CCC(=O)[O-]
REMARK SMILES IDX 4 1 2 2 1 3 3 4 5 5 6 6 7 7 8 8
REMARK H PARENT
REMARK Flexibility Score: inf
ROOT
ATOM      1  C   UNL     1      16.810 -15.377  37.396  1.00  0.00     0.059 C 
ENDROOT
BRANCH   1   2
ATOM      2  C   UNL     1      16.904 -16.747  36.795  1.00  0.00     0.042 C 
ATOM      3  O   UNL     1      16.582 -16.936  35.593  1.00  0.00    -0.550 OA
ATOM      4  O   UNL     1      17.384 -17.807  37.554  1.00  0.00    -0.550 OA
ENDBRANCH   1   2
BRANCH   1   5
ATOM      5  C   UNL     1      18.007 -14.506  37.000  1.00  0.00     0.059 C 
BRANCH   5   6
ATOM      6  C   UNL     1      17.682 -13.613  35.842  1.00  0.00     0.042 C 
ATOM      7  O   UNL     1      16.620 -12.935  35.844  1.00  0.00    -0.550 OA
ATOM      8  O   UNL     1      18.529 -13.561  34.743  1.00  0.00    -0.550 OA
ENDBRANCH   5   6
ENDBRANCH   1   5
TORSDOF 3
ENDMDL
MODEL 2
REMARK VINA RESULT:    -3.645      0.399      3.739
REMARK INTER + INTRA:          -4.378
REMARK INTER:                  -4.252
REMARK INTRA:                  -0.127
REMARK UNBOUND:                -0.094
REMARK SMILES O=C([O-])CCC(=O)[O-]
REMARK SMILES IDX 4 1 2 2 1 3 3 4 5 5 6 6 7 7 8 8
REMARK H PARENT
REMARK Flexibility Score: inf
ROOT
ATOM      1  C   UNL     1      17.926 -14.546  36.939  1.00  0.00     0.059 C 
ENDROOT
BRANCH   1   2
ATOM      2  C   UNL     1      17.529 -13.799  35.702  1.00  0.00     0.042 C 
ATOM      3  O   UNL     1      18.407 -13.380  34.905  1.00  0.00    -0.550 OA
ATOM      4  O   UNL     1      16.185 -13.600  35.413  1.00  0.00    -0.550 OA
ENDBRANCH   1   2
BRANCH   1   5
ATOM      5  C   UNL     1      16.777 -15.410  37.469  1.00  0.00     0.059 C 
BRANCH   5   6
ATOM      6  C   UNL     1      16.802 -16.786  36.877  1.00  0.00     0.042 C 
ATOM      7  O   UNL     1      17.470 -17.700  37.428  1.00  0.00    -0.550 OA
ATOM      8  O   UNL     1      16.122 -17.048  35.695  1.00  0.00    -0.550 OA
ENDBRANCH   5   6
ENDBRANCH   1   5
TORSDOF 3
ENDMDL
MODEL 3
REMARK VINA RESULT:    -3.608      8.337      9.556
REMARK INTER + INTRA:          -4.334
REMARK INTER:                  -4.302
REMARK INTRA:                  -0.033
REMARK UNBOUND:                -0.094
REMARK SMILES O=C([O-])CCC(=O)[O-]
REMARK SMILES IDX 4 1 2 2 1 3 3 4 5 5 6 6 7 7 8 8
REMARK H PARENT
REMARK Flexibility Score: inf
ROOT
ATOM      1  C   UNL     1      22.270 -20.982  32.166  1.00  0.00     0.059 C 
ENDROOT
BRANCH   1   2
ATOM      2  C   UNL     1      20.819 -20.611  32.137  1.00  0.00     0.042 C 
ATOM      3  O   UNL     1      20.069 -20.904  33.105  1.00  0.00    -0.550 OA
ATOM      4  O   UNL     1      20.304 -19.906  31.057  1.00  0.00    -0.550 OA
ENDBRANCH   1   2
BRANCH   1   5
ATOM      5  C   UNL     1      22.527 -22.178  33.090  1.00  0.00     0.059 C 
BRANCH   5   6
ATOM      6  C   UNL     1      23.992 -22.426  33.279  1.00  0.00     0.042 C 
ATOM      7  O   UNL     1      24.491 -22.417  34.435  1.00  0.00    -0.550 OA
ATOM      8  O   UNL     1      24.813 -22.626  32.177  1.00  0.00    -0.550 OA
ENDBRANCH   5   6
ENDBRANCH   1   5
TORSDOF 3
ENDMDL
MODEL 4
REMARK VINA RESULT:    -3.567      9.448     10.582
REMARK INTER + INTRA:          -4.287
REMARK INTER:                  -4.166
REMARK INTRA:                  -0.121
REMARK UNBOUND:                -0.094
REMARK SMILES O=C([O-])CCC(=O)[O-]
REMARK SMILES IDX 4 1 2 2 1 3 3 4 5 5 6 6 7 7 8 8
REMARK H PARENT
REMARK Flexibility Score: inf
ROOT
ATOM      1  C   UNL     1      22.582 -22.714  33.325  1.00  0.00     0.059 C 
ENDROOT
BRANCH   1   2
ATOM      2  C   UNL     1      21.979 -21.418  32.876  1.00  0.00     0.042 C 
ATOM      3  O   UNL     1      22.576 -20.698  32.034  1.00  0.00    -0.550 OA
ATOM      4  O   UNL     1      20.738 -21.025  33.360  1.00  0.00    -0.550 OA
ENDBRANCH   1   2
BRANCH   1   5
ATOM      5  C   UNL     1      24.057 -22.546  33.706  1.00  0.00     0.059 C 
BRANCH   5   6
ATOM      6  C   UNL     1      24.960 -23.267  32.753  1.00  0.00     0.042 C 
ATOM      7  O   UNL     1      25.253 -22.748  31.643  1.00  0.00    -0.550 OA
ATOM      8  O   UNL     1      25.444 -24.530  33.071  1.00  0.00    -0.550 OA
ENDBRANCH   5   6
ENDBRANCH   1   5
TORSDOF 3
ENDMDL
MODEL 5
REMARK VINA RESULT:    -3.559      9.544     10.452
REMARK INTER + INTRA:          -4.277
REMARK INTER:                  -4.158
REMARK INTRA:                  -0.119
REMARK UNBOUND:                -0.094
REMARK SMILES O=C([O-])CCC(=O)[O-]
REMARK SMILES IDX 4 1 2 2 1 3 3 4 5 5 6 6 7 7 8 8
REMARK H PARENT
REMARK Flexibility Score: inf
ROOT
ATOM      1  C   UNL     1      24.112 -22.654  33.656  1.00  0.00     0.059 C 
ENDROOT
BRANCH   1   2
ATOM      2  C   UNL     1      25.014 -23.317  32.660  1.00  0.00     0.042 C 
ATOM      3  O   UNL     1      25.257 -22.763  31.556  1.00  0.00    -0.550 OA
ATOM      4  O   UNL     1      25.617 -24.530  32.969  1.00  0.00    -0.550 OA
ENDBRANCH   1   2
BRANCH   1   5
ATOM      5  C   UNL     1      22.639 -22.792  33.260  1.00  0.00     0.059 C 
BRANCH   5   6
ATOM      6  C   UNL     1      22.044 -21.473  32.873  1.00  0.00     0.042 C 
ATOM      7  O   UNL     1      22.696 -20.671  32.155  1.00  0.00    -0.550 OA
ATOM      8  O   UNL     1      20.786 -21.112  33.340  1.00  0.00    -0.550 OA
ENDBRANCH   5   6
ENDBRANCH   1   5
TORSDOF 3
ENDMDL
MODEL 6
REMARK VINA RESULT:    -3.557      8.315      9.391
REMARK INTER + INTRA:          -4.274
REMARK INTER:                  -4.245
REMARK INTRA:                  -0.030
REMARK UNBOUND:                -0.094
REMARK SMILES O=C([O-])CCC(=O)[O-]
REMARK SMILES IDX 4 1 2 2 1 3 3 4 5 5 6 6 7 7 8 8
REMARK H PARENT
REMARK Flexibility Score: inf
ROOT
ATOM      1  C   UNL     1      22.449 -22.353  33.186  1.00  0.00     0.059 C 
ENDROOT
BRANCH   1   2
ATOM      2  C   UNL     1      23.942 -22.446  33.281  1.00  0.00     0.042 C 
ATOM      3  O   UNL     1      24.509 -22.421  34.404  1.00  0.00    -0.550 OA
ATOM      4  O   UNL     1      24.702 -22.600  32.129  1.00  0.00    -0.550 OA
ENDBRANCH   1   2
BRANCH   1   5
ATOM      5  C   UNL     1      22.009 -21.073  32.467  1.00  0.00     0.059 C 
BRANCH   5   6
ATOM      6  C   UNL     1      20.525 -21.031  32.270  1.00  0.00     0.042 C 
ATOM      7  O   UNL     1      20.025 -20.294  31.380  1.00  0.00    -0.550 OA
ATOM      8  O   UNL     1      19.691 -21.773  33.097  1.00  0.00    -0.550 OA
ENDBRANCH   5   6
ENDBRANCH   1   5
TORSDOF 3
ENDMDL
MODEL 7
REMARK VINA RESULT:    -3.499      2.157      3.694
REMARK INTER + INTRA:          -4.207
REMARK INTER:                  -4.102
REMARK INTRA:                  -0.105
REMARK UNBOUND:                -0.094
REMARK SMILES O=C([O-])CCC(=O)[O-]
REMARK SMILES IDX 4 1 2 2 1 3 3 4 5 5 6 6 7 7 8 8
REMARK H PARENT
REMARK Flexibility Score: inf
ROOT
ATOM      1  C   UNL     1      17.677 -14.288  37.194  1.00  0.00     0.059 C 
ENDROOT
BRANCH   1   2
ATOM      2  C   UNL     1      17.470 -13.910  35.758  1.00  0.00     0.042 C 
ATOM      3  O   UNL     1      18.416 -13.421  35.088  1.00  0.00    -0.550 OA
ATOM      4  O   UNL     1      16.241 -14.136  35.151  1.00  0.00    -0.550 OA
ENDBRANCH   1   2
BRANCH   1   5
ATOM      5  C   UNL     1      16.379 -14.780  37.840  1.00  0.00     0.059 C 
BRANCH   5   6
ATOM      6  C   UNL     1      15.853 -13.800  38.843  1.00  0.00     0.042 C 
ATOM      7  O   UNL     1      16.070 -13.975  40.071  1.00  0.00    -0.550 OA
ATOM      8  O   UNL     1      15.089 -12.718  38.427  1.00  0.00    -0.550 OA
ENDBRANCH   5   6
ENDBRANCH   1   5
TORSDOF 3
ENDMDL
MODEL 8
REMARK VINA RESULT:    -3.497      2.125      3.081
REMARK INTER + INTRA:          -4.204
REMARK INTER:                  -4.083
REMARK INTRA:                  -0.122
REMARK UNBOUND:                -0.094
REMARK SMILES O=C([O-])CCC(=O)[O-]
REMARK SMILES IDX 4 1 2 2 1 3 3 4 5 5 6 6 7 7 8 8
REMARK H PARENT
REMARK Flexibility Score: inf
ROOT
ATOM      1  C   UNL     1      16.505 -14.845  37.842  1.00  0.00     0.059 C 
ENDROOT
BRANCH   1   2
ATOM      2  C   UNL     1      15.930 -13.826  38.778  1.00  0.00     0.042 C 
ATOM      3  O   UNL     1      16.122 -13.925  40.018  1.00  0.00    -0.550 OA
ATOM      4  O   UNL     1      15.214 -12.747  38.276  1.00  0.00    -0.550 OA
ENDBRANCH   1   2
BRANCH   1   5
ATOM      5  C   UNL     1      17.738 -14.304  37.109  1.00  0.00     0.059 C 
BRANCH   5   6
ATOM      6  C   UNL     1      17.420 -13.931  35.694  1.00  0.00     0.042 C 
ATOM      7  O   UNL     1      16.263 -14.119  35.235  1.00  0.00    -0.550 OA
ATOM      8  O   UNL     1      18.411 -13.413  34.871  1.00  0.00    -0.550 OA
ENDBRANCH   5   6
ENDBRANCH   1   5
TORSDOF 3
ENDMDL
MODEL 9
REMARK VINA RESULT:    -3.364      1.255      1.561
REMARK INTER + INTRA:          -4.048
REMARK INTER:                  -3.962
REMARK INTRA:                  -0.086
REMARK UNBOUND:                -0.094
REMARK SMILES O=C([O-])CCC(=O)[O-]
REMARK SMILES IDX 4 1 2 2 1 3 3 4 5 5 6 6 7 7 8 8
REMARK H PARENT
REMARK Flexibility Score: inf
ROOT
ATOM      1  C   UNL     1      17.576 -15.277  37.004  1.00  0.00     0.059 C 
ENDROOT
BRANCH   1   2
ATOM      2  C   UNL     1      16.913 -16.608  36.821  1.00  0.00     0.042 C 
ATOM      3  O   UNL     1      15.904 -16.717  36.077  1.00  0.00    -0.550 OA
ATOM      4  O   UNL     1      17.436 -17.735  37.442  1.00  0.00    -0.550 OA
ENDBRANCH   1   2
BRANCH   1   5
ATOM      5  C   UNL     1      16.711 -14.327  37.839  1.00  0.00     0.059 C 
BRANCH   5   6
ATOM      6  C   UNL     1      15.958 -13.362  36.976  1.00  0.00     0.042 C 
ATOM      7  O   UNL     1      14.731 -13.160  37.175  1.00  0.00    -0.550 OA
ATOM      8  O   UNL     1      16.601 -12.717  35.927  1.00  0.00    -0.550 OA
ENDBRANCH   5   6
ENDBRANCH   1   5
TORSDOF 3
ENDMDL
