MODEL 1
REMARK VINA RESULT:    -7.725      0.000      0.000
REMARK INTER + INTRA:          -8.534
REMARK INTER:                  -8.402
REMARK INTRA:                  -0.132
REMARK UNBOUND:                -0.132
REMARK SMILES C[C@H]1[C@H](C)CC[C@]2(C(=O)[O-])CC[C@@]3(C)C(=CC[C@@H]4[C@]5(C)CC[C@@H](O)C(C)(C)[C@H]5CC[C@@]43C)[C@H]12
REMARK SMILES IDX 7 1 6 2 11 3 33 4 5 5 12 6 15 7 2 8 3 9 13 10 16 11 1 12
REMARK SMILES IDX 4 13 14 14 31 15 17 16 18 17 30 18 32 19 19 20 29 21 28 22
REMARK SMILES IDX 21 23 20 24 25 25 22 26 23 27 26 28 27 29 8 30 9 31 10 32
REMARK SMILES IDX 24 33
REMARK H PARENT 24 34
REMARK Flexibility Score: inf
ROOT
ATOM      1  C   UNL     1      29.543  12.252  62.125  1.00  0.00     0.017 C 
ATOM      2  C   UNL     1      29.863  12.833  63.550  1.00  0.00     0.014 C 
ATOM      3  C   UNL     1      28.484  13.233  61.451  1.00  0.00     0.014 C 
ATOM      4  C   UNL     1      28.977  10.767  62.179  1.00  0.00     0.030 C 
ATOM      5  C   UNL     1      30.228  11.735  64.528  1.00  0.00     0.004 C 
ATOM      6  C   UNL     1      27.533  12.668  60.355  1.00  0.00     0.013 C 
ATOM      7  C   UNL     1      28.287  10.388  60.827  1.00  0.00    -0.063 C 
ATOM      8  C   UNL     1      28.122  10.594  63.518  1.00  0.00    -0.003 C 
ATOM      9  C   UNL     1      29.003  10.852  64.797  1.00  0.00    -0.011 C 
ATOM     10  C   UNL     1      28.047  11.390  59.658  1.00  0.00    -0.006 C 
ATOM     11  C   UNL     1      27.572   9.273  60.779  1.00  0.00    -0.027 C 
ATOM     12  C   UNL     1      27.452   9.218  63.724  1.00  0.00     0.008 C 
ATOM     13  C   UNL     1      28.170  11.441  65.963  1.00  0.00     0.008 C 
ATOM     14  C   UNL     1      29.406  11.752  58.943  1.00  0.00     0.017 C 
ATOM     15  C   UNL     1      27.005  10.782  58.530  1.00  0.00    -0.020 C 
ATOM     16  C   UNL     1      26.110   9.500  60.595  1.00  0.00     0.032 C 
ATOM     17  C   UNL     1      25.760   9.967  59.177  1.00  0.00     0.006 C 
ATOM     18  C   UNL     1      27.816   9.845  57.538  1.00  0.00     0.008 C 
ATOM     19  C   UNL     1      26.466  11.976  57.670  1.00  0.00     0.012 C 
ATOM     20  C   UNL     1      25.067   8.807  58.295  1.00  0.00    -0.025 C 
ATOM     21  C   UNL     1      27.029   8.821  56.710  1.00  0.00     0.005 C 
ATOM     22  C   UNL     1      26.205   7.944  57.655  1.00  0.00     0.003 C 
ATOM     23  C   UNL     1      24.101   7.849  59.090  1.00  0.00     0.010 C 
ATOM     24  C   UNL     1      24.126   9.511  57.254  1.00  0.00     0.012 C 
ATOM     25  C   UNL     1      25.809   6.495  57.142  1.00  0.00    -0.006 C 
ATOM     26  C   UNL     1      24.744   6.519  59.532  1.00  0.00     0.033 C 
ATOM     27  C   UNL     1      25.205   5.653  58.347  1.00  0.00     0.120 C 
ATOM     28  C   UNL     1      27.078   5.736  56.656  1.00  0.00     0.014 C 
ATOM     29  C   UNL     1      24.824   6.521  55.947  1.00  0.00     0.014 C 
ENDROOT
BRANCH   1  30
ATOM     30  C   UNL     1      30.899  12.275  61.417  1.00  0.00     0.048 C 
ATOM     31  O   UNL     1      31.323  13.345  60.903  1.00  0.00    -0.550 OA
ATOM     32  O   UNL     1      31.746  11.167  61.448  1.00  0.00    -0.550 OA
ENDBRANCH   1  30
BRANCH  27  33
ATOM     33  O   UNL     1      24.136   4.823  57.945  1.00  0.00    -0.393 OA
ATOM     34  H   UNL     1      24.472   3.887  57.998  1.00  0.00     0.210 HD
ENDBRANCH  27  33
TORSDOF 2
ENDMDL
MODEL 2
REMARK VINA RESULT:    -7.461      1.943      3.254
REMARK INTER + INTRA:          -8.247
REMARK INTER:                  -8.075
REMARK INTRA:                  -0.172
REMARK UNBOUND:                -0.132
REMARK SMILES C[C@H]1[C@H](C)CC[C@]2(C(=O)[O-])CC[C@@]3(C)C(=CC[C@@H]4[C@]5(C)CC[C@@H](O)C(C)(C)[C@H]5CC[C@@]43C)[C@H]12
REMARK SMILES IDX 7 1 6 2 11 3 33 4 5 5 12 6 15 7 2 8 3 9 13 10 16 11 1 12
REMARK SMILES IDX 4 13 14 14 31 15 17 16 18 17 30 18 32 19 19 20 29 21 28 22
REMARK SMILES IDX 21 23 20 24 25 25 22 26 23 27 26 28 27 29 8 30 9 31 10 32
REMARK SMILES IDX 24 33
REMARK H PARENT 24 34
REMARK Flexibility Score: inf
ROOT
ATOM      1  C   UNL     1      29.567  11.587  65.556  1.00  0.00     0.017 C 
ATOM      2  C   UNL     1      29.252  11.680  67.094  1.00  0.00     0.014 C 
ATOM      3  C   UNL     1      29.187  12.996  64.919  1.00  0.00     0.014 C 
ATOM      4  C   UNL     1      28.774  10.412  64.836  1.00  0.00     0.030 C 
ATOM      5  C   UNL     1      28.871  10.330  67.665  1.00  0.00     0.004 C 
ATOM      6  C   UNL     1      28.808  13.056  63.410  1.00  0.00     0.013 C 
ATOM      7  C   UNL     1      28.778  10.612  63.285  1.00  0.00    -0.063 C 
ATOM      8  C   UNL     1      27.357  10.237  65.554  1.00  0.00    -0.003 C 
ATOM      9  C   UNL     1      27.527   9.878  67.077  1.00  0.00    -0.011 C 
ATOM     10  C   UNL     1      29.340  11.876  62.568  1.00  0.00    -0.006 C 
ATOM     11  C   UNL     1      27.979   9.849  62.552  1.00  0.00    -0.027 C 
ATOM     12  C   UNL     1      26.422   9.162  64.959  1.00  0.00     0.008 C 
ATOM     13  C   UNL     1      26.361  10.430  67.934  1.00  0.00     0.008 C 
ATOM     14  C   UNL     1      30.916  11.910  62.647  1.00  0.00     0.017 C 
ATOM     15  C   UNL     1      28.891  11.936  60.980  1.00  0.00    -0.020 C 
ATOM     16  C   UNL     1      26.871  10.595  61.890  1.00  0.00     0.032 C 
ATOM     17  C   UNL     1      27.359  11.466  60.727  1.00  0.00     0.006 C 
ATOM     18  C   UNL     1      29.887  11.034  60.134  1.00  0.00     0.008 C 
ATOM     19  C   UNL     1      29.085  13.405  60.473  1.00  0.00     0.012 C 
ATOM     20  C   UNL     1      26.980  10.847  59.286  1.00  0.00    -0.025 C 
ATOM     21  C   UNL     1      29.427  10.558  58.750  1.00  0.00     0.005 C 
ATOM     22  C   UNL     1      28.094   9.820  58.894  1.00  0.00     0.003 C 
ATOM     23  C   UNL     1      25.584  10.118  59.218  1.00  0.00     0.010 C 
ATOM     24  C   UNL     1      26.826  12.048  58.286  1.00  0.00     0.012 C 
ATOM     25  C   UNL     1      27.730   8.752  57.778  1.00  0.00    -0.006 C 
ATOM     26  C   UNL     1      25.657   8.585  59.366  1.00  0.00     0.033 C 
ATOM     27  C   UNL     1      26.464   7.911  58.243  1.00  0.00     0.120 C 
ATOM     28  C   UNL     1      28.901   7.740  57.607  1.00  0.00     0.014 C 
ATOM     29  C   UNL     1      27.485   9.385  56.387  1.00  0.00     0.014 C 
ENDROOT
BRANCH   1  30
ATOM     30  C   UNL     1      31.071  11.311  65.517  1.00  0.00     0.048 C 
ATOM     31  O   UNL     1      31.888  12.230  65.793  1.00  0.00    -0.550 OA
ATOM     32  O   UNL     1      31.561  10.019  65.316  1.00  0.00    -0.550 OA
ENDBRANCH   1  30
BRANCH  27  33
ATOM     33  O   UNL     1      25.593   7.611  57.173  1.00  0.00    -0.393 OA
ATOM     34  H   UNL     1      24.667   7.711  57.529  1.00  0.00     0.210 HD
ENDBRANCH  27  33
TORSDOF 2
ENDMDL
MODEL 3
REMARK VINA RESULT:    -7.300      1.489      7.832
REMARK INTER + INTRA:          -8.071
REMARK INTER:                  -7.899
REMARK INTRA:                  -0.172
REMARK UNBOUND:                -0.132
REMARK SMILES C[C@H]1[C@H](C)CC[C@]2(C(=O)[O-])CC[C@@]3(C)C(=CC[C@@H]4[C@]5(C)CC[C@@H](O)C(C)(C)[C@H]5CC[C@@]43C)[C@H]12
REMARK SMILES IDX 7 1 6 2 11 3 33 4 5 5 12 6 15 7 2 8 3 9 13 10 16 11 1 12
REMARK SMILES IDX 4 13 14 14 31 15 17 16 18 17 30 18 32 19 19 20 29 21 28 22
REMARK SMILES IDX 21 23 20 24 25 25 22 26 23 27 26 28 27 29 8 30 9 31 10 32
REMARK SMILES IDX 24 33
REMARK H PARENT 24 34
REMARK Flexibility Score: inf
ROOT
ATOM      1  C   UNL     1      25.134   6.372  56.917  1.00  0.00     0.017 C 
ATOM      2  C   UNL     1      24.955   5.129  55.972  1.00  0.00     0.014 C 
ATOM      3  C   UNL     1      25.027   7.670  56.000  1.00  0.00     0.014 C 
ATOM      4  C   UNL     1      26.514   6.353  57.705  1.00  0.00     0.030 C 
ATOM      5  C   UNL     1      25.711   3.924  56.493  1.00  0.00     0.004 C 
ATOM      6  C   UNL     1      25.732   8.977  56.469  1.00  0.00     0.013 C 
ATOM      7  C   UNL     1      26.840   7.768  58.286  1.00  0.00    -0.063 C 
ATOM      8  C   UNL     1      27.621   5.663  56.781  1.00  0.00    -0.003 C 
ATOM      9  C   UNL     1      27.220   4.185  56.416  1.00  0.00    -0.011 C 
ATOM     10  C   UNL     1      26.003   9.049  57.987  1.00  0.00    -0.006 C 
ATOM     11  C   UNL     1      28.052   7.981  58.779  1.00  0.00    -0.027 C 
ATOM     12  C   UNL     1      29.047   5.593  57.366  1.00  0.00     0.008 C 
ATOM     13  C   UNL     1      27.761   3.766  55.026  1.00  0.00     0.008 C 
ATOM     14  C   UNL     1      24.608   8.990  58.722  1.00  0.00     0.017 C 
ATOM     15  C   UNL     1      26.790  10.423  58.459  1.00  0.00    -0.020 C 
ATOM     16  C   UNL     1      28.865   8.947  57.986  1.00  0.00     0.032 C 
ATOM     17  C   UNL     1      28.381  10.393  58.143  1.00  0.00     0.006 C 
ATOM     18  C   UNL     1      26.543  10.645  60.011  1.00  0.00     0.008 C 
ATOM     19  C   UNL     1      26.127  11.639  57.727  1.00  0.00     0.012 C 
ATOM     20  C   UNL     1      29.359  11.278  59.074  1.00  0.00    -0.025 C 
ATOM     21  C   UNL     1      27.513  11.558  60.770  1.00  0.00     0.005 C 
ATOM     22  C   UNL     1      28.942  11.048  60.565  1.00  0.00     0.003 C 
ATOM     23  C   UNL     1      30.894  10.952  58.930  1.00  0.00     0.010 C 
ATOM     24  C   UNL     1      29.243  12.767  58.591  1.00  0.00     0.012 C 
ATOM     25  C   UNL     1      30.012  11.416  61.678  1.00  0.00    -0.006 C 
ATOM     26  C   UNL     1      31.449  10.002  60.010  1.00  0.00     0.033 C 
ATOM     27  C   UNL     1      31.342  10.581  61.431  1.00  0.00     0.120 C 
ATOM     28  C   UNL     1      29.482  11.010  63.083  1.00  0.00     0.014 C 
ATOM     29  C   UNL     1      30.324  12.932  61.744  1.00  0.00     0.014 C 
ENDROOT
BRANCH   1  30
ATOM     30  C   UNL     1      23.964   6.247  57.895  1.00  0.00     0.048 C 
ATOM     31  O   UNL     1      22.793   6.517  57.515  1.00  0.00    -0.550 OA
ATOM     32  O   UNL     1      24.147   5.706  59.168  1.00  0.00    -0.550 OA
ENDBRANCH   1  30
BRANCH  27  33
ATOM     33  O   UNL     1      32.508  11.327  61.709  1.00  0.00    -0.393 OA
ATOM     34  H   UNL     1      32.663  11.910  60.916  1.00  0.00     0.210 HD
ENDBRANCH  27  33
TORSDOF 2
ENDMDL
MODEL 4
REMARK VINA RESULT:    -7.258      2.521      7.341
REMARK INTER + INTRA:          -8.026
REMARK INTER:                  -7.876
REMARK INTRA:                  -0.150
REMARK UNBOUND:                -0.132
REMARK SMILES C[C@H]1[C@H](C)CC[C@]2(C(=O)[O-])CC[C@@]3(C)C(=CC[C@@H]4[C@]5(C)CC[C@@H](O)C(C)(C)[C@H]5CC[C@@]43C)[C@H]12
REMARK SMILES IDX 7 1 6 2 11 3 33 4 5 5 12 6 15 7 2 8 3 9 13 10 16 11 1 12
REMARK SMILES IDX 4 13 14 14 31 15 17 16 18 17 30 18 32 19 19 20 29 21 28 22
REMARK SMILES IDX 21 23 20 24 25 25 22 26 23 27 26 28 27 29 8 30 9 31 10 32
REMARK SMILES IDX 24 33
REMARK H PARENT 24 34
REMARK Flexibility Score: inf
ROOT
ATOM      1  C   UNL     1      26.797   9.781  57.574  1.00  0.00     0.017 C 
ATOM      2  C   UNL     1      25.836   8.982  56.621  1.00  0.00     0.014 C 
ATOM      3  C   UNL     1      28.221   9.073  57.497  1.00  0.00     0.014 C 
ATOM      4  C   UNL     1      26.274   9.830  59.075  1.00  0.00     0.030 C 
ATOM      5  C   UNL     1      24.401   9.040  57.104  1.00  0.00     0.004 C 
ATOM      6  C   UNL     1      29.191   9.209  58.708  1.00  0.00     0.013 C 
ATOM      7  C   UNL     1      27.425  10.246  60.049  1.00  0.00    -0.063 C 
ATOM      8  C   UNL     1      25.498   8.469  59.390  1.00  0.00    -0.003 C 
ATOM      9  C   UNL     1      24.267   8.276  58.427  1.00  0.00    -0.011 C 
ATOM     10  C   UNL     1      28.912  10.425  59.617  1.00  0.00    -0.006 C 
ATOM     11  C   UNL     1      27.221  10.122  61.352  1.00  0.00    -0.027 C 
ATOM     12  C   UNL     1      24.952   8.315  60.826  1.00  0.00     0.008 C 
ATOM     13  C   UNL     1      23.981   6.779  58.149  1.00  0.00     0.008 C 
ATOM     14  C   UNL     1      29.089  11.724  58.740  1.00  0.00     0.017 C 
ATOM     15  C   UNL     1      29.924  10.527  60.919  1.00  0.00    -0.020 C 
ATOM     16  C   UNL     1      28.067   9.080  62.000  1.00  0.00     0.032 C 
ATOM     17  C   UNL     1      29.537   9.503  62.116  1.00  0.00     0.006 C 
ATOM     18  C   UNL     1      29.917  12.022  61.455  1.00  0.00     0.008 C 
ATOM     19  C   UNL     1      31.383  10.239  60.427  1.00  0.00     0.012 C 
ATOM     20  C   UNL     1      29.950   9.901  63.624  1.00  0.00    -0.025 C 
ATOM     21  C   UNL     1      30.392  12.274  62.891  1.00  0.00     0.005 C 
ATOM     22  C   UNL     1      29.572  11.403  63.847  1.00  0.00     0.003 C 
ATOM     23  C   UNL     1      29.266   9.042  64.755  1.00  0.00     0.010 C 
ATOM     24  C   UNL     1      31.480   9.588  63.788  1.00  0.00     0.012 C 
ATOM     25  C   UNL     1      29.439  11.899  65.349  1.00  0.00    -0.006 C 
ATOM     26  C   UNL     1      28.025   9.698  65.391  1.00  0.00     0.033 C 
ATOM     27  C   UNL     1      28.344  11.026  66.100  1.00  0.00     0.120 C 
ATOM     28  C   UNL     1      28.938  13.372  65.382  1.00  0.00     0.014 C 
ATOM     29  C   UNL     1      30.782  11.871  66.119  1.00  0.00     0.014 C 
ENDROOT
BRANCH   1  30
ATOM     30  C   UNL     1      26.806  11.188  56.972  1.00  0.00     0.048 C 
ATOM     31  O   UNL     1      27.358  11.392  55.857  1.00  0.00    -0.550 OA
ATOM     32  O   UNL     1      26.095  12.230  57.567  1.00  0.00    -0.550 OA
ENDBRANCH   1  30
BRANCH  27  33
ATOM     33  O   UNL     1      28.696  10.754  67.440  1.00  0.00    -0.393 OA
ATOM     34  H   UNL     1      28.369  11.527  67.977  1.00  0.00     0.210 HD
ENDBRANCH  27  33
TORSDOF 2
ENDMDL
MODEL 5
REMARK VINA RESULT:    -7.041      1.940      7.735
REMARK INTER + INTRA:          -7.790
REMARK INTER:                  -7.618
REMARK INTRA:                  -0.172
REMARK UNBOUND:                -0.132
REMARK SMILES C[C@H]1[C@H](C)CC[C@]2(C(=O)[O-])CC[C@@]3(C)C(=CC[C@@H]4[C@]5(C)CC[C@@H](O)C(C)(C)[C@H]5CC[C@@]43C)[C@H]12
REMARK SMILES IDX 7 1 6 2 11 3 33 4 5 5 12 6 15 7 2 8 3 9 13 10 16 11 1 12
REMARK SMILES IDX 4 13 14 14 31 15 17 16 18 17 30 18 32 19 19 20 29 21 28 22
REMARK SMILES IDX 21 23 20 24 25 25 22 26 23 27 26 28 27 29 8 30 9 31 10 32
REMARK SMILES IDX 24 33
REMARK H PARENT 24 34
REMARK Flexibility Score: inf
ROOT
ATOM      1  C   UNL     1      26.652   5.670  57.884  1.00  0.00     0.017 C 
ATOM      2  C   UNL     1      25.624   4.961  56.929  1.00  0.00     0.014 C 
ATOM      3  C   UNL     1      26.279   5.236  59.370  1.00  0.00     0.014 C 
ATOM      4  C   UNL     1      26.635   7.253  57.739  1.00  0.00     0.030 C 
ATOM      5  C   UNL     1      25.376   5.777  55.677  1.00  0.00     0.004 C 
ATOM      6  C   UNL     1      26.672   6.179  60.545  1.00  0.00     0.013 C 
ATOM      7  C   UNL     1      27.333   7.928  58.965  1.00  0.00    -0.063 C 
ATOM      8  C   UNL     1      25.147   7.718  57.390  1.00  0.00    -0.003 C 
ATOM      9  C   UNL     1      24.648   7.077  56.041  1.00  0.00    -0.011 C 
ATOM     10  C   UNL     1      27.826   7.154  60.225  1.00  0.00    -0.006 C 
ATOM     11  C   UNL     1      27.212   9.240  59.113  1.00  0.00    -0.027 C 
ATOM     12  C   UNL     1      24.925   9.240  57.253  1.00  0.00     0.008 C 
ATOM     13  C   UNL     1      23.117   6.846  56.042  1.00  0.00     0.008 C 
ATOM     14  C   UNL     1      29.100   6.287  59.888  1.00  0.00     0.017 C 
ATOM     15  C   UNL     1      28.198   8.175  61.469  1.00  0.00    -0.020 C 
ATOM     16  C   UNL     1      26.411   9.642  60.303  1.00  0.00     0.032 C 
ATOM     17  C   UNL     1      27.156   9.409  61.623  1.00  0.00     0.006 C 
ATOM     18  C   UNL     1      29.671   8.726  61.253  1.00  0.00     0.008 C 
ATOM     19  C   UNL     1      28.228   7.339  62.794  1.00  0.00     0.012 C 
ATOM     20  C   UNL     1      27.690  10.780  62.285  1.00  0.00    -0.025 C 
ATOM     21  C   UNL     1      30.074  10.010  61.989  1.00  0.00     0.005 C 
ATOM     22  C   UNL     1      29.076  11.118  61.641  1.00  0.00     0.003 C 
ATOM     23  C   UNL     1      26.740  12.025  62.104  1.00  0.00     0.010 C 
ATOM     24  C   UNL     1      27.734  10.563  63.839  1.00  0.00     0.012 C 
ATOM     25  C   UNL     1      29.582  12.617  61.763  1.00  0.00    -0.006 C 
ATOM     26  C   UNL     1      27.123  12.955  60.936  1.00  0.00     0.033 C 
ATOM     27  C   UNL     1      28.512  13.593  61.107  1.00  0.00     0.120 C 
ATOM     28  C   UNL     1      30.905  12.800  60.965  1.00  0.00     0.014 C 
ATOM     29  C   UNL     1      29.884  13.039  63.222  1.00  0.00     0.014 C 
ENDROOT
BRANCH   1  30
ATOM     30  C   UNL     1      28.002   5.112  57.431  1.00  0.00     0.048 C 
ATOM     31  O   UNL     1      28.327   3.930  57.725  1.00  0.00    -0.550 OA
ATOM     32  O   UNL     1      28.831   5.840  56.576  1.00  0.00    -0.550 OA
ENDBRANCH   1  30
BRANCH  27  33
ATOM     33  O   UNL     1      28.374  14.802  61.822  1.00  0.00    -0.393 OA
ATOM     34  H   UNL     1      29.296  15.158  61.951  1.00  0.00     0.210 HD
ENDBRANCH  27  33
TORSDOF 2
ENDMDL
MODEL 6
REMARK VINA RESULT:    -6.979      1.765      7.559
REMARK INTER + INTRA:          -7.723
REMARK INTER:                  -7.570
REMARK INTRA:                  -0.153
REMARK UNBOUND:                -0.132
REMARK SMILES C[C@H]1[C@H](C)CC[C@]2(C(=O)[O-])CC[C@@]3(C)C(=CC[C@@H]4[C@]5(C)CC[C@@H](O)C(C)(C)[C@H]5CC[C@@]43C)[C@H]12
REMARK SMILES IDX 7 1 6 2 11 3 33 4 5 5 12 6 15 7 2 8 3 9 13 10 16 11 1 12
REMARK SMILES IDX 4 13 14 14 31 15 17 16 18 17 30 18 32 19 19 20 29 21 28 22
REMARK SMILES IDX 21 23 20 24 25 25 22 26 23 27 26 28 27 29 8 30 9 31 10 32
REMARK SMILES IDX 24 33
REMARK H PARENT 24 34
REMARK Flexibility Score: inf
ROOT
ATOM      1  C   UNL     1      24.089   7.141  57.265  1.00  0.00     0.017 C 
ATOM      2  C   UNL     1      23.538   5.745  56.799  1.00  0.00     0.014 C 
ATOM      3  C   UNL     1      25.049   7.669  56.109  1.00  0.00     0.014 C 
ATOM      4  C   UNL     1      24.865   7.066  58.650  1.00  0.00     0.030 C 
ATOM      5  C   UNL     1      23.245   4.843  57.981  1.00  0.00     0.004 C 
ATOM      6  C   UNL     1      26.184   8.670  56.479  1.00  0.00     0.013 C 
ATOM      7  C   UNL     1      25.742   8.344  58.864  1.00  0.00    -0.063 C 
ATOM      8  C   UNL     1      25.593   5.647  58.751  1.00  0.00    -0.003 C 
ATOM      9  C   UNL     1      24.556   4.465  58.682  1.00  0.00    -0.011 C 
ATOM     10  C   UNL     1      25.946   9.453  57.788  1.00  0.00    -0.006 C 
ATOM     11  C   UNL     1      26.620   8.344  59.857  1.00  0.00    -0.027 C 
ATOM     12  C   UNL     1      26.440   5.406  60.020  1.00  0.00     0.008 C 
ATOM     13  C   UNL     1      25.164   3.200  58.027  1.00  0.00     0.008 C 
ATOM     14  C   UNL     1      24.629  10.301  57.601  1.00  0.00     0.017 C 
ATOM     15  C   UNL     1      27.180  10.476  58.184  1.00  0.00    -0.020 C 
ATOM     16  C   UNL     1      28.041   8.361  59.407  1.00  0.00     0.032 C 
ATOM     17  C   UNL     1      28.461   9.719  58.832  1.00  0.00     0.006 C 
ATOM     18  C   UNL     1      26.629  11.576  59.188  1.00  0.00     0.008 C 
ATOM     19  C   UNL     1      27.617  11.240  56.888  1.00  0.00     0.012 C 
ATOM     20  C   UNL     1      29.410  10.552  59.837  1.00  0.00    -0.025 C 
ATOM     21  C   UNL     1      27.644  12.340  60.047  1.00  0.00     0.005 C 
ATOM     22  C   UNL     1      28.490  11.334  60.832  1.00  0.00     0.003 C 
ATOM     23  C   UNL     1      30.423   9.682  60.675  1.00  0.00     0.010 C 
ATOM     24  C   UNL     1      30.336  11.465  58.957  1.00  0.00     0.012 C 
ATOM     25  C   UNL     1      29.153  11.840  62.182  1.00  0.00    -0.006 C 
ATOM     26  C   UNL     1      29.949   9.349  62.103  1.00  0.00     0.033 C 
ATOM     27  C   UNL     1      29.750  10.599  62.976  1.00  0.00     0.120 C 
ATOM     28  C   UNL     1      28.072  12.482  63.100  1.00  0.00     0.014 C 
ATOM     29  C   UNL     1      30.241  12.919  61.958  1.00  0.00     0.014 C 
ENDROOT
BRANCH   1  30
ATOM     30  C   UNL     1      22.826   7.992  57.412  1.00  0.00     0.048 C 
ATOM     31  O   UNL     1      22.279   8.490  56.392  1.00  0.00    -0.550 OA
ATOM     32  O   UNL     1      22.182   8.116  58.644  1.00  0.00    -0.550 OA
ENDBRANCH   1  30
BRANCH  27  33
ATOM     33  O   UNL     1      30.969  10.905  63.619  1.00  0.00    -0.393 OA
ATOM     34  H   UNL     1      30.835  11.783  64.071  1.00  0.00     0.210 HD
ENDBRANCH  27  33
TORSDOF 2
ENDMDL
MODEL 7
REMARK VINA RESULT:    -6.956      3.632      8.855
REMARK INTER + INTRA:          -7.698
REMARK INTER:                  -7.529
REMARK INTRA:                  -0.168
REMARK UNBOUND:                -0.132
REMARK SMILES C[C@H]1[C@H](C)CC[C@]2(C(=O)[O-])CC[C@@]3(C)C(=CC[C@@H]4[C@]5(C)CC[C@@H](O)C(C)(C)[C@H]5CC[C@@]43C)[C@H]12
REMARK SMILES IDX 7 1 6 2 11 3 33 4 5 5 12 6 15 7 2 8 3 9 13 10 16 11 1 12
REMARK SMILES IDX 4 13 14 14 31 15 17 16 18 17 30 18 32 19 19 20 29 21 28 22
REMARK SMILES IDX 21 23 20 24 25 25 22 26 23 27 26 28 27 29 8 30 9 31 10 32
REMARK SMILES IDX 24 33
REMARK H PARENT 24 34
REMARK Flexibility Score: inf
ROOT
ATOM      1  C   UNL     1      29.083  11.341  62.270  1.00  0.00     0.017 C 
ATOM      2  C   UNL     1      28.628  11.165  60.776  1.00  0.00     0.014 C 
ATOM      3  C   UNL     1      30.323  10.367  62.496  1.00  0.00     0.014 C 
ATOM      4  C   UNL     1      27.922  11.024  63.308  1.00  0.00     0.030 C 
ATOM      5  C   UNL     1      27.143  11.417  60.615  1.00  0.00     0.004 C 
ATOM      6  C   UNL     1      30.617   9.852  63.935  1.00  0.00     0.013 C 
ATOM      7  C   UNL     1      28.508  10.797  64.741  1.00  0.00    -0.063 C 
ATOM      8  C   UNL     1      26.994   9.874  62.702  1.00  0.00    -0.003 C 
ATOM      9  C   UNL     1      26.350  10.319  61.336  1.00  0.00    -0.011 C 
ATOM     10  C   UNL     1      30.032  10.732  65.062  1.00  0.00    -0.006 C 
ATOM     11  C   UNL     1      27.707  10.307  65.677  1.00  0.00    -0.027 C 
ATOM     12  C   UNL     1      25.829   9.398  63.595  1.00  0.00     0.008 C 
ATOM     13  C   UNL     1      26.121   9.118  60.385  1.00  0.00     0.008 C 
ATOM     14  C   UNL     1      30.692  12.160  64.941  1.00  0.00     0.017 C 
ATOM     15  C   UNL     1      30.318  10.146  66.579  1.00  0.00    -0.020 C 
ATOM     16  C   UNL     1      28.074   8.934  66.127  1.00  0.00     0.032 C 
ATOM     17  C   UNL     1      29.342   8.916  66.988  1.00  0.00     0.006 C 
ATOM     18  C   UNL     1      30.167  11.334  67.622  1.00  0.00     0.008 C 
ATOM     19  C   UNL     1      31.813   9.682  66.649  1.00  0.00     0.012 C 
ATOM     20  C   UNL     1      29.027   8.681  68.554  1.00  0.00    -0.025 C 
ATOM     21  C   UNL     1      29.929  10.974  69.093  1.00  0.00     0.005 C 
ATOM     22  C   UNL     1      28.696  10.071  69.192  1.00  0.00     0.003 C 
ATOM     23  C   UNL     1      27.832   7.698  68.855  1.00  0.00     0.010 C 
ATOM     24  C   UNL     1      30.274   7.961  69.180  1.00  0.00     0.012 C 
ATOM     25  C   UNL     1      27.910  10.063  70.571  1.00  0.00    -0.006 C 
ATOM     26  C   UNL     1      26.488   8.396  69.141  1.00  0.00     0.033 C 
ATOM     27  C   UNL     1      26.531   9.294  70.389  1.00  0.00     0.120 C 
ATOM     28  C   UNL     1      27.558  11.519  70.992  1.00  0.00     0.014 C 
ATOM     29  C   UNL     1      28.728   9.451  71.734  1.00  0.00     0.014 C 
ENDROOT
BRANCH   1  30
ATOM     30  C   UNL     1      29.475  12.818  62.351  1.00  0.00     0.048 C 
ATOM     31  O   UNL     1      30.537  13.219  61.803  1.00  0.00    -0.550 OA
ATOM     32  O   UNL     1      28.609  13.763  62.904  1.00  0.00    -0.550 OA
ENDBRANCH   1  30
BRANCH  27  33
ATOM     33  O   UNL     1      26.192   8.519  71.520  1.00  0.00    -0.393 OA
ATOM     34  H   UNL     1      25.936   7.619  71.177  1.00  0.00     0.210 HD
ENDBRANCH  27  33
TORSDOF 2
ENDMDL
MODEL 8
REMARK VINA RESULT:    -6.796      1.546      2.216
REMARK INTER + INTRA:          -7.523
REMARK INTER:                  -7.353
REMARK INTRA:                  -0.170
REMARK UNBOUND:                -0.132
REMARK SMILES C[C@H]1[C@H](C)CC[C@]2(C(=O)[O-])CC[C@@]3(C)C(=CC[C@@H]4[C@]5(C)CC[C@@H](O)C(C)(C)[C@H]5CC[C@@]43C)[C@H]12
REMARK SMILES IDX 7 1 6 2 11 3 33 4 5 5 12 6 15 7 2 8 3 9 13 10 16 11 1 12
REMARK SMILES IDX 4 13 14 14 31 15 17 16 18 17 30 18 32 19 19 20 29 21 28 22
REMARK SMILES IDX 21 23 20 24 25 25 22 26 23 27 26 28 27 29 8 30 9 31 10 32
REMARK SMILES IDX 24 33
REMARK H PARENT 24 34
REMARK Flexibility Score: inf
ROOT
ATOM      1  C   UNL     1      29.828  10.702  60.731  1.00  0.00     0.017 C 
ATOM      2  C   UNL     1      30.434  11.697  61.786  1.00  0.00     0.014 C 
ATOM      3  C   UNL     1      29.332  11.579  59.497  1.00  0.00     0.014 C 
ATOM      4  C   UNL     1      28.633   9.834  61.320  1.00  0.00     0.030 C 
ATOM      5  C   UNL     1      30.274  11.174  63.198  1.00  0.00     0.004 C 
ATOM      6  C   UNL     1      28.189  11.024  58.597  1.00  0.00     0.013 C 
ATOM      7  C   UNL     1      27.798   9.187  60.166  1.00  0.00    -0.063 C 
ATOM      8  C   UNL     1      27.845  10.713  62.396  1.00  0.00    -0.003 C 
ATOM      9  C   UNL     1      28.788  11.152  63.578  1.00  0.00    -0.011 C 
ATOM     10  C   UNL     1      28.017   9.491  58.653  1.00  0.00    -0.006 C 
ATOM     11  C   UNL     1      26.642   8.616  60.472  1.00  0.00    -0.027 C 
ATOM     12  C   UNL     1      26.615  10.047  63.049  1.00  0.00     0.008 C 
ATOM     13  C   UNL     1      28.372  12.520  64.172  1.00  0.00     0.008 C 
ATOM     14  C   UNL     1      29.361   8.843  58.140  1.00  0.00     0.017 C 
ATOM     15  C   UNL     1      26.772   8.927  57.725  1.00  0.00    -0.020 C 
ATOM     16  C   UNL     1      25.453   9.326  59.918  1.00  0.00     0.032 C 
ATOM     17  C   UNL     1      25.314   9.149  58.402  1.00  0.00     0.006 C 
ATOM     18  C   UNL     1      27.011   7.385  57.432  1.00  0.00     0.008 C 
ATOM     19  C   UNL     1      26.828   9.656  56.339  1.00  0.00     0.012 C 
ATOM     20  C   UNL     1      24.126   8.132  58.002  1.00  0.00    -0.025 C 
ATOM     21  C   UNL     1      25.807   6.540  57.001  1.00  0.00     0.005 C 
ATOM     22  C   UNL     1      24.700   6.677  58.051  1.00  0.00     0.003 C 
ATOM     23  C   UNL     1      22.852   8.195  58.928  1.00  0.00     0.010 C 
ATOM     24  C   UNL     1      23.590   8.569  56.593  1.00  0.00     0.012 C 
ATOM     25  C   UNL     1      23.652   5.491  58.161  1.00  0.00    -0.006 C 
ATOM     26  C   UNL     1      22.808   7.117  60.028  1.00  0.00     0.033 C 
ATOM     27  C   UNL     1      22.766   5.686  59.466  1.00  0.00     0.120 C 
ATOM     28  C   UNL     1      24.397   4.134  58.324  1.00  0.00     0.014 C 
ATOM     29  C   UNL     1      22.754   5.355  56.907  1.00  0.00     0.014 C 
ENDROOT
BRANCH   1  30
ATOM     30  C   UNL     1      31.010   9.799  60.373  1.00  0.00     0.048 C 
ATOM     31  O   UNL     1      31.919  10.225  59.610  1.00  0.00    -0.550 OA
ATOM     32  O   UNL     1      31.177   8.556  60.983  1.00  0.00    -0.550 OA
ENDBRANCH   1  30
BRANCH  27  33
ATOM     33  O   UNL     1      21.419   5.314  59.265  1.00  0.00    -0.393 OA
ATOM     34  H   UNL     1      21.429   4.579  58.594  1.00  0.00     0.210 HD
ENDBRANCH  27  33
TORSDOF 2
ENDMDL
MODEL 9
REMARK VINA RESULT:    -6.788      3.235      6.216
REMARK INTER + INTRA:          -7.515
REMARK INTER:                  -7.343
REMARK INTRA:                  -0.172
REMARK UNBOUND:                -0.132
REMARK SMILES C[C@H]1[C@H](C)CC[C@]2(C(=O)[O-])CC[C@@]3(C)C(=CC[C@@H]4[C@]5(C)CC[C@@H](O)C(C)(C)[C@H]5CC[C@@]43C)[C@H]12
REMARK SMILES IDX 7 1 6 2 11 3 33 4 5 5 12 6 15 7 2 8 3 9 13 10 16 11 1 12
REMARK SMILES IDX 4 13 14 14 31 15 17 16 18 17 30 18 32 19 19 20 29 21 28 22
REMARK SMILES IDX 21 23 20 24 25 25 22 26 23 27 26 28 27 29 8 30 9 31 10 32
REMARK SMILES IDX 24 33
REMARK H PARENT 24 34
REMARK Flexibility Score: inf
ROOT
ATOM      1  C   UNL     1      29.871   9.051  67.938  1.00  0.00     0.017 C 
ATOM      2  C   UNL     1      29.520   8.072  69.118  1.00  0.00     0.014 C 
ATOM      3  C   UNL     1      28.944  10.335  68.109  1.00  0.00     0.014 C 
ATOM      4  C   UNL     1      29.660   8.391  66.508  1.00  0.00     0.030 C 
ATOM      5  C   UNL     1      29.734   6.626  68.720  1.00  0.00     0.004 C 
ATOM      6  C   UNL     1      28.600  11.182  66.849  1.00  0.00     0.013 C 
ATOM      7  C   UNL     1      29.605   9.490  65.395  1.00  0.00    -0.063 C 
ATOM      8  C   UNL     1      28.437   7.366  66.593  1.00  0.00    -0.003 C 
ATOM      9  C   UNL     1      28.717   6.228  67.644  1.00  0.00    -0.011 C 
ATOM     10  C   UNL     1      29.594  11.021  65.679  1.00  0.00    -0.006 C 
ATOM     11  C   UNL     1      29.215   9.132  64.179  1.00  0.00    -0.027 C 
ATOM     12  C   UNL     1      28.052   6.656  65.277  1.00  0.00     0.008 C 
ATOM     13  C   UNL     1      27.413   5.721  68.308  1.00  0.00     0.008 C 
ATOM     14  C   UNL     1      31.007  11.507  66.187  1.00  0.00     0.017 C 
ATOM     15  C   UNL     1      29.188  11.895  64.337  1.00  0.00    -0.020 C 
ATOM     16  C   UNL     1      27.907   9.717  63.768  1.00  0.00     0.032 C 
ATOM     17  C   UNL     1      28.001  11.217  63.463  1.00  0.00     0.006 C 
ATOM     18  C   UNL     1      30.486  12.087  63.442  1.00  0.00     0.008 C 
ATOM     19  C   UNL     1      28.753  13.327  64.800  1.00  0.00     0.012 C 
ATOM     20  C   UNL     1      27.943  11.533  61.882  1.00  0.00    -0.025 C 
ATOM     21  C   UNL     1      30.293  12.446  61.963  1.00  0.00     0.005 C 
ATOM     22  C   UNL     1      29.392  11.395  61.309  1.00  0.00     0.003 C 
ATOM     23  C   UNL     1      26.986  10.599  61.047  1.00  0.00     0.010 C 
ATOM     24  C   UNL     1      27.314  12.962  61.714  1.00  0.00     0.012 C 
ATOM     25  C   UNL     1      29.532  11.193  59.741  1.00  0.00    -0.006 C 
ATOM     26  C   UNL     1      27.696   9.428  60.340  1.00  0.00     0.033 C 
ATOM     27  C   UNL     1      28.730   9.893  59.300  1.00  0.00     0.120 C 
ATOM     28  C   UNL     1      31.022  10.949  59.365  1.00  0.00     0.014 C 
ATOM     29  C   UNL     1      29.066  12.425  58.926  1.00  0.00     0.014 C 
ENDROOT
BRANCH   1  30
ATOM     30  C   UNL     1      31.352   9.363  68.163  1.00  0.00     0.048 C 
ATOM     31  O   UNL     1      31.698  10.140  69.094  1.00  0.00    -0.550 OA
ATOM     32  O   UNL     1      32.345   8.696  67.444  1.00  0.00    -0.550 OA
ENDBRANCH   1  30
BRANCH  27  33
ATOM     33  O   UNL     1      28.085  10.053  58.055  1.00  0.00    -0.393 OA
ATOM     34  H   UNL     1      27.322  10.673  58.212  1.00  0.00     0.210 HD
ENDBRANCH  27  33
TORSDOF 2
ENDMDL
