MODEL 1
REMARK VINA RESULT:    -0.118      0.000      0.000
REMARK INTER + INTRA:          -0.001
REMARK INTER:                  -0.125
REMARK INTRA:                   0.124
REMARK UNBOUND:                 0.124
REMARK SMILES C=C1CC[C@@H](C(C)C)[C@@H]2C=C(C)CC[C@@H]12
REMARK SMILES IDX 12 1 11 2 10 3 9 4 15 5 14 6 13 7 2 8 1 9 3 10 4 11 5 12
REMARK SMILES IDX 6 13 7 14 8 15
REMARK H PARENT
REMARK Flexibility Score: inf
ROOT
ATOM      1  C   UNL     1       2.909   4.875  12.055  1.00  0.00     0.039 C 
ATOM      2  C   UNL     1       4.115   5.704  12.398  1.00  0.00    -0.077 C 
ATOM      3  C   UNL     1       3.968   6.894  13.008  1.00  0.00    -0.024 C 
ATOM      4  C   UNL     1       5.203   7.688  13.382  1.00  0.00     0.022 C 
ATOM      5  C   UNL     1       6.192   6.735  14.110  1.00  0.00     0.022 C 
ATOM      6  C   UNL     1       6.368   5.341  13.418  1.00  0.00     0.013 C 
ATOM      7  C   UNL     1       5.516   5.189  12.145  1.00  0.00     0.031 C 
ATOM      8  C   UNL     1       7.456   7.523  14.388  1.00  0.00    -0.074 C 
ATOM      9  C   UNL     1       8.544   7.492  13.597  1.00  0.00     0.008 C 
ATOM     10  C   UNL     1       7.251   8.688  15.319  1.00  0.00     0.031 C 
ATOM     11  C   UNL     1       6.241   9.655  14.681  1.00  0.00     0.009 C 
ATOM     12  C   UNL     1       4.909   8.953  14.261  1.00  0.00    -0.001 C 
ENDROOT
BRANCH  12  13
ATOM     13  C   UNL     1       3.900   9.955  13.597  1.00  0.00    -0.014 C 
ATOM     14  C   UNL     1       3.963   9.905  12.061  1.00  0.00     0.007 C 
ATOM     15  C   UNL     1       2.444   9.792  14.066  1.00  0.00     0.007 C 
ENDBRANCH  12  13
TORSDOF 1
ENDMDL
MODEL 2
REMARK VINA RESULT:     1.707      1.383      4.275
REMARK INTER + INTRA:           1.930
REMARK INTER:                   2.190
REMARK INTRA:                  -0.259
REMARK UNBOUND:                 0.124
REMARK SMILES C=C1CC[C@@H](C(C)C)[C@@H]2C=C(C)CC[C@@H]12
REMARK SMILES IDX 12 1 11 2 10 3 9 4 15 5 14 6 13 7 2 8 1 9 3 10 4 11 5 12
REMARK SMILES IDX 6 13 7 14 8 15
REMARK H PARENT
REMARK Flexibility Score: inf
ROOT
ATOM      1  C   UNL     1       1.985  10.758  10.875  1.00  0.00     0.039 C 
ATOM      2  C   UNL     1       2.547  10.064  12.085  1.00  0.00    -0.077 C 
ATOM      3  C   UNL     1       3.625   9.269  11.969  1.00  0.00    -0.024 C 
ATOM      4  C   UNL     1       4.196   8.617  13.213  1.00  0.00     0.022 C 
ATOM      5  C   UNL     1       4.345   9.709  14.309  1.00  0.00     0.022 C 
ATOM      6  C   UNL     1       3.102  10.651  14.451  1.00  0.00     0.013 C 
ATOM      7  C   UNL     1       1.971  10.307  13.464  1.00  0.00     0.031 C 
ATOM      8  C   UNL     1       4.825   9.019  15.571  1.00  0.00    -0.074 C 
ATOM      9  C   UNL     1       4.006   8.621  16.561  1.00  0.00     0.008 C 
ATOM     10  C   UNL     1       6.185   8.389  15.435  1.00  0.00     0.031 C 
ATOM     11  C   UNL     1       6.125   7.325  14.327  1.00  0.00     0.009 C 
ATOM     12  C   UNL     1       5.562   7.881  12.980  1.00  0.00    -0.001 C 
ENDROOT
BRANCH  12  13
ATOM     13  C   UNL     1       5.494   6.774  11.869  1.00  0.00    -0.014 C 
ATOM     14  C   UNL     1       6.847   6.072  11.671  1.00  0.00     0.007 C 
ATOM     15  C   UNL     1       4.387   5.727  12.086  1.00  0.00     0.007 C 
ENDBRANCH  12  13
TORSDOF 1
ENDMDL
MODEL 3
REMARK VINA RESULT:     2.206      1.591      4.854
REMARK INTER + INTRA:           2.459
REMARK INTER:                   2.650
REMARK INTRA:                  -0.191
REMARK UNBOUND:                 0.124
REMARK SMILES C=C1CC[C@@H](C(C)C)[C@@H]2C=C(C)CC[C@@H]12
REMARK SMILES IDX 12 1 11 2 10 3 9 4 15 5 14 6 13 7 2 8 1 9 3 10 4 11 5 12
REMARK SMILES IDX 6 13 7 14 8 15
REMARK H PARENT
REMARK Flexibility Score: inf
ROOT
ATOM      1  C   UNL     1       3.252   9.000  17.328  1.00  0.00     0.039 C 
ATOM      2  C   UNL     1       3.660   9.200  15.895  1.00  0.00    -0.077 C 
ATOM      3  C   UNL     1       4.391   8.263  15.263  1.00  0.00    -0.024 C 
ATOM      4  C   UNL     1       4.751   8.470  13.805  1.00  0.00     0.022 C 
ATOM      5  C   UNL     1       3.461   8.873  13.038  1.00  0.00     0.022 C 
ATOM      6  C   UNL     1       2.593   9.956  13.764  1.00  0.00     0.013 C 
ATOM      7  C   UNL     1       3.195  10.406  15.108  1.00  0.00     0.031 C 
ATOM      8  C   UNL     1       3.861   9.168  11.606  1.00  0.00    -0.074 C 
ATOM      9  C   UNL     1       4.114  10.405  11.142  1.00  0.00     0.008 C 
ATOM     10  C   UNL     1       4.416   7.975  10.875  1.00  0.00     0.031 C 
ATOM     11  C   UNL     1       5.675   7.489  11.610  1.00  0.00     0.009 C 
ATOM     12  C   UNL     1       5.428   7.225  13.131  1.00  0.00    -0.001 C 
ENDROOT
BRANCH  12  13
ATOM     13  C   UNL     1       6.730   6.747  13.865  1.00  0.00    -0.014 C 
ATOM     14  C   UNL     1       7.494   5.689  13.052  1.00  0.00     0.007 C 
ATOM     15  C   UNL     1       7.682   7.885  14.270  1.00  0.00     0.007 C 
ENDBRANCH  12  13
TORSDOF 1
ENDMDL
MODEL 4
REMARK VINA RESULT:     2.598      1.264      3.764
REMARK INTER + INTRA:           2.874
REMARK INTER:                   3.153
REMARK INTRA:                  -0.279
REMARK UNBOUND:                 0.124
REMARK SMILES C=C1CC[C@@H](C(C)C)[C@@H]2C=C(C)CC[C@@H]12
REMARK SMILES IDX 12 1 11 2 10 3 9 4 15 5 14 6 13 7 2 8 1 9 3 10 4 11 5 12
REMARK SMILES IDX 6 13 7 14 8 15
REMARK H PARENT
REMARK Flexibility Score: inf
ROOT
ATOM      1  C   UNL     1       9.312   8.610  14.632  1.00  0.00     0.039 C 
ATOM      2  C   UNL     1       8.060   7.882  14.228  1.00  0.00    -0.077 C 
ATOM      3  C   UNL     1       6.897   8.550  14.110  1.00  0.00    -0.024 C 
ATOM      4  C   UNL     1       5.661   7.800  13.658  1.00  0.00     0.022 C 
ATOM      5  C   UNL     1       6.030   6.970  12.397  1.00  0.00     0.022 C 
ATOM      6  C   UNL     1       7.386   6.194  12.512  1.00  0.00     0.013 C 
ATOM      7  C   UNL     1       8.091   6.414  13.862  1.00  0.00     0.031 C 
ATOM      8  C   UNL     1       4.808   6.156  12.019  1.00  0.00    -0.074 C 
ATOM      9  C   UNL     1       4.622   4.875  12.388  1.00  0.00     0.008 C 
ATOM     10  C   UNL     1       3.622   6.993  11.624  1.00  0.00     0.031 C 
ATOM     11  C   UNL     1       3.228   7.881  12.816  1.00  0.00     0.009 C 
ATOM     12  C   UNL     1       4.424   8.721  13.369  1.00  0.00    -0.001 C 
ENDROOT
BRANCH  12  13
ATOM     13  C   UNL     1       4.004   9.606  14.595  1.00  0.00    -0.014 C 
ATOM     14  C   UNL     1       2.871  10.584  14.239  1.00  0.00     0.007 C 
ATOM     15  C   UNL     1       3.630   8.807  15.854  1.00  0.00     0.007 C 
ENDBRANCH  12  13
TORSDOF 1
ENDMDL
