MODEL 1
REMARK VINA RESULT:    -2.900      0.000      0.000
REMARK INTER + INTRA:          -3.968
REMARK INTER:                  -3.832
REMARK INTRA:                  -0.136
REMARK UNBOUND:                -0.136
REMARK SMILES CCCCCCCO
REMARK SMILES IDX 5 1 4 2 3 3 2 4 1 5 6 6 7 7 8 8
REMARK H PARENT 8 9
REMARK Flexibility Score: inf
ROOT
ATOM      1  C   UNL     1     113.984 115.806 111.879  1.00  0.00     0.002 C 
ENDROOT
BRANCH   1   2
ATOM      2  C   UNL     1     114.418 116.994 112.745  1.00  0.00     0.000 C 
BRANCH   2   3
ATOM      3  C   UNL     1     115.466 117.851 112.018  1.00  0.00    -0.000 C 
BRANCH   3   4
ATOM      4  C   UNL     1     115.092 119.340 111.985  1.00  0.00    -0.003 C 
ATOM      5  C   UNL     1     114.678 119.876 113.355  1.00  0.00     0.004 C 
ENDBRANCH   3   4
ENDBRANCH   2   3
ENDBRANCH   1   2
BRANCH   1   6
ATOM      6  C   UNL     1     113.850 114.530 112.722  1.00  0.00     0.028 C 
BRANCH   6   7
ATOM      7  C   UNL     1     113.871 114.830 114.224  1.00  0.00     0.156 C 
BRANCH   7   8
ATOM      8  O   UNL     1     112.695 114.373 114.838  1.00  0.00    -0.396 OA
ATOM      9  H   UNL     1     111.941 114.634 114.247  1.00  0.00     0.210 HD
ENDBRANCH   7   8
ENDBRANCH   6   7
ENDBRANCH   1   6
TORSDOF 6
ENDMDL
MODEL 2
REMARK VINA RESULT:    -2.897      2.740      4.619
REMARK INTER + INTRA:          -3.965
REMARK INTER:                  -3.818
REMARK INTRA:                  -0.147
REMARK UNBOUND:                -0.136
REMARK SMILES CCCCCCCO
REMARK SMILES IDX 5 1 4 2 3 3 2 4 1 5 6 6 7 7 8 8
REMARK H PARENT 8 9
REMARK Flexibility Score: inf
ROOT
ATOM      1  C   UNL     1     114.752 119.812 113.316  1.00  0.00     0.002 C 
ENDROOT
BRANCH   1   2
ATOM      2  C   UNL     1     114.603 118.704 112.267  1.00  0.00     0.000 C 
BRANCH   2   3
ATOM      3  C   UNL     1     114.601 117.316 112.928  1.00  0.00    -0.000 C 
BRANCH   3   4
ATOM      4  C   UNL     1     113.904 116.253 112.066  1.00  0.00    -0.003 C 
ATOM      5  C   UNL     1     113.526 115.003 112.861  1.00  0.00     0.004 C 
ENDBRANCH   3   4
ENDBRANCH   2   3
ENDBRANCH   1   2
BRANCH   1   6
ATOM      6  C   UNL     1     115.138 119.229 114.682  1.00  0.00     0.028 C 
BRANCH   6   7
ATOM      7  C   UNL     1     114.974 120.252 115.810  1.00  0.00     0.156 C 
BRANCH   7   8
ATOM      8  O   UNL     1     114.093 121.275 115.427  1.00  0.00    -0.396 OA
ATOM      9  H   UNL     1     114.622 121.929 114.901  1.00  0.00     0.210 HD
ENDBRANCH   7   8
ENDBRANCH   6   7
ENDBRANCH   1   6
TORSDOF 6
ENDMDL
MODEL 3
REMARK VINA RESULT:    -2.880      4.967      6.347
REMARK INTER + INTRA:          -3.943
REMARK INTER:                  -3.715
REMARK INTRA:                  -0.228
REMARK UNBOUND:                -0.136
REMARK SMILES CCCCCCCO
REMARK SMILES IDX 5 1 4 2 3 3 2 4 1 5 6 6 7 7 8 8
REMARK H PARENT 8 9
REMARK Flexibility Score: inf
ROOT
ATOM      1  C   UNL     1     118.800 116.038 112.081  1.00  0.00     0.002 C 
ENDROOT
BRANCH   1   2
ATOM      2  C   UNL     1     117.480 115.262 112.172  1.00  0.00     0.000 C 
BRANCH   2   3
ATOM      3  C   UNL     1     117.729 113.746 112.134  1.00  0.00    -0.000 C 
BRANCH   3   4
ATOM      4  C   UNL     1     118.688 113.278 113.239  1.00  0.00    -0.003 C 
ATOM      5  C   UNL     1     118.087 113.412 114.638  1.00  0.00     0.004 C 
ENDBRANCH   3   4
ENDBRANCH   2   3
ENDBRANCH   1   2
BRANCH   1   6
ATOM      6  C   UNL     1     118.950 117.008 113.261  1.00  0.00     0.028 C 
BRANCH   6   7
ATOM      7  C   UNL     1     119.488 118.371 112.817  1.00  0.00     0.156 C 
BRANCH   7   8
ATOM      8  O   UNL     1     120.285 118.941 113.822  1.00  0.00    -0.396 OA
ATOM      9  H   UNL     1     120.731 118.192 114.296  1.00  0.00     0.210 HD
ENDBRANCH   7   8
ENDBRANCH   6   7
ENDBRANCH   1   6
TORSDOF 6
ENDMDL
MODEL 4
REMARK VINA RESULT:    -2.873      4.667      5.029
REMARK INTER + INTRA:          -3.933
REMARK INTER:                  -3.806
REMARK INTRA:                  -0.127
REMARK UNBOUND:                -0.136
REMARK SMILES CCCCCCCO
REMARK SMILES IDX 5 1 4 2 3 3 2 4 1 5 6 6 7 7 8 8
REMARK H PARENT 8 9
REMARK Flexibility Score: inf
ROOT
ATOM      1  C   UNL     1     118.357 115.825 112.637  1.00  0.00     0.002 C 
ENDROOT
BRANCH   1   2
ATOM      2  C   UNL     1     119.028 116.985 111.891  1.00  0.00     0.000 C 
BRANCH   2   3
ATOM      3  C   UNL     1     118.891 118.298 112.678  1.00  0.00    -0.000 C 
BRANCH   3   4
ATOM      4  C   UNL     1     120.118 118.593 113.553  1.00  0.00    -0.003 C 
ATOM      5  C   UNL     1     119.897 118.232 115.022  1.00  0.00     0.004 C 
ENDBRANCH   3   4
ENDBRANCH   2   3
ENDBRANCH   1   2
BRANCH   1   6
ATOM      6  C   UNL     1     118.535 114.505 111.875  1.00  0.00     0.028 C 
BRANCH   6   7
ATOM      7  C   UNL     1     118.075 113.300 112.701  1.00  0.00     0.156 C 
BRANCH   7   8
ATOM      8  O   UNL     1     118.965 113.054 113.757  1.00  0.00    -0.396 OA
ATOM      9  H   UNL     1     119.197 112.089 113.720  1.00  0.00     0.210 HD
ENDBRANCH   7   8
ENDBRANCH   6   7
ENDBRANCH   1   6
TORSDOF 6
ENDMDL
MODEL 5
REMARK VINA RESULT:    -2.869      4.855      5.084
REMARK INTER + INTRA:          -3.927
REMARK INTER:                  -3.788
REMARK INTRA:                  -0.140
REMARK UNBOUND:                -0.136
REMARK SMILES CCCCCCCO
REMARK SMILES IDX 5 1 4 2 3 3 2 4 1 5 6 6 7 7 8 8
REMARK H PARENT 8 9
REMARK Flexibility Score: inf
ROOT
ATOM      1  C   UNL     1     118.503 113.386 113.123  1.00  0.00     0.002 C 
ENDROOT
BRANCH   1   2
ATOM      2  C   UNL     1     118.566 114.507 112.078  1.00  0.00     0.000 C 
BRANCH   2   3
ATOM      3  C   UNL     1     118.633 115.886 112.752  1.00  0.00    -0.000 C 
BRANCH   3   4
ATOM      4  C   UNL     1     119.327 116.939 111.876  1.00  0.00    -0.003 C 
ATOM      5  C   UNL     1     119.828 118.139 112.679  1.00  0.00     0.004 C 
ENDBRANCH   3   4
ENDBRANCH   2   3
ENDBRANCH   1   2
BRANCH   1   6
ATOM      6  C   UNL     1     117.676 113.816 114.341  1.00  0.00     0.028 C 
BRANCH   6   7
ATOM      7  C   UNL     1     118.208 113.204 115.640  1.00  0.00     0.156 C 
BRANCH   7   8
ATOM      8  O   UNL     1     119.051 112.116 115.368  1.00  0.00    -0.396 OA
ATOM      9  H   UNL     1     119.271 112.157 114.401  1.00  0.00     0.210 HD
ENDBRANCH   7   8
ENDBRANCH   6   7
ENDBRANCH   1   6
TORSDOF 6
ENDMDL
MODEL 6
REMARK VINA RESULT:    -2.868      3.915      4.722
REMARK INTER + INTRA:          -3.926
REMARK INTER:                  -3.786
REMARK INTRA:                  -0.140
REMARK UNBOUND:                -0.136
REMARK SMILES CCCCCCCO
REMARK SMILES IDX 5 1 4 2 3 3 2 4 1 5 6 6 7 7 8 8
REMARK H PARENT 8 9
REMARK Flexibility Score: inf
ROOT
ATOM      1  C   UNL     1     118.336 114.417 112.225  1.00  0.00     0.002 C 
ENDROOT
BRANCH   1   2
ATOM      2  C   UNL     1     117.026 115.139 112.563  1.00  0.00     0.000 C 
BRANCH   2   3
ATOM      3  C   UNL     1     115.831 114.462 111.875  1.00  0.00    -0.000 C 
BRANCH   3   4
ATOM      4  C   UNL     1     114.541 114.558 112.704  1.00  0.00    -0.003 C 
ATOM      5  C   UNL     1     113.401 115.239 111.946  1.00  0.00     0.004 C 
ENDBRANCH   3   4
ENDBRANCH   2   3
ENDBRANCH   1   2
BRANCH   1   6
ATOM      6  C   UNL     1     118.511 113.161 113.090  1.00  0.00     0.028 C 
BRANCH   6   7
ATOM      7  C   UNL     1     118.224 113.438 114.568  1.00  0.00     0.156 C 
BRANCH   7   8
ATOM      8  O   UNL     1     118.869 112.496 115.384  1.00  0.00    -0.396 OA
ATOM      9  H   UNL     1     118.214 112.218 116.076  1.00  0.00     0.210 HD
ENDBRANCH   7   8
ENDBRANCH   6   7
ENDBRANCH   1   6
TORSDOF 6
ENDMDL
MODEL 7
REMARK VINA RESULT:    -2.866      4.875      5.708
REMARK INTER + INTRA:          -3.923
REMARK INTER:                  -3.786
REMARK INTRA:                  -0.137
REMARK UNBOUND:                -0.136
REMARK SMILES CCCCCCCO
REMARK SMILES IDX 5 1 4 2 3 3 2 4 1 5 6 6 7 7 8 8
REMARK H PARENT 8 9
REMARK Flexibility Score: inf
ROOT
ATOM      1  C   UNL     1     119.870 118.462 113.309  1.00  0.00     0.002 C 
ENDROOT
BRANCH   1   2
ATOM      2  C   UNL     1     118.779 118.554 112.236  1.00  0.00     0.000 C 
BRANCH   2   3
ATOM      3  C   UNL     1     117.383 118.627 112.875  1.00  0.00    -0.000 C 
BRANCH   3   4
ATOM      4  C   UNL     1     116.310 119.126 111.894  1.00  0.00    -0.003 C 
ATOM      5  C   UNL     1     115.194 119.907 112.588  1.00  0.00     0.004 C 
ENDBRANCH   3   4
ENDBRANCH   2   3
ENDBRANCH   1   2
BRANCH   1   6
ATOM      6  C   UNL     1     119.387 117.647 114.516  1.00  0.00     0.028 C 
BRANCH   6   7
ATOM      7  C   UNL     1     120.034 118.117 115.822  1.00  0.00     0.156 C 
BRANCH   7   8
ATOM      8  O   UNL     1     121.180 118.884 115.560  1.00  0.00    -0.396 OA
ATOM      9  H   UNL     1     121.032 119.773 115.973  1.00  0.00     0.210 HD
ENDBRANCH   7   8
ENDBRANCH   6   7
ENDBRANCH   1   6
TORSDOF 6
ENDMDL
MODEL 8
REMARK VINA RESULT:    -2.858      3.658      4.503
REMARK INTER + INTRA:          -3.914
REMARK INTER:                  -3.767
REMARK INTRA:                  -0.146
REMARK UNBOUND:                -0.136
REMARK SMILES CCCCCCCO
REMARK SMILES IDX 5 1 4 2 3 3 2 4 1 5 6 6 7 7 8 8
REMARK H PARENT 8 9
REMARK Flexibility Score: inf
ROOT
ATOM      1  C   UNL     1     116.067 114.464 112.985  1.00  0.00     0.002 C 
ENDROOT
BRANCH   1   2
ATOM      2  C   UNL     1     114.759 114.504 112.185  1.00  0.00     0.000 C 
BRANCH   2   3
ATOM      3  C   UNL     1     113.554 114.733 113.111  1.00  0.00    -0.000 C 
BRANCH   3   4
ATOM      4  C   UNL     1     113.943 115.427 114.425  1.00  0.00    -0.003 C 
ATOM      5  C   UNL     1     113.102 114.959 115.612  1.00  0.00     0.004 C 
ENDBRANCH   3   4
ENDBRANCH   2   3
ENDBRANCH   1   2
BRANCH   1   6
ATOM      6  C   UNL     1     117.172 113.747 112.199  1.00  0.00     0.028 C 
BRANCH   6   7
ATOM      7  C   UNL     1     118.557 113.989 112.804  1.00  0.00     0.156 C 
BRANCH   7   8
ATOM      8  O   UNL     1     118.942 112.908 113.612  1.00  0.00    -0.396 OA
ATOM      9  H   UNL     1     119.125 112.145 113.004  1.00  0.00     0.210 HD
ENDBRANCH   7   8
ENDBRANCH   6   7
ENDBRANCH   1   6
TORSDOF 6
ENDMDL
MODEL 9
REMARK VINA RESULT:    -2.821      4.748      5.071
REMARK INTER + INTRA:          -3.864
REMARK INTER:                  -3.651
REMARK INTRA:                  -0.213
REMARK UNBOUND:                -0.136
REMARK SMILES CCCCCCCO
REMARK SMILES IDX 5 1 4 2 3 3 2 4 1 5 6 6 7 7 8 8
REMARK H PARENT 8 9
REMARK Flexibility Score: inf
ROOT
ATOM      1  C   UNL     1     118.533 115.690 114.835  1.00  0.00     0.002 C 
ENDROOT
BRANCH   1   2
ATOM      2  C   UNL     1     118.301 117.202 114.733  1.00  0.00     0.000 C 
BRANCH   2   3
ATOM      3  C   UNL     1     119.631 117.969 114.791  1.00  0.00    -0.000 C 
BRANCH   3   4
ATOM      4  C   UNL     1     120.042 118.543 113.427  1.00  0.00    -0.003 C 
ATOM      5  C   UNL     1     118.883 118.584 112.430  1.00  0.00     0.004 C 
ENDBRANCH   3   4
ENDBRANCH   2   3
ENDBRANCH   1   2
BRANCH   1   6
ATOM      6  C   UNL     1     117.735 114.937 113.763  1.00  0.00     0.028 C 
BRANCH   6   7
ATOM      7  C   UNL     1     118.631 114.037 112.907  1.00  0.00     0.156 C 
BRANCH   7   8
ATOM      8  O   UNL     1     118.992 112.880 113.614  1.00  0.00    -0.396 OA
ATOM      9  H   UNL     1     118.284 112.722 114.290  1.00  0.00     0.210 HD
ENDBRANCH   7   8
ENDBRANCH   6   7
ENDBRANCH   1   6
TORSDOF 6
ENDMDL
