MODEL 1
REMARK VINA RESULT:    -3.756      0.000      0.000
REMARK INTER + INTRA:          -5.162
REMARK INTER:                  -5.293
REMARK INTRA:                   0.130
REMARK UNBOUND:                 0.130
REMARK SMILES CC1=CCC(=C(C)C)C(=O)CC(C)=CCC1
REMARK SMILES IDX 12 1 14 2 13 3 15 4 16 5 2 6 1 7 3 8 11 10 9 11 10 12 5 13
REMARK SMILES IDX 6 14 7 15 8 16 4 17
REMARK H PARENT
REMARK Flexibility Score: 60.00
ROOT
ATOM      1  C   UNL     1      55.201  18.457  -4.604  1.00  0.00    -0.070 C 
ATOM      2  C   UNL     1      54.184  18.882  -5.397  1.00  0.00    -0.027 C 
ATOM      3  C   UNL     1      56.544  19.121  -4.786  1.00  0.00     0.039 C 
ENDROOT
BRANCH   2   4
ATOM      4  C   UNL     1      52.794  18.295  -5.457  1.00  0.00     0.032 C 
BRANCH   4   5
ATOM      5  C   UNL     1      51.907  18.714  -4.277  1.00  0.00     0.034 C 
BRANCH   5   6
ATOM      6  C   UNL     1      51.234  17.498  -3.670  1.00  0.00    -0.077 C 
ATOM      7  C   UNL     1      50.377  16.635  -4.561  1.00  0.00     0.039 C 
ATOM      8  C   UNL     1      51.426  17.101  -2.389  1.00  0.00    -0.023 CG0
ATOM      9  G   UNL     1      52.233  17.841  -1.349  1.00  0.00     0.000 G0
ENDBRANCH   5   6
ENDBRANCH   4   5
ENDBRANCH   2   4
BRANCH   1  10
ATOM     10  C   UNL     1      55.053  17.417  -3.497  1.00  0.00     0.111 C 
BRANCH  10  11
ATOM     11  C   UNL     1      54.695  17.999  -2.153  1.00  0.00     0.163 C 
ATOM     12  O   UNL     1      55.246  19.083  -1.820  1.00  0.00    -0.294 OA
BRANCH  11  13
ATOM     13  C   UNL     1      53.676  17.373  -1.244  1.00  0.00    -0.002 C 
ATOM     14  C   UNL     1      54.027  16.359  -0.393  1.00  0.00    -0.069 C 
ATOM     15  C   UNL     1      53.002  15.647   0.461  1.00  0.00     0.039 C 
ATOM     16  C   UNL     1      55.467  15.927  -0.221  1.00  0.00     0.039 C 
BRANCH  13  17
ATOM     17  C   UNL     1      52.227  17.850  -1.328  1.00  0.00     0.066 CG0
ATOM     18  G   UNL     1      51.441  17.105  -2.380  1.00  0.00     0.000 G0
ENDBRANCH  13  17
ENDBRANCH  11  13
ENDBRANCH  10  11
ENDBRANCH   1  10
TORSDOF 0
ENDMDL
MODEL 2
REMARK VINA RESULT:    -3.483      2.016      3.863
REMARK INTER + INTRA:          -4.778
REMARK INTER:                  -5.016
REMARK INTRA:                   0.237
REMARK UNBOUND:                 0.130
REMARK SMILES CC1=CCC(=C(C)C)C(=O)CC(C)=CCC1
REMARK SMILES IDX 12 1 14 2 13 3 15 4 16 5 2 6 1 7 3 8 11 10 9 11 10 12 5 13
REMARK SMILES IDX 6 14 7 15 8 16 4 17
REMARK H PARENT
REMARK Flexibility Score: 60.00
ROOT
ATOM      1  C   UNL     1      55.067  18.000  -4.628  1.00  0.00    -0.070 C 
ATOM      2  C   UNL     1      55.420  17.046  -3.729  1.00  0.00    -0.027 C 
ATOM      3  C   UNL     1      55.810  19.313  -4.571  1.00  0.00     0.039 C 
ENDROOT
BRANCH   2   4
ATOM      4  C   UNL     1      54.748  15.708  -3.538  1.00  0.00     0.032 C 
BRANCH   4   5
ATOM      5  C   UNL     1      53.921  15.622  -2.249  1.00  0.00     0.034 C 
BRANCH   5   6
ATOM      6  C   UNL     1      52.440  15.610  -2.575  1.00  0.00    -0.077 C 
ATOM      7  C   UNL     1      51.734  14.280  -2.643  1.00  0.00     0.039 C 
ATOM      8  C   UNL     1      51.701  16.734  -2.731  1.00  0.00    -0.023 CG0
ATOM      9  G   UNL     1      52.232  18.148  -2.712  1.00  0.00     0.000 G0
ENDBRANCH   5   6
ENDBRANCH   4   5
ENDBRANCH   2   4
BRANCH   1  10
ATOM     10  C   UNL     1      54.031  17.804  -5.732  1.00  0.00     0.111 C 
BRANCH  10  11
ATOM     11  C   UNL     1      52.605  17.965  -5.270  1.00  0.00     0.163 C 
ATOM     12  O   UNL     1      51.715  17.320  -5.890  1.00  0.00    -0.294 OA
BRANCH  11  13
ATOM     13  C   UNL     1      52.227  18.802  -4.083  1.00  0.00    -0.002 C 
ATOM     14  C   UNL     1      51.949  20.135  -4.227  1.00  0.00    -0.069 C 
ATOM     15  C   UNL     1      51.661  21.021  -3.035  1.00  0.00     0.039 C 
ATOM     16  C   UNL     1      51.863  20.788  -5.589  1.00  0.00     0.039 C 
BRANCH  13  17
ATOM     17  C   UNL     1      52.214  18.151  -2.700  1.00  0.00     0.066 CG0
ATOM     18  G   UNL     1      51.698  16.733  -2.742  1.00  0.00     0.000 G0
ENDBRANCH  13  17
ENDBRANCH  11  13
ENDBRANCH  10  11
ENDBRANCH   1  10
TORSDOF 0
ENDMDL
MODEL 3
REMARK VINA RESULT:    -3.411      1.812      4.130
REMARK INTER + INTRA:          -4.676
REMARK INTER:                  -5.236
REMARK INTRA:                   0.560
REMARK UNBOUND:                 0.130
REMARK SMILES CC1=CCC(=C(C)C)C(=O)CC(C)=CCC1
REMARK SMILES IDX 12 1 14 2 13 3 15 4 16 5 2 6 1 7 3 8 11 10 9 11 10 12 5 13
REMARK SMILES IDX 6 14 7 15 8 16 4 17
REMARK H PARENT
REMARK Flexibility Score: 60.00
ROOT
ATOM      1  C   UNL     1      55.287  19.157  -4.314  1.00  0.00    -0.070 C 
ATOM      2  C   UNL     1      55.465  18.795  -3.017  1.00  0.00    -0.027 C 
ATOM      3  C   UNL     1      56.518  19.234  -5.185  1.00  0.00     0.039 C 
ENDROOT
BRANCH   2   4
ATOM      4  C   UNL     1      54.398  18.751  -1.950  1.00  0.00     0.032 C 
BRANCH   4   5
ATOM      5  C   UNL     1      54.265  17.377  -1.281  1.00  0.00     0.034 C 
BRANCH   5   6
ATOM      6  C   UNL     1      54.167  16.289  -2.332  1.00  0.00    -0.077 C 
ATOM      7  C   UNL     1      55.271  15.266  -2.407  1.00  0.00     0.039 C 
ATOM      8  C   UNL     1      53.100  16.140  -3.154  1.00  0.00    -0.023 CG0
ATOM      9  G   UNL     1      51.912  17.069  -3.233  1.00  0.00     0.000 G0
ENDBRANCH   5   6
ENDBRANCH   4   5
ENDBRANCH   2   4
BRANCH   1  10
ATOM     10  C   UNL     1      53.928  19.409  -4.961  1.00  0.00     0.111 C 
BRANCH  10  11
ATOM     11  C   UNL     1      53.145  18.153  -5.251  1.00  0.00     0.163 C 
ATOM     12  O   UNL     1      53.639  17.335  -6.075  1.00  0.00    -0.294 OA
BRANCH  11  13
ATOM     13  C   UNL     1      51.854  17.824  -4.560  1.00  0.00    -0.002 C 
ATOM     14  C   UNL     1      50.659  18.259  -5.065  1.00  0.00    -0.069 C 
ATOM     15  C   UNL     1      49.354  18.026  -4.337  1.00  0.00     0.039 C 
ATOM     16  C   UNL     1      50.567  18.954  -6.407  1.00  0.00     0.039 C 
BRANCH  13  17
ATOM     17  C   UNL     1      51.903  17.043  -3.247  1.00  0.00     0.066 CG0
ATOM     18  G   UNL     1      53.109  16.137  -3.167  1.00  0.00     0.000 G0
ENDBRANCH  13  17
ENDBRANCH  11  13
ENDBRANCH  10  11
ENDBRANCH   1  10
TORSDOF 0
ENDMDL
MODEL 4
REMARK VINA RESULT:    -3.326      1.841      2.368
REMARK INTER + INTRA:          -4.557
REMARK INTER:                  -4.931
REMARK INTRA:                   0.374
REMARK UNBOUND:                 0.130
REMARK SMILES CC1=CCC(=C(C)C)C(=O)CC(C)=CCC1
REMARK SMILES IDX 12 1 14 2 13 3 15 4 16 5 2 6 1 7 3 8 11 10 9 11 10 12 5 13
REMARK SMILES IDX 6 14 7 15 8 16 4 17
REMARK H PARENT
REMARK Flexibility Score: 60.00
ROOT
ATOM      1  C   UNL     1      54.532  18.609  -5.007  1.00  0.00    -0.070 C 
ATOM      2  C   UNL     1      53.977  19.846  -5.085  1.00  0.00    -0.027 C 
ATOM      3  C   UNL     1      55.875  18.495  -4.329  1.00  0.00     0.039 C 
ENDROOT
BRANCH   2   4
ATOM      4  C   UNL     1      52.698  20.207  -5.802  1.00  0.00     0.032 C 
BRANCH   4   5
ATOM      5  C   UNL     1      51.464  19.492  -5.239  1.00  0.00     0.034 C 
BRANCH   5   6
ATOM      6  C   UNL     1      51.379  19.694  -3.739  1.00  0.00    -0.077 C 
ATOM      7  C   UNL     1      51.247  21.101  -3.213  1.00  0.00     0.039 C 
ATOM      8  C   UNL     1      51.335  18.673  -2.850  1.00  0.00    -0.023 CG0
ATOM      9  G   UNL     1      51.468  17.207  -3.184  1.00  0.00     0.000 G0
ENDBRANCH   5   6
ENDBRANCH   4   5
ENDBRANCH   2   4
BRANCH   1  10
ATOM     10  C   UNL     1      53.853  17.328  -5.486  1.00  0.00     0.111 C 
BRANCH  10  11
ATOM     11  C   UNL     1      53.591  16.327  -4.390  1.00  0.00     0.163 C 
ATOM     12  O   UNL     1      54.027  15.154  -4.554  1.00  0.00    -0.294 OA
BRANCH  11  13
ATOM     13  C   UNL     1      52.897  16.689  -3.109  1.00  0.00    -0.002 C 
ATOM     14  C   UNL     1      53.522  16.522  -1.902  1.00  0.00    -0.069 C 
ATOM     15  C   UNL     1      52.811  16.786  -0.594  1.00  0.00     0.039 C 
ATOM     16  C   UNL     1      54.976  16.113  -1.809  1.00  0.00     0.039 C 
BRANCH  13  17
ATOM     17  C   UNL     1      51.455  17.193  -3.173  1.00  0.00     0.066 CG0
ATOM     18  G   UNL     1      51.353  18.667  -2.863  1.00  0.00     0.000 G0
ENDBRANCH  13  17
ENDBRANCH  11  13
ENDBRANCH  10  11
ENDBRANCH   1  10
TORSDOF 0
ENDMDL
MODEL 5
REMARK VINA RESULT:    -3.324      2.392      5.206
REMARK INTER + INTRA:          -4.554
REMARK INTER:                  -4.769
REMARK INTRA:                   0.215
REMARK UNBOUND:                 0.130
REMARK SMILES CC1=CCC(=C(C)C)C(=O)CC(C)=CCC1
REMARK SMILES IDX 12 1 14 2 13 3 15 4 16 5 2 6 1 7 3 8 11 10 9 11 10 12 5 13
REMARK SMILES IDX 6 14 7 15 8 16 4 17
REMARK H PARENT
REMARK Flexibility Score: 60.00
ROOT
ATOM      1  C   UNL     1      51.916  18.924  -2.494  1.00  0.00    -0.070 C 
ATOM      2  C   UNL     1      52.983  18.395  -1.842  1.00  0.00    -0.027 C 
ATOM      3  C   UNL     1      50.561  18.326  -2.202  1.00  0.00     0.039 C 
ENDROOT
BRANCH   2   4
ATOM      4  C   UNL     1      54.431  18.766  -2.053  1.00  0.00     0.032 C 
BRANCH   4   5
ATOM      5  C   UNL     1      55.163  17.828  -3.022  1.00  0.00     0.034 C 
BRANCH   5   6
ATOM      6  C   UNL     1      55.314  18.488  -4.379  1.00  0.00    -0.077 C 
ATOM      7  C   UNL     1      56.526  19.350  -4.623  1.00  0.00     0.039 C 
ATOM      8  C   UNL     1      54.460  18.281  -5.409  1.00  0.00    -0.023 CG0
ATOM      9  G   UNL     1      53.190  17.466  -5.350  1.00  0.00     0.000 G0
ENDBRANCH   5   6
ENDBRANCH   4   5
ENDBRANCH   2   4
BRANCH   1  10
ATOM     10  C   UNL     1      51.988  20.125  -3.433  1.00  0.00     0.111 C 
BRANCH  10  11
ATOM     11  C   UNL     1      52.028  19.759  -4.895  1.00  0.00     0.163 C 
ATOM     12  O   UNL     1      52.206  20.691  -5.726  1.00  0.00    -0.294 OA
BRANCH  11  13
ATOM     13  C   UNL     1      51.927  18.341  -5.379  1.00  0.00    -0.002 C 
ATOM     14  C   UNL     1      50.722  17.819  -5.768  1.00  0.00    -0.069 C 
ATOM     15  C   UNL     1      50.576  16.367  -6.166  1.00  0.00     0.039 C 
ATOM     16  C   UNL     1      49.479  18.676  -5.872  1.00  0.00     0.039 C 
BRANCH  13  17
ATOM     17  C   UNL     1      53.184  17.472  -5.374  1.00  0.00     0.066 CG0
ATOM     18  G   UNL     1      54.448  18.298  -5.422  1.00  0.00     0.000 G0
ENDBRANCH  13  17
ENDBRANCH  11  13
ENDBRANCH  10  11
ENDBRANCH   1  10
TORSDOF 0
ENDMDL
MODEL 6
REMARK VINA RESULT:    -3.299      1.792      3.895
REMARK INTER + INTRA:          -4.518
REMARK INTER:                  -5.096
REMARK INTRA:                   0.578
REMARK UNBOUND:                 0.130
REMARK SMILES CC1=CCC(=C(C)C)C(=O)CC(C)=CCC1
REMARK SMILES IDX 12 1 14 2 13 3 15 4 16 5 2 6 1 7 3 8 11 10 9 11 10 12 5 13
REMARK SMILES IDX 6 14 7 15 8 16 4 17
REMARK H PARENT
REMARK Flexibility Score: 60.00
ROOT
ATOM      1  C   UNL     1      53.512  16.535  -5.373  1.00  0.00    -0.070 C 
ATOM      2  C   UNL     1      53.821  15.626  -4.412  1.00  0.00    -0.027 C 
ATOM      3  C   UNL     1      52.182  16.378  -6.070  1.00  0.00     0.039 C 
ENDROOT
BRANCH   2   4
ATOM      4  C   UNL     1      55.129  15.530  -3.663  1.00  0.00     0.032 C 
BRANCH   4   5
ATOM      5  C   UNL     1      54.982  15.766  -2.155  1.00  0.00     0.034 C 
BRANCH   5   6
ATOM      6  C   UNL     1      53.551  16.137  -1.817  1.00  0.00    -0.077 C 
ATOM      7  C   UNL     1      52.592  15.032  -1.456  1.00  0.00     0.039 C 
ATOM      8  C   UNL     1      53.110  17.416  -1.746  1.00  0.00    -0.023 CG0
ATOM      9  G   UNL     1      53.915  18.647  -2.084  1.00  0.00     0.000 G0
ENDBRANCH   5   6
ENDBRANCH   4   5
ENDBRANCH   2   4
BRANCH   1  10
ATOM     10  C   UNL     1      54.379  17.738  -5.733  1.00  0.00     0.111 C 
BRANCH  10  11
ATOM     11  C   UNL     1      54.742  18.606  -4.555  1.00  0.00     0.163 C 
ATOM     12  O   UNL     1      55.942  18.986  -4.457  1.00  0.00    -0.294 OA
BRANCH  11  13
ATOM     13  C   UNL     1      53.731  19.074  -3.549  1.00  0.00    -0.002 C 
ATOM     14  C   UNL     1      52.700  19.895  -3.922  1.00  0.00    -0.069 C 
ATOM     15  C   UNL     1      51.726  20.459  -2.912  1.00  0.00     0.039 C 
ATOM     16  C   UNL     1      52.447  20.245  -5.373  1.00  0.00     0.039 C 
BRANCH  13  17
ATOM     17  C   UNL     1      53.905  18.663  -2.087  1.00  0.00     0.066 CG0
ATOM     18  G   UNL     1      53.107  17.428  -1.743  1.00  0.00     0.000 G0
ENDBRANCH  13  17
ENDBRANCH  11  13
ENDBRANCH  10  11
ENDBRANCH   1  10
TORSDOF 0
ENDMDL
MODEL 7
REMARK VINA RESULT:    -3.291      1.855      2.194
REMARK INTER + INTRA:          -4.507
REMARK INTER:                  -4.772
REMARK INTRA:                   0.264
REMARK UNBOUND:                 0.130
REMARK SMILES CC1=CCC(=C(C)C)C(=O)CC(C)=CCC1
REMARK SMILES IDX 12 1 14 2 13 3 15 4 16 5 2 6 1 7 3 8 11 10 9 11 10 12 5 13
REMARK SMILES IDX 6 14 7 15 8 16 4 17
REMARK H PARENT
REMARK Flexibility Score: 60.00
ROOT
ATOM      1  C   UNL     1      54.648  18.582  -3.297  1.00  0.00    -0.070 C 
ATOM      2  C   UNL     1      53.603  19.090  -4.001  1.00  0.00    -0.027 C 
ATOM      3  C   UNL     1      54.994  19.257  -1.992  1.00  0.00     0.039 C 
ENDROOT
BRANCH   2   4
ATOM      4  C   UNL     1      53.148  18.641  -5.369  1.00  0.00     0.032 C 
BRANCH   4   5
ATOM      5  C   UNL     1      51.798  17.913  -5.351  1.00  0.00     0.034 C 
BRANCH   5   6
ATOM      6  C   UNL     1      52.007  16.418  -5.493  1.00  0.00    -0.077 C 
ATOM      7  C   UNL     1      52.041  15.830  -6.881  1.00  0.00     0.039 C 
ATOM      8  C   UNL     1      52.244  15.594  -4.444  1.00  0.00    -0.023 CG0
ATOM      9  G   UNL     1      52.234  15.996  -2.989  1.00  0.00     0.000 G0
ENDBRANCH   5   6
ENDBRANCH   4   5
ENDBRANCH   2   4
BRANCH   1  10
ATOM     10  C   UNL     1      55.434  17.338  -3.698  1.00  0.00     0.111 C 
BRANCH  10  11
ATOM     11  C   UNL     1      54.815  16.045  -3.231  1.00  0.00     0.163 C 
ATOM     12  O   UNL     1      55.379  14.970  -3.574  1.00  0.00    -0.294 OA
BRANCH  11  13
ATOM     13  C   UNL     1      53.609  15.999  -2.338  1.00  0.00    -0.002 C 
ATOM     14  C   UNL     1      53.747  15.898  -0.979  1.00  0.00    -0.069 C 
ATOM     15  C   UNL     1      52.551  15.751  -0.066  1.00  0.00     0.039 C 
ATOM     16  C   UNL     1      55.102  15.978  -0.309  1.00  0.00     0.039 C 
BRANCH  13  17
ATOM     17  C   UNL     1      52.221  16.008  -2.978  1.00  0.00     0.066 CG0
ATOM     18  G   UNL     1      52.260  15.596  -4.430  1.00  0.00     0.000 G0
ENDBRANCH  13  17
ENDBRANCH  11  13
ENDBRANCH  10  11
ENDBRANCH   1  10
TORSDOF 0
ENDMDL
MODEL 8
REMARK VINA RESULT:    -3.264      1.970      4.150
REMARK INTER + INTRA:          -4.469
REMARK INTER:                  -4.960
REMARK INTRA:                   0.490
REMARK UNBOUND:                 0.130
REMARK SMILES CC1=CCC(=C(C)C)C(=O)CC(C)=CCC1
REMARK SMILES IDX 12 1 14 2 13 3 15 4 16 5 2 6 1 7 3 8 11 10 9 11 10 12 5 13
REMARK SMILES IDX 6 14 7 15 8 16 4 17
REMARK H PARENT
REMARK Flexibility Score: 60.00
ROOT
ATOM      1  C   UNL     1      54.975  18.418  -4.815  1.00  0.00    -0.070 C 
ATOM      2  C   UNL     1      55.172  17.546  -3.792  1.00  0.00    -0.027 C 
ATOM      3  C   UNL     1      56.170  19.210  -5.288  1.00  0.00     0.039 C 
ENDROOT
BRANCH   2   4
ATOM      4  C   UNL     1      54.108  16.732  -3.097  1.00  0.00     0.032 C 
BRANCH   4   5
ATOM      5  C   UNL     1      53.615  17.367  -1.790  1.00  0.00     0.034 C 
BRANCH   5   6
ATOM      6  C   UNL     1      52.104  17.489  -1.803  1.00  0.00    -0.077 C 
ATOM      7  C   UNL     1      51.290  16.349  -1.246  1.00  0.00     0.039 C 
ATOM      8  C   UNL     1      51.448  18.601  -2.215  1.00  0.00    -0.023 CG0
ATOM      9  G   UNL     1      52.088  19.830  -2.814  1.00  0.00     0.000 G0
ENDBRANCH   5   6
ENDBRANCH   4   5
ENDBRANCH   2   4
BRANCH   1  10
ATOM     10  C   UNL     1      53.655  18.588  -5.561  1.00  0.00     0.111 C 
BRANCH  10  11
ATOM     11  C   UNL     1      52.947  19.886  -5.266  1.00  0.00     0.163 C 
ATOM     12  O   UNL     1      53.311  20.909  -5.908  1.00  0.00    -0.294 OA
BRANCH  11  13
ATOM     13  C   UNL     1      51.804  19.984  -4.297  1.00  0.00    -0.002 C 
ATOM     14  C   UNL     1      50.535  20.251  -4.737  1.00  0.00    -0.069 C 
ATOM     15  C   UNL     1      49.385  20.453  -3.775  1.00  0.00     0.039 C 
ATOM     16  C   UNL     1      50.199  20.310  -6.212  1.00  0.00     0.039 C 
BRANCH  13  17
ATOM     17  C   UNL     1      52.093  19.840  -2.804  1.00  0.00     0.066 CG0
ATOM     18  G   UNL     1      51.452  18.605  -2.216  1.00  0.00     0.000 G0
ENDBRANCH  13  17
ENDBRANCH  11  13
ENDBRANCH  10  11
ENDBRANCH   1  10
TORSDOF 0
ENDMDL
MODEL 9
REMARK VINA RESULT:    -3.259      2.226      4.255
REMARK INTER + INTRA:          -4.462
REMARK INTER:                  -4.677
REMARK INTRA:                   0.214
REMARK UNBOUND:                 0.130
REMARK SMILES CC1=CCC(=C(C)C)C(=O)CC(C)=CCC1
REMARK SMILES IDX 12 1 14 2 13 3 15 4 16 5 2 6 1 7 3 8 11 10 9 11 10 12 5 13
REMARK SMILES IDX 6 14 7 15 8 16 4 17
REMARK H PARENT
REMARK Flexibility Score: 60.00
ROOT
ATOM      1  C   UNL     1      52.902  19.896  -5.749  1.00  0.00    -0.070 C 
ATOM      2  C   UNL     1      54.215  19.779  -5.421  1.00  0.00    -0.027 C 
ATOM      3  C   UNL     1      52.388  21.282  -6.057  1.00  0.00     0.039 C 
ENDROOT
BRANCH   2   4
ATOM      4  C   UNL     1      54.915  18.516  -4.980  1.00  0.00     0.032 C 
BRANCH   4   5
ATOM      5  C   UNL     1      55.150  18.450  -3.466  1.00  0.00     0.034 C 
BRANCH   5   6
ATOM      6  C   UNL     1      54.228  17.425  -2.835  1.00  0.00    -0.077 C 
ATOM      7  C   UNL     1      54.720  16.006  -2.704  1.00  0.00     0.039 C 
ATOM      8  C   UNL     1      53.018  17.733  -2.310  1.00  0.00    -0.023 CG0
ATOM      9  G   UNL     1      52.355  19.089  -2.360  1.00  0.00     0.000 G0
ENDBRANCH   5   6
ENDBRANCH   4   5
ENDBRANCH   2   4
BRANCH   1  10
ATOM     10  C   UNL     1      51.943  18.719  -5.901  1.00  0.00     0.111 C 
BRANCH  10  11
ATOM     11  C   UNL     1      51.306  18.276  -4.608  1.00  0.00     0.163 C 
ATOM     12  O   UNL     1      50.871  17.094  -4.547  1.00  0.00    -0.294 OA
BRANCH  11  13
ATOM     13  C   UNL     1      51.231  19.160  -3.397  1.00  0.00    -0.002 C 
ATOM     14  C   UNL     1      50.204  20.052  -3.244  1.00  0.00    -0.069 C 
ATOM     15  C   UNL     1      50.158  21.021  -2.083  1.00  0.00     0.039 C 
ATOM     16  C   UNL     1      49.031  20.087  -4.199  1.00  0.00     0.039 C 
BRANCH  13  17
ATOM     17  C   UNL     1      52.355  19.086  -2.364  1.00  0.00     0.066 CG0
ATOM     18  G   UNL     1      53.016  17.728  -2.336  1.00  0.00     0.000 G0
ENDBRANCH  13  17
ENDBRANCH  11  13
ENDBRANCH  10  11
ENDBRANCH   1  10
TORSDOF 0
ENDMDL
