MODEL 1
REMARK VINA RESULT:    -3.086      0.000      0.000
REMARK INTER + INTRA:          -3.914
REMARK INTER:                  -3.807
REMARK INTRA:                  -0.107
REMARK UNBOUND:                -0.107
REMARK SMILES CCCCC=CC(C)=O
REMARK SMILES IDX 4 1 3 2 2 3 1 4 5 5 6 6 7 7 9 8 8 9
REMARK H PARENT
REMARK Flexibility Score: inf
ROOT
ATOM      1  C   UNL     1      60.923  16.794   0.213  1.00  0.00     0.027 C 
ENDROOT
BRANCH   1   2
ATOM      2  C   UNL     1      60.789  18.261  -0.225  1.00  0.00     0.004 C 
BRANCH   2   3
ATOM      3  C   UNL     1      59.689  19.040   0.516  1.00  0.00    -0.003 C 
ATOM      4  C   UNL     1      60.247  20.004   1.563  1.00  0.00     0.004 C 
ENDBRANCH   2   3
ENDBRANCH   1   2
BRANCH   1   5
ATOM      5  C   UNL     1      61.364  15.913  -0.921  1.00  0.00    -0.023 C 
ATOM      6  C   UNL     1      62.658  15.723  -1.200  1.00  0.00     0.042 C 
BRANCH   6   7
ATOM      7  C   UNL     1      63.110  14.833  -2.285  1.00  0.00     0.152 C 
ATOM      8  O   UNL     1      63.242  13.593  -2.090  1.00  0.00    -0.295 OA
ATOM      9  C   UNL     1      63.415  15.405  -3.632  1.00  0.00     0.093 C 
ENDBRANCH   6   7
ENDBRANCH   1   5
TORSDOF 4
ENDMDL
MODEL 2
REMARK VINA RESULT:    -3.058      2.425      5.299
REMARK INTER + INTRA:          -3.880
REMARK INTER:                  -3.716
REMARK INTRA:                  -0.164
REMARK UNBOUND:                -0.107
REMARK SMILES CCCCC=CC(C)=O
REMARK SMILES IDX 4 1 3 2 2 3 1 4 5 5 6 6 7 7 9 8 8 9
REMARK H PARENT
REMARK Flexibility Score: inf
ROOT
ATOM      1  C   UNL     1      62.015  15.321  -0.346  1.00  0.00     0.027 C 
ENDROOT
BRANCH   1   2
ATOM      2  C   UNL     1      63.314  15.254  -1.164  1.00  0.00     0.004 C 
BRANCH   2   3
ATOM      3  C   UNL     1      63.160  14.568  -2.532  1.00  0.00    -0.003 C 
ATOM      4  C   UNL     1      63.477  15.500  -3.702  1.00  0.00     0.004 C 
ENDBRANCH   2   3
ENDBRANCH   1   2
BRANCH   1   5
ATOM      5  C   UNL     1      61.250  16.584  -0.622  1.00  0.00    -0.023 C 
ATOM      6  C   UNL     1      60.991  17.473   0.344  1.00  0.00     0.042 C 
BRANCH   6   7
ATOM      7  C   UNL     1      60.273  18.734   0.084  1.00  0.00     0.152 C 
ATOM      8  O   UNL     1      60.875  19.730  -0.405  1.00  0.00    -0.295 OA
ATOM      9  C   UNL     1      58.817  18.837   0.404  1.00  0.00     0.093 C 
ENDBRANCH   6   7
ENDBRANCH   1   5
TORSDOF 4
ENDMDL
MODEL 3
REMARK VINA RESULT:    -2.732     13.909     14.947
REMARK INTER + INTRA:          -3.477
REMARK INTER:                  -3.321
REMARK INTRA:                  -0.156
REMARK UNBOUND:                -0.107
REMARK SMILES CCCCC=CC(C)=O
REMARK SMILES IDX 4 1 3 2 2 3 1 4 5 5 6 6 7 7 9 8 8 9
REMARK H PARENT
REMARK Flexibility Score: inf
ROOT
ATOM      1  C   UNL     1      57.465   6.382   7.912  1.00  0.00     0.027 C 
ENDROOT
BRANCH   1   2
ATOM      2  C   UNL     1      57.162   5.843   9.319  1.00  0.00     0.004 C 
BRANCH   2   3
ATOM      3  C   UNL     1      58.268   4.944   9.898  1.00  0.00    -0.003 C 
ATOM      4  C   UNL     1      59.218   4.408   8.827  1.00  0.00     0.004 C 
ENDBRANCH   2   3
ENDBRANCH   1   2
BRANCH   1   5
ATOM      5  C   UNL     1      56.385   6.018   6.933  1.00  0.00    -0.023 C 
ATOM      6  C   UNL     1      55.588   6.945   6.390  1.00  0.00     0.042 C 
BRANCH   6   7
ATOM      7  C   UNL     1      54.547   6.609   5.401  1.00  0.00     0.152 C 
ATOM      8  O   UNL     1      53.906   5.526   5.481  1.00  0.00    -0.295 OA
ATOM      9  C   UNL     1      54.249   7.562   4.289  1.00  0.00     0.093 C 
ENDBRANCH   6   7
ENDBRANCH   1   5
TORSDOF 4
ENDMDL
MODEL 4
REMARK VINA RESULT:    -2.714      3.550      4.394
REMARK INTER + INTRA:          -3.455
REMARK INTER:                  -3.258
REMARK INTRA:                  -0.198
REMARK UNBOUND:                -0.107
REMARK SMILES CCCCC=CC(C)=O
REMARK SMILES IDX 4 1 3 2 2 3 1 4 5 5 6 6 7 7 9 8 8 9
REMARK H PARENT
REMARK Flexibility Score: inf
ROOT
ATOM      1  C   UNL     1      63.402  15.232  -2.047  1.00  0.00     0.027 C 
ENDROOT
BRANCH   1   2
ATOM      2  C   UNL     1      63.614  15.328  -0.528  1.00  0.00     0.004 C 
BRANCH   2   3
ATOM      3  C   UNL     1      64.946  15.979  -0.120  1.00  0.00    -0.003 C 
ATOM      4  C   UNL     1      65.452  16.991  -1.148  1.00  0.00     0.004 C 
ENDBRANCH   2   3
ENDBRANCH   1   2
BRANCH   1   5
ATOM      5  C   UNL     1      62.654  13.985  -2.426  1.00  0.00    -0.023 C 
ATOM      6  C   UNL     1      62.279  13.085  -1.511  1.00  0.00     0.042 C 
BRANCH   6   7
ATOM      7  C   UNL     1      61.513  11.875  -1.861  1.00  0.00     0.152 C 
ATOM      8  O   UNL     1      62.104  10.816  -2.209  1.00  0.00    -0.295 OA
ATOM      9  C   UNL     1      60.020  11.902  -1.804  1.00  0.00     0.093 C 
ENDBRANCH   6   7
ENDBRANCH   1   5
TORSDOF 4
ENDMDL
MODEL 5
REMARK VINA RESULT:    -2.686     13.944     14.773
REMARK INTER + INTRA:          -3.421
REMARK INTER:                  -3.238
REMARK INTRA:                  -0.183
REMARK UNBOUND:                -0.107
REMARK SMILES CCCCC=CC(C)=O
REMARK SMILES IDX 4 1 3 2 2 3 1 4 5 5 6 6 7 7 9 8 8 9
REMARK H PARENT
REMARK Flexibility Score: inf
ROOT
ATOM      1  C   UNL     1      52.090   7.878   2.282  1.00  0.00     0.027 C 
ENDROOT
BRANCH   1   2
ATOM      2  C   UNL     1      50.592   7.765   1.959  1.00  0.00     0.004 C 
BRANCH   2   3
ATOM      3  C   UNL     1      49.800   6.899   2.954  1.00  0.00    -0.003 C 
ATOM      4  C   UNL     1      48.484   7.546   3.387  1.00  0.00     0.004 C 
ENDBRANCH   2   3
ENDBRANCH   1   2
BRANCH   1   5
ATOM      5  C   UNL     1      52.506   6.900   3.344  1.00  0.00    -0.023 C 
ATOM      6  C   UNL     1      53.682   7.004   3.973  1.00  0.00     0.042 C 
BRANCH   6   7
ATOM      7  C   UNL     1      54.090   6.076   5.043  1.00  0.00     0.152 C 
ATOM      8  O   UNL     1      53.612   4.909   5.101  1.00  0.00    -0.295 OA
ATOM      9  C   UNL     1      55.080   6.520   6.070  1.00  0.00     0.093 C 
ENDBRANCH   6   7
ENDBRANCH   1   5
TORSDOF 4
ENDMDL
MODEL 6
REMARK VINA RESULT:    -2.682     14.483     15.467
REMARK INTER + INTRA:          -3.416
REMARK INTER:                  -3.334
REMARK INTRA:                  -0.082
REMARK UNBOUND:                -0.107
REMARK SMILES CCCCC=CC(C)=O
REMARK SMILES IDX 4 1 3 2 2 3 1 4 5 5 6 6 7 7 9 8 8 9
REMARK H PARENT
REMARK Flexibility Score: inf
ROOT
ATOM      1  C   UNL     1      56.494   6.429   7.145  1.00  0.00     0.027 C 
ENDROOT
BRANCH   1   2
ATOM      2  C   UNL     1      55.756   5.788   5.959  1.00  0.00     0.004 C 
BRANCH   2   3
ATOM      3  C   UNL     1      54.500   6.557   5.512  1.00  0.00    -0.003 C 
ATOM      4  C   UNL     1      53.622   5.753   4.553  1.00  0.00     0.004 C 
ENDBRANCH   2   3
ENDBRANCH   1   2
BRANCH   1   5
ATOM      5  C   UNL     1      57.422   5.455   7.814  1.00  0.00    -0.023 C 
ATOM      6  C   UNL     1      57.821   5.622   9.080  1.00  0.00     0.042 C 
BRANCH   6   7
ATOM      7  C   UNL     1      58.702   4.657   9.764  1.00  0.00     0.152 C 
ATOM      8  O   UNL     1      59.438   3.875   9.102  1.00  0.00    -0.295 OA
ATOM      9  C   UNL     1      58.722   4.603  11.257  1.00  0.00     0.093 C 
ENDBRANCH   6   7
ENDBRANCH   1   5
TORSDOF 4
ENDMDL
MODEL 7
REMARK VINA RESULT:    -2.673      3.215      3.753
REMARK INTER + INTRA:          -3.405
REMARK INTER:                  -3.131
REMARK INTRA:                  -0.274
REMARK UNBOUND:                -0.107
REMARK SMILES CCCCC=CC(C)=O
REMARK SMILES IDX 4 1 3 2 2 3 1 4 5 5 6 6 7 7 9 8 8 9
REMARK H PARENT
REMARK Flexibility Score: inf
ROOT
ATOM      1  C   UNL     1      65.019  16.595   0.463  1.00  0.00     0.027 C 
ENDROOT
BRANCH   1   2
ATOM      2  C   UNL     1      65.334  15.418   1.400  1.00  0.00     0.004 C 
BRANCH   2   3
ATOM      3  C   UNL     1      64.486  15.393   2.683  1.00  0.00    -0.003 C 
ATOM      4  C   UNL     1      63.799  16.729   2.967  1.00  0.00     0.004 C 
ENDBRANCH   2   3
ENDBRANCH   1   2
BRANCH   1   5
ATOM      5  C   UNL     1      64.481  16.125  -0.858  1.00  0.00    -0.023 C 
ATOM      6  C   UNL     1      63.708  15.038  -0.955  1.00  0.00     0.042 C 
BRANCH   6   7
ATOM      7  C   UNL     1      63.141  14.583  -2.238  1.00  0.00     0.152 C 
ATOM      8  O   UNL     1      62.422  13.548  -2.295  1.00  0.00    -0.295 OA
ATOM      9  C   UNL     1      63.422  15.356  -3.486  1.00  0.00     0.093 C 
ENDBRANCH   6   7
ENDBRANCH   1   5
TORSDOF 4
ENDMDL
MODEL 8
REMARK VINA RESULT:    -2.608      3.784      5.894
REMARK INTER + INTRA:          -3.324
REMARK INTER:                  -3.122
REMARK INTRA:                  -0.202
REMARK UNBOUND:                -0.107
REMARK SMILES CCCCC=CC(C)=O
REMARK SMILES IDX 4 1 3 2 2 3 1 4 5 5 6 6 7 7 9 8 8 9
REMARK H PARENT
REMARK Flexibility Score: inf
ROOT
ATOM      1  C   UNL     1      62.291  11.496  -1.249  1.00  0.00     0.027 C 
ENDROOT
BRANCH   1   2
ATOM      2  C   UNL     1      61.000  10.664  -1.309  1.00  0.00     0.004 C 
BRANCH   2   3
ATOM      3  C   UNL     1      60.103  10.984  -2.517  1.00  0.00    -0.003 C 
ATOM      4  C   UNL     1      60.441  10.142  -3.747  1.00  0.00     0.004 C 
ENDBRANCH   2   3
ENDBRANCH   1   2
BRANCH   1   5
ATOM      5  C   UNL     1      62.082  12.887  -1.777  1.00  0.00    -0.023 C 
ATOM      6  C   UNL     1      63.092  13.757  -1.884  1.00  0.00     0.042 C 
BRANCH   6   7
ATOM      7  C   UNL     1      62.912  15.112  -2.434  1.00  0.00     0.152 C 
ATOM      8  O   UNL     1      62.222  15.972  -1.819  1.00  0.00    -0.295 OA
ATOM      9  C   UNL     1      63.551  15.474  -3.735  1.00  0.00     0.093 C 
ENDBRANCH   6   7
ENDBRANCH   1   5
TORSDOF 4
ENDMDL
MODEL 9
REMARK VINA RESULT:    -2.597     15.038     15.435
REMARK INTER + INTRA:          -3.311
REMARK INTER:                  -3.107
REMARK INTRA:                  -0.204
REMARK UNBOUND:                -0.107
REMARK SMILES CCCCC=CC(C)=O
REMARK SMILES IDX 4 1 3 2 2 3 1 4 5 5 6 6 7 7 9 8 8 9
REMARK H PARENT
REMARK Flexibility Score: inf
ROOT
ATOM      1  C   UNL     1      58.153   4.556   6.404  1.00  0.00     0.027 C 
ENDROOT
BRANCH   1   2
ATOM      2  C   UNL     1      58.278   4.985   7.874  1.00  0.00     0.004 C 
BRANCH   2   3
ATOM      3  C   UNL     1      57.091   5.818   8.388  1.00  0.00    -0.003 C 
ATOM      4  C   UNL     1      57.384   6.509   9.720  1.00  0.00     0.004 C 
ENDBRANCH   2   3
ENDBRANCH   1   2
BRANCH   1   5
ATOM      5  C   UNL     1      56.722   4.553   5.946  1.00  0.00    -0.023 C 
ATOM      6  C   UNL     1      56.205   3.526   5.263  1.00  0.00     0.042 C 
BRANCH   6   7
ATOM      7  C   UNL     1      54.794   3.491   4.837  1.00  0.00     0.152 C 
ATOM      8  O   UNL     1      54.202   2.391   4.657  1.00  0.00    -0.295 OA
ATOM      9  C   UNL     1      54.056   4.771   4.615  1.00  0.00     0.093 C 
ENDBRANCH   6   7
ENDBRANCH   1   5
TORSDOF 4
ENDMDL
