MODEL 1
REMARK VINA RESULT:    -4.150      0.000      0.000
REMARK INTER + INTRA:          -5.176
REMARK INTER:                  -5.120
REMARK INTRA:                  -0.055
REMARK UNBOUND:                -0.055
REMARK SMILES CCCCCC(=O)[O-]
REMARK SMILES IDX 4 1 5 2 6 3 7 4 8 5 3 6 2 7 1 8
REMARK H PARENT
REMARK Flexibility Score: inf
ROOT
ATOM      1  C   UNL     1      37.914  67.169  24.611  1.00  0.00     0.006 C 
ENDROOT
BRANCH   1   2
ATOM      2  C   UNL     1      39.418  67.098  24.890  1.00  0.00     0.053 C 
BRANCH   2   3
ATOM      3  C   UNL     1      40.129  66.418  23.763  1.00  0.00     0.041 C 
ATOM      4  O   UNL     1      39.690  66.516  22.587  1.00  0.00    -0.550 OA
ATOM      5  O   UNL     1      41.304  65.719  24.003  1.00  0.00    -0.550 OA
ENDBRANCH   2   3
ENDBRANCH   1   2
BRANCH   1   6
ATOM      6  C   UNL     1      37.136  67.535  25.883  1.00  0.00     0.000 C 
BRANCH   6   7
ATOM      7  C   UNL     1      35.618  67.595  25.651  1.00  0.00    -0.003 C 
ATOM      8  C   UNL     1      34.894  66.344  26.148  1.00  0.00     0.004 C 
ENDBRANCH   6   7
ENDBRANCH   1   6
TORSDOF 4
ENDMDL
MODEL 2
REMARK VINA RESULT:    -4.145      1.767      2.274
REMARK INTER + INTRA:          -5.169
REMARK INTER:                  -5.121
REMARK INTRA:                  -0.049
REMARK UNBOUND:                -0.055
REMARK SMILES CCCCCC(=O)[O-]
REMARK SMILES IDX 4 1 5 2 6 3 7 4 8 5 3 6 2 7 1 8
REMARK H PARENT
REMARK Flexibility Score: inf
ROOT
ATOM      1  C   UNL     1      39.651  66.745  24.385  1.00  0.00     0.006 C 
ENDROOT
BRANCH   1   2
ATOM      2  C   UNL     1      41.038  67.221  24.827  1.00  0.00     0.053 C 
BRANCH   2   3
ATOM      3  C   UNL     1      41.745  67.899  23.696  1.00  0.00     0.041 C 
ATOM      4  O   UNL     1      42.619  68.775  23.930  1.00  0.00    -0.550 OA
ATOM      5  O   UNL     1      41.475  67.528  22.385  1.00  0.00    -0.550 OA
ENDBRANCH   2   3
ENDBRANCH   1   2
BRANCH   1   6
ATOM      6  C   UNL     1      38.577  67.168  25.398  1.00  0.00     0.000 C 
BRANCH   6   7
ATOM      7  C   UNL     1      37.252  67.562  24.726  1.00  0.00    -0.003 C 
ATOM      8  C   UNL     1      36.087  67.635  25.712  1.00  0.00     0.004 C 
ENDBRANCH   6   7
ENDBRANCH   1   6
TORSDOF 4
ENDMDL
MODEL 3
REMARK VINA RESULT:    -4.130      2.701      4.924
REMARK INTER + INTRA:          -5.151
REMARK INTER:                  -5.060
REMARK INTRA:                  -0.091
REMARK UNBOUND:                -0.055
REMARK SMILES CCCCCC(=O)[O-]
REMARK SMILES IDX 4 1 5 2 6 3 7 4 8 5 3 6 2 7 1 8
REMARK H PARENT
REMARK Flexibility Score: inf
ROOT
ATOM      1  C   UNL     1      41.586  65.915  24.197  1.00  0.00     0.006 C 
ENDROOT
BRANCH   1   2
ATOM      2  C   UNL     1      40.382  66.441  24.984  1.00  0.00     0.053 C 
BRANCH   2   3
ATOM      3  C   UNL     1      39.246  66.748  24.061  1.00  0.00     0.041 C 
ATOM      4  O   UNL     1      39.377  66.587  22.819  1.00  0.00    -0.550 OA
ATOM      5  O   UNL     1      38.024  67.164  24.576  1.00  0.00    -0.550 OA
ENDBRANCH   2   3
ENDBRANCH   1   2
BRANCH   1   6
ATOM      6  C   UNL     1      41.683  64.385  24.300  1.00  0.00     0.000 C 
BRANCH   6   7
ATOM      7  C   UNL     1      42.119  63.914  25.696  1.00  0.00    -0.003 C 
ATOM      8  C   UNL     1      42.564  62.451  25.714  1.00  0.00     0.004 C 
ENDBRANCH   6   7
ENDBRANCH   1   6
TORSDOF 4
ENDMDL
MODEL 4
REMARK VINA RESULT:    -4.124      3.752      5.021
REMARK INTER + INTRA:          -5.144
REMARK INTER:                  -5.051
REMARK INTRA:                  -0.093
REMARK UNBOUND:                -0.055
REMARK SMILES CCCCCC(=O)[O-]
REMARK SMILES IDX 4 1 5 2 6 3 7 4 8 5 3 6 2 7 1 8
REMARK H PARENT
REMARK Flexibility Score: inf
ROOT
ATOM      1  C   UNL     1      40.759  65.750  24.447  1.00  0.00     0.006 C 
ENDROOT
BRANCH   1   2
ATOM      2  C   UNL     1      41.417  67.022  24.987  1.00  0.00     0.053 C 
BRANCH   2   3
ATOM      3  C   UNL     1      41.837  67.913  23.862  1.00  0.00     0.041 C 
ATOM      4  O   UNL     1      42.571  68.912  24.085  1.00  0.00    -0.550 OA
ATOM      5  O   UNL     1      41.460  67.614  22.559  1.00  0.00    -0.550 OA
ENDBRANCH   2   3
ENDBRANCH   1   2
BRANCH   1   6
ATOM      6  C   UNL     1      41.772  64.598  24.370  1.00  0.00     0.000 C 
BRANCH   6   7
ATOM      7  C   UNL     1      42.103  64.008  25.751  1.00  0.00    -0.003 C 
ATOM      8  C   UNL     1      42.538  62.545  25.680  1.00  0.00     0.004 C 
ENDBRANCH   6   7
ENDBRANCH   1   6
TORSDOF 4
ENDMDL
MODEL 5
REMARK VINA RESULT:    -4.111      1.266      1.781
REMARK INTER + INTRA:          -5.128
REMARK INTER:                  -5.083
REMARK INTRA:                  -0.045
REMARK UNBOUND:                -0.055
REMARK SMILES CCCCCC(=O)[O-]
REMARK SMILES IDX 4 1 5 2 6 3 7 4 8 5 3 6 2 7 1 8
REMARK H PARENT
REMARK Flexibility Score: inf
ROOT
ATOM      1  C   UNL     1      39.520  66.783  24.241  1.00  0.00     0.006 C 
ENDROOT
BRANCH   1   2
ATOM      2  C   UNL     1      40.813  66.260  24.875  1.00  0.00     0.053 C 
BRANCH   2   3
ATOM      3  C   UNL     1      41.426  65.200  24.015  1.00  0.00     0.041 C 
ATOM      4  O   UNL     1      41.405  65.312  22.761  1.00  0.00    -0.550 OA
ATOM      5  O   UNL     1      42.066  64.115  24.599  1.00  0.00    -0.550 OA
ENDBRANCH   2   3
ENDBRANCH   1   2
BRANCH   1   6
ATOM      6  C   UNL     1      38.504  67.185  25.321  1.00  0.00     0.000 C 
BRANCH   6   7
ATOM      7  C   UNL     1      37.152  67.613  24.729  1.00  0.00    -0.003 C 
ATOM      8  C   UNL     1      36.038  67.664  25.775  1.00  0.00     0.004 C 
ENDBRANCH   6   7
ENDBRANCH   1   6
TORSDOF 4
ENDMDL
MODEL 6
REMARK VINA RESULT:    -4.034      2.996      5.253
REMARK INTER + INTRA:          -5.032
REMARK INTER:                  -4.982
REMARK INTRA:                  -0.051
REMARK UNBOUND:                -0.055
REMARK SMILES CCCCCC(=O)[O-]
REMARK SMILES IDX 4 1 5 2 6 3 7 4 8 5 3 6 2 7 1 8
REMARK H PARENT
REMARK Flexibility Score: inf
ROOT
ATOM      1  C   UNL     1      41.599  67.294  24.404  1.00  0.00     0.006 C 
ENDROOT
BRANCH   1   2
ATOM      2  C   UNL     1      40.330  66.908  25.170  1.00  0.00     0.053 C 
BRANCH   2   3
ATOM      3  C   UNL     1      39.162  66.820  24.240  1.00  0.00     0.041 C 
ATOM      4  O   UNL     1      38.000  67.062  24.658  1.00  0.00    -0.550 OA
ATOM      5  O   UNL     1      39.362  66.521  22.899  1.00  0.00    -0.550 OA
ENDBRANCH   2   3
ENDBRANCH   1   2
BRANCH   1   6
ATOM      6  C   UNL     1      42.273  68.519  25.040  1.00  0.00     0.000 C 
BRANCH   6   7
ATOM      7  C   UNL     1      43.191  69.264  24.057  1.00  0.00    -0.003 C 
ATOM      8  C   UNL     1      43.989  70.383  24.727  1.00  0.00     0.004 C 
ENDBRANCH   6   7
ENDBRANCH   1   6
TORSDOF 4
ENDMDL
MODEL 7
REMARK VINA RESULT:    -4.033      3.507      4.689
REMARK INTER + INTRA:          -5.031
REMARK INTER:                  -5.037
REMARK INTRA:                   0.006
REMARK UNBOUND:                -0.055
REMARK SMILES CCCCCC(=O)[O-]
REMARK SMILES IDX 4 1 5 2 6 3 7 4 8 5 3 6 2 7 1 8
REMARK H PARENT
REMARK Flexibility Score: inf
ROOT
ATOM      1  C   UNL     1      40.637  66.392  24.482  1.00  0.00     0.006 C 
ENDROOT
BRANCH   1   2
ATOM      2  C   UNL     1      41.360  65.648  23.356  1.00  0.00     0.053 C 
BRANCH   2   3
ATOM      3  C   UNL     1      40.780  66.016  22.028  1.00  0.00     0.041 C 
ATOM      4  O   UNL     1      39.570  66.352  21.936  1.00  0.00    -0.550 OA
ATOM      5  O   UNL     1      41.588  66.037  20.898  1.00  0.00    -0.550 OA
ENDBRANCH   2   3
ENDBRANCH   1   2
BRANCH   1   6
ATOM      6  C   UNL     1      41.524  67.505  25.063  1.00  0.00     0.000 C 
BRANCH   6   7
ATOM      7  C   UNL     1      42.147  68.393  23.974  1.00  0.00    -0.003 C 
ATOM      8  C   UNL     1      43.116  69.430  24.541  1.00  0.00     0.004 C 
ENDBRANCH   6   7
ENDBRANCH   1   6
TORSDOF 4
ENDMDL
MODEL 8
REMARK VINA RESULT:    -3.998      3.693      4.595
REMARK INTER + INTRA:          -4.988
REMARK INTER:                  -4.843
REMARK INTRA:                  -0.146
REMARK UNBOUND:                -0.055
REMARK SMILES CCCCCC(=O)[O-]
REMARK SMILES IDX 4 1 5 2 6 3 7 4 8 5 3 6 2 7 1 8
REMARK H PARENT
REMARK Flexibility Score: inf
ROOT
ATOM      1  C   UNL     1      40.752  67.040  23.852  1.00  0.00     0.006 C 
ENDROOT
BRANCH   1   2
ATOM      2  C   UNL     1      39.926  66.408  22.727  1.00  0.00     0.053 C 
BRANCH   2   3
ATOM      3  C   UNL     1      40.551  66.688  21.397  1.00  0.00     0.041 C 
ATOM      4  O   UNL     1      41.640  66.141  21.081  1.00  0.00    -0.550 OA
ATOM      5  O   UNL     1      39.906  67.514  20.486  1.00  0.00    -0.550 OA
ENDBRANCH   2   3
ENDBRANCH   1   2
BRANCH   1   6
ATOM      6  C   UNL     1      41.121  65.995  24.916  1.00  0.00     0.000 C 
BRANCH   6   7
ATOM      7  C   UNL     1      41.707  64.711  24.305  1.00  0.00    -0.003 C 
ATOM      8  C   UNL     1      42.034  63.653  25.358  1.00  0.00     0.004 C 
ENDBRANCH   6   7
ENDBRANCH   1   6
TORSDOF 4
ENDMDL
MODEL 9
REMARK VINA RESULT:    -3.982      3.892      5.914
REMARK INTER + INTRA:          -4.969
REMARK INTER:                  -4.915
REMARK INTRA:                  -0.053
REMARK UNBOUND:                -0.055
REMARK SMILES CCCCCC(=O)[O-]
REMARK SMILES IDX 4 1 5 2 6 3 7 4 8 5 3 6 2 7 1 8
REMARK H PARENT
REMARK Flexibility Score: inf
ROOT
ATOM      1  C   UNL     1      41.787  63.947  24.546  1.00  0.00     0.006 C 
ENDROOT
BRANCH   1   2
ATOM      2  C   UNL     1      41.417  65.429  24.648  1.00  0.00     0.053 C 
BRANCH   2   3
ATOM      3  C   UNL     1      40.785  65.901  23.377  1.00  0.00     0.041 C 
ATOM      4  O   UNL     1      41.244  65.527  22.266  1.00  0.00    -0.550 OA
ATOM      5  O   UNL     1      39.659  66.713  23.419  1.00  0.00    -0.550 OA
ENDBRANCH   2   3
ENDBRANCH   1   2
BRANCH   1   6
ATOM      6  C   UNL     1      42.367  63.433  25.872  1.00  0.00     0.000 C 
BRANCH   6   7
ATOM      7  C   UNL     1      42.916  62.001  25.762  1.00  0.00    -0.003 C 
ATOM      8  C   UNL     1      44.434  61.936  25.922  1.00  0.00     0.004 C 
ENDBRANCH   6   7
ENDBRANCH   1   6
TORSDOF 4
ENDMDL
