MODEL 1
REMARK VINA RESULT:    -3.615      0.000      0.000
REMARK INTER + INTRA:          -5.090
REMARK INTER:                  -4.671
REMARK INTRA:                  -0.418
REMARK UNBOUND:                -0.418
REMARK SMILES CCO[C@H]1O[C@H](CO)[C@@H](O)[C@@H](O)[C@H]1O
REMARK SMILES IDX 4 1 13 2 11 3 9 4 6 5 5 6 3 7 2 8 1 9 14 10 12 12 7 14 8 15
REMARK SMILES IDX 10 17
REMARK H PARENT 14 11 12 13 8 16 10 18
REMARK Flexibility Score: inf
ROOT
ATOM      1  C   UNL     1       9.380  -5.090  -2.365  1.00  0.00     0.281 C 
ATOM      2  C   UNL     1       9.685  -6.471  -1.743  1.00  0.00     0.202 C 
ATOM      3  C   UNL     1      10.953  -6.426  -0.869  1.00  0.00     0.179 C 
ATOM      4  C   UNL     1      12.100  -5.783  -1.668  1.00  0.00     0.177 C 
ATOM      5  C   UNL     1      11.638  -4.436  -2.274  1.00  0.00     0.178 C 
ATOM      6  O   UNL     1      10.499  -4.621  -3.104  1.00  0.00    -0.341 OA
ENDROOT
BRANCH   1   7
ATOM      7  O   UNL     1       8.996  -4.158  -1.365  1.00  0.00    -0.350 OA
BRANCH   7   8
ATOM      8  C   UNL     1       7.765  -3.538  -1.689  1.00  0.00     0.160 C 
ATOM      9  C   UNL     1       6.720  -3.860  -0.630  1.00  0.00     0.035 C 
ENDBRANCH   7   8
ENDBRANCH   1   7
BRANCH   2  10
ATOM     10  O   UNL     1       8.581  -6.985  -1.036  1.00  0.00    -0.385 OA
ATOM     11  H   UNL     1       8.278  -7.811  -1.494  1.00  0.00     0.211 HD
ENDBRANCH   2  10
BRANCH   3  12
ATOM     12  O   UNL     1      10.726  -5.687   0.307  1.00  0.00    -0.387 OA
ATOM     13  H   UNL     1      11.217  -6.145   1.038  1.00  0.00     0.211 HD
ENDBRANCH   3  12
BRANCH   5  14
ATOM     14  C   UNL     1      12.756  -3.811  -3.122  1.00  0.00     0.191 C 
BRANCH  14  15
ATOM     15  O   UNL     1      13.758  -3.280  -2.298  1.00  0.00    -0.394 OA
ATOM     16  H   UNL     1      14.254  -2.616  -2.845  1.00  0.00     0.210 HD
ENDBRANCH  14  15
ENDBRANCH   5  14
BRANCH   4  17
ATOM     17  O   UNL     1      13.210  -5.578  -0.832  1.00  0.00    -0.387 OA
ATOM     18  H   UNL     1      13.872  -6.283  -1.056  1.00  0.00     0.211 HD
ENDBRANCH   4  17
TORSDOF 7
ENDMDL
MODEL 2
REMARK VINA RESULT:    -3.569      2.368      4.561
REMARK INTER + INTRA:          -5.030
REMARK INTER:                  -4.649
REMARK INTRA:                  -0.382
REMARK UNBOUND:                -0.418
REMARK SMILES CCO[C@H]1O[C@H](CO)[C@@H](O)[C@@H](O)[C@H]1O
REMARK SMILES IDX 4 1 13 2 11 3 9 4 6 5 5 6 3 7 2 8 1 9 14 10 12 12 7 14 8 15
REMARK SMILES IDX 10 17
REMARK H PARENT 14 11 12 13 8 16 10 18
REMARK Flexibility Score: inf
ROOT
ATOM      1  C   UNL     1       7.755  -6.422  -2.408  1.00  0.00     0.281 C 
ATOM      2  C   UNL     1       9.133  -5.811  -2.747  1.00  0.00     0.202 C 
ATOM      3  C   UNL     1       9.551  -4.754  -1.707  1.00  0.00     0.179 C 
ATOM      4  C   UNL     1       8.402  -3.748  -1.512  1.00  0.00     0.177 C 
ATOM      5  C   UNL     1       7.079  -4.500  -1.231  1.00  0.00     0.178 C 
ATOM      6  O   UNL     1       6.776  -5.399  -2.289  1.00  0.00    -0.341 OA
ENDROOT
BRANCH   1   7
ATOM      7  O   UNL     1       7.826  -7.206  -1.227  1.00  0.00    -0.350 OA
BRANCH   7   8
ATOM      8  C   UNL     1       6.975  -8.334  -1.310  1.00  0.00     0.160 C 
ATOM      9  C   UNL     1       7.051  -8.948  -2.702  1.00  0.00     0.035 C 
ENDBRANCH   7   8
ENDBRANCH   1   7
BRANCH   2  10
ATOM     10  O   UNL     1      10.121  -6.801  -2.912  1.00  0.00    -0.385 OA
ATOM     11  H   UNL     1      10.606  -6.900  -2.054  1.00  0.00     0.211 HD
ENDBRANCH   2  10
BRANCH   3  12
ATOM     12  O   UNL     1       9.863  -5.359  -0.474  1.00  0.00    -0.387 OA
ATOM     13  H   UNL     1       9.215  -5.010   0.193  1.00  0.00     0.211 HD
ENDBRANCH   3  12
BRANCH   5  14
ATOM     14  C   UNL     1       5.912  -3.510  -1.092  1.00  0.00     0.191 C 
BRANCH  14  15
ATOM     15  O   UNL     1       5.556  -3.359   0.256  1.00  0.00    -0.394 OA
ATOM     16  H   UNL     1       5.470  -4.275   0.631  1.00  0.00     0.210 HD
ENDBRANCH  14  15
ENDBRANCH   5  14
BRANCH   4  17
ATOM     17  O   UNL     1       8.698  -2.883  -0.446  1.00  0.00    -0.387 OA
ATOM     18  H   UNL     1       7.829  -2.569  -0.082  1.00  0.00     0.211 HD
ENDBRANCH   4  17
TORSDOF 7
ENDMDL
MODEL 3
REMARK VINA RESULT:    -3.103      1.808      4.907
REMARK INTER + INTRA:          -4.429
REMARK INTER:                  -3.990
REMARK INTRA:                  -0.439
REMARK UNBOUND:                -0.418
REMARK SMILES CCO[C@H]1O[C@H](CO)[C@@H](O)[C@@H](O)[C@H]1O
REMARK SMILES IDX 4 1 13 2 11 3 9 4 6 5 5 6 3 7 2 8 1 9 14 10 12 12 7 14 8 15
REMARK SMILES IDX 10 17
REMARK H PARENT 14 11 12 13 8 16 10 18
REMARK Flexibility Score: inf
ROOT
ATOM      1  C   UNL     1      10.234  -5.824  -2.602  1.00  0.00     0.281 C 
ATOM      2  C   UNL     1       9.859  -4.326  -2.640  1.00  0.00     0.202 C 
ATOM      3  C   UNL     1       8.726  -4.005  -1.647  1.00  0.00     0.179 C 
ATOM      4  C   UNL     1       7.564  -4.991  -1.863  1.00  0.00     0.177 C 
ATOM      5  C   UNL     1       8.092  -6.446  -1.852  1.00  0.00     0.178 C 
ATOM      6  O   UNL     1       9.088  -6.628  -2.849  1.00  0.00    -0.341 OA
ENDROOT
BRANCH   1   7
ATOM      7  O   UNL     1      10.843  -6.162  -1.366  1.00  0.00    -0.350 OA
BRANCH   7   8
ATOM      8  C   UNL     1      12.096  -6.790  -1.569  1.00  0.00     0.160 C 
ATOM      9  C   UNL     1      13.226  -5.839  -1.198  1.00  0.00     0.035 C 
ENDBRANCH   7   8
ENDBRANCH   1   7
BRANCH   2  10
ATOM     10  O   UNL     1      10.980  -3.498  -2.440  1.00  0.00    -0.385 OA
ATOM     11  H   UNL     1      10.735  -2.800  -1.779  1.00  0.00     0.211 HD
ENDBRANCH   2  10
BRANCH   3  12
ATOM     12  O   UNL     1       9.182  -4.096  -0.318  1.00  0.00    -0.387 OA
ATOM     13  H   UNL     1       9.888  -3.408  -0.205  1.00  0.00     0.211 HD
ENDBRANCH   3  12
BRANCH   5  14
ATOM     14  C   UNL     1       6.951  -7.439  -2.123  1.00  0.00     0.191 C 
BRANCH  14  15
ATOM     15  O   UNL     1       5.938  -6.827  -2.875  1.00  0.00    -0.394 OA
ATOM     16  H   UNL     1       6.236  -6.847  -3.823  1.00  0.00     0.210 HD
ENDBRANCH  14  15
ENDBRANCH   5  14
BRANCH   4  17
ATOM     17  O   UNL     1       6.600  -4.824  -0.855  1.00  0.00    -0.387 OA
ATOM     18  H   UNL     1       6.460  -5.715  -0.441  1.00  0.00     0.211 HD
ENDBRANCH   4  17
TORSDOF 7
ENDMDL
MODEL 4
REMARK VINA RESULT:    -2.915      2.228      3.776
REMARK INTER + INTRA:          -4.185
REMARK INTER:                  -3.778
REMARK INTRA:                  -0.408
REMARK UNBOUND:                -0.418
REMARK SMILES CCO[C@H]1O[C@H](CO)[C@@H](O)[C@@H](O)[C@H]1O
REMARK SMILES IDX 4 1 13 2 11 3 9 4 6 5 5 6 3 7 2 8 1 9 14 10 12 12 7 14 8 15
REMARK SMILES IDX 10 17
REMARK H PARENT 14 11 12 13 8 16 10 18
REMARK Flexibility Score: inf
ROOT
ATOM      1  C   UNL     1       6.662  -5.311  -1.681  1.00  0.00     0.281 C 
ATOM      2  C   UNL     1       7.053  -4.224  -0.655  1.00  0.00     0.202 C 
ATOM      3  C   UNL     1       8.219  -3.358  -1.170  1.00  0.00     0.179 C 
ATOM      4  C   UNL     1       9.362  -4.273  -1.644  1.00  0.00     0.177 C 
ATOM      5  C   UNL     1       8.818  -5.341  -2.624  1.00  0.00     0.178 C 
ATOM      6  O   UNL     1       7.791  -6.109  -2.012  1.00  0.00    -0.341 OA
ENDROOT
BRANCH   1   7
ATOM      7  O   UNL     1       6.086  -4.729  -2.840  1.00  0.00    -0.350 OA
BRANCH   7   8
ATOM      8  C   UNL     1       4.822  -5.299  -3.125  1.00  0.00     0.160 C 
ATOM      9  C   UNL     1       3.712  -4.316  -2.779  1.00  0.00     0.035 C 
ENDBRANCH   7   8
ENDBRANCH   1   7
BRANCH   2  10
ATOM     10  O   UNL     1       5.948  -3.439  -0.273  1.00  0.00    -0.385 OA
ATOM     11  H   UNL     1       5.984  -2.587  -0.780  1.00  0.00     0.211 HD
ENDBRANCH   2  10
BRANCH   3  12
ATOM     12  O   UNL     1       7.802  -2.535  -2.232  1.00  0.00    -0.387 OA
ATOM     13  H   UNL     1       7.751  -1.608  -1.880  1.00  0.00     0.211 HD
ENDBRANCH   3  12
BRANCH   5  14
ATOM     14  C   UNL     1       9.939  -6.297  -3.061  1.00  0.00     0.191 C 
BRANCH  14  15
ATOM     15  O   UNL     1      10.783  -6.589  -1.980  1.00  0.00    -0.394 OA
ATOM     16  H   UNL     1      11.355  -7.349  -2.265  1.00  0.00     0.210 HD
ENDBRANCH  14  15
ENDBRANCH   5  14
BRANCH   4  17
ATOM     17  O   UNL     1      10.358  -3.508  -2.274  1.00  0.00    -0.387 OA
ATOM     18  H   UNL     1      10.788  -4.096  -2.949  1.00  0.00     0.211 HD
ENDBRANCH   4  17
TORSDOF 7
ENDMDL
MODEL 5
REMARK VINA RESULT:    -2.842      6.979      8.973
REMARK INTER + INTRA:          -4.091
REMARK INTER:                  -3.699
REMARK INTRA:                  -0.393
REMARK UNBOUND:                -0.418
REMARK SMILES CCO[C@H]1O[C@H](CO)[C@@H](O)[C@@H](O)[C@H]1O
REMARK SMILES IDX 4 1 13 2 11 3 9 4 6 5 5 6 3 7 2 8 1 9 14 10 12 12 7 14 8 15
REMARK SMILES IDX 10 17
REMARK H PARENT 14 11 12 13 8 16 10 18
REMARK Flexibility Score: inf
ROOT
ATOM      1  C   UNL     1      17.843  -8.609  -1.148  1.00  0.00     0.281 C 
ATOM      2  C   UNL     1      18.187  -8.075   0.260  1.00  0.00     0.202 C 
ATOM      3  C   UNL     1      19.252  -6.963   0.195  1.00  0.00     0.179 C 
ATOM      4  C   UNL     1      20.445  -7.449  -0.647  1.00  0.00     0.177 C 
ATOM      5  C   UNL     1      19.948  -8.001  -2.005  1.00  0.00     0.178 C 
ATOM      6  O   UNL     1      19.018  -9.058  -1.809  1.00  0.00    -0.341 OA
ENDROOT
BRANCH   1   7
ATOM      7  O   UNL     1      17.168  -7.622  -1.912  1.00  0.00    -0.350 OA
BRANCH   7   8
ATOM      8  C   UNL     1      15.816  -7.980  -2.130  1.00  0.00     0.160 C 
ATOM      9  C   UNL     1      14.901  -6.811  -1.786  1.00  0.00     0.035 C 
ENDBRANCH   7   8
ENDBRANCH   1   7
BRANCH   2  10
ATOM     10  O   UNL     1      17.039  -7.659   0.961  1.00  0.00    -0.385 OA
ATOM     11  H   UNL     1      17.326  -7.286   1.833  1.00  0.00     0.211 HD
ENDBRANCH   2  10
BRANCH   3  12
ATOM     12  O   UNL     1      18.719  -5.791  -0.373  1.00  0.00    -0.387 OA
ATOM     13  H   UNL     1      19.181  -5.024   0.055  1.00  0.00     0.211 HD
ENDBRANCH   3  12
BRANCH   5  14
ATOM     14  C   UNL     1      21.124  -8.542  -2.833  1.00  0.00     0.191 C 
BRANCH  14  15
ATOM     15  O   UNL     1      22.180  -8.924  -1.993  1.00  0.00    -0.394 OA
ATOM     16  H   UNL     1      21.785  -9.492  -1.280  1.00  0.00     0.210 HD
ENDBRANCH  14  15
ENDBRANCH   5  14
BRANCH   4  17
ATOM     17  O   UNL     1      21.343  -6.390  -0.860  1.00  0.00    -0.387 OA
ATOM     18  H   UNL     1      21.241  -6.114  -1.808  1.00  0.00     0.211 HD
ENDBRANCH   4  17
TORSDOF 7
ENDMDL
MODEL 6
REMARK VINA RESULT:    -2.840      2.442      4.260
REMARK INTER + INTRA:          -4.088
REMARK INTER:                  -3.683
REMARK INTRA:                  -0.405
REMARK UNBOUND:                -0.418
REMARK SMILES CCO[C@H]1O[C@H](CO)[C@@H](O)[C@@H](O)[C@H]1O
REMARK SMILES IDX 4 1 13 2 11 3 9 4 6 5 5 6 3 7 2 8 1 9 14 10 12 12 7 14 8 15
REMARK SMILES IDX 10 17
REMARK H PARENT 14 11 12 13 8 16 10 18
REMARK Flexibility Score: inf
ROOT
ATOM      1  C   UNL     1       7.163  -4.626  -1.468  1.00  0.00     0.281 C 
ATOM      2  C   UNL     1       8.575  -4.308  -0.927  1.00  0.00     0.202 C 
ATOM      3  C   UNL     1       9.629  -5.273  -1.505  1.00  0.00     0.179 C 
ATOM      4  C   UNL     1       9.150  -6.723  -1.315  1.00  0.00     0.177 C 
ATOM      5  C   UNL     1       7.708  -6.882  -1.854  1.00  0.00     0.178 C 
ATOM      6  O   UNL     1       6.824  -5.980  -1.202  1.00  0.00    -0.341 OA
ENDROOT
BRANCH   1   7
ATOM      7  O   UNL     1       7.075  -4.336  -2.855  1.00  0.00    -0.350 OA
BRANCH   7   8
ATOM      8  C   UNL     1       6.079  -3.364  -3.111  1.00  0.00     0.160 C 
ATOM      9  C   UNL     1       4.698  -4.006  -3.082  1.00  0.00     0.035 C 
ENDBRANCH   7   8
ENDBRANCH   1   7
BRANCH   2  10
ATOM     10  O   UNL     1       8.929  -2.961  -1.138  1.00  0.00    -0.385 OA
ATOM     11  H   UNL     1       8.185  -2.518  -1.621  1.00  0.00     0.211 HD
ENDBRANCH   2  10
BRANCH   3  12
ATOM     12  O   UNL     1       9.843  -5.021  -2.873  1.00  0.00    -0.387 OA
ATOM     13  H   UNL     1      10.237  -5.845  -3.263  1.00  0.00     0.211 HD
ENDBRANCH   3  12
BRANCH   5  14
ATOM     14  C   UNL     1       7.196  -8.312  -1.619  1.00  0.00     0.191 C 
BRANCH  14  15
ATOM     15  O   UNL     1       7.793  -8.864  -0.477  1.00  0.00    -0.394 OA
ATOM     16  H   UNL     1       8.409  -9.576  -0.795  1.00  0.00     0.210 HD
ENDBRANCH  14  15
ENDBRANCH   5  14
BRANCH   4  17
ATOM     17  O   UNL     1      10.013  -7.604  -1.988  1.00  0.00    -0.387 OA
ATOM     18  H   UNL     1       9.652  -7.713  -2.907  1.00  0.00     0.211 HD
ENDBRANCH   4  17
TORSDOF 7
ENDMDL
MODEL 7
REMARK VINA RESULT:    -2.833      1.766      4.358
REMARK INTER + INTRA:          -4.080
REMARK INTER:                  -3.830
REMARK INTRA:                  -0.249
REMARK UNBOUND:                -0.418
REMARK SMILES CCO[C@H]1O[C@H](CO)[C@@H](O)[C@@H](O)[C@H]1O
REMARK SMILES IDX 4 1 13 2 11 3 9 4 6 5 5 6 3 7 2 8 1 9 14 10 12 12 7 14 8 15
REMARK SMILES IDX 10 17
REMARK H PARENT 14 11 12 13 8 16 10 18
REMARK Flexibility Score: inf
ROOT
ATOM      1  C   UNL     1      10.806  -6.314  -1.019  1.00  0.00     0.281 C 
ATOM      2  C   UNL     1       9.998  -7.631  -0.994  1.00  0.00     0.202 C 
ATOM      3  C   UNL     1       8.656  -7.481  -1.736  1.00  0.00     0.179 C 
ATOM      4  C   UNL     1       7.920  -6.235  -1.213  1.00  0.00     0.177 C 
ATOM      5  C   UNL     1       8.862  -5.007  -1.248  1.00  0.00     0.178 C 
ATOM      6  O   UNL     1      10.034  -5.249  -0.481  1.00  0.00    -0.341 OA
ENDROOT
BRANCH   1   7
ATOM      7  O   UNL     1      11.247  -6.016  -2.335  1.00  0.00    -0.350 OA
BRANCH   7   8
ATOM      8  C   UNL     1      12.425  -5.232  -2.314  1.00  0.00     0.160 C 
ATOM      9  C   UNL     1      13.522  -5.953  -1.541  1.00  0.00     0.035 C 
ENDBRANCH   7   8
ENDBRANCH   1   7
BRANCH   2  10
ATOM     10  O   UNL     1      10.748  -8.718  -1.483  1.00  0.00    -0.385 OA
ATOM     11  H   UNL     1      10.193  -9.536  -1.406  1.00  0.00     0.211 HD
ENDBRANCH   2  10
BRANCH   3  12
ATOM     12  O   UNL     1       8.860  -7.362  -3.123  1.00  0.00    -0.387 OA
ATOM     13  H   UNL     1       9.355  -8.171  -3.416  1.00  0.00     0.211 HD
ENDBRANCH   3  12
BRANCH   5  14
ATOM     14  C   UNL     1       8.159  -3.767  -0.675  1.00  0.00     0.191 C 
BRANCH  14  15
ATOM     15  O   UNL     1       8.612  -3.504   0.625  1.00  0.00    -0.394 OA
ATOM     16  H   UNL     1       7.989  -3.969   1.243  1.00  0.00     0.210 HD
ENDBRANCH  14  15
ENDBRANCH   5  14
BRANCH   4  17
ATOM     17  O   UNL     1       6.781  -5.987  -1.997  1.00  0.00    -0.387 OA
ATOM     18  H   UNL     1       6.537  -6.848  -2.428  1.00  0.00     0.211 HD
ENDBRANCH   4  17
TORSDOF 7
ENDMDL
MODEL 8
REMARK VINA RESULT:    -2.724      2.329      5.465
REMARK INTER + INTRA:          -3.938
REMARK INTER:                  -3.509
REMARK INTRA:                  -0.429
REMARK UNBOUND:                -0.418
REMARK SMILES CCO[C@H]1O[C@H](CO)[C@@H](O)[C@@H](O)[C@H]1O
REMARK SMILES IDX 4 1 13 2 11 3 9 4 6 5 5 6 3 7 2 8 1 9 14 10 12 12 7 14 8 15
REMARK SMILES IDX 10 17
REMARK H PARENT 14 11 12 13 8 16 10 18
REMARK Flexibility Score: inf
ROOT
ATOM      1  C   UNL     1      12.999  -7.529  -2.685  1.00  0.00     0.281 C 
ATOM      2  C   UNL     1      12.875  -5.998  -2.852  1.00  0.00     0.202 C 
ATOM      3  C   UNL     1      12.181  -5.354  -1.636  1.00  0.00     0.179 C 
ATOM      4  C   UNL     1      10.870  -6.104  -1.341  1.00  0.00     0.177 C 
ATOM      5  C   UNL     1      11.137  -7.626  -1.251  1.00  0.00     0.178 C 
ATOM      6  O   UNL     1      11.722  -8.107  -2.453  1.00  0.00    -0.341 OA
ENDROOT
BRANCH   1   7
ATOM      7  O   UNL     1      13.908  -7.852  -1.644  1.00  0.00    -0.350 OA
BRANCH   7   8
ATOM      8  C   UNL     1      15.009  -8.591  -2.137  1.00  0.00     0.160 C 
ATOM      9  C   UNL     1      16.308  -7.842  -1.866  1.00  0.00     0.035 C 
ENDBRANCH   7   8
ENDBRANCH   1   7
BRANCH   2  10
ATOM     10  O   UNL     1      14.118  -5.395  -3.125  1.00  0.00    -0.385 OA
ATOM     11  H   UNL     1      14.443  -4.966  -2.292  1.00  0.00     0.211 HD
ENDBRANCH   2  10
BRANCH   3  12
ATOM     12  O   UNL     1      13.015  -5.396  -0.503  1.00  0.00    -0.387 OA
ATOM     13  H   UNL     1      13.943  -5.529  -0.829  1.00  0.00     0.211 HD
ENDBRANCH   3  12
BRANCH   5  14
ATOM     14  C   UNL     1       9.826  -8.393  -1.013  1.00  0.00     0.191 C 
BRANCH  14  15
ATOM     15  O   UNL     1       8.734  -7.657  -1.495  1.00  0.00    -0.394 OA
ATOM     16  H   UNL     1       8.576  -7.962  -2.427  1.00  0.00     0.210 HD
ENDBRANCH  14  15
ENDBRANCH   5  14
BRANCH   4  17
ATOM     17  O   UNL     1      10.315  -5.642  -0.136  1.00  0.00    -0.387 OA
ATOM     18  H   UNL     1      11.056  -5.231   0.382  1.00  0.00     0.211 HD
ENDBRANCH   4  17
TORSDOF 7
ENDMDL
MODEL 9
REMARK VINA RESULT:    -2.457      2.173      4.793
REMARK INTER + INTRA:          -3.594
REMARK INTER:                  -3.237
REMARK INTRA:                  -0.357
REMARK UNBOUND:                -0.418
REMARK SMILES CCO[C@H]1O[C@H](CO)[C@@H](O)[C@@H](O)[C@H]1O
REMARK SMILES IDX 4 1 13 2 11 3 9 4 6 5 5 6 3 7 2 8 1 9 14 10 12 12 7 14 8 15
REMARK SMILES IDX 10 17
REMARK H PARENT 14 11 12 13 8 16 10 18
REMARK Flexibility Score: inf
ROOT
ATOM      1  C   UNL     1       8.927  -6.248  -2.311  1.00  0.00     0.281 C 
ATOM      2  C   UNL     1       9.833  -4.999  -2.236  1.00  0.00     0.202 C 
ATOM      3  C   UNL     1       9.091  -3.804  -1.607  1.00  0.00     0.179 C 
ATOM      4  C   UNL     1       7.741  -3.610  -2.320  1.00  0.00     0.177 C 
ATOM      5  C   UNL     1       6.966  -4.949  -2.366  1.00  0.00     0.178 C 
ATOM      6  O   UNL     1       7.732  -5.952  -3.020  1.00  0.00    -0.341 OA
ENDROOT
BRANCH   1   7
ATOM      7  O   UNL     1       8.645  -6.747  -1.013  1.00  0.00    -0.350 OA
BRANCH   7   8
ATOM      8  C   UNL     1       8.678  -8.162  -0.991  1.00  0.00     0.160 C 
ATOM      9  C   UNL     1       7.266  -8.722  -1.105  1.00  0.00     0.035 C 
ENDBRANCH   7   8
ENDBRANCH   1   7
BRANCH   2  10
ATOM     10  O   UNL     1      11.046  -5.268  -1.575  1.00  0.00    -0.385 OA
ATOM     11  H   UNL     1      11.755  -5.375  -2.260  1.00  0.00     0.211 HD
ENDBRANCH   2  10
BRANCH   3  12
ATOM     12  O   UNL     1       8.873  -4.015  -0.233  1.00  0.00    -0.387 OA
ATOM     13  H   UNL     1       8.294  -4.816  -0.149  1.00  0.00     0.211 HD
ENDBRANCH   3  12
BRANCH   5  14
ATOM     14  C   UNL     1       5.641  -4.783  -3.125  1.00  0.00     0.191 C 
BRANCH  14  15
ATOM     15  O   UNL     1       4.752  -3.986  -2.390  1.00  0.00    -0.394 OA
ATOM     16  H   UNL     1       5.207  -3.115  -2.241  1.00  0.00     0.210 HD
ENDBRANCH  14  15
ENDBRANCH   5  14
BRANCH   4  17
ATOM     17  O   UNL     1       6.980  -2.639  -1.648  1.00  0.00    -0.387 OA
ATOM     18  H   UNL     1       6.929  -1.849  -2.248  1.00  0.00     0.211 HD
ENDBRANCH   4  17
TORSDOF 7
ENDMDL
