MODEL 1
REMARK VINA RESULT:    -3.669      0.000      0.000
REMARK INTER + INTRA:          -8.881
REMARK INTER:                  -6.886
REMARK INTRA:                  -1.995
REMARK UNBOUND:                -1.995
REMARK SMILES O=C([O-])CCCCCCCCCCCCCCC(=O)[O-]
REMARK SMILES IDX 10 1 9 2 8 3 7 4 6 5 5 6 4 7 2 8 1 9 3 10 11 11 12 12 13 13
REMARK SMILES IDX 14 14 15 15 16 16 17 17 18 18 19 19 20 20
REMARK H PARENT
REMARK Flexibility Score: inf
ROOT
ATOM      1  C   UNL     1       4.586  17.592   8.669  1.00  0.00     0.000 C 
ENDROOT
BRANCH   1   2
ATOM      2  C   UNL     1       3.368  18.488   8.365  1.00  0.00     0.000 C 
BRANCH   2   3
ATOM      3  C   UNL     1       3.339  19.094   6.951  1.00  0.00     0.000 C 
BRANCH   3   4
ATOM      4  C   UNL     1       2.158  18.591   6.110  1.00  0.00     0.000 C 
BRANCH   4   5
ATOM      5  C   UNL     1       2.649  17.888   4.838  1.00  0.00     0.000 C 
BRANCH   5   6
ATOM      6  C   UNL     1       4.090  17.392   5.005  1.00  0.00     0.006 C 
BRANCH   6   7
ATOM      7  C   UNL     1       4.340  16.134   4.169  1.00  0.00     0.053 C 
BRANCH   7   8
ATOM      8  C   UNL     1       4.803  15.009   5.040  1.00  0.00     0.041 C 
ATOM      9  O   UNL     1       4.059  14.012   5.236  1.00  0.00    -0.550 OA
ATOM     10  O   UNL     1       6.077  15.038   5.593  1.00  0.00    -0.550 OA
ENDBRANCH   7   8
ENDBRANCH   6   7
ENDBRANCH   5   6
ENDBRANCH   4   5
ENDBRANCH   3   4
ENDBRANCH   2   3
ENDBRANCH   1   2
BRANCH   1  11
ATOM     11  C   UNL     1       4.328  16.079   8.550  1.00  0.00     0.000 C 
BRANCH  11  12
ATOM     12  C   UNL     1       2.837  15.734   8.435  1.00  0.00     0.000 C 
BRANCH  12  13
ATOM     13  C   UNL     1       2.365  14.924   9.652  1.00  0.00     0.000 C 
BRANCH  13  14
ATOM     14  C   UNL     1       2.255  15.778  10.925  1.00  0.00     0.000 C 
BRANCH  14  15
ATOM     15  C   UNL     1       2.851  15.080  12.159  1.00  0.00     0.000 C 
BRANCH  15  16
ATOM     16  C   UNL     1       4.379  14.941  12.078  1.00  0.00     0.006 C 
BRANCH  16  17
ATOM     17  C   UNL     1       5.105  16.276  12.292  1.00  0.00     0.053 C 
BRANCH  17  18
ATOM     18  C   UNL     1       5.481  16.440  13.730  1.00  0.00     0.041 C 
ATOM     19  O   UNL     1       4.849  17.245  14.463  1.00  0.00    -0.550 OA
ATOM     20  O   UNL     1       6.563  15.739  14.251  1.00  0.00    -0.550 OA
ENDBRANCH  17  18
ENDBRANCH  16  17
ENDBRANCH  15  16
ENDBRANCH  14  15
ENDBRANCH  13  14
ENDBRANCH  12  13
ENDBRANCH  11  12
ENDBRANCH   1  11
TORSDOF 15
ENDMDL
MODEL 2
REMARK VINA RESULT:    -3.646      0.614      7.030
REMARK INTER + INTRA:          -8.838
REMARK INTER:                  -6.642
REMARK INTRA:                  -2.196
REMARK UNBOUND:                -1.995
REMARK SMILES O=C([O-])CCCCCCCCCCCCCCC(=O)[O-]
REMARK SMILES IDX 10 1 9 2 8 3 7 4 6 5 5 6 4 7 2 8 1 9 3 10 11 11 12 12 13 13
REMARK SMILES IDX 14 14 15 15 16 16 17 17 18 18 19 19 20 20
REMARK H PARENT
REMARK Flexibility Score: inf
ROOT
ATOM      1  C   UNL     1       4.388  16.017   8.309  1.00  0.00     0.000 C 
ENDROOT
BRANCH   1   2
ATOM      2  C   UNL     1       2.942  15.536   8.072  1.00  0.00     0.000 C 
BRANCH   2   3
ATOM      3  C   UNL     1       2.381  14.597   9.154  1.00  0.00     0.000 C 
BRANCH   3   4
ATOM      4  C   UNL     1       3.175  14.657  10.468  1.00  0.00     0.000 C 
BRANCH   4   5
ATOM      5  C   UNL     1       2.420  15.468  11.528  1.00  0.00     0.000 C 
BRANCH   5   6
ATOM      6  C   UNL     1       3.322  16.545  12.143  1.00  0.00     0.006 C 
BRANCH   6   7
ATOM      7  C   UNL     1       4.798  16.152  12.040  1.00  0.00     0.053 C 
BRANCH   7   8
ATOM      8  C   UNL     1       5.413  16.062  13.400  1.00  0.00     0.041 C 
ATOM      9  O   UNL     1       5.999  15.008  13.763  1.00  0.00    -0.550 OA
ATOM     10  O   UNL     1       5.384  17.161  14.249  1.00  0.00    -0.550 OA
ENDBRANCH   7   8
ENDBRANCH   6   7
ENDBRANCH   5   6
ENDBRANCH   4   5
ENDBRANCH   3   4
ENDBRANCH   2   3
ENDBRANCH   1   2
BRANCH   1  11
ATOM     11  C   UNL     1       4.544  17.533   8.530  1.00  0.00     0.000 C 
BRANCH  11  12
ATOM     12  C   UNL     1       3.252  18.313   8.248  1.00  0.00     0.000 C 
BRANCH  12  13
ATOM     13  C   UNL     1       3.373  19.125   6.950  1.00  0.00     0.000 C 
BRANCH  13  14
ATOM     14  C   UNL     1       2.258  18.801   5.942  1.00  0.00     0.000 C 
BRANCH  14  15
ATOM     15  C   UNL     1       2.612  17.615   5.030  1.00  0.00     0.000 C 
BRANCH  15  16
ATOM     16  C   UNL     1       4.127  17.444   4.843  1.00  0.00     0.006 C 
BRANCH  16  17
ATOM     17  C   UNL     1       4.479  16.270   3.920  1.00  0.00     0.053 C 
BRANCH  17  18
ATOM     18  C   UNL     1       4.753  15.039   4.725  1.00  0.00     0.041 C 
ATOM     19  O   UNL     1       3.835  14.204   4.938  1.00  0.00    -0.550 OA
ATOM     20  O   UNL     1       6.010  14.837   5.282  1.00  0.00    -0.550 OA
ENDBRANCH  17  18
ENDBRANCH  16  17
ENDBRANCH  15  16
ENDBRANCH  14  15
ENDBRANCH  13  14
ENDBRANCH  12  13
ENDBRANCH  11  12
ENDBRANCH   1  11
TORSDOF 15
ENDMDL
MODEL 3
REMARK VINA RESULT:    -3.589      1.125      7.249
REMARK INTER + INTRA:          -8.730
REMARK INTER:                  -7.557
REMARK INTRA:                  -1.173
REMARK UNBOUND:                -1.995
REMARK SMILES O=C([O-])CCCCCCCCCCCCCCC(=O)[O-]
REMARK SMILES IDX 10 1 9 2 8 3 7 4 6 5 5 6 4 7 2 8 1 9 3 10 11 11 12 12 13 13
REMARK SMILES IDX 14 14 15 15 16 16 17 17 18 18 19 19 20 20
REMARK H PARENT
REMARK Flexibility Score: inf
ROOT
ATOM      1  C   UNL     1       3.368  18.690   8.277  1.00  0.00     0.000 C 
ENDROOT
BRANCH   1   2
ATOM      2  C   UNL     1       4.437  17.595   8.464  1.00  0.00     0.000 C 
BRANCH   2   3
ATOM      3  C   UNL     1       4.054  16.468   9.439  1.00  0.00     0.000 C 
BRANCH   3   4
ATOM      4  C   UNL     1       3.037  16.916  10.499  1.00  0.00     0.000 C 
BRANCH   4   5
ATOM      5  C   UNL     1       3.149  16.057  11.764  1.00  0.00     0.000 C 
BRANCH   5   6
ATOM      6  C   UNL     1       4.557  15.469  11.908  1.00  0.00     0.006 C 
BRANCH   6   7
ATOM      7  C   UNL     1       4.857  15.107  13.365  1.00  0.00     0.053 C 
BRANCH   7   8
ATOM      8  C   UNL     1       5.682  16.173  14.012  1.00  0.00     0.041 C 
ATOM      9  O   UNL     1       6.084  17.159  13.339  1.00  0.00    -0.550 OA
ATOM     10  O   UNL     1       5.965  16.105  15.370  1.00  0.00    -0.550 OA
ENDBRANCH   7   8
ENDBRANCH   6   7
ENDBRANCH   5   6
ENDBRANCH   4   5
ENDBRANCH   3   4
ENDBRANCH   2   3
ENDBRANCH   1   2
BRANCH   1  11
ATOM     11  C   UNL     1       3.120  19.118   6.819  1.00  0.00     0.000 C 
BRANCH  11  12
ATOM     12  C   UNL     1       2.935  17.926   5.869  1.00  0.00     0.000 C 
BRANCH  12  13
ATOM     13  C   UNL     1       2.295  18.373   4.546  1.00  0.00     0.000 C 
BRANCH  13  14
ATOM     14  C   UNL     1       2.954  17.722   3.320  1.00  0.00     0.000 C 
BRANCH  14  15
ATOM     15  C   UNL     1       4.357  17.170   3.625  1.00  0.00     0.000 C 
BRANCH  15  16
ATOM     16  C   UNL     1       4.483  15.672   3.310  1.00  0.00     0.006 C 
BRANCH  16  17
ATOM     17  C   UNL     1       5.645  15.007   4.059  1.00  0.00     0.053 C 
BRANCH  17  18
ATOM     18  C   UNL     1       5.379  15.001   5.532  1.00  0.00     0.041 C 
ATOM     19  O   UNL     1       4.249  14.663   5.970  1.00  0.00    -0.550 OA
ATOM     20  O   UNL     1       6.366  15.414   6.418  1.00  0.00    -0.550 OA
ENDBRANCH  17  18
ENDBRANCH  16  17
ENDBRANCH  15  16
ENDBRANCH  14  15
ENDBRANCH  13  14
ENDBRANCH  12  13
ENDBRANCH  11  12
ENDBRANCH   1  11
TORSDOF 15
ENDMDL
MODEL 4
REMARK VINA RESULT:    -3.572      1.272      7.691
REMARK INTER + INTRA:          -8.700
REMARK INTER:                  -7.229
REMARK INTRA:                  -1.471
REMARK UNBOUND:                -1.995
REMARK SMILES O=C([O-])CCCCCCCCCCCCCCC(=O)[O-]
REMARK SMILES IDX 10 1 9 2 8 3 7 4 6 5 5 6 4 7 2 8 1 9 3 10 11 11 12 12 13 13
REMARK SMILES IDX 14 14 15 15 16 16 17 17 18 18 19 19 20 20
REMARK H PARENT
REMARK Flexibility Score: inf
ROOT
ATOM      1  C   UNL     1       4.135  16.366   9.108  1.00  0.00     0.000 C 
ENDROOT
BRANCH   1   2
ATOM      2  C   UNL     1       2.888  16.408  10.015  1.00  0.00     0.000 C 
BRANCH   2   3
ATOM      3  C   UNL     1       3.171  16.260  11.520  1.00  0.00     0.000 C 
BRANCH   3   4
ATOM      4  C   UNL     1       4.662  16.064  11.831  1.00  0.00     0.000 C 
BRANCH   4   5
ATOM      5  C   UNL     1       4.879  14.843  12.733  1.00  0.00     0.000 C 
BRANCH   5   6
ATOM      6  C   UNL     1       4.735  15.219  14.213  1.00  0.00     0.006 C 
BRANCH   6   7
ATOM      7  C   UNL     1       5.624  16.414  14.567  1.00  0.00     0.053 C 
BRANCH   7   8
ATOM      8  C   UNL     1       4.834  17.460  15.286  1.00  0.00     0.041 C 
ATOM      9  O   UNL     1       4.168  17.158  16.311  1.00  0.00    -0.550 OA
ATOM     10  O   UNL     1       4.874  18.780  14.856  1.00  0.00    -0.550 OA
ENDBRANCH   7   8
ENDBRANCH   6   7
ENDBRANCH   5   6
ENDBRANCH   4   5
ENDBRANCH   3   4
ENDBRANCH   2   3
ENDBRANCH   1   2
BRANCH   1  11
ATOM     11  C   UNL     1       4.565  17.725   8.528  1.00  0.00     0.000 C 
BRANCH  11  12
ATOM     12  C   UNL     1       3.404  18.724   8.421  1.00  0.00     0.000 C 
BRANCH  12  13
ATOM     13  C   UNL     1       3.167  19.137   6.960  1.00  0.00     0.000 C 
BRANCH  13  14
ATOM     14  C   UNL     1       2.428  18.058   6.153  1.00  0.00     0.000 C 
BRANCH  14  15
ATOM     15  C   UNL     1       2.951  17.935   4.712  1.00  0.00     0.000 C 
BRANCH  15  16
ATOM     16  C   UNL     1       4.237  17.099   4.620  1.00  0.00     0.006 C 
BRANCH  16  17
ATOM     17  C   UNL     1       4.137  15.777   5.393  1.00  0.00     0.053 C 
BRANCH  17  18
ATOM     18  C   UNL     1       5.466  15.090   5.424  1.00  0.00     0.041 C 
ATOM     19  O   UNL     1       5.785  14.285   4.510  1.00  0.00    -0.550 OA
ATOM     20  O   UNL     1       6.334  15.302   6.488  1.00  0.00    -0.550 OA
ENDBRANCH  17  18
ENDBRANCH  16  17
ENDBRANCH  15  16
ENDBRANCH  14  15
ENDBRANCH  13  14
ENDBRANCH  12  13
ENDBRANCH  11  12
ENDBRANCH   1  11
TORSDOF 15
ENDMDL
MODEL 5
REMARK VINA RESULT:    -3.533      1.268      7.540
REMARK INTER + INTRA:          -8.626
REMARK INTER:                  -7.020
REMARK INTRA:                  -1.606
REMARK UNBOUND:                -1.995
REMARK SMILES O=C([O-])CCCCCCCCCCCCCCC(=O)[O-]
REMARK SMILES IDX 10 1 9 2 8 3 7 4 6 5 5 6 4 7 2 8 1 9 3 10 11 11 12 12 13 13
REMARK SMILES IDX 14 14 15 15 16 16 17 17 18 18 19 19 20 20
REMARK H PARENT
REMARK Flexibility Score: inf
ROOT
ATOM      1  C   UNL     1       4.336  17.643   8.598  1.00  0.00     0.000 C 
ENDROOT
BRANCH   1   2
ATOM      2  C   UNL     1       3.953  16.156   8.463  1.00  0.00     0.000 C 
BRANCH   2   3
ATOM      3  C   UNL     1       2.516  15.810   8.889  1.00  0.00     0.000 C 
BRANCH   3   4
ATOM      4  C   UNL     1       2.452  14.635   9.876  1.00  0.00     0.000 C 
BRANCH   4   5
ATOM      5  C   UNL     1       2.733  15.104  11.308  1.00  0.00     0.000 C 
BRANCH   5   6
ATOM      6  C   UNL     1       4.123  14.653  11.773  1.00  0.00     0.006 C 
BRANCH   6   7
ATOM      7  C   UNL     1       4.868  15.795  12.471  1.00  0.00     0.053 C 
BRANCH   7   8
ATOM      8  C   UNL     1       5.330  15.367  13.827  1.00  0.00     0.041 C 
ATOM      9  O   UNL     1       4.565  14.707  14.578  1.00  0.00    -0.550 OA
ATOM     10  O   UNL     1       6.625  15.651  14.241  1.00  0.00    -0.550 OA
ENDBRANCH   7   8
ENDBRANCH   6   7
ENDBRANCH   5   6
ENDBRANCH   4   5
ENDBRANCH   3   4
ENDBRANCH   2   3
ENDBRANCH   1   2
BRANCH   1  11
ATOM     11  C   UNL     1       3.228  18.640   8.214  1.00  0.00     0.000 C 
BRANCH  11  12
ATOM     12  C   UNL     1       3.353  19.145   6.769  1.00  0.00     0.000 C 
BRANCH  12  13
ATOM     13  C   UNL     1       2.163  18.676   5.918  1.00  0.00     0.000 C 
BRANCH  13  14
ATOM     14  C   UNL     1       2.599  17.896   4.668  1.00  0.00     0.000 C 
BRANCH  14  15
ATOM     15  C   UNL     1       4.020  17.322   4.795  1.00  0.00     0.000 C 
BRANCH  15  16
ATOM     16  C   UNL     1       4.026  15.804   5.031  1.00  0.00     0.006 C 
BRANCH  16  17
ATOM     17  C   UNL     1       5.337  15.143   4.587  1.00  0.00     0.053 C 
BRANCH  17  18
ATOM     18  C   UNL     1       5.392  15.046   3.095  1.00  0.00     0.041 C 
ATOM     19  O   UNL     1       4.389  14.646   2.448  1.00  0.00    -0.550 OA
ATOM     20  O   UNL     1       6.569  15.351   2.421  1.00  0.00    -0.550 OA
ENDBRANCH  17  18
ENDBRANCH  16  17
ENDBRANCH  15  16
ENDBRANCH  14  15
ENDBRANCH  13  14
ENDBRANCH  12  13
ENDBRANCH  11  12
ENDBRANCH   1  11
TORSDOF 15
ENDMDL
MODEL 6
REMARK VINA RESULT:    -3.515      1.529      2.257
REMARK INTER + INTRA:          -8.592
REMARK INTER:                  -7.369
REMARK INTRA:                  -1.223
REMARK UNBOUND:                -1.995
REMARK SMILES O=C([O-])CCCCCCCCCCCCCCC(=O)[O-]
REMARK SMILES IDX 10 1 9 2 8 3 7 4 6 5 5 6 4 7 2 8 1 9 3 10 11 11 12 12 13 13
REMARK SMILES IDX 14 14 15 15 16 16 17 17 18 18 19 19 20 20
REMARK H PARENT
REMARK Flexibility Score: inf
ROOT
ATOM      1  C   UNL     1       3.917  16.649   9.555  1.00  0.00     0.000 C 
ENDROOT
BRANCH   1   2
ATOM      2  C   UNL     1       3.003  17.708   8.909  1.00  0.00     0.000 C 
BRANCH   2   3
ATOM      3  C   UNL     1       3.722  18.732   8.013  1.00  0.00     0.000 C 
BRANCH   3   4
ATOM      4  C   UNL     1       2.939  19.060   6.734  1.00  0.00     0.000 C 
BRANCH   4   5
ATOM      5  C   UNL     1       2.720  17.801   5.886  1.00  0.00     0.000 C 
BRANCH   5   6
ATOM      6  C   UNL     1       4.057  17.178   5.470  1.00  0.00     0.006 C 
BRANCH   6   7
ATOM      7  C   UNL     1       4.161  15.727   5.948  1.00  0.00     0.053 C 
BRANCH   7   8
ATOM      8  C   UNL     1       5.567  15.232   5.818  1.00  0.00     0.041 C 
ATOM      9  O   UNL     1       5.926  14.607   4.786  1.00  0.00    -0.550 OA
ATOM     10  O   UNL     1       6.495  15.507   6.814  1.00  0.00    -0.550 OA
ENDBRANCH   7   8
ENDBRANCH   6   7
ENDBRANCH   5   6
ENDBRANCH   4   5
ENDBRANCH   3   4
ENDBRANCH   2   3
ENDBRANCH   1   2
BRANCH   1  11
ATOM     11  C   UNL     1       3.393  16.051  10.873  1.00  0.00     0.000 C 
BRANCH  11  12
ATOM     12  C   UNL     1       4.032  14.696  11.210  1.00  0.00     0.000 C 
BRANCH  12  13
ATOM     13  C   UNL     1       3.390  14.083  12.464  1.00  0.00     0.000 C 
BRANCH  13  14
ATOM     14  C   UNL     1       4.020  14.601  13.766  1.00  0.00     0.000 C 
BRANCH  14  15
ATOM     15  C   UNL     1       5.528  14.869  13.627  1.00  0.00     0.000 C 
BRANCH  15  16
ATOM     16  C   UNL     1       5.994  16.072  14.464  1.00  0.00     0.006 C 
BRANCH  16  17
ATOM     17  C   UNL     1       5.299  17.378  14.055  1.00  0.00     0.053 C 
BRANCH  17  18
ATOM     18  C   UNL     1       4.703  18.047  15.253  1.00  0.00     0.041 C 
ATOM     19  O   UNL     1       4.539  19.295  15.266  1.00  0.00    -0.550 OA
ATOM     20  O   UNL     1       4.372  17.297  16.376  1.00  0.00    -0.550 OA
ENDBRANCH  17  18
ENDBRANCH  16  17
ENDBRANCH  15  16
ENDBRANCH  14  15
ENDBRANCH  13  14
ENDBRANCH  12  13
ENDBRANCH  11  12
ENDBRANCH   1  11
TORSDOF 15
ENDMDL
MODEL 7
REMARK VINA RESULT:    -3.500      1.528      2.231
REMARK INTER + INTRA:          -8.563
REMARK INTER:                  -7.012
REMARK INTRA:                  -1.551
REMARK UNBOUND:                -1.995
REMARK SMILES O=C([O-])CCCCCCCCCCCCCCC(=O)[O-]
REMARK SMILES IDX 10 1 9 2 8 3 7 4 6 5 5 6 4 7 2 8 1 9 3 10 11 11 12 12 13 13
REMARK SMILES IDX 14 14 15 15 16 16 17 17 18 18 19 19 20 20
REMARK H PARENT
REMARK Flexibility Score: inf
ROOT
ATOM      1  C   UNL     1       3.173  19.068   8.150  1.00  0.00     0.000 C 
ENDROOT
BRANCH   1   2
ATOM      2  C   UNL     1       3.364  19.086   6.620  1.00  0.00     0.000 C 
BRANCH   2   3
ATOM      3  C   UNL     1       2.176  18.543   5.807  1.00  0.00     0.000 C 
BRANCH   3   4
ATOM      4  C   UNL     1       2.584  17.442   4.817  1.00  0.00     0.000 C 
BRANCH   4   5
ATOM      5  C   UNL     1       4.108  17.281   4.773  1.00  0.00     0.000 C 
BRANCH   5   6
ATOM      6  C   UNL     1       4.514  15.817   4.979  1.00  0.00     0.006 C 
BRANCH   6   7
ATOM      7  C   UNL     1       4.487  15.442   6.463  1.00  0.00     0.053 C 
BRANCH   7   8
ATOM      8  C   UNL     1       5.738  15.900   7.143  1.00  0.00     0.041 C 
ATOM      9  O   UNL     1       6.861  15.498   6.740  1.00  0.00    -0.550 OA
ATOM     10  O   UNL     1       5.667  16.812   8.187  1.00  0.00    -0.550 OA
ENDBRANCH   7   8
ENDBRANCH   6   7
ENDBRANCH   5   6
ENDBRANCH   4   5
ENDBRANCH   3   4
ENDBRANCH   2   3
ENDBRANCH   1   2
BRANCH   1  11
ATOM     11  C   UNL     1       1.983  18.228   8.649  1.00  0.00     0.000 C 
BRANCH  11  12
ATOM     12  C   UNL     1       2.263  17.532   9.989  1.00  0.00     0.000 C 
BRANCH  12  13
ATOM     13  C   UNL     1       2.668  16.066   9.772  1.00  0.00     0.000 C 
BRANCH  13  14
ATOM     14  C   UNL     1       3.255  15.420  11.036  1.00  0.00     0.000 C 
BRANCH  14  15
ATOM     15  C   UNL     1       4.559  16.095  11.494  1.00  0.00     0.000 C 
BRANCH  15  16
ATOM     16  C   UNL     1       4.895  15.796  12.963  1.00  0.00     0.006 C 
BRANCH  16  17
ATOM     17  C   UNL     1       5.597  16.970  13.659  1.00  0.00     0.053 C 
BRANCH  17  18
ATOM     18  C   UNL     1       4.653  17.663  14.590  1.00  0.00     0.041 C 
ATOM     19  O   UNL     1       3.652  17.053  15.047  1.00  0.00    -0.550 OA
ATOM     20  O   UNL     1       4.854  18.999  14.915  1.00  0.00    -0.550 OA
ENDBRANCH  17  18
ENDBRANCH  16  17
ENDBRANCH  15  16
ENDBRANCH  14  15
ENDBRANCH  13  14
ENDBRANCH  12  13
ENDBRANCH  11  12
ENDBRANCH   1  11
TORSDOF 15
ENDMDL
MODEL 8
REMARK VINA RESULT:    -3.487      2.402      8.363
REMARK INTER + INTRA:          -8.539
REMARK INTER:                  -6.850
REMARK INTRA:                  -1.689
REMARK UNBOUND:                -1.995
REMARK SMILES O=C([O-])CCCCCCCCCCCCCCC(=O)[O-]
REMARK SMILES IDX 10 1 9 2 8 3 7 4 6 5 5 6 4 7 2 8 1 9 3 10 11 11 12 12 13 13
REMARK SMILES IDX 14 14 15 15 16 16 17 17 18 18 19 19 20 20
REMARK H PARENT
REMARK Flexibility Score: inf
ROOT
ATOM      1  C   UNL     1       4.764  16.093  12.420  1.00  0.00     0.000 C 
ENDROOT
BRANCH   1   2
ATOM      2  C   UNL     1       5.300  15.191  13.549  1.00  0.00     0.000 C 
BRANCH   2   3
ATOM      3  C   UNL     1       4.254  14.755  14.590  1.00  0.00     0.000 C 
BRANCH   3   4
ATOM      4  C   UNL     1       4.502  15.363  15.978  1.00  0.00     0.000 C 
BRANCH   4   5
ATOM      5  C   UNL     1       5.543  16.488  15.906  1.00  0.00     0.000 C 
BRANCH   5   6
ATOM      6  C   UNL     1       4.961  17.810  16.419  1.00  0.00     0.006 C 
BRANCH   6   7
ATOM      7  C   UNL     1       4.571  18.728  15.257  1.00  0.00     0.053 C 
BRANCH   7   8
ATOM      8  C   UNL     1       3.089  18.930  15.223  1.00  0.00     0.041 C 
ATOM      9  O   UNL     1       2.607  20.091  15.286  1.00  0.00    -0.550 OA
ATOM     10  O   UNL     1       2.243  17.840  15.070  1.00  0.00    -0.550 OA
ENDBRANCH   7   8
ENDBRANCH   6   7
ENDBRANCH   5   6
ENDBRANCH   4   5
ENDBRANCH   3   4
ENDBRANCH   2   3
ENDBRANCH   1   2
BRANCH   1  11
ATOM     11  C   UNL     1       3.236  16.065  12.232  1.00  0.00     0.000 C 
BRANCH  11  12
ATOM     12  C   UNL     1       2.816  16.029  10.756  1.00  0.00     0.000 C 
BRANCH  12  13
ATOM     13  C   UNL     1       3.790  15.176   9.929  1.00  0.00     0.000 C 
BRANCH  13  14
ATOM     14  C   UNL     1       4.229  15.870   8.631  1.00  0.00     0.000 C 
BRANCH  14  15
ATOM     15  C   UNL     1       4.705  17.314   8.863  1.00  0.00     0.000 C 
BRANCH  15  16
ATOM     16  C   UNL     1       3.840  18.347   8.123  1.00  0.00     0.006 C 
BRANCH  16  17
ATOM     17  C   UNL     1       2.823  17.694   7.177  1.00  0.00     0.053 C 
BRANCH  17  18
ATOM     18  C   UNL     1       3.167  17.998   5.753  1.00  0.00     0.041 C 
ATOM     19  O   UNL     1       4.242  17.573   5.256  1.00  0.00    -0.550 OA
ATOM     20  O   UNL     1       2.320  18.791   4.987  1.00  0.00    -0.550 OA
ENDBRANCH  17  18
ENDBRANCH  16  17
ENDBRANCH  15  16
ENDBRANCH  14  15
ENDBRANCH  13  14
ENDBRANCH  12  13
ENDBRANCH  11  12
ENDBRANCH   1  11
TORSDOF 15
ENDMDL
MODEL 9
REMARK VINA RESULT:    -3.457      1.598      2.140
REMARK INTER + INTRA:          -8.483
REMARK INTER:                  -6.989
REMARK INTRA:                  -1.494
REMARK UNBOUND:                -1.995
REMARK SMILES O=C([O-])CCCCCCCCCCCCCCC(=O)[O-]
REMARK SMILES IDX 10 1 9 2 8 3 7 4 6 5 5 6 4 7 2 8 1 9 3 10 11 11 12 12 13 13
REMARK SMILES IDX 14 14 15 15 16 16 17 17 18 18 19 19 20 20
REMARK H PARENT
REMARK Flexibility Score: inf
ROOT
ATOM      1  C   UNL     1       3.404  18.370   8.469  1.00  0.00     0.000 C 
ENDROOT
BRANCH   1   2
ATOM      2  C   UNL     1       3.383  18.943   7.038  1.00  0.00     0.000 C 
BRANCH   2   3
ATOM      3  C   UNL     1       3.430  17.894   5.913  1.00  0.00     0.000 C 
BRANCH   3   4
ATOM      4  C   UNL     1       2.622  16.630   6.241  1.00  0.00     0.000 C 
BRANCH   4   5
ATOM      5  C   UNL     1       3.490  15.373   6.110  1.00  0.00     0.000 C 
BRANCH   5   6
ATOM      6  C   UNL     1       4.930  15.736   5.726  1.00  0.00     0.006 C 
BRANCH   6   7
ATOM      7  C   UNL     1       5.464  14.797   4.641  1.00  0.00     0.053 C 
BRANCH   7   8
ATOM      8  C   UNL     1       5.547  15.507   3.327  1.00  0.00     0.041 C 
ATOM      9  O   UNL     1       4.859  16.542   3.122  1.00  0.00    -0.550 OA
ATOM     10  O   UNL     1       6.422  15.057   2.348  1.00  0.00    -0.550 OA
ENDBRANCH   7   8
ENDBRANCH   6   7
ENDBRANCH   5   6
ENDBRANCH   4   5
ENDBRANCH   3   4
ENDBRANCH   2   3
ENDBRANCH   1   2
BRANCH   1  11
ATOM     11  C   UNL     1       4.712  17.663   8.869  1.00  0.00     0.000 C 
BRANCH  11  12
ATOM     12  C   UNL     1       4.474  16.370   9.662  1.00  0.00     0.000 C 
BRANCH  12  13
ATOM     13  C   UNL     1       3.229  16.494  10.554  1.00  0.00     0.000 C 
BRANCH  13  14
ATOM     14  C   UNL     1       3.511  16.121  12.018  1.00  0.00     0.000 C 
BRANCH  14  15
ATOM     15  C   UNL     1       4.493  14.945  12.150  1.00  0.00     0.000 C 
BRANCH  15  16
ATOM     16  C   UNL     1       5.344  15.028  13.427  1.00  0.00     0.006 C 
BRANCH  16  17
ATOM     17  C   UNL     1       5.805  16.458  13.736  1.00  0.00     0.053 C 
BRANCH  17  18
ATOM     18  C   UNL     1       5.370  16.860  15.111  1.00  0.00     0.041 C 
ATOM     19  O   UNL     1       5.778  16.222  16.116  1.00  0.00    -0.550 OA
ATOM     20  O   UNL     1       4.475  17.910  15.277  1.00  0.00    -0.550 OA
ENDBRANCH  17  18
ENDBRANCH  16  17
ENDBRANCH  15  16
ENDBRANCH  14  15
ENDBRANCH  13  14
ENDBRANCH  12  13
ENDBRANCH  11  12
ENDBRANCH   1  11
TORSDOF 15
ENDMDL
