MODEL 1
REMARK VINA RESULT:    -3.298      0.000      0.000
REMARK INTER + INTRA:          -4.705
REMARK INTER:                  -4.454
REMARK INTRA:                  -0.250
REMARK UNBOUND:                -0.250
REMARK SMILES CCCCCCCC(=O)[O-]
REMARK SMILES IDX 5 1 6 2 7 3 8 4 9 5 10 6 4 7 3 8 2 9 1 10
REMARK H PARENT
REMARK Flexibility Score: inf
ROOT
ATOM      1  C   UNL     1      -5.164  35.109  22.395  1.00  0.00     0.000 C 
ENDROOT
BRANCH   1   2
ATOM      2  C   UNL     1      -5.978  35.636  21.204  1.00  0.00     0.006 C 
BRANCH   2   3
ATOM      3  C   UNL     1      -5.092  36.113  20.047  1.00  0.00     0.053 C 
BRANCH   3   4
ATOM      4  C   UNL     1      -5.140  35.137  18.914  1.00  0.00     0.041 C 
ATOM      5  O   UNL     1      -4.262  35.171  18.012  1.00  0.00    -0.550 OA
ATOM      6  O   UNL     1      -6.123  34.157  18.882  1.00  0.00    -0.550 OA
ENDBRANCH   3   4
ENDBRANCH   2   3
ENDBRANCH   1   2
BRANCH   1   7
ATOM      7  C   UNL     1      -5.996  34.223  23.339  1.00  0.00     0.000 C 
BRANCH   7   8
ATOM      8  C   UNL     1      -6.125  34.836  24.750  1.00  0.00    -0.000 C 
BRANCH   8   9
ATOM      9  C   UNL     1      -6.102  36.374  24.757  1.00  0.00    -0.003 C 
ATOM     10  C   UNL     1      -4.948  36.951  25.573  1.00  0.00     0.004 C 
ENDBRANCH   8   9
ENDBRANCH   7   8
ENDBRANCH   1   7
TORSDOF 6
ENDMDL
MODEL 2
REMARK VINA RESULT:    -3.185      0.349      1.080
REMARK INTER + INTRA:          -4.553
REMARK INTER:                  -4.306
REMARK INTRA:                  -0.247
REMARK UNBOUND:                -0.250
REMARK SMILES CCCCCCCC(=O)[O-]
REMARK SMILES IDX 5 1 6 2 7 3 8 4 9 5 10 6 4 7 3 8 2 9 1 10
REMARK H PARENT
REMARK Flexibility Score: inf
ROOT
ATOM      1  C   UNL     1      -5.294  35.221  22.366  1.00  0.00     0.000 C 
ENDROOT
BRANCH   1   2
ATOM      2  C   UNL     1      -6.060  35.345  21.040  1.00  0.00     0.006 C 
BRANCH   2   3
ATOM      3  C   UNL     1      -5.181  35.862  19.895  1.00  0.00     0.053 C 
BRANCH   3   4
ATOM      4  C   UNL     1      -5.165  34.882  18.764  1.00  0.00     0.041 C 
ATOM      5  O   UNL     1      -5.996  33.935  18.736  1.00  0.00    -0.550 OA
ATOM      6  O   UNL     1      -4.267  35.042  17.717  1.00  0.00    -0.550 OA
ENDBRANCH   3   4
ENDBRANCH   2   3
ENDBRANCH   1   2
BRANCH   1   7
ATOM      7  C   UNL     1      -6.073  34.429  23.430  1.00  0.00     0.000 C 
BRANCH   7   8
ATOM      8  C   UNL     1      -6.125  35.168  24.784  1.00  0.00    -0.000 C 
BRANCH   8   9
ATOM      9  C   UNL     1      -5.575  36.603  24.723  1.00  0.00    -0.003 C 
ATOM     10  C   UNL     1      -4.631  36.932  25.877  1.00  0.00     0.004 C 
ENDBRANCH   8   9
ENDBRANCH   7   8
ENDBRANCH   1   7
TORSDOF 6
ENDMDL
MODEL 3
REMARK VINA RESULT:    -2.751      2.193      2.374
REMARK INTER + INTRA:          -3.966
REMARK INTER:                  -3.683
REMARK INTRA:                  -0.283
REMARK UNBOUND:                -0.250
REMARK SMILES CCCCCCCC(=O)[O-]
REMARK SMILES IDX 5 1 6 2 7 3 8 4 9 5 10 6 4 7 3 8 2 9 1 10
REMARK H PARENT
REMARK Flexibility Score: inf
ROOT
ATOM      1  C   UNL     1      -5.155  35.161  22.403  1.00  0.00     0.000 C 
ENDROOT
BRANCH   1   2
ATOM      2  C   UNL     1      -5.822  35.548  21.075  1.00  0.00     0.006 C 
BRANCH   2   3
ATOM      3  C   UNL     1      -4.990  36.550  20.265  1.00  0.00     0.053 C 
BRANCH   3   4
ATOM      4  C   UNL     1      -5.458  37.947  20.523  1.00  0.00     0.041 C 
ATOM      5  O   UNL     1      -6.002  38.613  19.602  1.00  0.00    -0.550 OA
ATOM      6  O   UNL     1      -5.341  38.497  21.792  1.00  0.00    -0.550 OA
ENDBRANCH   3   4
ENDBRANCH   2   3
ENDBRANCH   1   2
BRANCH   1   7
ATOM      7  C   UNL     1      -6.097  34.379  23.335  1.00  0.00     0.000 C 
BRANCH   7   8
ATOM      8  C   UNL     1      -6.125  34.966  24.762  1.00  0.00    -0.000 C 
BRANCH   8   9
ATOM      9  C   UNL     1      -5.960  36.495  24.800  1.00  0.00    -0.003 C 
ATOM     10  C   UNL     1      -4.878  36.956  25.774  1.00  0.00     0.004 C 
ENDBRANCH   8   9
ENDBRANCH   7   8
ENDBRANCH   1   7
TORSDOF 6
ENDMDL
MODEL 4
REMARK VINA RESULT:    -2.591      3.106      5.456
REMARK INTER + INTRA:          -3.750
REMARK INTER:                  -3.760
REMARK INTRA:                   0.009
REMARK UNBOUND:                -0.250
REMARK SMILES CCCCCCCC(=O)[O-]
REMARK SMILES IDX 5 1 6 2 7 3 8 4 9 5 10 6 4 7 3 8 2 9 1 10
REMARK H PARENT
REMARK Flexibility Score: inf
ROOT
ATOM      1  C   UNL     1      -5.878  34.937  21.881  1.00  0.00     0.000 C 
ENDROOT
BRANCH   1   2
ATOM      2  C   UNL     1      -5.366  34.447  23.243  1.00  0.00     0.006 C 
BRANCH   2   3
ATOM      3  C   UNL     1      -6.125  35.071  24.421  1.00  0.00     0.053 C 
BRANCH   3   4
ATOM      4  C   UNL     1      -5.550  36.410  24.762  1.00  0.00     0.041 C 
ATOM      5  O   UNL     1      -4.816  36.543  25.777  1.00  0.00    -0.550 OA
ATOM      6  O   UNL     1      -5.781  37.498  23.932  1.00  0.00    -0.550 OA
ENDBRANCH   3   4
ENDBRANCH   2   3
ENDBRANCH   1   2
BRANCH   1   7
ATOM      7  C   UNL     1      -4.944  35.975  21.234  1.00  0.00     0.000 C 
BRANCH   7   8
ATOM      8  C   UNL     1      -5.414  36.380  19.820  1.00  0.00    -0.000 C 
BRANCH   8   9
ATOM      9  C   UNL     1      -4.657  35.660  18.691  1.00  0.00    -0.003 C 
ATOM     10  C   UNL     1      -5.241  34.290  18.359  1.00  0.00     0.004 C 
ENDBRANCH   8   9
ENDBRANCH   7   8
ENDBRANCH   1   7
TORSDOF 6
ENDMDL
MODEL 5
REMARK VINA RESULT:    -2.510      3.282      4.987
REMARK INTER + INTRA:          -3.641
REMARK INTER:                  -3.350
REMARK INTRA:                  -0.291
REMARK UNBOUND:                -0.250
REMARK SMILES CCCCCCCC(=O)[O-]
REMARK SMILES IDX 5 1 6 2 7 3 8 4 9 5 10 6 4 7 3 8 2 9 1 10
REMARK H PARENT
REMARK Flexibility Score: inf
ROOT
ATOM      1  C   UNL     1      -4.655  35.302  21.320  1.00  0.00     0.000 C 
ENDROOT
BRANCH   1   2
ATOM      2  C   UNL     1      -5.811  34.968  22.276  1.00  0.00     0.006 C 
BRANCH   2   3
ATOM      3  C   UNL     1      -6.125  36.114  23.246  1.00  0.00     0.053 C 
BRANCH   3   4
ATOM      4  C   UNL     1      -5.890  35.681  24.659  1.00  0.00     0.041 C 
ATOM      5  O   UNL     1      -6.119  34.491  25.003  1.00  0.00    -0.550 OA
ATOM      6  O   UNL     1      -5.371  36.578  25.584  1.00  0.00    -0.550 OA
ENDBRANCH   3   4
ENDBRANCH   2   3
ENDBRANCH   1   2
BRANCH   1   7
ATOM      7  C   UNL     1      -5.126  35.515  19.871  1.00  0.00     0.000 C 
BRANCH   7   8
ATOM      8  C   UNL     1      -4.905  36.967  19.395  1.00  0.00    -0.000 C 
BRANCH   8   9
ATOM      9  C   UNL     1      -5.833  37.986  20.077  1.00  0.00    -0.003 C 
ATOM     10  C   UNL     1      -5.144  38.772  21.189  1.00  0.00     0.004 C 
ENDBRANCH   8   9
ENDBRANCH   7   8
ENDBRANCH   1   7
TORSDOF 6
ENDMDL
MODEL 6
REMARK VINA RESULT:    -1.897     12.049     13.718
REMARK INTER + INTRA:          -2.813
REMARK INTER:                  -2.600
REMARK INTRA:                  -0.213
REMARK UNBOUND:                -0.250
REMARK SMILES CCCCCCCC(=O)[O-]
REMARK SMILES IDX 5 1 6 2 7 3 8 4 9 5 10 6 4 7 3 8 2 9 1 10
REMARK H PARENT
REMARK Flexibility Score: inf
ROOT
ATOM      1  C   UNL     1      -5.868  25.380  29.024  1.00  0.00     0.000 C 
ENDROOT
BRANCH   1   2
ATOM      2  C   UNL     1      -5.297  26.806  29.058  1.00  0.00     0.006 C 
BRANCH   2   3
ATOM      3  C   UNL     1      -6.047  27.720  30.035  1.00  0.00     0.053 C 
BRANCH   3   4
ATOM      4  C   UNL     1      -5.331  27.780  31.348  1.00  0.00     0.041 C 
ATOM      5  O   UNL     1      -4.115  27.461  31.421  1.00  0.00    -0.550 OA
ATOM      6  O   UNL     1      -5.992  28.239  32.480  1.00  0.00    -0.550 OA
ENDBRANCH   3   4
ENDBRANCH   2   3
ENDBRANCH   1   2
BRANCH   1   7
ATOM      7  C   UNL     1      -4.986  24.369  29.778  1.00  0.00     0.000 C 
BRANCH   7   8
ATOM      8  C   UNL     1      -5.784  23.132  30.241  1.00  0.00    -0.000 C 
BRANCH   8   9
ATOM      9  C   UNL     1      -5.517  21.876  29.393  1.00  0.00    -0.003 C 
ATOM     10  C   UNL     1      -4.786  22.179  28.088  1.00  0.00     0.004 C 
ENDBRANCH   8   9
ENDBRANCH   7   8
ENDBRANCH   1   7
TORSDOF 6
ENDMDL
MODEL 7
REMARK VINA RESULT:    -1.688      3.381      6.925
REMARK INTER + INTRA:          -2.530
REMARK INTER:                  -2.312
REMARK INTRA:                  -0.219
REMARK UNBOUND:                -0.250
REMARK SMILES CCCCCCCC(=O)[O-]
REMARK SMILES IDX 5 1 6 2 7 3 8 4 9 5 10 6 4 7 3 8 2 9 1 10
REMARK H PARENT
REMARK Flexibility Score: inf
ROOT
ATOM      1  C   UNL     1      -4.163  35.540  17.220  1.00  0.00     0.000 C 
ENDROOT
BRANCH   1   2
ATOM      2  C   UNL     1      -4.618  34.460  18.214  1.00  0.00     0.006 C 
BRANCH   2   3
ATOM      3  C   UNL     1      -5.745  34.944  19.136  1.00  0.00     0.053 C 
BRANCH   3   4
ATOM      4  C   UNL     1      -5.202  35.852  20.193  1.00  0.00     0.041 C 
ATOM      5  O   UNL     1      -4.579  35.375  21.178  1.00  0.00    -0.550 OA
ATOM      6  O   UNL     1      -5.340  37.228  20.066  1.00  0.00    -0.550 OA
ENDBRANCH   3   4
ENDBRANCH   2   3
ENDBRANCH   1   2
BRANCH   1   7
ATOM      7  C   UNL     1      -3.279  34.975  16.094  1.00  0.00     0.000 C 
BRANCH   7   8
ATOM      8  C   UNL     1      -2.811  36.072  15.115  1.00  0.00    -0.000 C 
BRANCH   8   9
ATOM      9  C   UNL     1      -3.917  36.562  14.165  1.00  0.00    -0.003 C 
ATOM     10  C   UNL     1      -4.150  38.069  14.245  1.00  0.00     0.004 C 
ENDBRANCH   8   9
ENDBRANCH   7   8
ENDBRANCH   1   7
TORSDOF 6
ENDMDL
MODEL 8
REMARK VINA RESULT:    -1.503      2.023      2.875
REMARK INTER + INTRA:          -2.280
REMARK INTER:                  -2.332
REMARK INTRA:                   0.052
REMARK UNBOUND:                -0.250
REMARK SMILES CCCCCCCC(=O)[O-]
REMARK SMILES IDX 5 1 6 2 7 3 8 4 9 5 10 6 4 7 3 8 2 9 1 10
REMARK H PARENT
REMARK Flexibility Score: inf
ROOT
ATOM      1  C   UNL     1      -5.820  35.303  21.896  1.00  0.00     0.000 C 
ENDROOT
BRANCH   1   2
ATOM      2  C   UNL     1      -6.061  35.214  20.381  1.00  0.00     0.006 C 
BRANCH   2   3
ATOM      3  C   UNL     1      -4.766  35.340  19.568  1.00  0.00     0.053 C 
BRANCH   3   4
ATOM      4  C   UNL     1      -4.884  34.591  18.279  1.00  0.00     0.041 C 
ATOM      5  O   UNL     1      -5.746  33.682  18.151  1.00  0.00    -0.550 OA
ATOM      6  O   UNL     1      -4.076  34.930  17.201  1.00  0.00    -0.550 OA
ENDBRANCH   3   4
ENDBRANCH   2   3
ENDBRANCH   1   2
BRANCH   1   7
ATOM      7  C   UNL     1      -5.731  36.755  22.398  1.00  0.00     0.000 C 
BRANCH   7   8
ATOM      8  C   UNL     1      -5.921  37.778  21.258  1.00  0.00    -0.000 C 
BRANCH   8   9
ATOM      9  C   UNL     1      -4.988  38.997  21.364  1.00  0.00    -0.003 C 
ATOM     10  C   UNL     1      -5.431  40.000  22.426  1.00  0.00     0.004 C 
ENDBRANCH   8   9
ENDBRANCH   7   8
ENDBRANCH   1   7
TORSDOF 6
ENDMDL
