MODEL 1
REMARK VINA RESULT:    -2.391      0.000      0.000
REMARK INTER + INTRA:          -2.391
REMARK INTER:                  -2.391
REMARK INTRA:                   0.000
REMARK UNBOUND:                 0.000
REMARK SMILES CC(=O)[O-]
REMARK SMILES IDX 1 1 2 2 3 3 4 4
REMARK H PARENT
REMARK Flexibility Score: inf
ROOT
ATOM      1  C   UNL     1      -5.063  37.323  19.878  1.00  0.00     0.063 C 
ATOM      2  C   UNL     1      -4.886  35.872  20.166  1.00  0.00     0.038 C 
ATOM      3  O   UNL     1      -5.415  35.009  19.417  1.00  0.00    -0.550 OA
ATOM      4  O   UNL     1      -4.092  35.465  21.232  1.00  0.00    -0.550 OA
ENDROOT
TORSDOF 0
ENDMDL
MODEL 2
REMARK VINA RESULT:    -2.390      1.440      1.764
REMARK INTER + INTRA:          -2.390
REMARK INTER:                  -2.390
REMARK INTRA:                   0.000
REMARK UNBOUND:                 0.000
REMARK SMILES CC(=O)[O-]
REMARK SMILES IDX 1 1 2 2 3 3 4 4
REMARK H PARENT
REMARK Flexibility Score: inf
ROOT
ATOM      1  C   UNL     1      -4.302  35.483  21.291  1.00  0.00     0.063 C 
ATOM      2  C   UNL     1      -4.979  35.860  20.017  1.00  0.00     0.038 C 
ATOM      3  O   UNL     1      -5.626  34.998  19.366  1.00  0.00    -0.550 OA
ATOM      4  O   UNL     1      -4.945  37.176  19.574  1.00  0.00    -0.550 OA
ENDROOT
TORSDOF 0
ENDMDL
MODEL 3
REMARK VINA RESULT:    -2.376      1.435      2.051
REMARK INTER + INTRA:          -2.376
REMARK INTER:                  -2.376
REMARK INTRA:                   0.000
REMARK UNBOUND:                 0.000
REMARK SMILES CC(=O)[O-]
REMARK SMILES IDX 1 1 2 2 3 3 4 4
REMARK H PARENT
REMARK Flexibility Score: inf
ROOT
ATOM      1  C   UNL     1      -4.304  35.491  21.295  1.00  0.00     0.063 C 
ATOM      2  C   UNL     1      -5.001  35.845  20.025  1.00  0.00     0.038 C 
ATOM      3  O   UNL     1      -5.018  37.039  19.625  1.00  0.00    -0.550 OA
ATOM      4  O   UNL     1      -5.586  34.850  19.251  1.00  0.00    -0.550 OA
ENDROOT
TORSDOF 0
ENDMDL
MODEL 4
REMARK VINA RESULT:    -2.354      3.708      4.451
REMARK INTER + INTRA:          -2.354
REMARK INTER:                  -2.354
REMARK INTRA:                   0.000
REMARK UNBOUND:                 0.000
REMARK SMILES CC(=O)[O-]
REMARK SMILES IDX 1 1 2 2 3 3 4 4
REMARK H PARENT
REMARK Flexibility Score: inf
ROOT
ATOM      1  C   UNL     1      -6.124  34.205  23.679  1.00  0.00     0.063 C 
ATOM      2  C   UNL     1      -5.693  35.611  23.922  1.00  0.00     0.038 C 
ATOM      3  O   UNL     1      -5.316  35.967  25.069  1.00  0.00    -0.550 OA
ATOM      4  O   UNL     1      -5.652  36.518  22.870  1.00  0.00    -0.550 OA
ENDROOT
TORSDOF 0
ENDMDL
MODEL 5
REMARK VINA RESULT:    -2.302      1.348      1.873
REMARK INTER + INTRA:          -2.302
REMARK INTER:                  -2.302
REMARK INTRA:                   0.000
REMARK UNBOUND:                 0.000
REMARK SMILES CC(=O)[O-]
REMARK SMILES IDX 1 1 2 2 3 3 4 4
REMARK H PARENT
REMARK Flexibility Score: inf
ROOT
ATOM      1  C   UNL     1      -5.057  37.244  19.862  1.00  0.00     0.063 C 
ATOM      2  C   UNL     1      -4.900  36.618  21.205  1.00  0.00     0.038 C 
ATOM      3  O   UNL     1      -5.444  37.141  22.213  1.00  0.00    -0.550 OA
ATOM      4  O   UNL     1      -4.199  35.426  21.341  1.00  0.00    -0.550 OA
ENDROOT
TORSDOF 0
ENDMDL
MODEL 6
REMARK VINA RESULT:    -2.298      3.013      3.373
REMARK INTER + INTRA:          -2.298
REMARK INTER:                  -2.298
REMARK INTRA:                   0.000
REMARK UNBOUND:                 0.000
REMARK SMILES CC(=O)[O-]
REMARK SMILES IDX 1 1 2 2 3 3 4 4
REMARK H PARENT
REMARK Flexibility Score: inf
ROOT
ATOM      1  C   UNL     1      -6.123  34.279  23.598  1.00  0.00     0.063 C 
ATOM      2  C   UNL     1      -5.959  35.481  22.732  1.00  0.00     0.038 C 
ATOM      3  O   UNL     1      -6.087  35.383  21.483  1.00  0.00    -0.550 OA
ATOM      4  O   UNL     1      -5.719  36.724  23.305  1.00  0.00    -0.550 OA
ENDROOT
TORSDOF 0
ENDMDL
MODEL 7
REMARK VINA RESULT:    -2.275     13.284     13.748
REMARK INTER + INTRA:          -2.275
REMARK INTER:                  -2.275
REMARK INTRA:                   0.000
REMARK UNBOUND:                 0.000
REMARK SMILES CC(=O)[O-]
REMARK SMILES IDX 1 1 2 2 3 3 4 4
REMARK H PARENT
REMARK Flexibility Score: inf
ROOT
ATOM      1  C   UNL     1      -4.993  25.273  29.659  1.00  0.00     0.063 C 
ATOM      2  C   UNL     1      -5.093  26.677  30.148  1.00  0.00     0.038 C 
ATOM      3  O   UNL     1      -5.986  27.442  29.696  1.00  0.00    -0.550 OA
ATOM      4  O   UNL     1      -4.236  27.131  31.143  1.00  0.00    -0.550 OA
ENDROOT
TORSDOF 0
ENDMDL
MODEL 8
REMARK VINA RESULT:    -2.273      3.721      4.110
REMARK INTER + INTRA:          -2.273
REMARK INTER:                  -2.273
REMARK INTRA:                   0.000
REMARK UNBOUND:                 0.000
REMARK SMILES CC(=O)[O-]
REMARK SMILES IDX 1 1 2 2 3 3 4 4
REMARK H PARENT
REMARK Flexibility Score: inf
ROOT
ATOM      1  C   UNL     1      -5.787  35.952  24.789  1.00  0.00     0.063 C 
ATOM      2  C   UNL     1      -6.003  35.024  23.642  1.00  0.00     0.038 C 
ATOM      3  O   UNL     1      -6.125  33.787  23.844  1.00  0.00    -0.550 OA
ATOM      4  O   UNL     1      -6.125  35.528  22.353  1.00  0.00    -0.550 OA
ENDROOT
TORSDOF 0
ENDMDL
MODEL 9
REMARK VINA RESULT:    -2.162      2.086      2.538
REMARK INTER + INTRA:          -2.162
REMARK INTER:                  -2.162
REMARK INTRA:                   0.000
REMARK UNBOUND:                 0.000
REMARK SMILES CC(=O)[O-]
REMARK SMILES IDX 1 1 2 2 3 3 4 4
REMARK H PARENT
REMARK Flexibility Score: inf
ROOT
ATOM      1  C   UNL     1      -5.036  38.714  22.070  1.00  0.00     0.063 C 
ATOM      2  C   UNL     1      -5.073  37.496  21.212  1.00  0.00     0.038 C 
ATOM      3  O   UNL     1      -4.993  36.353  21.734  1.00  0.00    -0.550 OA
ATOM      4  O   UNL     1      -5.250  37.616  19.839  1.00  0.00    -0.550 OA
ENDROOT
TORSDOF 0
ENDMDL
