MODEL 1
REMARK VINA RESULT:    -5.336      0.000      0.000
REMARK INTER + INTRA:          -7.226
REMARK INTER:                  -6.583
REMARK INTRA:                  -0.643
REMARK UNBOUND:                -0.643
REMARK SMILES CC(C)=CCC[C@H](C)c1ccc(C)cc1
REMARK SMILES IDX 6 1 7 2 8 3 9 4 13 5 12 6 11 7 14 8 10 9 15 10 5 11 4 12
REMARK SMILES IDX 2 13 1 14 3 15
REMARK H PARENT
REMARK Flexibility Score: inf
ROOT
ATOM      1  C   UNL     1     106.372  93.985  86.857  1.00  0.00     0.012 C 
ENDROOT
BRANCH   1   2
ATOM      2  C   UNL     1     106.897  93.538  88.240  1.00  0.00     0.016 C 
ATOM      3  C   UNL     1     106.801  94.657  89.289  1.00  0.00     0.013 C 
BRANCH   2   4
ATOM      4  C   UNL     1     108.330  93.045  88.128  1.00  0.00    -0.045 A 
ATOM      5  C   UNL     1     112.415  91.671  87.835  1.00  0.00     0.044 C 
ATOM      6  C   UNL     1     110.987  92.120  87.944  1.00  0.00    -0.051 A 
ATOM      7  C   UNL     1     110.499  92.633  89.154  1.00  0.00     0.004 A 
ATOM      8  C   UNL     1     110.150  92.093  86.820  1.00  0.00     0.004 A 
ATOM      9  C   UNL     1     109.180  93.086  89.247  1.00  0.00     0.004 A 
ATOM     10  C   UNL     1     108.831  92.546  86.912  1.00  0.00     0.004 A 
ENDBRANCH   2   4
ENDBRANCH   1   2
BRANCH   1  11
ATOM     11  C   UNL     1     104.846  93.857  86.734  1.00  0.00     0.028 C 
BRANCH  11  12
ATOM     12  C   UNL     1     104.453  92.431  86.444  1.00  0.00    -0.028 C 
ATOM     13  C   UNL     1     103.324  91.842  86.898  1.00  0.00    -0.080 C 
ATOM     14  C   UNL     1     102.354  92.561  87.807  1.00  0.00     0.039 C 
ATOM     15  C   UNL     1     103.044  90.417  86.493  1.00  0.00     0.039 C 
ENDBRANCH  11  12
ENDBRANCH   1  11
TORSDOF 4
ENDMDL
MODEL 2
REMARK VINA RESULT:    -5.200      1.794      6.312
REMARK INTER + INTRA:          -7.059
REMARK INTER:                  -5.957
REMARK INTRA:                  -1.102
REMARK UNBOUND:                -0.643
REMARK SMILES CC(C)=CCC[C@H](C)c1ccc(C)cc1
REMARK SMILES IDX 6 1 7 2 8 3 9 4 13 5 12 6 11 7 14 8 10 9 15 10 5 11 4 12
REMARK SMILES IDX 2 13 1 14 3 15
REMARK H PARENT
REMARK Flexibility Score: inf
ROOT
ATOM      1  C   UNL     1     107.561  92.381  87.463  1.00  0.00     0.012 C 
ENDROOT
BRANCH   1   2
ATOM      2  C   UNL     1     106.433  92.997  86.604  1.00  0.00     0.016 C 
ATOM      3  C   UNL     1     106.765  94.425  86.145  1.00  0.00     0.013 C 
BRANCH   2   4
ATOM      4  C   UNL     1     105.119  92.982  87.367  1.00  0.00    -0.045 A 
ATOM      5  C   UNL     1     101.363  92.942  89.500  1.00  0.00     0.044 C 
ATOM      6  C   UNL     1     102.676  92.929  88.773  1.00  0.00    -0.051 A 
ATOM      7  C   UNL     1     102.773  92.348  87.501  1.00  0.00     0.004 A 
ATOM      8  C   UNL     1     103.798  93.559  89.329  1.00  0.00     0.004 A 
ATOM      9  C   UNL     1     103.985  92.368  86.806  1.00  0.00     0.004 A 
ATOM     10  C   UNL     1     105.011  93.580  88.635  1.00  0.00     0.004 A 
ENDBRANCH   2   4
ENDBRANCH   1   2
BRANCH   1  11
ATOM     11  C   UNL     1     108.690  93.379  87.762  1.00  0.00     0.028 C 
BRANCH  11  12
ATOM     12  C   UNL     1     108.815  93.612  89.246  1.00  0.00    -0.028 C 
ATOM     13  C   UNL     1     108.499  94.771  89.867  1.00  0.00    -0.080 C 
ATOM     14  C   UNL     1     108.032  95.988  89.104  1.00  0.00     0.039 C 
ATOM     15  C   UNL     1     108.640  94.843  91.367  1.00  0.00     0.039 C 
ENDBRANCH  11  12
ENDBRANCH   1  11
TORSDOF 4
ENDMDL
MODEL 3
REMARK VINA RESULT:    -5.165      1.368      2.157
REMARK INTER + INTRA:          -7.016
REMARK INTER:                  -6.066
REMARK INTRA:                  -0.949
REMARK UNBOUND:                -0.643
REMARK SMILES CC(C)=CCC[C@H](C)c1ccc(C)cc1
REMARK SMILES IDX 6 1 7 2 8 3 9 4 13 5 12 6 11 7 14 8 10 9 15 10 5 11 4 12
REMARK SMILES IDX 2 13 1 14 3 15
REMARK H PARENT
REMARK Flexibility Score: inf
ROOT
ATOM      1  C   UNL     1     104.891  95.172  87.409  1.00  0.00     0.012 C 
ENDROOT
BRANCH   1   2
ATOM      2  C   UNL     1     105.642  94.272  88.416  1.00  0.00     0.016 C 
ATOM      3  C   UNL     1     106.071  95.040  89.676  1.00  0.00     0.013 C 
BRANCH   2   4
ATOM      4  C   UNL     1     106.850  93.631  87.754  1.00  0.00    -0.045 A 
ATOM      5  C   UNL     1     110.260  91.786  85.850  1.00  0.00     0.044 C 
ATOM      6  C   UNL     1     109.086  92.454  86.504  1.00  0.00    -0.051 A 
ATOM      7  C   UNL     1     107.913  92.694  85.775  1.00  0.00     0.004 A 
ATOM      8  C   UNL     1     109.129  92.782  87.866  1.00  0.00     0.004 A 
ATOM      9  C   UNL     1     106.806  93.283  86.393  1.00  0.00     0.004 A 
ATOM     10  C   UNL     1     108.023  93.371  88.485  1.00  0.00     0.004 A 
ENDBRANCH   2   4
ENDBRANCH   1   2
BRANCH   1  11
ATOM     11  C   UNL     1     103.412  94.783  87.256  1.00  0.00     0.028 C 
BRANCH  11  12
ATOM     12  C   UNL     1     103.280  93.456  86.552  1.00  0.00    -0.028 C 
ATOM     13  C   UNL     1     102.866  92.314  87.145  1.00  0.00    -0.080 C 
ATOM     14  C   UNL     1     102.540  92.249  88.620  1.00  0.00     0.039 C 
ATOM     15  C   UNL     1     102.747  91.069  86.303  1.00  0.00     0.039 C 
ENDBRANCH  11  12
ENDBRANCH   1  11
TORSDOF 4
ENDMDL
MODEL 4
REMARK VINA RESULT:    -5.118      1.757      3.066
REMARK INTER + INTRA:          -6.958
REMARK INTER:                  -6.302
REMARK INTRA:                  -0.656
REMARK UNBOUND:                -0.643
REMARK SMILES CC(C)=CCC[C@H](C)c1ccc(C)cc1
REMARK SMILES IDX 6 1 7 2 8 3 9 4 13 5 12 6 11 7 14 8 10 9 15 10 5 11 4 12
REMARK SMILES IDX 2 13 1 14 3 15
REMARK H PARENT
REMARK Flexibility Score: inf
ROOT
ATOM      1  C   UNL     1     106.096  94.376  86.482  1.00  0.00     0.012 C 
ENDROOT
BRANCH   1   2
ATOM      2  C   UNL     1     107.628  94.313  86.668  1.00  0.00     0.016 C 
ATOM      3  C   UNL     1     108.214  92.964  86.222  1.00  0.00     0.013 C 
BRANCH   2   4
ATOM      4  C   UNL     1     107.997  94.592  88.116  1.00  0.00    -0.045 A 
ATOM      5  C   UNL     1     109.039  95.348  92.239  1.00  0.00     0.044 C 
ATOM      6  C   UNL     1     108.704  95.098  90.798  1.00  0.00    -0.051 A 
ATOM      7  C   UNL     1     109.027  93.872  90.200  1.00  0.00     0.004 A 
ATOM      8  C   UNL     1     108.003  96.061  90.058  1.00  0.00     0.004 A 
ATOM      9  C   UNL     1     108.683  93.623  88.868  1.00  0.00     0.004 A 
ATOM     10  C   UNL     1     107.658  95.813  88.726  1.00  0.00     0.004 A 
ENDBRANCH   2   4
ENDBRANCH   1   2
BRANCH   1  11
ATOM     11  C   UNL     1     105.349  93.361  87.361  1.00  0.00     0.028 C 
BRANCH  11  12
ATOM     12  C   UNL     1     104.575  92.387  86.508  1.00  0.00    -0.028 C 
ATOM     13  C   UNL     1     103.340  91.924  86.807  1.00  0.00    -0.080 C 
ATOM     14  C   UNL     1     102.628  92.307  88.084  1.00  0.00     0.039 C 
ATOM     15  C   UNL     1     102.673  90.982  85.838  1.00  0.00     0.039 C 
ENDBRANCH  11  12
ENDBRANCH   1  11
TORSDOF 4
ENDMDL
MODEL 5
REMARK VINA RESULT:    -5.050      1.334      1.813
REMARK INTER + INTRA:          -6.874
REMARK INTER:                  -6.272
REMARK INTRA:                  -0.602
REMARK UNBOUND:                -0.643
REMARK SMILES CC(C)=CCC[C@H](C)c1ccc(C)cc1
REMARK SMILES IDX 6 1 7 2 8 3 9 4 13 5 12 6 11 7 14 8 10 9 15 10 5 11 4 12
REMARK SMILES IDX 2 13 1 14 3 15
REMARK H PARENT
REMARK Flexibility Score: inf
ROOT
ATOM      1  C   UNL     1     106.586  93.776  86.718  1.00  0.00     0.012 C 
ENDROOT
BRANCH   1   2
ATOM      2  C   UNL     1     107.550  92.909  87.558  1.00  0.00     0.016 C 
ATOM      3  C   UNL     1     108.051  93.643  88.812  1.00  0.00     0.013 C 
BRANCH   2   4
ATOM      4  C   UNL     1     108.725  92.451  86.711  1.00  0.00    -0.045 A 
ATOM      5  C   UNL     1     112.091  91.175  84.324  1.00  0.00     0.044 C 
ATOM      6  C   UNL     1     110.916  91.589  85.160  1.00  0.00    -0.051 A 
ATOM      7  C   UNL     1     111.089  91.904  86.515  1.00  0.00     0.004 A 
ATOM      8  C   UNL     1     109.649  91.731  84.576  1.00  0.00     0.004 A 
ATOM      9  C   UNL     1     110.002  92.325  87.286  1.00  0.00     0.004 A 
ATOM     10  C   UNL     1     108.561  92.152  85.346  1.00  0.00     0.004 A 
ENDBRANCH   2   4
ENDBRANCH   1   2
BRANCH   1  11
ATOM     11  C   UNL     1     105.121  93.632  87.159  1.00  0.00     0.028 C 
BRANCH  11  12
ATOM     12  C   UNL     1     104.482  92.436  86.498  1.00  0.00    -0.028 C 
ATOM     13  C   UNL     1     103.350  91.838  86.931  1.00  0.00    -0.080 C 
ATOM     14  C   UNL     1     102.631  92.291  88.180  1.00  0.00     0.039 C 
ATOM     15  C   UNL     1     102.807  90.673  86.143  1.00  0.00     0.039 C 
ENDBRANCH  11  12
ENDBRANCH   1  11
TORSDOF 4
ENDMDL
MODEL 6
REMARK VINA RESULT:    -5.018      9.299     12.645
REMARK INTER + INTRA:          -6.835
REMARK INTER:                  -6.121
REMARK INTRA:                  -0.713
REMARK UNBOUND:                -0.643
REMARK SMILES CC(C)=CCC[C@H](C)c1ccc(C)cc1
REMARK SMILES IDX 6 1 7 2 8 3 9 4 13 5 12 6 11 7 14 8 10 9 15 10 5 11 4 12
REMARK SMILES IDX 2 13 1 14 3 15
REMARK H PARENT
REMARK Flexibility Score: inf
ROOT
ATOM      1  C   UNL     1     102.913  94.011  98.084  1.00  0.00     0.012 C 
ENDROOT
BRANCH   1   2
ATOM      2  C   UNL     1     102.367  93.169  96.909  1.00  0.00     0.016 C 
ATOM      3  C   UNL     1     102.944  93.615  95.556  1.00  0.00     0.013 C 
BRANCH   2   4
ATOM      4  C   UNL     1     100.849  93.226  96.878  1.00  0.00    -0.045 A 
ATOM      5  C   UNL     1      96.536  93.412  96.760  1.00  0.00     0.044 C 
ATOM      6  C   UNL     1      98.032  93.317  96.798  1.00  0.00    -0.051 A 
ATOM      7  C   UNL     1      98.778  93.439  95.617  1.00  0.00     0.004 A 
ATOM      8  C   UNL     1      98.700  93.174  98.022  1.00  0.00     0.004 A 
ATOM      9  C   UNL     1     100.175  93.387  95.656  1.00  0.00     0.004 A 
ATOM     10  C   UNL     1     100.097  93.122  98.062  1.00  0.00     0.004 A 
ENDBRANCH   2   4
ENDBRANCH   1   2
BRANCH   1  11
ATOM     11  C   UNL     1     104.445  94.135  98.063  1.00  0.00     0.028 C 
BRANCH  11  12
ATOM     12  C   UNL     1     105.089  92.838  98.484  1.00  0.00    -0.028 C 
ATOM     13  C   UNL     1     105.880  92.084  97.689  1.00  0.00    -0.080 C 
ATOM     14  C   UNL     1     106.155  92.454  96.250  1.00  0.00     0.039 C 
ATOM     15  C   UNL     1     106.487  90.828  98.262  1.00  0.00     0.039 C 
ENDBRANCH  11  12
ENDBRANCH   1  11
TORSDOF 4
ENDMDL
MODEL 7
REMARK VINA RESULT:    -5.005      9.243     11.570
REMARK INTER + INTRA:          -6.818
REMARK INTER:                  -5.506
REMARK INTRA:                  -1.312
REMARK UNBOUND:                -0.643
REMARK SMILES CC(C)=CCC[C@H](C)c1ccc(C)cc1
REMARK SMILES IDX 6 1 7 2 8 3 9 4 13 5 12 6 11 7 14 8 10 9 15 10 5 11 4 12
REMARK SMILES IDX 2 13 1 14 3 15
REMARK H PARENT
REMARK Flexibility Score: inf
ROOT
ATOM      1  C   UNL     1      98.835  93.458  96.704  1.00  0.00     0.012 C 
ENDROOT
BRANCH   1   2
ATOM      2  C   UNL     1      99.734  92.764  97.752  1.00  0.00     0.016 C 
ATOM      3  C   UNL     1      99.010  92.553  99.091  1.00  0.00     0.013 C 
BRANCH   2   4
ATOM      4  C   UNL     1     101.011  93.559  97.964  1.00  0.00    -0.045 A 
ATOM      5  C   UNL     1     104.659  95.787  98.581  1.00  0.00     0.044 C 
ATOM      6  C   UNL     1     103.391  95.023  98.338  1.00  0.00    -0.051 A 
ATOM      7  C   UNL     1     103.441  93.682  97.930  1.00  0.00     0.004 A 
ATOM      8  C   UNL     1     102.148  95.622  98.583  1.00  0.00     0.004 A 
ATOM      9  C   UNL     1     102.261  92.958  97.738  1.00  0.00     0.004 A 
ATOM     10  C   UNL     1     100.967  94.899  98.392  1.00  0.00     0.004 A 
ENDBRANCH   2   4
ENDBRANCH   1   2
BRANCH   1  11
ATOM     11  C   UNL     1      99.269  93.159  95.260  1.00  0.00     0.028 C 
BRANCH  11  12
ATOM     12  C   UNL     1     100.216  94.220  94.759  1.00  0.00    -0.028 C 
ATOM     13  C   UNL     1     101.429  93.968  94.217  1.00  0.00    -0.080 C 
ATOM     14  C   UNL     1     101.984  92.566  94.111  1.00  0.00     0.039 C 
ATOM     15  C   UNL     1     102.251  95.131  93.723  1.00  0.00     0.039 C 
ENDBRANCH  11  12
ENDBRANCH   1  11
TORSDOF 4
ENDMDL
MODEL 8
REMARK VINA RESULT:    -4.998      2.009      2.568
REMARK INTER + INTRA:          -6.810
REMARK INTER:                  -5.959
REMARK INTRA:                  -0.851
REMARK UNBOUND:                -0.643
REMARK SMILES CC(C)=CCC[C@H](C)c1ccc(C)cc1
REMARK SMILES IDX 6 1 7 2 8 3 9 4 13 5 12 6 11 7 14 8 10 9 15 10 5 11 4 12
REMARK SMILES IDX 2 13 1 14 3 15
REMARK H PARENT
REMARK Flexibility Score: inf
ROOT
ATOM      1  C   UNL     1     105.351  94.531  88.067  1.00  0.00     0.012 C 
ENDROOT
BRANCH   1   2
ATOM      2  C   UNL     1     106.639  95.218  87.561  1.00  0.00     0.016 C 
ATOM      3  C   UNL     1     106.351  96.556  86.863  1.00  0.00     0.013 C 
BRANCH   2   4
ATOM      4  C   UNL     1     107.401  94.292  86.628  1.00  0.00    -0.045 A 
ATOM      5  C   UNL     1     109.587  91.646  84.006  1.00  0.00     0.044 C 
ATOM      6  C   UNL     1     108.801  92.553  84.906  1.00  0.00    -0.051 A 
ATOM      7  C   UNL     1     108.485  92.153  86.211  1.00  0.00     0.004 A 
ATOM      8  C   UNL     1     108.438  93.836  84.472  1.00  0.00     0.004 A 
ATOM      9  C   UNL     1     107.785  93.012  87.063  1.00  0.00     0.004 A 
ATOM     10  C   UNL     1     107.738  94.696  85.323  1.00  0.00     0.004 A 
ENDBRANCH   2   4
ENDBRANCH   1   2
BRANCH   1  11
ATOM     11  C   UNL     1     104.257  94.457  86.990  1.00  0.00     0.028 C 
BRANCH  11  12
ATOM     12  C   UNL     1     104.024  93.029  86.566  1.00  0.00    -0.028 C 
ATOM     13  C   UNL     1     103.148  92.189  87.160  1.00  0.00    -0.080 C 
ATOM     14  C   UNL     1     102.339  92.597  88.369  1.00  0.00     0.039 C 
ATOM     15  C   UNL     1     102.994  90.798  86.599  1.00  0.00     0.039 C 
ENDBRANCH  11  12
ENDBRANCH   1  11
TORSDOF 4
ENDMDL
MODEL 9
REMARK VINA RESULT:    -4.998      8.448     10.728
REMARK INTER + INTRA:          -6.809
REMARK INTER:                  -5.807
REMARK INTRA:                  -1.003
REMARK UNBOUND:                -0.643
REMARK SMILES CC(C)=CCC[C@H](C)c1ccc(C)cc1
REMARK SMILES IDX 6 1 7 2 8 3 9 4 13 5 12 6 11 7 14 8 10 9 15 10 5 11 4 12
REMARK SMILES IDX 2 13 1 14 3 15
REMARK H PARENT
REMARK Flexibility Score: inf
ROOT
ATOM      1  C   UNL     1     101.916  94.920  97.002  1.00  0.00     0.012 C 
ENDROOT
BRANCH   1   2
ATOM      2  C   UNL     1     102.391  93.473  96.740  1.00  0.00     0.016 C 
ATOM      3  C   UNL     1     103.841  93.244  97.196  1.00  0.00     0.013 C 
BRANCH   2   4
ATOM      4  C   UNL     1     102.242  93.124  95.269  1.00  0.00    -0.045 A 
ATOM      5  C   UNL     1     101.786  92.109  91.095  1.00  0.00     0.044 C 
ATOM      6  C   UNL     1     101.942  92.491  92.538  1.00  0.00    -0.051 A 
ATOM      7  C   UNL     1     100.818  92.583  93.370  1.00  0.00     0.004 A 
ATOM      8  C   UNL     1     103.219  92.692  93.081  1.00  0.00     0.004 A 
ATOM      9  C   UNL     1     100.965  92.903  94.723  1.00  0.00     0.004 A 
ATOM     10  C   UNL     1     103.368  93.012  94.433  1.00  0.00     0.004 A 
ENDBRANCH   2   4
ENDBRANCH   1   2
BRANCH   1  11
ATOM     11  C   UNL     1     100.490  94.981  97.571  1.00  0.00     0.028 C 
BRANCH  11  12
ATOM     12  C   UNL     1     100.218  93.791  98.455  1.00  0.00    -0.028 C 
ATOM     13  C   UNL     1      99.166  92.955  98.309  1.00  0.00    -0.080 C 
ATOM     14  C   UNL     1      98.108  93.175  97.253  1.00  0.00     0.039 C 
ATOM     15  C   UNL     1      99.045  91.781  99.248  1.00  0.00     0.039 C 
ENDBRANCH  11  12
ENDBRANCH   1  11
TORSDOF 4
ENDMDL
