MODEL 1
REMARK VINA RESULT:     1.974      0.000      0.000
REMARK INTER + INTRA:           2.696
REMARK INTER:                   2.666
REMARK INTRA:                   0.030
REMARK UNBOUND:                 0.030
REMARK SMILES CCCCCCC=CC(=O)[O-]
REMARK SMILES IDX 5 1 6 2 7 3 8 4 9 5 10 6 11 7 4 8 3 9 2 10 1 11
REMARK H PARENT
REMARK Flexibility Score: inf
ROOT
ATOM      1  C   UNL     1     -18.291  17.539  18.427  1.00  0.00     0.004 C 
ENDROOT
BRANCH   1   2
ATOM      2  C   UNL     1     -19.125  18.269  19.495  1.00  0.00     0.027 C 
BRANCH   2   3
ATOM      3  C   UNL     1     -18.476  18.242  20.854  1.00  0.00    -0.025 C 
ATOM      4  C   UNL     1     -18.326  19.313  21.648  1.00  0.00     0.020 C 
BRANCH   4   5
ATOM      5  C   UNL     1     -18.750  20.694  21.334  1.00  0.00     0.064 C 
ATOM      6  O   UNL     1     -19.121  21.446  22.273  1.00  0.00    -0.545 OA
ATOM      7  O   UNL     1     -18.743  21.193  20.038  1.00  0.00    -0.545 OA
ENDBRANCH   4   5
ENDBRANCH   2   3
ENDBRANCH   1   2
BRANCH   1   8
ATOM      8  C   UNL     1     -18.949  16.263  17.857  1.00  0.00     0.000 C 
BRANCH   8   9
ATOM      9  C   UNL     1     -19.119  16.239  16.327  1.00  0.00    -0.000 C 
BRANCH   9  10
ATOM     10  C   UNL     1     -19.051  17.636  15.695  1.00  0.00    -0.003 C 
ATOM     11  C   UNL     1     -19.099  17.554  14.172  1.00  0.00     0.004 C 
ENDBRANCH   9  10
ENDBRANCH   8   9
ENDBRANCH   1   8
TORSDOF 6
ENDMDL
MODEL 2
REMARK VINA RESULT:     4.209      4.952      7.085
REMARK INTER + INTRA:           5.715
REMARK INTER:                   5.887
REMARK INTRA:                  -0.172
REMARK UNBOUND:                 0.030
REMARK SMILES CCCCCCC=CC(=O)[O-]
REMARK SMILES IDX 5 1 6 2 7 3 8 4 9 5 10 6 11 7 4 8 3 9 2 10 1 11
REMARK H PARENT
REMARK Flexibility Score: inf
ROOT
ATOM      1  C   UNL     1     -19.078  22.681  18.469  1.00  0.00     0.004 C 
ENDROOT
BRANCH   1   2
ATOM      2  C   UNL     1     -18.124  23.837  18.119  1.00  0.00     0.027 C 
BRANCH   2   3
ATOM      3  C   UNL     1     -18.796  24.920  17.316  1.00  0.00    -0.025 C 
ATOM      4  C   UNL     1     -18.151  25.807  16.543  1.00  0.00     0.020 C 
BRANCH   4   5
ATOM      5  C   UNL     1     -16.687  25.891  16.352  1.00  0.00     0.064 C 
ATOM      6  O   UNL     1     -16.195  25.534  15.250  1.00  0.00    -0.545 OA
ATOM      7  O   UNL     1     -15.838  26.361  17.345  1.00  0.00    -0.545 OA
ENDBRANCH   4   5
ENDBRANCH   2   3
ENDBRANCH   1   2
BRANCH   1   8
ATOM      8  C   UNL     1     -19.119  22.310  19.967  1.00  0.00     0.000 C 
BRANCH   8   9
ATOM      9  C   UNL     1     -18.972  20.810  20.277  1.00  0.00    -0.000 C 
BRANCH   9  10
ATOM     10  C   UNL     1     -18.993  20.504  21.781  1.00  0.00    -0.003 C 
ATOM     11  C   UNL     1     -17.836  19.587  22.172  1.00  0.00     0.004 C 
ENDBRANCH   9  10
ENDBRANCH   8   9
ENDBRANCH   1   8
TORSDOF 6
ENDMDL
MODEL 3
REMARK VINA RESULT:     4.929      4.339      5.801
REMARK INTER + INTRA:           6.688
REMARK INTER:                   6.847
REMARK INTRA:                  -0.159
REMARK UNBOUND:                 0.030
REMARK SMILES CCCCCCC=CC(=O)[O-]
REMARK SMILES IDX 5 1 6 2 7 3 8 4 9 5 10 6 11 7 4 8 3 9 2 10 1 11
REMARK H PARENT
REMARK Flexibility Score: inf
ROOT
ATOM      1  C   UNL     1     -19.124  22.842  18.287  1.00  0.00     0.004 C 
ENDROOT
BRANCH   1   2
ATOM      2  C   UNL     1     -18.443  21.888  19.284  1.00  0.00     0.027 C 
BRANCH   2   3
ATOM      3  C   UNL     1     -19.108  21.891  20.635  1.00  0.00    -0.025 C 
ATOM      4  C   UNL     1     -19.125  20.847  21.478  1.00  0.00     0.020 C 
BRANCH   4   5
ATOM      5  C   UNL     1     -18.516  19.522  21.233  1.00  0.00     0.064 C 
ATOM      6  O   UNL     1     -19.024  18.769  20.362  1.00  0.00    -0.545 OA
ATOM      7  O   UNL     1     -17.394  19.085  21.926  1.00  0.00    -0.545 OA
ENDBRANCH   4   5
ENDBRANCH   2   3
ENDBRANCH   1   2
BRANCH   1   8
ATOM      8  C   UNL     1     -18.372  24.170  18.048  1.00  0.00     0.000 C 
BRANCH   8   9
ATOM      9  C   UNL     1     -18.813  24.961  16.804  1.00  0.00    -0.000 C 
BRANCH   9  10
ATOM     10  C   UNL     1     -17.841  26.090  16.436  1.00  0.00    -0.003 C 
ATOM     11  C   UNL     1     -16.411  25.569  16.320  1.00  0.00     0.004 C 
ENDBRANCH   9  10
ENDBRANCH   8   9
ENDBRANCH   1   8
TORSDOF 6
ENDMDL
