MODEL 1
REMARK VINA RESULT:    -1.595      0.000      0.000
REMARK INTER + INTRA:          -2.767
REMARK INTER:                  -2.434
REMARK INTRA:                  -0.333
REMARK UNBOUND:                -0.333
REMARK SMILES O=C([O-])CCCCCCCCC(=O)[O-]
REMARK SMILES IDX 7 1 6 2 5 3 4 4 2 5 1 6 3 7 8 8 9 9 10 10 11 11 12 12 13 13
REMARK SMILES IDX 14 14
REMARK H PARENT
REMARK Flexibility Score: inf
ROOT
ATOM      1  C   UNL     1       7.415  39.899  14.250  1.00  0.00     0.000 C 
ENDROOT
BRANCH   1   2
ATOM      2  C   UNL     1       8.223  40.932  15.049  1.00  0.00     0.000 C 
BRANCH   2   3
ATOM      3  C   UNL     1       9.081  40.248  16.121  1.00  0.00     0.006 C 
BRANCH   3   4
ATOM      4  C   UNL     1       9.120  38.732  15.910  1.00  0.00     0.053 C 
BRANCH   4   5
ATOM      5  C   UNL     1      10.407  38.325  15.267  1.00  0.00     0.041 C 
ATOM      6  O   UNL     1      11.428  38.107  15.973  1.00  0.00    -0.550 OA
ATOM      7  O   UNL     1      10.469  38.138  13.892  1.00  0.00    -0.550 OA
ENDBRANCH   4   5
ENDBRANCH   3   4
ENDBRANCH   2   3
ENDBRANCH   1   2
BRANCH   1   8
ATOM      8  C   UNL     1       6.020  39.646  14.845  1.00  0.00     0.000 C 
BRANCH   8   9
ATOM      9  C   UNL     1       5.714  38.148  15.016  1.00  0.00     0.000 C 
BRANCH   9  10
ATOM     10  C   UNL     1       4.663  37.876  16.108  1.00  0.00     0.006 C 
BRANCH  10  11
ATOM     11  C   UNL     1       3.483  38.864  16.116  1.00  0.00     0.053 C 
BRANCH  11  12
ATOM     12  C   UNL     1       2.287  38.317  15.400  1.00  0.00     0.041 C 
ATOM     13  O   UNL     1       2.268  38.274  14.141  1.00  0.00    -0.550 OA
ATOM     14  O   UNL     1       1.182  37.883  16.121  1.00  0.00    -0.550 OA
ENDBRANCH  11  12
ENDBRANCH  10  11
ENDBRANCH   9  10
ENDBRANCH   8   9
ENDBRANCH   1   8
TORSDOF 9
ENDMDL
MODEL 2
REMARK VINA RESULT:    -1.131      0.905      6.586
REMARK INTER + INTRA:          -2.058
REMARK INTER:                  -2.366
REMARK INTRA:                   0.308
REMARK UNBOUND:                -0.333
REMARK SMILES O=C([O-])CCCCCCCCC(=O)[O-]
REMARK SMILES IDX 7 1 6 2 5 3 4 4 2 5 1 6 3 7 8 8 9 9 10 10 11 11 12 12 13 13
REMARK SMILES IDX 14 14
REMARK H PARENT
REMARK Flexibility Score: inf
ROOT
ATOM      1  C   UNL     1       6.196  40.662  14.365  1.00  0.00     0.000 C 
ENDROOT
BRANCH   1   2
ATOM      2  C   UNL     1       5.155  40.186  15.389  1.00  0.00     0.000 C 
BRANCH   2   3
ATOM      3  C   UNL     1       4.576  38.823  14.989  1.00  0.00     0.006 C 
BRANCH   3   4
ATOM      4  C   UNL     1       3.544  38.342  16.013  1.00  0.00     0.053 C 
BRANCH   4   5
ATOM      5  C   UNL     1       2.224  38.102  15.353  1.00  0.00     0.041 C 
ATOM      6  O   UNL     1       2.166  37.875  14.114  1.00  0.00    -0.550 OA
ATOM      7  O   UNL     1       1.061  38.078  16.111  1.00  0.00    -0.550 OA
ENDBRANCH   4   5
ENDBRANCH   3   4
ENDBRANCH   2   3
ENDBRANCH   1   2
BRANCH   1   8
ATOM      8  C   UNL     1       7.452  41.254  15.025  1.00  0.00     0.000 C 
BRANCH   8   9
ATOM      9  C   UNL     1       8.030  40.340  16.119  1.00  0.00     0.000 C 
BRANCH   9  10
ATOM     10  C   UNL     1       7.727  38.850  15.872  1.00  0.00     0.006 C 
BRANCH  10  11
ATOM     11  C   UNL     1       8.969  37.943  15.851  1.00  0.00     0.053 C 
BRANCH  11  12
ATOM     12  C   UNL     1      10.177  38.657  15.327  1.00  0.00     0.041 C 
ATOM     13  O   UNL     1      11.129  38.941  16.100  1.00  0.00    -0.550 OA
ATOM     14  O   UNL     1      10.236  39.036  13.992  1.00  0.00    -0.550 OA
ENDBRANCH  11  12
ENDBRANCH  10  11
ENDBRANCH   9  10
ENDBRANCH   8   9
ENDBRANCH   1   8
TORSDOF 9
ENDMDL
