MODEL 1
REMARK VINA RESULT:    -1.091      0.000      0.000
REMARK INTER + INTRA:          -1.280
REMARK INTER:                  -1.187
REMARK INTRA:                  -0.093
REMARK UNBOUND:                -0.093
REMARK SMILES CC1(C)CC[C@@]2(C(=O)[O-])CC[C@]3(C)C(=CC[C@@H]4[C@@]5(C)CC[C@@H](O)C(C)(C)[C@H]5CC[C@@]43C)[C@H]2C1
REMARK SMILES IDX 6 1 5 2 10 3 32 4 4 5 11 6 14 7 33 8 2 9 12 10 15 11 1 12
REMARK SMILES IDX 3 13 13 14 30 15 16 16 17 17 29 18 31 19 18 20 28 21 27 22
REMARK SMILES IDX 20 23 19 24 24 25 21 26 22 27 25 28 26 29 7 30 8 31 9 32
REMARK SMILES IDX 23 33
REMARK H PARENT 23 34
REMARK Flexibility Score: inf
ROOT
ATOM      1  C   UNL     1       8.302  16.558 -19.918  1.00  0.00     0.017 C 
ATOM      2  C   UNL     1       8.246  17.543 -21.150  1.00  0.00     0.014 C 
ATOM      3  C   UNL     1       6.923  15.943 -19.608  1.00  0.00     0.014 C 
ATOM      4  C   UNL     1       9.285  15.366 -20.163  1.00  0.00     0.028 C 
ATOM      5  C   UNL     1       9.249  17.166 -22.263  1.00  0.00     0.007 C 
ATOM      6  C   UNL     1       6.875  14.934 -18.413  1.00  0.00     0.013 C 
ATOM      7  C   UNL     1       9.251  14.311 -19.048  1.00  0.00    -0.064 C 
ATOM      8  C   UNL     1       9.078  14.695 -21.562  1.00  0.00     0.015 C 
ATOM      9  C   UNL     1       9.037  15.718 -22.743  1.00  0.00    -0.035 C 
ATOM     10  C   UNL     1       8.248  14.316 -17.902  1.00  0.00    -0.006 C 
ATOM     11  C   UNL     1      10.255  13.423 -19.072  1.00  0.00    -0.027 C 
ATOM     12  C   UNL     1      10.136  15.399 -23.808  1.00  0.00     0.011 C 
ATOM     13  C   UNL     1       7.682  15.618 -23.448  1.00  0.00     0.011 C 
ATOM     14  C   UNL     1       8.810  15.278 -16.767  1.00  0.00     0.017 C 
ATOM     15  C   UNL     1       8.069  12.840 -17.251  1.00  0.00    -0.020 C 
ATOM     16  C   UNL     1      10.451  12.351 -18.051  1.00  0.00     0.032 C 
ATOM     17  C   UNL     1       9.510  12.353 -16.811  1.00  0.00     0.006 C 
ATOM     18  C   UNL     1       7.574  11.742 -18.261  1.00  0.00     0.008 C 
ATOM     19  C   UNL     1       7.023  12.962 -16.085  1.00  0.00     0.012 C 
ATOM     20  C   UNL     1       9.614  10.962 -16.065  1.00  0.00    -0.025 C 
ATOM     21  C   UNL     1       7.491  10.337 -17.622  1.00  0.00     0.005 C 
ATOM     22  C   UNL     1       8.757   9.849 -16.818  1.00  0.00     0.003 C 
ATOM     23  C   UNL     1       9.236  11.116 -14.578  1.00  0.00     0.010 C 
ATOM     24  C   UNL     1      11.110  10.530 -16.050  1.00  0.00     0.012 C 
ATOM     25  C   UNL     1       8.486   8.538 -15.937  1.00  0.00    -0.006 C 
ATOM     26  C   UNL     1       9.189   9.800 -13.816  1.00  0.00     0.033 C 
ATOM     27  C   UNL     1       8.181   8.857 -14.429  1.00  0.00     0.120 C 
ATOM     28  C   UNL     1       9.708   7.560 -16.034  1.00  0.00     0.014 C 
ATOM     29  C   UNL     1       7.269   7.728 -16.487  1.00  0.00     0.014 C 
ENDROOT
BRANCH   1  30
ATOM     30  C   UNL     1       8.758  17.407 -18.779  1.00  0.00     0.048 C 
ATOM     31  O   UNL     1       7.931  18.105 -18.098  1.00  0.00    -0.550 OA
ATOM     32  O   UNL     1      10.130  17.658 -18.629  1.00  0.00    -0.550 OA
ENDBRANCH   1  30
BRANCH  27  33
ATOM     33  O   UNL     1       6.875   9.381 -14.225  1.00  0.00    -0.393 OA
ATOM     34  H   UNL     1       6.956  10.219 -13.711  1.00  0.00     0.210 HD
ENDBRANCH  27  33
TORSDOF 2
ENDMDL
MODEL 2
REMARK VINA RESULT:     0.939      1.898      8.064
REMARK INTER + INTRA:           0.929
REMARK INTER:                   0.891
REMARK INTRA:                   0.038
REMARK UNBOUND:                -0.093
REMARK SMILES CC1(C)CC[C@@]2(C(=O)[O-])CC[C@]3(C)C(=CC[C@@H]4[C@@]5(C)CC[C@@H](O)C(C)(C)[C@H]5CC[C@@]43C)[C@H]2C1
REMARK SMILES IDX 6 1 5 2 10 3 32 4 4 5 11 6 14 7 33 8 2 9 12 10 15 11 1 12
REMARK SMILES IDX 3 13 13 14 30 15 16 16 17 17 29 18 31 19 18 20 28 21 27 22
REMARK SMILES IDX 20 23 19 24 24 25 21 26 22 27 25 28 26 29 7 30 8 31 9 32
REMARK SMILES IDX 23 33
REMARK H PARENT 23 34
REMARK Flexibility Score: inf
ROOT
ATOM      1  C   UNL     1       8.220   9.054 -16.890  1.00  0.00     0.017 C 
ATOM      2  C   UNL     1       8.019   7.794 -15.961  1.00  0.00     0.014 C 
ATOM      3  C   UNL     1       6.875   9.674 -17.319  1.00  0.00     0.014 C 
ATOM      4  C   UNL     1       9.035  10.184 -16.181  1.00  0.00     0.028 C 
ATOM      5  C   UNL     1       8.762   7.922 -14.612  1.00  0.00     0.007 C 
ATOM      6  C   UNL     1       6.964  10.944 -18.228  1.00  0.00     0.013 C 
ATOM      7  C   UNL     1       9.119  11.480 -17.001  1.00  0.00    -0.064 C 
ATOM      8  C   UNL     1       8.516  10.481 -14.735  1.00  0.00     0.015 C 
ATOM      9  C   UNL     1       8.342   9.198 -13.859  1.00  0.00    -0.035 C 
ATOM     10  C   UNL     1       8.351  11.720 -18.294  1.00  0.00    -0.006 C 
ATOM     11  C   UNL     1      10.022  12.371 -16.568  1.00  0.00    -0.027 C 
ATOM     12  C   UNL     1       9.193   9.285 -12.550  1.00  0.00     0.011 C 
ATOM     13  C   UNL     1       6.877   9.071 -13.437  1.00  0.00     0.011 C 
ATOM     14  C   UNL     1       9.194  11.088 -19.486  1.00  0.00     0.017 C 
ATOM     15  C   UNL     1       8.171  13.303 -18.603  1.00  0.00    -0.020 C 
ATOM     16  C   UNL     1      10.313  13.668 -17.249  1.00  0.00     0.032 C 
ATOM     17  C   UNL     1       9.622  13.937 -18.618  1.00  0.00     0.006 C 
ATOM     18  C   UNL     1       7.406  14.099 -17.484  1.00  0.00     0.008 C 
ATOM     19  C   UNL     1       7.374  13.434 -19.951  1.00  0.00     0.012 C 
ATOM     20  C   UNL     1       9.744  15.471 -18.980  1.00  0.00    -0.025 C 
ATOM     21  C   UNL     1       7.324  15.614 -17.779  1.00  0.00     0.005 C 
ATOM     22  C   UNL     1       8.670  16.332 -18.175  1.00  0.00     0.003 C 
ATOM     23  C   UNL     1       9.663  15.675 -20.507  1.00  0.00     0.010 C 
ATOM     24  C   UNL     1      11.175  15.949 -18.593  1.00  0.00     0.012 C 
ATOM     25  C   UNL     1       8.458  17.809 -18.761  1.00  0.00    -0.006 C 
ATOM     26  C   UNL     1       9.647  17.135 -20.933  1.00  0.00     0.033 C 
ATOM     27  C   UNL     1       8.466  17.860 -20.331  1.00  0.00     0.120 C 
ATOM     28  C   UNL     1       9.553  18.777 -18.194  1.00  0.00     0.014 C 
ATOM     29  C   UNL     1       7.095  18.412 -18.292  1.00  0.00     0.014 C 
ENDROOT
BRANCH   1  30
ATOM     30  C   UNL     1       8.949   8.529 -18.081  1.00  0.00     0.048 C 
ATOM     31  O   UNL     1       8.373   7.770 -18.933  1.00  0.00    -0.550 OA
ATOM     32  O   UNL     1      10.348   8.641 -18.121  1.00  0.00    -0.550 OA
ENDBRANCH   1  30
BRANCH  27  33
ATOM     33  O   UNL     1       7.270  17.354 -20.910  1.00  0.00    -0.393 OA
ATOM     34  H   UNL     1       7.399  17.303 -21.886  1.00  0.00     0.210 HD
ENDBRANCH  27  33
TORSDOF 2
ENDMDL
