MODEL 1
REMARK VINA RESULT:    -4.698      0.000      0.000
REMARK INTER + INTRA:          -8.478
REMARK INTER:                  -7.170
REMARK INTRA:                  -1.307
REMARK UNBOUND:                -1.307
REMARK SMILES OC[C@@H]1O[C@@H](O[C@]2(CO)O[C@H](CO)[C@@H](O)[C@@H]2O)[C@@H](O)[C@@H](O)[C@H]1O
REMARK SMILES IDX 6 1 5 2 3 3 22 4 4 5 20 6 18 7 2 8 1 9 23 11 21 13 19 15
REMARK SMILES IDX 7 17 16 18 10 19 14 20 11 21 8 22 9 23 17 25 15 27 12 29
REMARK SMILES IDX 13 30
REMARK H PARENT 1 10 23 12 21 14 19 16 9 24 17 26 15 28 13 31
REMARK Flexibility Score: inf
ROOT
ATOM      1  O   UNL     1       2.152  46.807   9.355  1.00  0.00    -0.313 OA
ENDROOT
BRANCH   1   2
ATOM      2  C   UNL     1       2.081  47.105   7.963  1.00  0.00     0.285 C 
ATOM      3  C   UNL     1       3.699  48.805   8.171  1.00  0.00     0.178 C 
ATOM      4  C   UNL     1       2.692  49.943   7.874  1.00  0.00     0.177 C 
ATOM      5  O   UNL     1       3.317  47.618   7.493  1.00  0.00    -0.341 OA
ATOM      6  C   UNL     1       1.249  49.512   8.218  1.00  0.00     0.179 C 
ATOM      7  C   UNL     1       0.940  48.106   7.669  1.00  0.00     0.202 C 
BRANCH   3   8
ATOM      8  C   UNL     1       5.115  49.174   7.699  1.00  0.00     0.191 C 
BRANCH   8   9
ATOM      9  O   UNL     1       6.094  48.494   8.439  1.00  0.00    -0.394 OA
ATOM     10  H   UNL     1       5.782  48.482   9.381  1.00  0.00     0.210 HD
ENDBRANCH   8   9
ENDBRANCH   3   8
BRANCH   4  11
ATOM     11  O   UNL     1       3.035  51.095   8.602  1.00  0.00    -0.387 OA
ATOM     12  H   UNL     1       3.724  50.822   9.264  1.00  0.00     0.211 HD
ENDBRANCH   4  11
BRANCH   6  13
ATOM     13  O   UNL     1       0.974  49.606   9.597  1.00  0.00    -0.387 OA
ATOM     14  H   UNL     1       0.281  48.940   9.829  1.00  0.00     0.211 HD
ENDBRANCH   6  13
BRANCH   7  15
ATOM     15  O   UNL     1      -0.276  47.646   8.199  1.00  0.00    -0.385 OA
ATOM     16  H   UNL     1      -0.315  46.669   8.025  1.00  0.00     0.211 HD
ENDBRANCH   7  15
ENDBRANCH   1   2
BRANCH   1  17
ATOM     17  C   UNL     1       2.256  45.424   9.695  1.00  0.00     0.224 C 
ATOM     18  C   UNL     1       3.637  44.802   9.360  1.00  0.00     0.208 C 
ATOM     19  O   UNL     1       2.135  45.348  11.101  1.00  0.00    -0.337 OA
ATOM     20  C   UNL     1       3.852  43.784  10.462  1.00  0.00     0.180 C 
ATOM     21  C   UNL     1       2.858  44.220  11.550  1.00  0.00     0.179 C 
BRANCH  17  22
ATOM     22  C   UNL     1       1.061  44.620   9.100  1.00  0.00     0.225 C 
BRANCH  22  23
ATOM     23  O   UNL     1       1.477  43.650   8.178  1.00  0.00    -0.391 OA
ATOM     24  H   UNL     1       2.327  43.983   7.790  1.00  0.00     0.210 HD
ENDBRANCH  22  23
ENDBRANCH  17  22
BRANCH  18  25
ATOM     25  O   UNL     1       4.673  45.757   9.379  1.00  0.00    -0.385 OA
ATOM     26  H   UNL     1       4.631  46.247  10.241  1.00  0.00     0.211 HD
ENDBRANCH  18  25
BRANCH  20  27
ATOM     27  O   UNL     1       3.537  42.499   9.992  1.00  0.00    -0.387 OA
ATOM     28  H   UNL     1       4.240  41.891  10.340  1.00  0.00     0.211 HD
ENDBRANCH  20  27
BRANCH  21  29
ATOM     29  C   UNL     1       3.544  44.541  12.883  1.00  0.00     0.191 C 
BRANCH  29  30
ATOM     30  O   UNL     1       4.836  45.036  12.665  1.00  0.00    -0.394 OA
ATOM     31  H   UNL     1       4.745  46.022  12.603  1.00  0.00     0.210 HD
ENDBRANCH  29  30
ENDBRANCH  21  29
ENDBRANCH   1  17
TORSDOF 13
ENDMDL
MODEL 2
REMARK VINA RESULT:    -4.537      1.228      5.625
REMARK INTER + INTRA:          -8.232
REMARK INTER:                  -7.096
REMARK INTRA:                  -1.136
REMARK UNBOUND:                -1.307
REMARK SMILES OC[C@@H]1O[C@@H](O[C@]2(CO)O[C@H](CO)[C@@H](O)[C@@H]2O)[C@@H](O)[C@@H](O)[C@H]1O
REMARK SMILES IDX 6 1 5 2 3 3 22 4 4 5 20 6 18 7 2 8 1 9 23 11 21 13 19 15
REMARK SMILES IDX 7 17 16 18 10 19 14 20 11 21 8 22 9 23 17 25 15 27 12 29
REMARK SMILES IDX 13 30
REMARK H PARENT 1 10 23 12 21 14 19 16 9 24 17 26 15 28 13 31
REMARK Flexibility Score: inf
ROOT
ATOM      1  O   UNL     1       2.408  45.974   8.803  1.00  0.00    -0.313 OA
ENDROOT
BRANCH   1   2
ATOM      2  C   UNL     1       1.525  45.158   9.569  1.00  0.00     0.285 C 
ATOM      3  C   UNL     1       3.221  44.660  11.126  1.00  0.00     0.178 C 
ATOM      4  C   UNL     1       3.307  43.170  10.714  1.00  0.00     0.177 C 
ATOM      5  O   UNL     1       1.902  45.150  10.936  1.00  0.00    -0.341 OA
ATOM      6  C   UNL     1       2.811  42.966   9.265  1.00  0.00     0.179 C 
ATOM      7  C   UNL     1       1.487  43.714   9.017  1.00  0.00     0.202 C 
BRANCH   3   8
ATOM      8  C   UNL     1       3.577  44.851  12.610  1.00  0.00     0.191 C 
BRANCH   8   9
ATOM      9  O   UNL     1       4.965  44.904  12.800  1.00  0.00    -0.394 OA
ATOM     10  H   UNL     1       5.307  45.618  12.202  1.00  0.00     0.210 HD
ENDBRANCH   8   9
ENDBRANCH   3   8
BRANCH   4  11
ATOM     11  O   UNL     1       4.628  42.709  10.838  1.00  0.00    -0.387 OA
ATOM     12  H   UNL     1       4.924  42.438   9.930  1.00  0.00     0.211 HD
ENDBRANCH   4  11
BRANCH   6  13
ATOM     13  O   UNL     1       3.790  43.305   8.309  1.00  0.00    -0.387 OA
ATOM     14  H   UNL     1       4.626  42.823   8.526  1.00  0.00     0.211 HD
ENDBRANCH   6  13
BRANCH   7  15
ATOM     15  O   UNL     1       1.192  43.713   7.644  1.00  0.00    -0.385 OA
ATOM     16  H   UNL     1       0.248  44.007   7.552  1.00  0.00     0.211 HD
ENDBRANCH   7  15
ENDBRANCH   1   2
BRANCH   1  17
ATOM     17  C   UNL     1       1.839  47.160   8.248  1.00  0.00     0.224 C 
ATOM     18  C   UNL     1       1.435  48.215   9.310  1.00  0.00     0.208 C 
ATOM     19  O   UNL     1       2.856  47.767   7.477  1.00  0.00    -0.337 OA
ATOM     20  C   UNL     1       1.697  49.540   8.624  1.00  0.00     0.180 C 
ATOM     21  C   UNL     1       2.634  49.163   7.466  1.00  0.00     0.179 C 
BRANCH  17  22
ATOM     22  C   UNL     1       0.684  46.808   7.263  1.00  0.00     0.225 C 
BRANCH  22  23
ATOM     23  O   UNL     1      -0.560  47.273   7.712  1.00  0.00    -0.391 OA
ATOM     24  H   UNL     1      -0.374  47.842   8.503  1.00  0.00     0.210 HD
ENDBRANCH  22  23
ENDBRANCH  17  22
BRANCH  18  25
ATOM     25  O   UNL     1       2.211  48.120  10.482  1.00  0.00    -0.385 OA
ATOM     26  H   UNL     1       2.093  48.954  11.005  1.00  0.00     0.211 HD
ENDBRANCH  18  25
BRANCH  20  27
ATOM     27  O   UNL     1       0.493  50.068   8.132  1.00  0.00    -0.387 OA
ATOM     28  H   UNL     1       0.506  49.932   7.148  1.00  0.00     0.211 HD
ENDBRANCH  20  27
BRANCH  21  29
ATOM     29  C   UNL     1       3.976  49.902   7.526  1.00  0.00     0.191 C 
BRANCH  29  30
ATOM     30  O   UNL     1       4.998  49.034   7.933  1.00  0.00    -0.394 OA
ATOM     31  H   UNL     1       5.398  49.442   8.744  1.00  0.00     0.210 HD
ENDBRANCH  29  30
ENDBRANCH  21  29
ENDBRANCH   1  17
TORSDOF 13
ENDMDL
MODEL 3
REMARK VINA RESULT:    -4.348      1.431      5.837
REMARK INTER + INTRA:          -7.943
REMARK INTER:                  -6.749
REMARK INTRA:                  -1.194
REMARK UNBOUND:                -1.307
REMARK SMILES OC[C@@H]1O[C@@H](O[C@]2(CO)O[C@H](CO)[C@@H](O)[C@@H]2O)[C@@H](O)[C@@H](O)[C@H]1O
REMARK SMILES IDX 6 1 5 2 3 3 22 4 4 5 20 6 18 7 2 8 1 9 23 11 21 13 19 15
REMARK SMILES IDX 7 17 16 18 10 19 14 20 11 21 8 22 9 23 17 25 15 27 12 29
REMARK SMILES IDX 13 30
REMARK H PARENT 1 10 23 12 21 14 19 16 9 24 17 26 15 28 13 31
REMARK Flexibility Score: inf
ROOT
ATOM      1  O   UNL     1       1.946  46.829   9.567  1.00  0.00    -0.313 OA
ENDROOT
BRANCH   1   2
ATOM      2  C   UNL     1       2.337  45.502   9.223  1.00  0.00     0.285 C 
ATOM      3  C   UNL     1       1.707  44.690  11.343  1.00  0.00     0.178 C 
ATOM      4  C   UNL     1       3.162  44.386  11.775  1.00  0.00     0.177 C 
ATOM      5  O   UNL     1       1.568  44.548   9.937  1.00  0.00    -0.341 OA
ATOM      6  C   UNL     1       4.167  45.265  10.996  1.00  0.00     0.179 C 
ATOM      7  C   UNL     1       3.843  45.282   9.490  1.00  0.00     0.202 C 
BRANCH   3   8
ATOM      8  C   UNL     1       0.713  43.723  12.008  1.00  0.00     0.191 C 
BRANCH   8   9
ATOM      9  O   UNL     1       1.378  42.727  12.736  1.00  0.00    -0.394 OA
ATOM     10  H   UNL     1       1.836  43.182  13.490  1.00  0.00     0.210 HD
ENDBRANCH   8   9
ENDBRANCH   3   8
BRANCH   4  11
ATOM     11  O   UNL     1       3.311  44.596  13.156  1.00  0.00    -0.387 OA
ATOM     12  H   UNL     1       3.591  45.542  13.274  1.00  0.00     0.211 HD
ENDBRANCH   4  11
BRANCH   6  13
ATOM     13  O   UNL     1       4.265  46.567  11.525  1.00  0.00    -0.387 OA
ATOM     14  H   UNL     1       5.100  46.983  11.196  1.00  0.00     0.211 HD
ENDBRANCH   6  13
BRANCH   7  15
ATOM     15  O   UNL     1       4.611  46.269   8.852  1.00  0.00    -0.385 OA
ATOM     16  H   UNL     1       4.919  45.883   7.990  1.00  0.00     0.211 HD
ENDBRANCH   7  15
ENDBRANCH   1   2
BRANCH   1  17
ATOM     17  C   UNL     1       1.673  47.705   8.472  1.00  0.00     0.224 C 
ATOM     18  C   UNL     1       1.100  49.081   8.901  1.00  0.00     0.208 C 
ATOM     19  O   UNL     1       2.918  47.983   7.865  1.00  0.00    -0.337 OA
ATOM     20  C   UNL     1       1.672  50.045   7.882  1.00  0.00     0.180 C 
ATOM     21  C   UNL     1       2.848  49.266   7.274  1.00  0.00     0.179 C 
BRANCH  17  22
ATOM     22  C   UNL     1       0.804  46.986   7.397  1.00  0.00     0.225 C 
BRANCH  22  23
ATOM     23  O   UNL     1      -0.393  47.667   7.137  1.00  0.00    -0.391 OA
ATOM     24  H   UNL     1      -1.123  47.011   7.280  1.00  0.00     0.210 HD
ENDBRANCH  22  23
ENDBRANCH  17  22
BRANCH  18  25
ATOM     25  O   UNL     1       1.511  49.451  10.197  1.00  0.00    -0.385 OA
ATOM     26  H   UNL     1       2.254  48.854  10.472  1.00  0.00     0.211 HD
ENDBRANCH  18  25
BRANCH  20  27
ATOM     27  O   UNL     1       0.708  50.328   6.901  1.00  0.00    -0.387 OA
ATOM     28  H   UNL     1      -0.160  50.415   7.375  1.00  0.00     0.211 HD
ENDBRANCH  20  27
BRANCH  21  29
ATOM     29  C   UNL     1       4.189  49.989   7.446  1.00  0.00     0.191 C 
BRANCH  29  30
ATOM     30  O   UNL     1       5.141  49.132   8.014  1.00  0.00    -0.394 OA
ATOM     31  H   UNL     1       5.811  48.956   7.303  1.00  0.00     0.210 HD
ENDBRANCH  29  30
ENDBRANCH  21  29
ENDBRANCH   1  17
TORSDOF 13
ENDMDL
MODEL 4
REMARK VINA RESULT:    -4.146      1.213      2.733
REMARK INTER + INTRA:          -7.635
REMARK INTER:                  -6.294
REMARK INTRA:                  -1.341
REMARK UNBOUND:                -1.307
REMARK SMILES OC[C@@H]1O[C@@H](O[C@]2(CO)O[C@H](CO)[C@@H](O)[C@@H]2O)[C@@H](O)[C@@H](O)[C@H]1O
REMARK SMILES IDX 6 1 5 2 3 3 22 4 4 5 20 6 18 7 2 8 1 9 23 11 21 13 19 15
REMARK SMILES IDX 7 17 16 18 10 19 14 20 11 21 8 22 9 23 17 25 15 27 12 29
REMARK SMILES IDX 13 30
REMARK H PARENT 1 10 23 12 21 14 19 16 9 24 17 26 15 28 13 31
REMARK Flexibility Score: inf
ROOT
ATOM      1  O   UNL     1       2.458  46.266   8.654  1.00  0.00    -0.313 OA
ENDROOT
BRANCH   1   2
ATOM      2  C   UNL     1       2.654  47.344   9.567  1.00  0.00     0.285 C 
ATOM      3  C   UNL     1       1.358  48.796   8.241  1.00  0.00     0.178 C 
ATOM      4  C   UNL     1       2.565  49.679   7.842  1.00  0.00     0.177 C 
ATOM      5  O   UNL     1       1.556  48.241   9.532  1.00  0.00    -0.341 OA
ATOM      6  C   UNL     1       3.889  48.887   7.940  1.00  0.00     0.179 C 
ATOM      7  C   UNL     1       3.969  48.096   9.260  1.00  0.00     0.202 C 
BRANCH   3   8
ATOM      8  C   UNL     1       0.056  49.616   8.283  1.00  0.00     0.191 C 
BRANCH   8   9
ATOM      9  O   UNL     1      -0.393  49.927   6.992  1.00  0.00    -0.394 OA
ATOM     10  H   UNL     1      -1.363  50.127   7.069  1.00  0.00     0.210 HD
ENDBRANCH   8   9
ENDBRANCH   3   8
BRANCH   4  11
ATOM     11  O   UNL     1       2.396  50.170   6.537  1.00  0.00    -0.387 OA
ATOM     12  H   UNL     1       2.087  49.407   5.981  1.00  0.00     0.211 HD
ENDBRANCH   4  11
BRANCH   6  13
ATOM     13  O   UNL     1       4.103  48.058   6.821  1.00  0.00    -0.387 OA
ATOM     14  H   UNL     1       4.218  47.126   7.132  1.00  0.00     0.211 HD
ENDBRANCH   6  13
BRANCH   7  15
ATOM     15  O   UNL     1       5.053  47.205   9.214  1.00  0.00    -0.385 OA
ATOM     16  H   UNL     1       5.750  47.568   9.822  1.00  0.00     0.211 HD
ENDBRANCH   7  15
ENDBRANCH   1   2
BRANCH   1  17
ATOM     17  C   UNL     1       2.192  44.991   9.240  1.00  0.00     0.224 C 
ATOM     18  C   UNL     1       3.335  43.962   9.040  1.00  0.00     0.208 C 
ATOM     19  O   UNL     1       2.108  45.202  10.634  1.00  0.00    -0.337 OA
ATOM     20  C   UNL     1       3.305  43.136  10.311  1.00  0.00     0.180 C 
ATOM     21  C   UNL     1       2.511  44.016  11.289  1.00  0.00     0.179 C 
BRANCH  17  22
ATOM     22  C   UNL     1       0.800  44.457   8.786  1.00  0.00     0.225 C 
BRANCH  22  23
ATOM     23  O   UNL     1       0.618  44.554   7.399  1.00  0.00    -0.391 OA
ATOM     24  H   UNL     1       0.689  43.630   7.045  1.00  0.00     0.210 HD
ENDBRANCH  22  23
ENDBRANCH  17  22
BRANCH  18  25
ATOM     25  O   UNL     1       4.593  44.580   8.899  1.00  0.00    -0.385 OA
ATOM     26  H   UNL     1       4.915  44.844   9.800  1.00  0.00     0.211 HD
ENDBRANCH  18  25
BRANCH  20  27
ATOM     27  O   UNL     1       2.631  41.927  10.077  1.00  0.00    -0.387 OA
ATOM     28  H   UNL     1       2.527  41.848   9.092  1.00  0.00     0.211 HD
ENDBRANCH  20  27
BRANCH  21  29
ATOM     29  C   UNL     1       3.309  44.366  12.550  1.00  0.00     0.191 C 
BRANCH  29  30
ATOM     30  O   UNL     1       4.492  45.038  12.214  1.00  0.00    -0.394 OA
ATOM     31  H   UNL     1       5.221  44.569  12.697  1.00  0.00     0.210 HD
ENDBRANCH  29  30
ENDBRANCH  21  29
ENDBRANCH   1  17
TORSDOF 13
ENDMDL
MODEL 5
REMARK VINA RESULT:    -3.819      1.723      5.854
REMARK INTER + INTRA:          -7.136
REMARK INTER:                  -6.331
REMARK INTRA:                  -0.805
REMARK UNBOUND:                -1.307
REMARK SMILES OC[C@@H]1O[C@@H](O[C@]2(CO)O[C@H](CO)[C@@H](O)[C@@H]2O)[C@@H](O)[C@@H](O)[C@H]1O
REMARK SMILES IDX 6 1 5 2 3 3 22 4 4 5 20 6 18 7 2 8 1 9 23 11 21 13 19 15
REMARK SMILES IDX 7 17 16 18 10 19 14 20 11 21 8 22 9 23 17 25 15 27 12 29
REMARK SMILES IDX 13 30
REMARK H PARENT 1 10 23 12 21 14 19 16 9 24 17 26 15 28 13 31
REMARK Flexibility Score: inf
ROOT
ATOM      1  O   UNL     1       1.292  45.359   9.641  1.00  0.00    -0.313 OA
ENDROOT
BRANCH   1   2
ATOM      2  C   UNL     1       2.186  44.263   9.461  1.00  0.00     0.285 C 
ATOM      3  C   UNL     1       2.002  43.649  11.728  1.00  0.00     0.178 C 
ATOM      4  C   UNL     1       3.464  44.036  12.060  1.00  0.00     0.177 C 
ATOM      5  O   UNL     1       1.898  43.220  10.378  1.00  0.00    -0.341 OA
ATOM      6  C   UNL     1       3.997  45.095  11.068  1.00  0.00     0.179 C 
ATOM      7  C   UNL     1       3.656  44.718   9.613  1.00  0.00     0.202 C 
BRANCH   3   8
ATOM      8  C   UNL     1       1.513  42.495  12.619  1.00  0.00     0.191 C 
BRANCH   8   9
ATOM      9  O   UNL     1       0.302  42.813  13.249  1.00  0.00    -0.394 OA
ATOM     10  H   UNL     1       0.370  42.482  14.182  1.00  0.00     0.210 HD
ENDBRANCH   8   9
ENDBRANCH   3   8
BRANCH   4  11
ATOM     11  O   UNL     1       3.549  44.524  13.374  1.00  0.00    -0.387 OA
ATOM     12  H   UNL     1       3.917  45.445  13.315  1.00  0.00     0.211 HD
ENDBRANCH   4  11
BRANCH   6  13
ATOM     13  O   UNL     1       3.562  46.396  11.387  1.00  0.00    -0.387 OA
ATOM     14  H   UNL     1       4.340  46.925  11.694  1.00  0.00     0.211 HD
ENDBRANCH   6  13
BRANCH   7  15
ATOM     15  O   UNL     1       3.932  45.804   8.766  1.00  0.00    -0.385 OA
ATOM     16  H   UNL     1       4.792  45.603   8.312  1.00  0.00     0.211 HD
ENDBRANCH   7  15
ENDBRANCH   1   2
BRANCH   1  17
ATOM     17  C   UNL     1       0.810  45.976   8.446  1.00  0.00     0.224 C 
ATOM     18  C   UNL     1      -0.534  46.728   8.630  1.00  0.00     0.208 C 
ATOM     19  O   UNL     1       1.756  46.967   8.100  1.00  0.00    -0.337 OA
ATOM     20  C   UNL     1      -0.423  47.906   7.684  1.00  0.00     0.180 C 
ATOM     21  C   UNL     1       1.086  48.001   7.407  1.00  0.00     0.179 C 
BRANCH  17  22
ATOM     22  C   UNL     1       0.786  44.954   7.270  1.00  0.00     0.225 C 
BRANCH  22  23
ATOM     23  O   UNL     1      -0.498  44.787   6.735  1.00  0.00    -0.391 OA
ATOM     24  H   UNL     1      -0.662  43.809   6.705  1.00  0.00     0.210 HD
ENDBRANCH  22  23
ENDBRANCH  17  22
BRANCH  18  25
ATOM     25  O   UNL     1      -0.714  47.187   9.950  1.00  0.00    -0.385 OA
ATOM     26  H   UNL     1      -0.737  48.179   9.935  1.00  0.00     0.211 HD
ENDBRANCH  18  25
BRANCH  20  27
ATOM     27  O   UNL     1      -1.125  47.632   6.499  1.00  0.00    -0.387 OA
ATOM     28  H   UNL     1      -1.122  46.645   6.391  1.00  0.00     0.211 HD
ENDBRANCH  20  27
BRANCH  21  29
ATOM     29  C   UNL     1       1.675  49.359   7.805  1.00  0.00     0.191 C 
BRANCH  29  30
ATOM     30  O   UNL     1       1.510  49.584   9.178  1.00  0.00    -0.394 OA
ATOM     31  H   UNL     1       2.065  50.378   9.394  1.00  0.00     0.210 HD
ENDBRANCH  29  30
ENDBRANCH  21  29
ENDBRANCH   1  17
TORSDOF 13
ENDMDL
MODEL 6
REMARK VINA RESULT:    -3.750      2.196      5.986
REMARK INTER + INTRA:          -7.031
REMARK INTER:                  -6.352
REMARK INTRA:                  -0.678
REMARK UNBOUND:                -1.307
REMARK SMILES OC[C@@H]1O[C@@H](O[C@]2(CO)O[C@H](CO)[C@@H](O)[C@@H]2O)[C@@H](O)[C@@H](O)[C@H]1O
REMARK SMILES IDX 6 1 5 2 3 3 22 4 4 5 20 6 18 7 2 8 1 9 23 11 21 13 19 15
REMARK SMILES IDX 7 17 16 18 10 19 14 20 11 21 8 22 9 23 17 25 15 27 12 29
REMARK SMILES IDX 13 30
REMARK H PARENT 1 10 23 12 21 14 19 16 9 24 17 26 15 28 13 31
REMARK Flexibility Score: inf
ROOT
ATOM      1  O   UNL     1       1.675  45.843   9.928  1.00  0.00    -0.313 OA
ENDROOT
BRANCH   1   2
ATOM      2  C   UNL     1       2.307  44.638   9.502  1.00  0.00     0.285 C 
ATOM      3  C   UNL     1       2.276  43.764  11.690  1.00  0.00     0.178 C 
ATOM      4  C   UNL     1       3.815  43.830  11.850  1.00  0.00     0.177 C 
ATOM      5  O   UNL     1       1.929  43.550  10.330  1.00  0.00    -0.341 OA
ATOM      6  C   UNL     1       4.425  44.900  10.916  1.00  0.00     0.179 C 
ATOM      7  C   UNL     1       3.844  44.793   9.492  1.00  0.00     0.202 C 
BRANCH   3   8
ATOM      8  C   UNL     1       1.678  42.608  12.509  1.00  0.00     0.191 C 
BRANCH   8   9
ATOM      9  O   UNL     1       0.396  42.925  12.980  1.00  0.00    -0.394 OA
ATOM     10  H   UNL     1       0.502  43.694  13.599  1.00  0.00     0.210 HD
ENDBRANCH   8   9
ENDBRANCH   3   8
BRANCH   4  11
ATOM     11  O   UNL     1       4.151  44.111  13.185  1.00  0.00    -0.387 OA
ATOM     12  H   UNL     1       5.123  43.931  13.280  1.00  0.00     0.211 HD
ENDBRANCH   4  11
BRANCH   6  13
ATOM     13  O   UNL     1       4.298  46.203  11.436  1.00  0.00    -0.387 OA
ATOM     14  H   UNL     1       5.191  46.520  11.721  1.00  0.00     0.211 HD
ENDBRANCH   6  13
BRANCH   7  15
ATOM     15  O   UNL     1       4.227  45.915   8.740  1.00  0.00    -0.385 OA
ATOM     16  H   UNL     1       3.745  45.859   7.873  1.00  0.00     0.211 HD
ENDBRANCH   7  15
ENDBRANCH   1   2
BRANCH   1  17
ATOM     17  C   UNL     1       0.554  46.270   9.154  1.00  0.00     0.224 C 
ATOM     18  C   UNL     1       0.912  47.306   8.056  1.00  0.00     0.208 C 
ATOM     19  O   UNL     1       0.088  45.129   8.463  1.00  0.00    -0.337 OA
ATOM     20  C   UNL     1      -0.040  46.977   6.924  1.00  0.00     0.180 C 
ATOM     21  C   UNL     1      -0.510  45.552   7.255  1.00  0.00     0.179 C 
BRANCH  17  22
ATOM     22  C   UNL     1      -0.610  46.735  10.080  1.00  0.00     0.225 C 
BRANCH  22  23
ATOM     23  O   UNL     1      -1.111  45.692  10.871  1.00  0.00    -0.391 OA
ATOM     24  H   UNL     1      -0.425  45.517  11.567  1.00  0.00     0.210 HD
ENDBRANCH  22  23
ENDBRANCH  17  22
BRANCH  18  25
ATOM     25  O   UNL     1       2.244  47.180   7.615  1.00  0.00    -0.385 OA
ATOM     26  H   UNL     1       2.760  46.699   8.313  1.00  0.00     0.211 HD
ENDBRANCH  18  25
BRANCH  20  27
ATOM     27  O   UNL     1      -1.124  47.870   6.939  1.00  0.00    -0.387 OA
ATOM     28  H   UNL     1      -0.799  48.700   7.375  1.00  0.00     0.211 HD
ENDBRANCH  20  27
BRANCH  21  29
ATOM     29  C   UNL     1      -0.192  44.550   6.139  1.00  0.00     0.191 C 
BRANCH  29  30
ATOM     30  O   UNL     1      -1.042  44.747   5.043  1.00  0.00    -0.394 OA
ATOM     31  H   UNL     1      -1.967  44.710   5.403  1.00  0.00     0.210 HD
ENDBRANCH  29  30
ENDBRANCH  21  29
ENDBRANCH   1  17
TORSDOF 13
ENDMDL
MODEL 7
REMARK VINA RESULT:    -3.684      1.338      5.777
REMARK INTER + INTRA:          -6.929
REMARK INTER:                  -6.318
REMARK INTRA:                  -0.611
REMARK UNBOUND:                -1.307
REMARK SMILES OC[C@@H]1O[C@@H](O[C@]2(CO)O[C@H](CO)[C@@H](O)[C@@H]2O)[C@@H](O)[C@@H](O)[C@H]1O
REMARK SMILES IDX 6 1 5 2 3 3 22 4 4 5 20 6 18 7 2 8 1 9 23 11 21 13 19 15
REMARK SMILES IDX 7 17 16 18 10 19 14 20 11 21 8 22 9 23 17 25 15 27 12 29
REMARK SMILES IDX 13 30
REMARK H PARENT 1 10 23 12 21 14 19 16 9 24 17 26 15 28 13 31
REMARK Flexibility Score: inf
ROOT
ATOM      1  O   UNL     1       2.668  45.935   9.034  1.00  0.00    -0.313 OA
ENDROOT
BRANCH   1   2
ATOM      2  C   UNL     1       1.740  45.131   9.759  1.00  0.00     0.285 C 
ATOM      3  C   UNL     1       3.438  44.320  11.175  1.00  0.00     0.178 C 
ATOM      4  C   UNL     1       3.360  42.878  10.616  1.00  0.00     0.177 C 
ATOM      5  O   UNL     1       2.168  44.949  11.099  1.00  0.00    -0.341 OA
ATOM      6  C   UNL     1       2.790  42.871   9.179  1.00  0.00     0.179 C 
ATOM      7  C   UNL     1       1.538  43.762   9.071  1.00  0.00     0.202 C 
BRANCH   3   8
ATOM      8  C   UNL     1       3.869  44.323  12.652  1.00  0.00     0.191 C 
BRANCH   8   9
ATOM      9  O   UNL     1       5.000  45.126  12.852  1.00  0.00    -0.394 OA
ATOM     10  H   UNL     1       4.716  46.064  12.692  1.00  0.00     0.210 HD
ENDBRANCH   8   9
ENDBRANCH   3   8
BRANCH   4  11
ATOM     11  O   UNL     1       4.633  42.284  10.629  1.00  0.00    -0.387 OA
ATOM     12  H   UNL     1       4.700  41.767  11.475  1.00  0.00     0.211 HD
ENDBRANCH   4  11
BRANCH   6  13
ATOM     13  O   UNL     1       3.759  43.211   8.215  1.00  0.00    -0.387 OA
ATOM     14  H   UNL     1       3.315  43.693   7.473  1.00  0.00     0.211 HD
ENDBRANCH   6  13
BRANCH   7  15
ATOM     15  O   UNL     1       1.191  43.929   7.720  1.00  0.00    -0.385 OA
ATOM     16  H   UNL     1       0.541  43.212   7.499  1.00  0.00     0.211 HD
ENDBRANCH   7  15
ENDBRANCH   1   2
BRANCH   1  17
ATOM     17  C   UNL     1       2.571  47.344   9.241  1.00  0.00     0.224 C 
ATOM     18  C   UNL     1       3.224  48.187   8.115  1.00  0.00     0.208 C 
ATOM     19  O   UNL     1       1.194  47.659   9.203  1.00  0.00    -0.337 OA
ATOM     20  C   UNL     1       2.346  49.419   8.029  1.00  0.00     0.180 C 
ATOM     21  C   UNL     1       1.054  48.987   8.738  1.00  0.00     0.179 C 
BRANCH  17  22
ATOM     22  C   UNL     1       3.077  47.727  10.665  1.00  0.00     0.225 C 
BRANCH  22  23
ATOM     23  O   UNL     1       4.370  47.251  10.917  1.00  0.00    -0.391 OA
ATOM     24  H   UNL     1       4.261  46.394  11.405  1.00  0.00     0.210 HD
ENDBRANCH  22  23
ENDBRANCH  17  22
BRANCH  18  25
ATOM     25  O   UNL     1       3.229  47.514   6.877  1.00  0.00    -0.385 OA
ATOM     26  H   UNL     1       4.068  47.744   6.400  1.00  0.00     0.211 HD
ENDBRANCH  18  25
BRANCH  20  27
ATOM     27  O   UNL     1       2.952  50.484   8.715  1.00  0.00    -0.387 OA
ATOM     28  H   UNL     1       3.509  50.079   9.430  1.00  0.00     0.211 HD
ENDBRANCH  20  27
BRANCH  21  29
ATOM     29  C   UNL     1      -0.180  49.091   7.835  1.00  0.00     0.191 C 
BRANCH  29  30
ATOM     30  O   UNL     1      -0.316  47.937   7.052  1.00  0.00    -0.394 OA
ATOM     31  H   UNL     1      -0.549  48.250   6.139  1.00  0.00     0.210 HD
ENDBRANCH  29  30
ENDBRANCH  21  29
ENDBRANCH   1  17
TORSDOF 13
ENDMDL
MODEL 8
REMARK VINA RESULT:    -3.632      1.769      5.223
REMARK INTER + INTRA:          -6.850
REMARK INTER:                  -7.231
REMARK INTRA:                   0.381
REMARK UNBOUND:                -1.307
REMARK SMILES OC[C@@H]1O[C@@H](O[C@]2(CO)O[C@H](CO)[C@@H](O)[C@@H]2O)[C@@H](O)[C@@H](O)[C@H]1O
REMARK SMILES IDX 6 1 5 2 3 3 22 4 4 5 20 6 18 7 2 8 1 9 23 11 21 13 19 15
REMARK SMILES IDX 7 17 16 18 10 19 14 20 11 21 8 22 9 23 17 25 15 27 12 29
REMARK SMILES IDX 13 30
REMARK H PARENT 1 10 23 12 21 14 19 16 9 24 17 26 15 28 13 31
REMARK Flexibility Score: inf
ROOT
ATOM      1  O   UNL     1       0.854  45.046   9.469  1.00  0.00    -0.313 OA
ENDROOT
BRANCH   1   2
ATOM      2  C   UNL     1       1.354  45.699  10.634  1.00  0.00     0.285 C 
ATOM      3  C   UNL     1       3.583  45.398   9.933  1.00  0.00     0.178 C 
ATOM      4  C   UNL     1       3.913  44.393  11.063  1.00  0.00     0.177 C 
ATOM      5  O   UNL     1       2.599  46.325  10.366  1.00  0.00    -0.341 OA
ATOM      6  C   UNL     1       2.633  43.690  11.572  1.00  0.00     0.179 C 
ATOM      7  C   UNL     1       1.497  44.704  11.808  1.00  0.00     0.202 C 
BRANCH   3   8
ATOM      8  C   UNL     1       4.827  46.203   9.520  1.00  0.00     0.191 C 
BRANCH   8   9
ATOM      9  O   UNL     1       4.887  47.432  10.192  1.00  0.00    -0.394 OA
ATOM     10  H   UNL     1       4.011  47.554  10.641  1.00  0.00     0.210 HD
ENDBRANCH   8   9
ENDBRANCH   3   8
BRANCH   4  11
ATOM     11  O   UNL     1       4.835  43.436  10.606  1.00  0.00    -0.387 OA
ATOM     12  H   UNL     1       4.828  43.481   9.614  1.00  0.00     0.211 HD
ENDBRANCH   4  11
BRANCH   6  13
ATOM     13  O   UNL     1       2.228  42.637  10.730  1.00  0.00    -0.387 OA
ATOM     14  H   UNL     1       1.378  42.890  10.291  1.00  0.00     0.211 HD
ENDBRANCH   6  13
BRANCH   7  15
ATOM     15  O   UNL     1       0.291  44.020  12.031  1.00  0.00    -0.385 OA
ATOM     16  H   UNL     1      -0.044  44.309  12.920  1.00  0.00     0.211 HD
ENDBRANCH   7  15
ENDBRANCH   1   2
BRANCH   1  17
ATOM     17  C   UNL     1       0.520  45.895   8.370  1.00  0.00     0.224 C 
ATOM     18  C   UNL     1      -0.782  46.710   8.584  1.00  0.00     0.208 C 
ATOM     19  O   UNL     1       1.556  46.851   8.275  1.00  0.00    -0.337 OA
ATOM     20  C   UNL     1      -0.511  48.019   7.871  1.00  0.00     0.180 C 
ATOM     21  C   UNL     1       1.018  48.038   7.728  1.00  0.00     0.179 C 
BRANCH  17  22
ATOM     22  C   UNL     1       0.530  45.093   7.034  1.00  0.00     0.225 C 
BRANCH  22  23
ATOM     23  O   UNL     1      -0.674  44.411   6.812  1.00  0.00    -0.391 OA
ATOM     24  H   UNL     1      -1.395  45.088   6.891  1.00  0.00     0.210 HD
ENDBRANCH  22  23
ENDBRANCH  17  22
BRANCH  18  25
ATOM     25  O   UNL     1      -1.045  46.950   9.947  1.00  0.00    -0.385 OA
ATOM     26  H   UNL     1      -0.198  47.222  10.386  1.00  0.00     0.211 HD
ENDBRANCH  18  25
BRANCH  20  27
ATOM     27  O   UNL     1      -1.125  48.009   6.608  1.00  0.00    -0.387 OA
ATOM     28  H   UNL     1      -1.603  48.875   6.521  1.00  0.00     0.211 HD
ENDBRANCH  20  27
BRANCH  21  29
ATOM     29  C   UNL     1       1.661  49.256   8.402  1.00  0.00     0.191 C 
BRANCH  29  30
ATOM     30  O   UNL     1       2.997  48.991   8.728  1.00  0.00    -0.394 OA
ATOM     31  H   UNL     1       3.383  49.854   9.028  1.00  0.00     0.210 HD
ENDBRANCH  29  30
ENDBRANCH  21  29
ENDBRANCH   1  17
TORSDOF 13
ENDMDL
