MODEL 1
REMARK VINA RESULT:    -3.924      0.000      0.000
REMARK INTER + INTRA:          -8.855
REMARK INTER:                  -7.136
REMARK INTRA:                  -1.719
REMARK UNBOUND:                -1.719
REMARK SMILES CCCCCCCCCCCCCC[C@H](C)C(=O)[O-]
REMARK SMILES IDX 9 1 10 2 11 3 12 4 13 5 14 6 15 7 16 8 17 9 18 10 19 11 8 12
REMARK SMILES IDX 7 13 6 14 5 15 4 16 3 17 2 18 1 19
REMARK H PARENT
REMARK Flexibility Score: inf
ROOT
ATOM      1  C   UNL     1      -4.364 -66.530  -3.273  1.00  0.00     0.000 C 
ENDROOT
BRANCH   1   2
ATOM      2  C   UNL     1      -4.351 -67.673  -4.306  1.00  0.00     0.000 C 
BRANCH   2   3
ATOM      3  C   UNL     1      -4.134 -67.172  -5.746  1.00  0.00     0.000 C 
BRANCH   3   4
ATOM      4  C   UNL     1      -4.426 -65.675  -5.963  1.00  0.00     0.000 C 
BRANCH   4   5
ATOM      5  C   UNL     1      -5.310 -65.411  -7.196  1.00  0.00     0.001 C 
BRANCH   5   6
ATOM      6  C   UNL     1      -6.330 -64.276  -6.949  1.00  0.00     0.009 C 
BRANCH   6   7
ATOM      7  C   UNL     1      -7.580 -64.362  -7.854  1.00  0.00     0.032 C 
ATOM      8  C   UNL     1      -7.587 -65.622  -8.728  1.00  0.00     0.014 C 
BRANCH   7   9
ATOM      9  C   UNL     1      -7.660 -63.141  -8.728  1.00  0.00     0.044 C 
ATOM     10  O   UNL     1      -6.635 -62.432  -8.920  1.00  0.00    -0.550 OA
ATOM     11  O   UNL     1      -8.867 -62.777  -9.319  1.00  0.00    -0.550 OA
ENDBRANCH   7   9
ENDBRANCH   6   7
ENDBRANCH   5   6
ENDBRANCH   4   5
ENDBRANCH   3   4
ENDBRANCH   2   3
ENDBRANCH   1   2
BRANCH   1  12
ATOM     12  C   UNL     1      -5.137 -66.886  -1.989  1.00  0.00     0.000 C 
BRANCH  12  13
ATOM     13  C   UNL     1      -4.753 -66.062  -0.746  1.00  0.00    -0.000 C 
BRANCH  13  14
ATOM     14  C   UNL     1      -5.967 -65.425  -0.046  1.00  0.00    -0.000 C 
BRANCH  14  15
ATOM     15  C   UNL     1      -7.309 -65.896  -0.634  1.00  0.00    -0.000 C 
BRANCH  15  16
ATOM     16  C   UNL     1      -8.213 -64.767  -1.175  1.00  0.00    -0.000 C 
BRANCH  16  17
ATOM     17  C   UNL     1      -7.487 -63.450  -1.515  1.00  0.00    -0.000 C 
BRANCH  17  18
ATOM     18  C   UNL     1      -6.931 -63.369  -2.949  1.00  0.00    -0.003 C 
ATOM     19  C   UNL     1      -5.427 -63.097  -2.990  1.00  0.00     0.004 C 
ENDBRANCH  17  18
ENDBRANCH  16  17
ENDBRANCH  15  16
ENDBRANCH  14  15
ENDBRANCH  13  14
ENDBRANCH  12  13
ENDBRANCH   1  12
TORSDOF 14
ENDMDL
MODEL 2
REMARK VINA RESULT:    -3.837      2.518      3.930
REMARK INTER + INTRA:          -8.697
REMARK INTER:                  -7.251
REMARK INTRA:                  -1.446
REMARK UNBOUND:                -1.719
REMARK SMILES CCCCCCCCCCCCCC[C@H](C)C(=O)[O-]
REMARK SMILES IDX 9 1 10 2 11 3 12 4 13 5 14 6 15 7 16 8 17 9 18 10 19 11 8 12
REMARK SMILES IDX 7 13 6 14 5 15 4 16 3 17 2 18 1 19
REMARK H PARENT
REMARK Flexibility Score: inf
ROOT
ATOM      1  C   UNL     1      -4.243 -64.890  -1.389  1.00  0.00     0.000 C 
ENDROOT
BRANCH   1   2
ATOM      2  C   UNL     1      -4.883 -66.283  -1.244  1.00  0.00     0.000 C 
BRANCH   2   3
ATOM      3  C   UNL     1      -4.893 -67.074  -2.566  1.00  0.00     0.000 C 
BRANCH   3   4
ATOM      4  C   UNL     1      -4.009 -66.485  -3.681  1.00  0.00     0.000 C 
BRANCH   4   5
ATOM      5  C   UNL     1      -4.191 -67.203  -5.031  1.00  0.00     0.001 C 
BRANCH   5   6
ATOM      6  C   UNL     1      -4.449 -66.212  -6.188  1.00  0.00     0.009 C 
BRANCH   6   7
ATOM      7  C   UNL     1      -4.731 -66.903  -7.541  1.00  0.00     0.032 C 
ATOM      8  C   UNL     1      -4.364 -68.392  -7.529  1.00  0.00     0.014 C 
BRANCH   7   9
ATOM      9  C   UNL     1      -3.971 -66.205  -8.636  1.00  0.00     0.044 C 
ATOM     10  O   UNL     1      -3.658 -66.829  -9.686  1.00  0.00    -0.550 OA
ATOM     11  O   UNL     1      -3.595 -64.872  -8.492  1.00  0.00    -0.550 OA
ENDBRANCH   7   9
ENDBRANCH   6   7
ENDBRANCH   5   6
ENDBRANCH   4   5
ENDBRANCH   3   4
ENDBRANCH   2   3
ENDBRANCH   1   2
BRANCH   1  12
ATOM     12  C   UNL     1      -5.251 -63.740  -1.205  1.00  0.00     0.000 C 
BRANCH  12  13
ATOM     13  C   UNL     1      -6.315 -63.621  -2.313  1.00  0.00    -0.000 C 
BRANCH  13  14
ATOM     14  C   UNL     1      -7.752 -63.799  -1.789  1.00  0.00    -0.000 C 
BRANCH  14  15
ATOM     15  C   UNL     1      -7.800 -64.208  -0.307  1.00  0.00    -0.000 C 
BRANCH  15  16
ATOM     16  C   UNL     1      -9.023 -65.063   0.093  1.00  0.00    -0.000 C 
BRANCH  16  17
ATOM     17  C   UNL     1      -8.735 -66.564   0.297  1.00  0.00    -0.000 C 
BRANCH  17  18
ATOM     18  C   UNL     1      -8.548 -67.370  -1.001  1.00  0.00    -0.003 C 
ATOM     19  C   UNL     1      -9.391 -68.645  -1.037  1.00  0.00     0.004 C 
ENDBRANCH  17  18
ENDBRANCH  16  17
ENDBRANCH  15  16
ENDBRANCH  14  15
ENDBRANCH  13  14
ENDBRANCH  12  13
ENDBRANCH   1  12
TORSDOF 14
ENDMDL
MODEL 3
REMARK VINA RESULT:    -3.796      3.865      7.008
REMARK INTER + INTRA:          -8.622
REMARK INTER:                  -7.586
REMARK INTRA:                  -1.036
REMARK UNBOUND:                -1.719
REMARK SMILES CCCCCCCCCCCCCC[C@H](C)C(=O)[O-]
REMARK SMILES IDX 9 1 10 2 11 3 12 4 13 5 14 6 15 7 16 8 17 9 18 10 19 11 8 12
REMARK SMILES IDX 7 13 6 14 5 15 4 16 3 17 2 18 1 19
REMARK H PARENT
REMARK Flexibility Score: inf
ROOT
ATOM      1  C   UNL     1      -4.685 -67.737  -3.618  1.00  0.00     0.000 C 
ENDROOT
BRANCH   1   2
ATOM      2  C   UNL     1      -5.117 -67.113  -2.278  1.00  0.00     0.000 C 
BRANCH   2   3
ATOM      3  C   UNL     1      -4.940 -65.583  -2.249  1.00  0.00     0.000 C 
BRANCH   3   4
ATOM      4  C   UNL     1      -5.744 -64.858  -1.153  1.00  0.00     0.000 C 
BRANCH   4   5
ATOM      5  C   UNL     1      -7.039 -64.218  -1.685  1.00  0.00     0.001 C 
BRANCH   5   6
ATOM      6  C   UNL     1      -8.302 -64.862  -1.070  1.00  0.00     0.009 C 
BRANCH   6   7
ATOM      7  C   UNL     1      -8.014 -66.163  -0.288  1.00  0.00     0.032 C 
ATOM      8  C   UNL     1      -8.875 -67.339  -0.765  1.00  0.00     0.014 C 
BRANCH   7   9
ATOM      9  C   UNL     1      -8.242 -65.934   1.181  1.00  0.00     0.044 C 
ATOM     10  O   UNL     1      -8.528 -66.903   1.936  1.00  0.00    -0.550 OA
ATOM     11  O   UNL     1      -8.153 -64.651   1.715  1.00  0.00    -0.550 OA
ENDBRANCH   7   9
ENDBRANCH   6   7
ENDBRANCH   5   6
ENDBRANCH   4   5
ENDBRANCH   3   4
ENDBRANCH   2   3
ENDBRANCH   1   2
BRANCH   1  12
ATOM     12  C   UNL     1      -3.926 -66.750  -4.526  1.00  0.00     0.000 C 
BRANCH  12  13
ATOM     13  C   UNL     1      -3.484 -67.322  -5.886  1.00  0.00    -0.000 C 
BRANCH  13  14
ATOM     14  C   UNL     1      -3.669 -66.328  -7.047  1.00  0.00    -0.000 C 
BRANCH  14  15
ATOM     15  C   UNL     1      -5.065 -66.415  -7.689  1.00  0.00    -0.000 C 
BRANCH  15  16
ATOM     16  C   UNL     1      -6.073 -65.352  -7.201  1.00  0.00    -0.000 C 
BRANCH  16  17
ATOM     17  C   UNL     1      -7.296 -65.139  -8.116  1.00  0.00    -0.000 C 
BRANCH  17  18
ATOM     18  C   UNL     1      -8.016 -63.791  -7.932  1.00  0.00    -0.003 C 
ATOM     19  C   UNL     1      -8.385 -63.127  -9.259  1.00  0.00     0.004 C 
ENDBRANCH  17  18
ENDBRANCH  16  17
ENDBRANCH  15  16
ENDBRANCH  14  15
ENDBRANCH  13  14
ENDBRANCH  12  13
ENDBRANCH   1  12
TORSDOF 14
ENDMDL
MODEL 4
REMARK VINA RESULT:    -3.751      4.419      6.718
REMARK INTER + INTRA:          -8.540
REMARK INTER:                  -6.288
REMARK INTRA:                  -2.252
REMARK UNBOUND:                -1.719
REMARK SMILES CCCCCCCCCCCCCC[C@H](C)C(=O)[O-]
REMARK SMILES IDX 9 1 10 2 11 3 12 4 13 5 14 6 15 7 16 8 17 9 18 10 19 11 8 12
REMARK SMILES IDX 7 13 6 14 5 15 4 16 3 17 2 18 1 19
REMARK H PARENT
REMARK Flexibility Score: inf
ROOT
ATOM      1  C   UNL     1      -7.674 -62.033   2.981  1.00  0.00     0.000 C 
ENDROOT
BRANCH   1   2
ATOM      2  C   UNL     1      -7.859 -61.870   1.461  1.00  0.00     0.000 C 
BRANCH   2   3
ATOM      3  C   UNL     1      -6.668 -61.159   0.790  1.00  0.00     0.000 C 
BRANCH   3   4
ATOM      4  C   UNL     1      -6.441 -61.528  -0.688  1.00  0.00     0.000 C 
BRANCH   4   5
ATOM      5  C   UNL     1      -6.936 -62.944  -1.034  1.00  0.00     0.001 C 
BRANCH   5   6
ATOM      6  C   UNL     1      -5.914 -63.726  -1.890  1.00  0.00     0.009 C 
BRANCH   6   7
ATOM      7  C   UNL     1      -5.368 -64.994  -1.196  1.00  0.00     0.032 C 
ATOM      8  C   UNL     1      -4.445 -64.666  -0.015  1.00  0.00     0.014 C 
BRANCH   7   9
ATOM      9  C   UNL     1      -4.628 -65.841  -2.194  1.00  0.00     0.044 C 
ATOM     10  O   UNL     1      -4.894 -67.069  -2.303  1.00  0.00    -0.550 OA
ATOM     11  O   UNL     1      -3.636 -65.281  -2.994  1.00  0.00    -0.550 OA
ENDBRANCH   7   9
ENDBRANCH   6   7
ENDBRANCH   5   6
ENDBRANCH   4   5
ENDBRANCH   3   4
ENDBRANCH   2   3
ENDBRANCH   1   2
BRANCH   1  12
ATOM     12  C   UNL     1      -7.095 -63.406   3.375  1.00  0.00     0.000 C 
BRANCH  12  13
ATOM     13  C   UNL     1      -7.096 -64.461   2.254  1.00  0.00    -0.000 C 
BRANCH  13  14
ATOM     14  C   UNL     1      -7.586 -65.842   2.726  1.00  0.00    -0.000 C 
BRANCH  14  15
ATOM     15  C   UNL     1      -8.738 -66.392   1.868  1.00  0.00    -0.000 C 
BRANCH  15  16
ATOM     16  C   UNL     1      -9.216 -65.450   0.741  1.00  0.00    -0.000 C 
BRANCH  16  17
ATOM     17  C   UNL     1      -8.893 -65.924  -0.691  1.00  0.00    -0.000 C 
BRANCH  17  18
ATOM     18  C   UNL     1      -8.247 -67.319  -0.781  1.00  0.00    -0.003 C 
ATOM     19  C   UNL     1      -9.253 -68.421  -1.113  1.00  0.00     0.004 C 
ENDBRANCH  17  18
ENDBRANCH  16  17
ENDBRANCH  15  16
ENDBRANCH  14  15
ENDBRANCH  13  14
ENDBRANCH  12  13
ENDBRANCH   1  12
TORSDOF 14
ENDMDL
MODEL 5
REMARK VINA RESULT:    -3.747      4.125      6.033
REMARK INTER + INTRA:          -8.533
REMARK INTER:                  -6.303
REMARK INTRA:                  -2.230
REMARK UNBOUND:                -1.719
REMARK SMILES CCCCCCCCCCCCCC[C@H](C)C(=O)[O-]
REMARK SMILES IDX 9 1 10 2 11 3 12 4 13 5 14 6 15 7 16 8 17 9 18 10 19 11 8 12
REMARK SMILES IDX 7 13 6 14 5 15 4 16 3 17 2 18 1 19
REMARK H PARENT
REMARK Flexibility Score: inf
ROOT
ATOM      1  C   UNL     1      -9.281 -66.125   0.389  1.00  0.00     0.000 C 
ENDROOT
BRANCH   1   2
ATOM      2  C   UNL     1      -9.000 -64.655   0.028  1.00  0.00     0.000 C 
BRANCH   2   3
ATOM      3  C   UNL     1      -8.093 -64.508  -1.209  1.00  0.00     0.000 C 
BRANCH   3   4
ATOM      4  C   UNL     1      -6.645 -64.083  -0.905  1.00  0.00     0.000 C 
BRANCH   4   5
ATOM      5  C   UNL     1      -5.732 -65.274  -0.561  1.00  0.00     0.001 C 
BRANCH   5   6
ATOM      6  C   UNL     1      -5.828 -66.404  -1.611  1.00  0.00     0.009 C 
BRANCH   6   7
ATOM      7  C   UNL     1      -4.500 -66.668  -2.357  1.00  0.00     0.032 C 
ATOM      8  C   UNL     1      -3.884 -65.386  -2.932  1.00  0.00     0.014 C 
BRANCH   7   9
ATOM      9  C   UNL     1      -4.729 -67.658  -3.466  1.00  0.00     0.044 C 
ATOM     10  O   UNL     1      -5.421 -68.691  -3.260  1.00  0.00    -0.550 OA
ATOM     11  O   UNL     1      -4.167 -67.448  -4.723  1.00  0.00    -0.550 OA
ENDBRANCH   7   9
ENDBRANCH   6   7
ENDBRANCH   5   6
ENDBRANCH   4   5
ENDBRANCH   3   4
ENDBRANCH   2   3
ENDBRANCH   1   2
BRANCH   1  12
ATOM     12  C   UNL     1      -8.295 -66.690   1.430  1.00  0.00     0.000 C 
BRANCH  12  13
ATOM     13  C   UNL     1      -8.619 -66.339   2.894  1.00  0.00    -0.000 C 
BRANCH  13  14
ATOM     14  C   UNL     1      -7.384 -65.878   3.690  1.00  0.00    -0.000 C 
BRANCH  14  15
ATOM     15  C   UNL     1      -6.659 -64.691   3.032  1.00  0.00    -0.000 C 
BRANCH  15  16
ATOM     16  C   UNL     1      -7.414 -63.347   3.104  1.00  0.00    -0.000 C 
BRANCH  16  17
ATOM     17  C   UNL     1      -6.811 -62.209   2.255  1.00  0.00    -0.000 C 
BRANCH  17  18
ATOM     18  C   UNL     1      -7.841 -61.332   1.521  1.00  0.00    -0.003 C 
ATOM     19  C   UNL     1      -7.269 -60.660   0.273  1.00  0.00     0.004 C 
ENDBRANCH  17  18
ENDBRANCH  16  17
ENDBRANCH  15  16
ENDBRANCH  14  15
ENDBRANCH  13  14
ENDBRANCH  12  13
ENDBRANCH   1  12
TORSDOF 14
ENDMDL
MODEL 6
REMARK VINA RESULT:    -3.739      8.387     11.691
REMARK INTER + INTRA:          -8.518
REMARK INTER:                  -7.187
REMARK INTRA:                  -1.331
REMARK UNBOUND:                -1.719
REMARK SMILES CCCCCCCCCCCCCC[C@H](C)C(=O)[O-]
REMARK SMILES IDX 9 1 10 2 11 3 12 4 13 5 14 6 15 7 16 8 17 9 18 10 19 11 8 12
REMARK SMILES IDX 7 13 6 14 5 15 4 16 3 17 2 18 1 19
REMARK H PARENT
REMARK Flexibility Score: inf
ROOT
ATOM      1  C   UNL     1      -9.832 -65.647   5.132  1.00  0.00     0.000 C 
ENDROOT
BRANCH   1   2
ATOM      2  C   UNL     1     -10.163 -66.912   5.944  1.00  0.00     0.000 C 
BRANCH   2   3
ATOM      3  C   UNL     1      -8.933 -67.811   6.173  1.00  0.00     0.000 C 
BRANCH   3   4
ATOM      4  C   UNL     1      -8.272 -68.347   4.889  1.00  0.00     0.000 C 
BRANCH   4   5
ATOM      5  C   UNL     1      -7.788 -69.801   5.028  1.00  0.00     0.001 C 
BRANCH   5   6
ATOM      6  C   UNL     1      -8.939 -70.767   5.392  1.00  0.00     0.009 C 
BRANCH   6   7
ATOM      7  C   UNL     1      -8.630 -72.246   5.067  1.00  0.00     0.032 C 
ATOM      8  C   UNL     1      -8.412 -72.485   3.568  1.00  0.00     0.014 C 
BRANCH   7   9
ATOM      9  C   UNL     1      -9.752 -73.119   5.559  1.00  0.00     0.044 C 
ATOM     10  O   UNL     1     -10.948 -72.820   5.296  1.00  0.00    -0.550 OA
ATOM     11  O   UNL     1      -9.479 -74.253   6.319  1.00  0.00    -0.550 OA
ENDBRANCH   7   9
ENDBRANCH   6   7
ENDBRANCH   5   6
ENDBRANCH   4   5
ENDBRANCH   3   4
ENDBRANCH   2   3
ENDBRANCH   1   2
BRANCH   1  12
ATOM     12  C   UNL     1      -8.659 -64.841   5.722  1.00  0.00     0.000 C 
BRANCH  12  13
ATOM     13  C   UNL     1      -7.447 -64.672   4.787  1.00  0.00    -0.000 C 
BRANCH  13  14
ATOM     14  C   UNL     1      -7.844 -64.520   3.307  1.00  0.00    -0.000 C 
BRANCH  14  15
ATOM     15  C   UNL     1      -7.304 -65.659   2.425  1.00  0.00    -0.000 C 
BRANCH  15  16
ATOM     16  C   UNL     1      -8.386 -66.575   1.812  1.00  0.00    -0.000 C 
BRANCH  16  17
ATOM     17  C   UNL     1      -9.094 -66.009   0.564  1.00  0.00    -0.000 C 
BRANCH  17  18
ATOM     18  C   UNL     1      -8.779 -66.746  -0.750  1.00  0.00    -0.003 C 
ATOM     19  C   UNL     1      -9.396 -68.144  -0.811  1.00  0.00     0.004 C 
ENDBRANCH  17  18
ENDBRANCH  16  17
ENDBRANCH  15  16
ENDBRANCH  14  15
ENDBRANCH  13  14
ENDBRANCH  12  13
ENDBRANCH   1  12
TORSDOF 14
ENDMDL
MODEL 7
REMARK VINA RESULT:    -3.694      3.673      6.248
REMARK INTER + INTRA:          -8.437
REMARK INTER:                  -6.398
REMARK INTRA:                  -2.039
REMARK UNBOUND:                -1.719
REMARK SMILES CCCCCCCCCCCCCC[C@H](C)C(=O)[O-]
REMARK SMILES IDX 9 1 10 2 11 3 12 4 13 5 14 6 15 7 16 8 17 9 18 10 19 11 8 12
REMARK SMILES IDX 7 13 6 14 5 15 4 16 3 17 2 18 1 19
REMARK H PARENT
REMARK Flexibility Score: inf
ROOT
ATOM      1  C   UNL     1      -7.566 -63.850  -1.684  1.00  0.00     0.000 C 
ENDROOT
BRANCH   1   2
ATOM      2  C   UNL     1      -6.928 -62.817  -0.738  1.00  0.00     0.000 C 
BRANCH   2   3
ATOM      3  C   UNL     1      -5.388 -62.825  -0.798  1.00  0.00     0.000 C 
BRANCH   3   4
ATOM      4  C   UNL     1      -4.704 -63.753   0.223  1.00  0.00     0.000 C 
BRANCH   4   5
ATOM      5  C   UNL     1      -4.351 -65.132  -0.364  1.00  0.00     0.001 C 
BRANCH   5   6
ATOM      6  C   UNL     1      -3.902 -65.039  -1.840  1.00  0.00     0.009 C 
BRANCH   6   7
ATOM      7  C   UNL     1      -4.737 -65.921  -2.796  1.00  0.00     0.032 C 
ATOM      8  C   UNL     1      -5.141 -67.257  -2.161  1.00  0.00     0.014 C 
BRANCH   7   9
ATOM      9  C   UNL     1      -3.961 -66.176  -4.059  1.00  0.00     0.044 C 
ATOM     10  O   UNL     1      -3.830 -67.351  -4.495  1.00  0.00    -0.550 OA
ATOM     11  O   UNL     1      -3.371 -65.119  -4.748  1.00  0.00    -0.550 OA
ENDBRANCH   7   9
ENDBRANCH   6   7
ENDBRANCH   5   6
ENDBRANCH   4   5
ENDBRANCH   3   4
ENDBRANCH   2   3
ENDBRANCH   1   2
BRANCH   1  12
ATOM     12  C   UNL     1      -8.663 -64.693  -1.006  1.00  0.00     0.000 C 
BRANCH  12  13
ATOM     13  C   UNL     1      -8.296 -66.169  -0.761  1.00  0.00    -0.000 C 
BRANCH  13  14
ATOM     14  C   UNL     1      -8.341 -66.562   0.727  1.00  0.00    -0.000 C 
BRANCH  14  15
ATOM     15  C   UNL     1      -7.355 -65.753   1.588  1.00  0.00    -0.000 C 
BRANCH  15  16
ATOM     16  C   UNL     1      -8.005 -64.929   2.721  1.00  0.00    -0.000 C 
BRANCH  16  17
ATOM     17  C   UNL     1      -8.157 -65.669   4.066  1.00  0.00    -0.000 C 
BRANCH  17  18
ATOM     18  C   UNL     1      -9.586 -66.142   4.387  1.00  0.00    -0.003 C 
ATOM     19  C   UNL     1      -9.947 -65.984   5.865  1.00  0.00     0.004 C 
ENDBRANCH  17  18
ENDBRANCH  16  17
ENDBRANCH  15  16
ENDBRANCH  14  15
ENDBRANCH  13  14
ENDBRANCH  12  13
ENDBRANCH   1  12
TORSDOF 14
ENDMDL
MODEL 8
REMARK VINA RESULT:    -3.669      3.692      6.825
REMARK INTER + INTRA:          -8.391
REMARK INTER:                  -6.643
REMARK INTRA:                  -1.748
REMARK UNBOUND:                -1.719
REMARK SMILES CCCCCCCCCCCCCC[C@H](C)C(=O)[O-]
REMARK SMILES IDX 9 1 10 2 11 3 12 4 13 5 14 6 15 7 16 8 17 9 18 10 19 11 8 12
REMARK SMILES IDX 7 13 6 14 5 15 4 16 3 17 2 18 1 19
REMARK H PARENT
REMARK Flexibility Score: inf
ROOT
ATOM      1  C   UNL     1      -4.294 -63.426  -2.585  1.00  0.00     0.000 C 
ENDROOT
BRANCH   1   2
ATOM      2  C   UNL     1      -3.134 -63.847  -1.666  1.00  0.00     0.000 C 
BRANCH   2   3
ATOM      3  C   UNL     1      -3.618 -64.507  -0.361  1.00  0.00     0.000 C 
BRANCH   3   4
ATOM      4  C   UNL     1      -4.833 -63.828   0.299  1.00  0.00     0.000 C 
BRANCH   4   5
ATOM      5  C   UNL     1      -5.934 -64.827   0.696  1.00  0.00     0.001 C 
BRANCH   5   6
ATOM      6  C   UNL     1      -6.272 -65.807  -0.451  1.00  0.00     0.009 C 
BRANCH   6   7
ATOM      7  C   UNL     1      -7.678 -65.589  -1.056  1.00  0.00     0.032 C 
ATOM      8  C   UNL     1      -7.926 -64.128  -1.453  1.00  0.00     0.014 C 
BRANCH   7   9
ATOM      9  C   UNL     1      -8.728 -66.030  -0.073  1.00  0.00     0.044 C 
ATOM     10  O   UNL     1      -8.897 -67.257   0.164  1.00  0.00    -0.550 OA
ATOM     11  O   UNL     1      -9.529 -65.090   0.569  1.00  0.00    -0.550 OA
ENDBRANCH   7   9
ENDBRANCH   6   7
ENDBRANCH   5   6
ENDBRANCH   4   5
ENDBRANCH   3   4
ENDBRANCH   2   3
ENDBRANCH   1   2
BRANCH   1  12
ATOM     12  C   UNL     1      -4.804 -64.573  -3.479  1.00  0.00     0.000 C 
BRANCH  12  13
ATOM     13  C   UNL     1      -3.827 -65.751  -3.650  1.00  0.00    -0.000 C 
BRANCH  13  14
ATOM     14  C   UNL     1      -4.481 -67.119  -3.387  1.00  0.00    -0.000 C 
BRANCH  14  15
ATOM     15  C   UNL     1      -4.468 -68.035  -4.624  1.00  0.00    -0.000 C 
BRANCH  15  16
ATOM     16  C   UNL     1      -3.914 -67.383  -5.909  1.00  0.00    -0.000 C 
BRANCH  16  17
ATOM     17  C   UNL     1      -4.297 -68.094  -7.223  1.00  0.00    -0.000 C 
BRANCH  17  18
ATOM     18  C   UNL     1      -4.455 -67.165  -8.440  1.00  0.00    -0.003 C 
ATOM     19  C   UNL     1      -5.667 -66.240  -8.329  1.00  0.00     0.004 C 
ENDBRANCH  17  18
ENDBRANCH  16  17
ENDBRANCH  15  16
ENDBRANCH  14  15
ENDBRANCH  13  14
ENDBRANCH  12  13
ENDBRANCH   1  12
TORSDOF 14
ENDMDL
MODEL 9
REMARK VINA RESULT:    -3.633      2.196      3.476
REMARK INTER + INTRA:          -8.326
REMARK INTER:                  -6.360
REMARK INTRA:                  -1.966
REMARK UNBOUND:                -1.719
REMARK SMILES CCCCCCCCCCCCCC[C@H](C)C(=O)[O-]
REMARK SMILES IDX 9 1 10 2 11 3 12 4 13 5 14 6 15 7 16 8 17 9 18 10 19 11 8 12
REMARK SMILES IDX 7 13 6 14 5 15 4 16 3 17 2 18 1 19
REMARK H PARENT
REMARK Flexibility Score: inf
ROOT
ATOM      1  C   UNL     1      -4.766 -65.706  -3.019  1.00  0.00     0.000 C 
ENDROOT
BRANCH   1   2
ATOM      2  C   UNL     1      -4.762 -67.202  -2.655  1.00  0.00     0.000 C 
BRANCH   2   3
ATOM      3  C   UNL     1      -4.676 -68.115  -3.892  1.00  0.00     0.000 C 
BRANCH   3   4
ATOM      4  C   UNL     1      -3.746 -67.609  -5.010  1.00  0.00     0.000 C 
BRANCH   4   5
ATOM      5  C   UNL     1      -4.230 -68.004  -6.416  1.00  0.00     0.001 C 
BRANCH   5   6
ATOM      6  C   UNL     1      -4.732 -66.786  -7.224  1.00  0.00     0.009 C 
BRANCH   6   7
ATOM      7  C   UNL     1      -4.423 -65.429  -6.551  1.00  0.00     0.032 C 
ATOM      8  C   UNL     1      -5.668 -64.545  -6.412  1.00  0.00     0.014 C 
BRANCH   7   9
ATOM      9  C   UNL     1      -3.371 -64.699  -7.339  1.00  0.00     0.044 C 
ATOM     10  O   UNL     1      -3.448 -64.640  -8.596  1.00  0.00    -0.550 OA
ATOM     11  O   UNL     1      -2.298 -64.095  -6.688  1.00  0.00    -0.550 OA
ENDBRANCH   7   9
ENDBRANCH   6   7
ENDBRANCH   5   6
ENDBRANCH   4   5
ENDBRANCH   3   4
ENDBRANCH   2   3
ENDBRANCH   1   2
BRANCH   1  12
ATOM     12  C   UNL     1      -4.291 -64.802  -1.864  1.00  0.00     0.000 C 
BRANCH  12  13
ATOM     13  C   UNL     1      -5.090 -63.498  -1.684  1.00  0.00    -0.000 C 
BRANCH  13  14
ATOM     14  C   UNL     1      -6.329 -63.420  -2.594  1.00  0.00    -0.000 C 
BRANCH  14  15
ATOM     15  C   UNL     1      -7.647 -63.625  -1.827  1.00  0.00    -0.000 C 
BRANCH  15  16
ATOM     16  C   UNL     1      -7.496 -63.742  -0.295  1.00  0.00    -0.000 C 
BRANCH  16  17
ATOM     17  C   UNL     1      -7.979 -65.074   0.312  1.00  0.00    -0.000 C 
BRANCH  17  18
ATOM     18  C   UNL     1      -7.530 -66.334  -0.451  1.00  0.00    -0.003 C 
ATOM     19  C   UNL     1      -8.703 -67.191  -0.929  1.00  0.00     0.004 C 
ENDBRANCH  17  18
ENDBRANCH  16  17
ENDBRANCH  15  16
ENDBRANCH  14  15
ENDBRANCH  13  14
ENDBRANCH  12  13
ENDBRANCH   1  12
TORSDOF 14
ENDMDL
