MODEL 1
REMARK VINA RESULT:    -4.814      0.000      0.000
REMARK INTER + INTRA:          -6.373
REMARK INTER:                  -5.940
REMARK INTRA:                  -0.433
REMARK UNBOUND:                -0.433
REMARK SMILES CCCCC=CC(C)=O
REMARK SMILES IDX 4 1 3 2 2 3 1 4 5 5 6 6 7 7 9 8 8 9
REMARK H PARENT
REMARK Flexibility Score: inf
ROOT
ATOM      1  C   UNL     1      30.640   5.889 106.481  1.00  0.00     0.027 C 
ENDROOT
BRANCH   1   2
ATOM      2  C   UNL     1      31.724   4.860 106.127  1.00  0.00     0.004 C 
BRANCH   2   3
ATOM      3  C   UNL     1      32.397   4.263 107.372  1.00  0.00    -0.003 C 
ATOM      4  C   UNL     1      33.865   3.910 107.136  1.00  0.00     0.004 C 
ENDBRANCH   2   3
ENDBRANCH   1   2
BRANCH   1   5
ATOM      5  C   UNL     1      31.034   7.270 106.032  1.00  0.00    -0.023 C 
ATOM      6  C   UNL     1      31.807   8.131 106.717  1.00  0.00     0.042 C 
BRANCH   6   7
ATOM      7  C   UNL     1      32.385   7.914 108.063  1.00  0.00     0.152 C 
ATOM      8  O   UNL     1      33.589   7.581 108.222  1.00  0.00    -0.295 OA
ATOM      9  C   UNL     1      31.501   8.028 109.263  1.00  0.00     0.093 C 
ENDBRANCH   6   7
ENDBRANCH   1   5
TORSDOF 4
ENDMDL
MODEL 2
REMARK VINA RESULT:    -4.714      1.770      2.468
REMARK INTER + INTRA:          -6.250
REMARK INTER:                  -6.033
REMARK INTRA:                  -0.218
REMARK UNBOUND:                -0.433
REMARK SMILES CCCCC=CC(C)=O
REMARK SMILES IDX 4 1 3 2 2 3 1 4 5 5 6 6 7 7 9 8 8 9
REMARK H PARENT
REMARK Flexibility Score: inf
ROOT
ATOM      1  C   UNL     1      31.626   7.107 107.755  1.00  0.00     0.027 C 
ENDROOT
BRANCH   1   2
ATOM      2  C   UNL     1      32.213   5.789 108.284  1.00  0.00     0.004 C 
BRANCH   2   3
ATOM      3  C   UNL     1      32.066   4.636 107.280  1.00  0.00    -0.003 C 
ATOM      4  C   UNL     1      33.381   3.897 107.035  1.00  0.00     0.004 C 
ENDBRANCH   2   3
ENDBRANCH   1   2
BRANCH   1   5
ATOM      5  C   UNL     1      30.974   6.912 106.413  1.00  0.00    -0.023 C 
ATOM      6  C   UNL     1      30.925   7.818 105.422  1.00  0.00     0.042 C 
BRANCH   6   7
ATOM      7  C   UNL     1      31.458   9.200 105.465  1.00  0.00     0.152 C 
ATOM      8  O   UNL     1      32.686   9.433 105.618  1.00  0.00    -0.295 OA
ATOM      9  C   UNL     1      30.506  10.351 105.392  1.00  0.00     0.093 C 
ENDBRANCH   6   7
ENDBRANCH   1   5
TORSDOF 4
ENDMDL
MODEL 3
REMARK VINA RESULT:    -4.560      1.540      3.093
REMARK INTER + INTRA:          -6.060
REMARK INTER:                  -5.644
REMARK INTRA:                  -0.415
REMARK UNBOUND:                -0.433
REMARK SMILES CCCCC=CC(C)=O
REMARK SMILES IDX 4 1 3 2 2 3 1 4 5 5 6 6 7 7 9 8 8 9
REMARK H PARENT
REMARK Flexibility Score: inf
ROOT
ATOM      1  C   UNL     1      30.645   6.210 106.619  1.00  0.00     0.027 C 
ENDROOT
BRANCH   1   2
ATOM      2  C   UNL     1      30.765   6.377 105.096  1.00  0.00     0.004 C 
BRANCH   2   3
ATOM      3  C   UNL     1      30.511   7.822 104.642  1.00  0.00    -0.003 C 
ATOM      4  C   UNL     1      31.285   8.845 105.472  1.00  0.00     0.004 C 
ENDBRANCH   2   3
ENDBRANCH   1   2
BRANCH   1   5
ATOM      5  C   UNL     1      31.834   5.477 107.181  1.00  0.00    -0.023 C 
ATOM      6  C   UNL     1      32.729   5.977 108.050  1.00  0.00     0.042 C 
BRANCH   6   7
ATOM      7  C   UNL     1      32.754   7.356 108.591  1.00  0.00     0.152 C 
ATOM      8  O   UNL     1      31.869   7.775 109.382  1.00  0.00    -0.295 OA
ATOM      9  C   UNL     1      33.823   8.298 108.136  1.00  0.00     0.093 C 
ENDBRANCH   6   7
ENDBRANCH   1   5
TORSDOF 4
ENDMDL
MODEL 4
REMARK VINA RESULT:    -4.527      1.707      4.383
REMARK INTER + INTRA:          -6.019
REMARK INTER:                  -6.003
REMARK INTRA:                  -0.016
REMARK UNBOUND:                -0.433
REMARK SMILES CCCCC=CC(C)=O
REMARK SMILES IDX 4 1 3 2 2 3 1 4 5 5 6 6 7 7 9 8 8 9
REMARK H PARENT
REMARK Flexibility Score: inf
ROOT
ATOM      1  C   UNL     1      31.342   7.502 106.254  1.00  0.00     0.027 C 
ENDROOT
BRANCH   1   2
ATOM      2  C   UNL     1      30.980   8.474 105.121  1.00  0.00     0.004 C 
BRANCH   2   3
ATOM      3  C   UNL     1      31.396   9.920 105.432  1.00  0.00    -0.003 C 
ATOM      4  C   UNL     1      30.227  10.900 105.341  1.00  0.00     0.004 C 
ENDBRANCH   2   3
ENDBRANCH   1   2
BRANCH   1   5
ATOM      5  C   UNL     1      30.807   6.123 105.979  1.00  0.00    -0.023 C 
ATOM      6  C   UNL     1      31.272   4.978 106.508  1.00  0.00     0.042 C 
BRANCH   6   7
ATOM      7  C   UNL     1      32.426   4.836 107.425  1.00  0.00     0.152 C 
ATOM      8  O   UNL     1      32.517   5.509 108.486  1.00  0.00    -0.295 OA
ATOM      9  C   UNL     1      33.546   3.920 107.051  1.00  0.00     0.093 C 
ENDBRANCH   6   7
ENDBRANCH   1   5
TORSDOF 4
ENDMDL
MODEL 5
REMARK VINA RESULT:    -4.415      1.782      3.947
REMARK INTER + INTRA:          -5.880
REMARK INTER:                  -5.773
REMARK INTRA:                  -0.107
REMARK UNBOUND:                -0.433
REMARK SMILES CCCCC=CC(C)=O
REMARK SMILES IDX 4 1 3 2 2 3 1 4 5 5 6 6 7 7 9 8 8 9
REMARK H PARENT
REMARK Flexibility Score: inf
ROOT
ATOM      1  C   UNL     1      31.326   7.488 107.480  1.00  0.00     0.027 C 
ENDROOT
BRANCH   1   2
ATOM      2  C   UNL     1      31.833   8.480 106.421  1.00  0.00     0.004 C 
BRANCH   2   3
ATOM      3  C   UNL     1      31.030   8.406 105.114  1.00  0.00    -0.003 C 
ATOM      4  C   UNL     1      30.508   6.999 104.824  1.00  0.00     0.004 C 
ENDBRANCH   2   3
ENDBRANCH   1   2
BRANCH   1   5
ATOM      5  C   UNL     1      32.451   6.998 108.350  1.00  0.00    -0.023 C 
ATOM      6  C   UNL     1      33.008   5.775 108.302  1.00  0.00     0.042 C 
BRANCH   6   7
ATOM      7  C   UNL     1      32.599   4.656 107.423  1.00  0.00     0.152 C 
ATOM      8  O   UNL     1      31.388   4.408 107.183  1.00  0.00    -0.295 OA
ATOM      9  C   UNL     1      33.649   3.752 106.858  1.00  0.00     0.093 C 
ENDBRANCH   6   7
ENDBRANCH   1   5
TORSDOF 4
ENDMDL
MODEL 6
REMARK VINA RESULT:    -4.174      2.295      4.418
REMARK INTER + INTRA:          -5.583
REMARK INTER:                  -5.380
REMARK INTRA:                  -0.203
REMARK UNBOUND:                -0.433
REMARK SMILES CCCCC=CC(C)=O
REMARK SMILES IDX 4 1 3 2 2 3 1 4 5 5 6 6 7 7 9 8 8 9
REMARK H PARENT
REMARK Flexibility Score: inf
ROOT
ATOM      1  C   UNL     1      32.604   7.852 107.633  1.00  0.00     0.027 C 
ENDROOT
BRANCH   1   2
ATOM      2  C   UNL     1      33.956   8.423 108.087  1.00  0.00     0.004 C 
BRANCH   2   3
ATOM      3  C   UNL     1      34.634   9.266 106.997  1.00  0.00    -0.003 C 
ATOM      4  C   UNL     1      35.437  10.434 107.570  1.00  0.00     0.004 C 
ENDBRANCH   2   3
ENDBRANCH   1   2
BRANCH   1   5
ATOM      5  C   UNL     1      32.089   6.830 108.610  1.00  0.00    -0.023 C 
ATOM      6  C   UNL     1      31.992   5.508 108.390  1.00  0.00     0.042 C 
BRANCH   6   7
ATOM      7  C   UNL     1      32.327   4.798 107.134  1.00  0.00     0.152 C 
ATOM      8  O   UNL     1      31.595   4.875 106.112  1.00  0.00    -0.295 OA
ATOM      9  C   UNL     1      33.532   3.913 107.096  1.00  0.00     0.093 C 
ENDBRANCH   6   7
ENDBRANCH   1   5
TORSDOF 4
ENDMDL
MODEL 7
REMARK VINA RESULT:    -3.956      1.489      3.561
REMARK INTER + INTRA:          -5.314
REMARK INTER:                  -4.996
REMARK INTRA:                  -0.318
REMARK UNBOUND:                -0.433
REMARK SMILES CCCCC=CC(C)=O
REMARK SMILES IDX 4 1 3 2 2 3 1 4 5 5 6 6 7 7 9 8 8 9
REMARK H PARENT
REMARK Flexibility Score: inf
ROOT
ATOM      1  C   UNL     1      31.341   7.611 107.107  1.00  0.00     0.027 C 
ENDROOT
BRANCH   1   2
ATOM      2  C   UNL     1      32.408   8.536 106.502  1.00  0.00     0.004 C 
BRANCH   2   3
ATOM      3  C   UNL     1      33.673   8.621 107.371  1.00  0.00    -0.003 C 
ATOM      4  C   UNL     1      33.580   7.758 108.629  1.00  0.00     0.004 C 
ENDBRANCH   2   3
ENDBRANCH   1   2
BRANCH   1   5
ATOM      5  C   UNL     1      30.953   6.524 106.141  1.00  0.00    -0.023 C 
ATOM      6  C   UNL     1      31.302   5.229 106.231  1.00  0.00     0.042 C 
BRANCH   6   7
ATOM      7  C   UNL     1      32.171   4.622 107.266  1.00  0.00     0.152 C 
ATOM      8  O   UNL     1      31.931   4.755 108.496  1.00  0.00    -0.295 OA
ATOM      9  C   UNL     1      33.403   3.887 106.844  1.00  0.00     0.093 C 
ENDBRANCH   6   7
ENDBRANCH   1   5
TORSDOF 4
ENDMDL
MODEL 8
REMARK VINA RESULT:    -3.662      2.357      3.631
REMARK INTER + INTRA:          -4.951
REMARK INTER:                  -4.981
REMARK INTRA:                   0.029
REMARK UNBOUND:                -0.433
REMARK SMILES CCCCC=CC(C)=O
REMARK SMILES IDX 4 1 3 2 2 3 1 4 5 5 6 6 7 7 9 8 8 9
REMARK H PARENT
REMARK Flexibility Score: inf
ROOT
ATOM      1  C   UNL     1      31.985   8.084 107.497  1.00  0.00     0.027 C 
ENDROOT
BRANCH   1   2
ATOM      2  C   UNL     1      31.261   6.740 107.322  1.00  0.00     0.004 C 
BRANCH   2   3
ATOM      3  C   UNL     1      30.925   6.440 105.853  1.00  0.00    -0.003 C 
ATOM      4  C   UNL     1      30.626   7.704 105.048  1.00  0.00     0.004 C 
ENDBRANCH   2   3
ENDBRANCH   1   2
BRANCH   1   5
ATOM      5  C   UNL     1      33.371   7.887 108.049  1.00  0.00    -0.023 C 
ATOM      6  C   UNL     1      34.449   8.633 107.756  1.00  0.00     0.042 C 
BRANCH   6   7
ATOM      7  C   UNL     1      34.504   9.763 106.800  1.00  0.00     0.152 C 
ATOM      8  O   UNL     1      33.820   9.772 105.743  1.00  0.00    -0.295 OA
ATOM      9  C   UNL     1      35.446  10.895 107.063  1.00  0.00     0.093 C 
ENDBRANCH   6   7
ENDBRANCH   1   5
TORSDOF 4
ENDMDL
MODEL 9
REMARK VINA RESULT:    -3.647      2.246      4.432
REMARK INTER + INTRA:          -4.933
REMARK INTER:                  -4.843
REMARK INTRA:                  -0.089
REMARK UNBOUND:                -0.433
REMARK SMILES CCCCC=CC(C)=O
REMARK SMILES IDX 4 1 3 2 2 3 1 4 5 5 6 6 7 7 9 8 8 9
REMARK H PARENT
REMARK Flexibility Score: inf
ROOT
ATOM      1  C   UNL     1      31.436   8.929 105.854  1.00  0.00     0.027 C 
ENDROOT
BRANCH   1   2
ATOM      2  C   UNL     1      30.547   9.766 104.922  1.00  0.00     0.004 C 
BRANCH   2   3
ATOM      3  C   UNL     1      30.337  11.197 105.440  1.00  0.00    -0.003 C 
ATOM      4  C   UNL     1      31.480  12.135 105.055  1.00  0.00     0.004 C 
ENDBRANCH   2   3
ENDBRANCH   1   2
BRANCH   1   5
ATOM      5  C   UNL     1      30.958   7.504 105.926  1.00  0.00    -0.023 C 
ATOM      6  C   UNL     1      31.219   6.634 106.918  1.00  0.00     0.042 C 
BRANCH   6   7
ATOM      7  C   UNL     1      32.061   6.886 108.110  1.00  0.00     0.152 C 
ATOM      8  O   UNL     1      33.140   6.266 108.304  1.00  0.00    -0.295 OA
ATOM      9  C   UNL     1      31.587   7.855 109.146  1.00  0.00     0.093 C 
ENDBRANCH   6   7
ENDBRANCH   1   5
TORSDOF 4
ENDMDL
