MODEL 1
REMARK VINA RESULT:    -3.538      0.000      0.000
REMARK INTER + INTRA:          -4.490
REMARK INTER:                  -4.159
REMARK INTRA:                  -0.330
REMARK UNBOUND:                -0.330
REMARK SMILES [NH3+][C@@H](CO)C(=O)[O-]
REMARK SMILES IDX 3 1 2 2 1 3 5 7 6 8 7 9 4 10
REMARK H PARENT 1 4 1 5 1 6 4 11
REMARK Flexibility Score: inf
ROOT
ATOM      1  C   UNL     1     122.273 156.213 158.759  1.00  0.00     0.227 C 
ENDROOT
BRANCH   1   2
ATOM      2  C   UNL     1     120.893 155.617 158.434  1.00  0.00     0.253 C 
BRANCH   2   3
ATOM      3  N   UNL     1     120.819 154.206 158.830  1.00  0.00    -0.348 N 
ATOM      4  H   UNL     1     121.635 153.682 158.438  1.00  0.00     0.345 HD
ATOM      5  H   UNL     1     119.934 153.769 158.482  1.00  0.00     0.345 HD
ATOM      6  H   UNL     1     120.853 154.127 159.872  1.00  0.00     0.345 HD
ENDBRANCH   2   3
BRANCH   2   7
ATOM      7  C   UNL     1     120.596 155.768 156.965  1.00  0.00     0.102 C 
ATOM      8  O   UNL     1     120.465 154.752 156.233  1.00  0.00    -0.544 OA
ATOM      9  O   UNL     1     120.479 157.035 156.407  1.00  0.00    -0.544 OA
ENDBRANCH   2   7
ENDBRANCH   1   2
BRANCH   1  10
ATOM     10  O   UNL     1     123.098 156.152 157.629  1.00  0.00    -0.390 OA
ATOM     11  H   UNL     1     122.688 155.482 157.024  1.00  0.00     0.210 HD
ENDBRANCH   1  10
TORSDOF 4
ENDMDL
MODEL 2
REMARK VINA RESULT:    -3.486      1.870      2.689
REMARK INTER + INTRA:          -4.428
REMARK INTER:                  -4.219
REMARK INTRA:                  -0.209
REMARK UNBOUND:                -0.330
REMARK SMILES [NH3+][C@@H](CO)C(=O)[O-]
REMARK SMILES IDX 3 1 2 2 1 3 5 7 6 8 7 9 4 10
REMARK H PARENT 1 4 1 5 1 6 4 11
REMARK Flexibility Score: inf
ROOT
ATOM      1  C   UNL     1     121.394 156.573 156.162  1.00  0.00     0.227 C 
ENDROOT
BRANCH   1   2
ATOM      2  C   UNL     1     121.669 156.281 157.646  1.00  0.00     0.253 C 
BRANCH   2   3
ATOM      3  N   UNL     1     123.107 156.128 157.898  1.00  0.00    -0.348 N 
ATOM      4  H   UNL     1     123.274 155.939 158.913  1.00  0.00     0.345 HD
ATOM      5  H   UNL     1     123.626 156.994 157.622  1.00  0.00     0.345 HD
ATOM      6  H   UNL     1     123.479 155.317 157.351  1.00  0.00     0.345 HD
ENDBRANCH   2   3
BRANCH   2   7
ATOM      7  C   UNL     1     120.925 155.045 158.078  1.00  0.00     0.102 C 
ATOM      8  O   UNL     1     121.037 154.610 159.255  1.00  0.00    -0.544 OA
ATOM      9  O   UNL     1     120.121 154.367 157.170  1.00  0.00    -0.544 OA
ENDBRANCH   2   7
ENDBRANCH   1   2
BRANCH   1  10
ATOM     10  O   UNL     1     120.164 157.229 156.023  1.00  0.00    -0.390 OA
ATOM     11  H   UNL     1     119.506 156.691 156.535  1.00  0.00     0.210 HD
ENDBRANCH   1  10
TORSDOF 4
ENDMDL
MODEL 3
REMARK VINA RESULT:    -3.414      8.720      9.322
REMARK INTER + INTRA:          -4.343
REMARK INTER:                  -4.116
REMARK INTRA:                  -0.226
REMARK UNBOUND:                -0.330
REMARK SMILES [NH3+][C@@H](CO)C(=O)[O-]
REMARK SMILES IDX 3 1 2 2 1 3 5 7 6 8 7 9 4 10
REMARK H PARENT 1 4 1 5 1 6 4 11
REMARK Flexibility Score: inf
ROOT
ATOM      1  C   UNL     1     117.415 156.868 150.174  1.00  0.00     0.227 C 
ENDROOT
BRANCH   1   2
ATOM      2  C   UNL     1     117.201 158.179 149.400  1.00  0.00     0.253 C 
BRANCH   2   3
ATOM      3  N   UNL     1     118.024 158.216 148.185  1.00  0.00    -0.348 N 
ATOM      4  H   UNL     1     118.334 157.249 147.933  1.00  0.00     0.345 HD
ATOM      5  H   UNL     1     118.867 158.820 148.326  1.00  0.00     0.345 HD
ATOM      6  H   UNL     1     117.462 158.594 147.387  1.00  0.00     0.345 HD
ENDBRANCH   2   3
BRANCH   2   7
ATOM      7  C   UNL     1     117.512 159.359 150.282  1.00  0.00     0.102 C 
ATOM      8  O   UNL     1     117.813 159.189 151.493  1.00  0.00    -0.544 OA
ATOM      9  O   UNL     1     117.454 160.646 149.764  1.00  0.00    -0.544 OA
ENDBRANCH   2   7
ENDBRANCH   1   2
BRANCH   1  10
ATOM     10  O   UNL     1     116.350 156.655 151.059  1.00  0.00    -0.390 OA
ATOM     11  H   UNL     1     115.639 156.207 150.532  1.00  0.00     0.210 HD
ENDBRANCH   1  10
TORSDOF 4
ENDMDL
MODEL 4
REMARK VINA RESULT:    -3.409      4.120      4.576
REMARK INTER + INTRA:          -4.338
REMARK INTER:                  -4.036
REMARK INTRA:                  -0.302
REMARK UNBOUND:                -0.330
REMARK SMILES [NH3+][C@@H](CO)C(=O)[O-]
REMARK SMILES IDX 3 1 2 2 1 3 5 7 6 8 7 9 4 10
REMARK H PARENT 1 4 1 5 1 6 4 11
REMARK Flexibility Score: inf
ROOT
ATOM      1  C   UNL     1     120.778 152.836 162.123  1.00  0.00     0.227 C 
ENDROOT
BRANCH   1   2
ATOM      2  C   UNL     1     121.649 152.952 160.861  1.00  0.00     0.253 C 
BRANCH   2   3
ATOM      3  N   UNL     1     122.058 154.342 160.626  1.00  0.00    -0.348 N 
ATOM      4  H   UNL     1     122.170 154.840 161.539  1.00  0.00     0.345 HD
ATOM      5  H   UNL     1     121.346 154.845 160.047  1.00  0.00     0.345 HD
ATOM      6  H   UNL     1     122.979 154.361 160.130  1.00  0.00     0.345 HD
ENDBRANCH   2   3
BRANCH   2   7
ATOM      7  C   UNL     1     120.907 152.413 159.667  1.00  0.00     0.102 C 
ATOM      8  O   UNL     1     120.647 151.184 159.578  1.00  0.00    -0.544 OA
ATOM      9  O   UNL     1     120.517 153.272 158.647  1.00  0.00    -0.544 OA
ENDBRANCH   2   7
ENDBRANCH   1   2
BRANCH   1  10
ATOM     10  O   UNL     1     119.422 152.866 161.773  1.00  0.00    -0.390 OA
ATOM     11  H   UNL     1     118.930 152.487 162.546  1.00  0.00     0.210 HD
ENDBRANCH   1  10
TORSDOF 4
ENDMDL
MODEL 5
REMARK VINA RESULT:    -3.401      7.278      7.868
REMARK INTER + INTRA:          -4.328
REMARK INTER:                  -4.106
REMARK INTRA:                  -0.222
REMARK UNBOUND:                -0.330
REMARK SMILES [NH3+][C@@H](CO)C(=O)[O-]
REMARK SMILES IDX 3 1 2 2 1 3 5 7 6 8 7 9 4 10
REMARK H PARENT 1 4 1 5 1 6 4 11
REMARK Flexibility Score: inf
ROOT
ATOM      1  C   UNL     1     117.646 156.569 151.533  1.00  0.00     0.227 C 
ENDROOT
BRANCH   1   2
ATOM      2  C   UNL     1     118.130 157.908 152.111  1.00  0.00     0.253 C 
BRANCH   2   3
ATOM      3  N   UNL     1     117.174 158.440 153.089  1.00  0.00    -0.348 N 
ATOM      4  H   UNL     1     116.203 158.149 152.834  1.00  0.00     0.345 HD
ATOM      5  H   UNL     1     117.220 159.485 153.123  1.00  0.00     0.345 HD
ATOM      6  H   UNL     1     117.389 158.057 154.039  1.00  0.00     0.345 HD
ENDBRANCH   2   3
BRANCH   2   7
ATOM      7  C   UNL     1     118.354 158.901 151.001  1.00  0.00     0.102 C 
ATOM      8  O   UNL     1     117.381 159.347 150.337  1.00  0.00    -0.544 OA
ATOM      9  O   UNL     1     119.643 159.320 150.694  1.00  0.00    -0.544 OA
ENDBRANCH   2   7
ENDBRANCH   1   2
BRANCH   1  10
ATOM     10  O   UNL     1     116.296 156.663 151.173  1.00  0.00    -0.390 OA
ATOM     11  H   UNL     1     116.036 157.608 151.324  1.00  0.00     0.210 HD
ENDBRANCH   1  10
TORSDOF 4
ENDMDL
MODEL 6
REMARK VINA RESULT:    -3.327      2.025      2.205
REMARK INTER + INTRA:          -4.241
REMARK INTER:                  -4.031
REMARK INTRA:                  -0.210
REMARK UNBOUND:                -0.330
REMARK SMILES [NH3+][C@@H](CO)C(=O)[O-]
REMARK SMILES IDX 3 1 2 2 1 3 5 7 6 8 7 9 4 10
REMARK H PARENT 1 4 1 5 1 6 4 11
REMARK Flexibility Score: inf
ROOT
ATOM      1  C   UNL     1     121.837 156.674 158.135  1.00  0.00     0.227 C 
ENDROOT
BRANCH   1   2
ATOM      2  C   UNL     1     121.208 156.047 156.881  1.00  0.00     0.253 C 
BRANCH   2   3
ATOM      3  N   UNL     1     120.226 156.952 156.271  1.00  0.00    -0.348 N 
ATOM      4  H   UNL     1     120.377 157.000 155.238  1.00  0.00     0.345 HD
ATOM      5  H   UNL     1     120.308 157.914 156.674  1.00  0.00     0.345 HD
ATOM      6  H   UNL     1     119.258 156.591 156.441  1.00  0.00     0.345 HD
ENDBRANCH   2   3
BRANCH   2   7
ATOM      7  C   UNL     1     120.566 154.729 157.226  1.00  0.00     0.102 C 
ATOM      8  O   UNL     1     120.664 154.257 158.389  1.00  0.00    -0.544 OA
ATOM      9  O   UNL     1     119.872 154.020 156.254  1.00  0.00    -0.544 OA
ENDBRANCH   2   7
ENDBRANCH   1   2
BRANCH   1  10
ATOM     10  O   UNL     1     123.104 156.123 158.362  1.00  0.00    -0.390 OA
ATOM     11  H   UNL     1     123.620 156.813 158.854  1.00  0.00     0.210 HD
ENDBRANCH   1  10
TORSDOF 4
ENDMDL
MODEL 7
REMARK VINA RESULT:    -3.282      5.860      6.525
REMARK INTER + INTRA:          -4.188
REMARK INTER:                  -3.987
REMARK INTRA:                  -0.201
REMARK UNBOUND:                -0.330
REMARK SMILES [NH3+][C@@H](CO)C(=O)[O-]
REMARK SMILES IDX 3 1 2 2 1 3 5 7 6 8 7 9 4 10
REMARK H PARENT 1 4 1 5 1 6 4 11
REMARK Flexibility Score: inf
ROOT
ATOM      1  C   UNL     1     117.995 157.445 152.518  1.00  0.00     0.227 C 
ENDROOT
BRANCH   1   2
ATOM      2  C   UNL     1     119.479 157.629 152.874  1.00  0.00     0.253 C 
BRANCH   2   3
ATOM      3  N   UNL     1     119.637 158.131 154.245  1.00  0.00    -0.348 N 
ATOM      4  H   UNL     1     119.825 157.336 154.897  1.00  0.00     0.345 HD
ATOM      5  H   UNL     1     118.773 158.633 154.558  1.00  0.00     0.345 HD
ATOM      6  H   UNL     1     120.450 158.788 154.291  1.00  0.00     0.345 HD
ENDBRANCH   2   3
BRANCH   2   7
ATOM      7  C   UNL     1     120.137 158.564 151.893  1.00  0.00     0.102 C 
ATOM      8  O   UNL     1     121.391 158.665 151.850  1.00  0.00    -0.544 OA
ATOM      9  O   UNL     1     119.357 159.333 151.039  1.00  0.00    -0.544 OA
ENDBRANCH   2   7
ENDBRANCH   1   2
BRANCH   1  10
ATOM     10  O   UNL     1     117.229 158.446 153.127  1.00  0.00    -0.390 OA
ATOM     11  H   UNL     1     116.281 158.213 152.952  1.00  0.00     0.210 HD
ENDBRANCH   1  10
TORSDOF 4
ENDMDL
MODEL 8
REMARK VINA RESULT:    -3.192      4.580      5.382
REMARK INTER + INTRA:          -4.083
REMARK INTER:                  -3.732
REMARK INTRA:                  -0.351
REMARK UNBOUND:                -0.330
REMARK SMILES [NH3+][C@@H](CO)C(=O)[O-]
REMARK SMILES IDX 3 1 2 2 1 3 5 7 6 8 7 9 4 10
REMARK H PARENT 1 4 1 5 1 6 4 11
REMARK Flexibility Score: inf
ROOT
ATOM      1  C   UNL     1     120.859 158.545 151.985  1.00  0.00     0.227 C 
ENDROOT
BRANCH   1   2
ATOM      2  C   UNL     1     119.900 157.742 152.879  1.00  0.00     0.253 C 
BRANCH   2   3
ATOM      3  N   UNL     1     118.891 158.615 153.492  1.00  0.00    -0.348 N 
ATOM      4  H   UNL     1     117.949 158.409 153.089  1.00  0.00     0.345 HD
ATOM      5  H   UNL     1     119.122 159.622 153.326  1.00  0.00     0.345 HD
ATOM      6  H   UNL     1     118.848 158.439 154.523  1.00  0.00     0.345 HD
ENDBRANCH   2   3
BRANCH   2   7
ATOM      7  C   UNL     1     120.674 157.007 153.941  1.00  0.00     0.102 C 
ATOM      8  O   UNL     1     120.549 157.320 155.155  1.00  0.00    -0.544 OA
ATOM      9  O   UNL     1     121.545 155.985 153.583  1.00  0.00    -0.544 OA
ENDBRANCH   2   7
ENDBRANCH   1   2
BRANCH   1  10
ATOM     10  O   UNL     1     122.029 158.849 152.690  1.00  0.00    -0.390 OA
ATOM     11  H   UNL     1     122.680 158.135 152.466  1.00  0.00     0.210 HD
ENDBRANCH   1  10
TORSDOF 4
ENDMDL
MODEL 9
REMARK VINA RESULT:    -3.177      6.752      7.712
REMARK INTER + INTRA:          -4.065
REMARK INTER:                  -3.649
REMARK INTRA:                  -0.416
REMARK UNBOUND:                -0.330
REMARK SMILES [NH3+][C@@H](CO)C(=O)[O-]
REMARK SMILES IDX 3 1 2 2 1 3 5 7 6 8 7 9 4 10
REMARK H PARENT 1 4 1 5 1 6 4 11
REMARK Flexibility Score: inf
ROOT
ATOM      1  C   UNL     1     118.495 158.031 153.079  1.00  0.00     0.227 C 
ENDROOT
BRANCH   1   2
ATOM      2  C   UNL     1     119.024 158.200 151.645  1.00  0.00     0.253 C 
BRANCH   2   3
ATOM      3  N   UNL     1     120.070 159.228 151.585  1.00  0.00    -0.348 N 
ATOM      4  H   UNL     1     120.980 158.832 151.914  1.00  0.00     0.345 HD
ATOM      5  H   UNL     1     119.819 160.049 152.184  1.00  0.00     0.345 HD
ATOM      6  H   UNL     1     120.194 159.551 150.598  1.00  0.00     0.345 HD
ENDBRANCH   2   3
BRANCH   2   7
ATOM      7  C   UNL     1     117.893 158.546 150.713  1.00  0.00     0.102 C 
ATOM      8  O   UNL     1     117.595 159.748 150.488  1.00  0.00    -0.544 OA
ATOM      9  O   UNL     1     117.161 157.533 150.106  1.00  0.00    -0.544 OA
ENDBRANCH   2   7
ENDBRANCH   1   2
BRANCH   1  10
ATOM     10  O   UNL     1     117.112 158.249 153.108  1.00  0.00    -0.390 OA
ATOM     11  H   UNL     1     116.796 157.897 153.980  1.00  0.00     0.210 HD
ENDBRANCH   1  10
TORSDOF 4
ENDMDL
