MODEL 1
REMARK VINA RESULT:    -7.212      0.000      0.000
REMARK INTER + INTRA:          -8.576
REMARK INTER:                  -8.266
REMARK INTRA:                  -0.310
REMARK UNBOUND:                -0.310
REMARK SMILES O=C1C[C@H](c2ccc(O)cc2)Oc2cc(O)cc(O)c21
REMARK SMILES IDX 3 1 4 2 12 3 13 4 14 5 15 6 17 7 18 8 20 9 2 10 1 11 5 12
REMARK SMILES IDX 6 13 11 14 7 15 10 16 8 17 9 18 19 20 16 22
REMARK H PARENT 9 19 19 21 16 23
REMARK Flexibility Score: inf
ROOT
ATOM      1  C   UNL     1     -16.250 -46.294   0.519  1.00  0.00     0.131 C 
ATOM      2  C   UNL     1     -17.622 -45.650   0.260  1.00  0.00     0.211 C 
ATOM      3  O   UNL     1     -17.951 -44.730   1.304  1.00  0.00    -0.484 OA
ATOM      4  C   UNL     1     -17.721 -45.026   2.653  1.00  0.00     0.138 A 
ATOM      5  C   UNL     1     -18.339 -44.253   3.641  1.00  0.00     0.093 A 
ATOM      6  C   UNL     1     -18.143 -44.548   4.992  1.00  0.00     0.123 A 
ATOM      7  C   UNL     1     -17.316 -45.618   5.358  1.00  0.00     0.093 A 
ATOM      8  C   UNL     1     -16.675 -46.389   4.378  1.00  0.00     0.133 A 
ATOM      9  C   UNL     1     -16.871 -46.090   3.012  1.00  0.00     0.102 A 
ATOM     10  C   UNL     1     -16.189 -46.827   1.922  1.00  0.00     0.174 C 
ATOM     11  O   UNL     1     -15.512 -47.865   2.159  1.00  0.00    -0.294 OA
ENDROOT
BRANCH   2  12
ATOM     12  C   UNL     1     -17.636 -44.945  -1.074  1.00  0.00    -0.007 A 
ATOM     13  C   UNL     1     -17.254 -45.623  -2.246  1.00  0.00     0.011 A 
ATOM     14  C   UNL     1     -18.085 -43.617  -1.169  1.00  0.00     0.011 A 
ATOM     15  C   UNL     1     -17.298 -44.976  -3.484  1.00  0.00     0.046 A 
ATOM     16  C   UNL     1     -18.128 -42.971  -2.408  1.00  0.00     0.046 A 
ATOM     17  C   UNL     1     -17.732 -43.649  -3.569  1.00  0.00     0.115 A 
BRANCH  17  18
ATOM     18  O   UNL     1     -17.770 -43.016  -4.810  1.00  0.00    -0.508 OA
ATOM     19  H   UNL     1     -18.606 -42.548  -5.139  1.00  0.00     0.293 HD
ENDBRANCH  17  18
ENDBRANCH   2  12
BRANCH   8  20
ATOM     20  O   UNL     1     -15.842 -47.440   4.763  1.00  0.00    -0.507 OA
ATOM     21  H   UNL     1     -14.834 -47.377   4.683  1.00  0.00     0.293 HD
ENDBRANCH   8  20
BRANCH   6  22
ATOM     22  O   UNL     1     -18.773 -43.773   5.962  1.00  0.00    -0.508 OA
ATOM     23  H   UNL     1     -18.777 -44.046   6.938  1.00  0.00     0.293 HD
ENDBRANCH   6  22
TORSDOF 4
ENDMDL
MODEL 2
REMARK VINA RESULT:    -7.149      8.231     11.357
REMARK INTER + INTRA:          -8.504
REMARK INTER:                  -8.193
REMARK INTRA:                  -0.311
REMARK UNBOUND:                -0.310
REMARK SMILES O=C1C[C@H](c2ccc(O)cc2)Oc2cc(O)cc(O)c21
REMARK SMILES IDX 3 1 4 2 12 3 13 4 14 5 15 6 17 7 18 8 20 9 2 10 1 11 5 12
REMARK SMILES IDX 6 13 11 14 7 15 10 16 8 17 9 18 19 20 16 22
REMARK H PARENT 9 19 19 21 16 23
REMARK Flexibility Score: inf
ROOT
ATOM      1  C   UNL     1     -14.126 -43.522  -5.747  1.00  0.00     0.131 C 
ATOM      2  C   UNL     1     -12.732 -43.708  -6.369  1.00  0.00     0.211 C 
ATOM      3  O   UNL     1     -12.332 -42.527  -7.069  1.00  0.00    -0.484 OA
ATOM      4  C   UNL     1     -13.217 -41.814  -7.887  1.00  0.00     0.138 A 
ATOM      5  C   UNL     1     -12.711 -40.872  -8.787  1.00  0.00     0.093 A 
ATOM      6  C   UNL     1     -13.573 -40.168  -9.631  1.00  0.00     0.123 A 
ATOM      7  C   UNL     1     -14.954 -40.403  -9.568  1.00  0.00     0.093 A 
ATOM      8  C   UNL     1     -15.476 -41.332  -8.655  1.00  0.00     0.133 A 
ATOM      9  C   UNL     1     -14.604 -42.041  -7.801  1.00  0.00     0.102 A 
ATOM     10  C   UNL     1     -15.085 -43.001  -6.778  1.00  0.00     0.174 C 
ATOM     11  O   UNL     1     -16.296 -43.345  -6.725  1.00  0.00    -0.294 OA
ENDROOT
BRANCH   2  12
ATOM     12  C   UNL     1     -11.716 -44.051  -5.307  1.00  0.00    -0.007 A 
ATOM     13  C   UNL     1     -10.695 -43.143  -4.974  1.00  0.00     0.011 A 
ATOM     14  C   UNL     1     -11.812 -45.261  -4.600  1.00  0.00     0.011 A 
ATOM     15  C   UNL     1      -9.774 -43.452  -3.969  1.00  0.00     0.046 A 
ATOM     16  C   UNL     1     -10.890 -45.569  -3.595  1.00  0.00     0.046 A 
ATOM     17  C   UNL     1      -9.868 -44.665  -3.279  1.00  0.00     0.115 A 
BRANCH  17  18
ATOM     18  O   UNL     1      -8.941 -44.961  -2.280  1.00  0.00    -0.508 OA
ATOM     19  H   UNL     1      -8.493 -44.228  -1.742  1.00  0.00     0.293 HD
ENDBRANCH  17  18
ENDBRANCH   2  12
BRANCH   8  20
ATOM     20  O   UNL     1     -16.854 -41.539  -8.596  1.00  0.00    -0.507 OA
ATOM     21  H   UNL     1     -17.463 -41.292  -9.367  1.00  0.00     0.293 HD
ENDBRANCH   8  20
BRANCH   6  22
ATOM     22  O   UNL     1     -13.052 -39.239 -10.527  1.00  0.00    -0.508 OA
ATOM     23  H   UNL     1     -12.255 -39.459 -11.115  1.00  0.00     0.293 HD
ENDBRANCH   6  22
TORSDOF 4
ENDMDL
MODEL 3
REMARK VINA RESULT:    -7.116      2.902      4.470
REMARK INTER + INTRA:          -8.467
REMARK INTER:                  -8.161
REMARK INTRA:                  -0.305
REMARK UNBOUND:                -0.310
REMARK SMILES O=C1C[C@H](c2ccc(O)cc2)Oc2cc(O)cc(O)c21
REMARK SMILES IDX 3 1 4 2 12 3 13 4 14 5 15 6 17 7 18 8 20 9 2 10 1 11 5 12
REMARK SMILES IDX 6 13 11 14 7 15 10 16 8 17 9 18 19 20 16 22
REMARK H PARENT 9 19 19 21 16 23
REMARK Flexibility Score: inf
ROOT
ATOM      1  C   UNL     1     -17.379 -45.565  -2.057  1.00  0.00     0.131 C 
ATOM      2  C   UNL     1     -15.921 -45.917  -1.718  1.00  0.00     0.211 C 
ATOM      3  O   UNL     1     -15.837 -46.522  -0.425  1.00  0.00    -0.484 OA
ATOM      4  C   UNL     1     -16.561 -46.036   0.670  1.00  0.00     0.138 A 
ATOM      5  C   UNL     1     -16.212 -46.446   1.960  1.00  0.00     0.093 A 
ATOM      6  C   UNL     1     -16.905 -45.953   3.068  1.00  0.00     0.123 A 
ATOM      7  C   UNL     1     -17.961 -45.050   2.883  1.00  0.00     0.093 A 
ATOM      8  C   UNL     1     -18.334 -44.646   1.593  1.00  0.00     0.133 A 
ATOM      9  C   UNL     1     -17.634 -45.147   0.473  1.00  0.00     0.102 A 
ATOM     10  C   UNL     1     -18.002 -44.804  -0.922  1.00  0.00     0.174 C 
ATOM     11  O   UNL     1     -18.869 -43.924  -1.172  1.00  0.00    -0.294 OA
ENDROOT
BRANCH   2  12
ATOM     12  C   UNL     1     -15.339 -46.839  -2.761  1.00  0.00    -0.007 A 
ATOM     13  C   UNL     1     -14.942 -46.342  -4.015  1.00  0.00     0.011 A 
ATOM     14  C   UNL     1     -15.136 -48.198  -2.470  1.00  0.00     0.011 A 
ATOM     15  C   UNL     1     -14.375 -47.194  -4.967  1.00  0.00     0.046 A 
ATOM     16  C   UNL     1     -14.569 -49.050  -3.423  1.00  0.00     0.046 A 
ATOM     17  C   UNL     1     -14.189 -48.549  -4.675  1.00  0.00     0.115 A 
BRANCH  17  18
ATOM     18  O   UNL     1     -13.624 -49.387  -5.635  1.00  0.00    -0.508 OA
ATOM     19  H   UNL     1     -12.937 -50.089  -5.384  1.00  0.00     0.293 HD
ENDBRANCH  17  18
ENDBRANCH   2  12
BRANCH   8  20
ATOM     20  O   UNL     1     -19.399 -43.760   1.429  1.00  0.00    -0.507 OA
ATOM     21  H   UNL     1     -19.433 -42.873   1.919  1.00  0.00     0.293 HD
ENDBRANCH   8  20
BRANCH   6  22
ATOM     22  O   UNL     1     -16.539 -46.365   4.347  1.00  0.00    -0.508 OA
ATOM     23  H   UNL     1     -17.139 -46.961   4.904  1.00  0.00     0.293 HD
ENDBRANCH   6  22
TORSDOF 4
ENDMDL
MODEL 4
REMARK VINA RESULT:    -7.063     10.568     14.023
REMARK INTER + INTRA:          -8.405
REMARK INTER:                  -8.120
REMARK INTRA:                  -0.286
REMARK UNBOUND:                -0.310
REMARK SMILES O=C1C[C@H](c2ccc(O)cc2)Oc2cc(O)cc(O)c21
REMARK SMILES IDX 3 1 4 2 12 3 13 4 14 5 15 6 17 7 18 8 20 9 2 10 1 11 5 12
REMARK SMILES IDX 6 13 11 14 7 15 10 16 8 17 9 18 19 20 16 22
REMARK H PARENT 9 19 19 21 16 23
REMARK Flexibility Score: inf
ROOT
ATOM      1  C   UNL     1     -11.988 -44.785 -10.644  1.00  0.00     0.131 C 
ATOM      2  C   UNL     1     -11.948 -43.717  -9.538  1.00  0.00     0.211 C 
ATOM      3  O   UNL     1     -11.032 -42.674  -9.879  1.00  0.00    -0.484 OA
ATOM      4  C   UNL     1      -9.777 -42.943 -10.439  1.00  0.00     0.138 A 
ATOM      5  C   UNL     1      -8.805 -41.939 -10.458  1.00  0.00     0.093 A 
ATOM      6  C   UNL     1      -7.538 -42.194 -10.989  1.00  0.00     0.123 A 
ATOM      7  C   UNL     1      -7.245 -43.460 -11.512  1.00  0.00     0.093 A 
ATOM      8  C   UNL     1      -8.218 -44.471 -11.516  1.00  0.00     0.133 A 
ATOM      9  C   UNL     1      -9.498 -44.211 -10.982  1.00  0.00     0.102 A 
ATOM     10  C   UNL     1     -10.592 -45.212 -10.997  1.00  0.00     0.174 C 
ATOM     11  O   UNL     1     -10.383 -46.403 -11.354  1.00  0.00    -0.294 OA
ENDROOT
BRANCH   2  12
ATOM     12  C   UNL     1     -13.323 -43.143  -9.303  1.00  0.00    -0.007 A 
ATOM     13  C   UNL     1     -13.708 -42.707  -8.022  1.00  0.00     0.011 A 
ATOM     14  C   UNL     1     -14.218 -42.986 -10.375  1.00  0.00     0.011 A 
ATOM     15  C   UNL     1     -14.972 -42.148  -7.814  1.00  0.00     0.046 A 
ATOM     16  C   UNL     1     -15.482 -42.426 -10.165  1.00  0.00     0.046 A 
ATOM     17  C   UNL     1     -15.862 -42.007  -8.883  1.00  0.00     0.115 A 
BRANCH  17  18
ATOM     18  O   UNL     1     -17.120 -41.448  -8.661  1.00  0.00    -0.508 OA
ATOM     19  H   UNL     1     -17.962 -42.010  -8.703  1.00  0.00     0.293 HD
ENDBRANCH  17  18
ENDBRANCH   2  12
BRANCH   8  20
ATOM     20  O   UNL     1      -7.911 -45.720 -12.057  1.00  0.00    -0.507 OA
ATOM     21  H   UNL     1      -8.520 -46.520 -11.927  1.00  0.00     0.293 HD
ENDBRANCH   8  20
BRANCH   6  22
ATOM     22  O   UNL     1      -6.578 -41.185 -10.992  1.00  0.00    -0.508 OA
ATOM     23  H   UNL     1      -5.592 -41.391 -10.881  1.00  0.00     0.293 HD
ENDBRANCH   6  22
TORSDOF 4
ENDMDL
MODEL 5
REMARK VINA RESULT:    -6.989      8.775     12.010
REMARK INTER + INTRA:          -8.320
REMARK INTER:                  -8.016
REMARK INTRA:                  -0.305
REMARK UNBOUND:                -0.310
REMARK SMILES O=C1C[C@H](c2ccc(O)cc2)Oc2cc(O)cc(O)c21
REMARK SMILES IDX 3 1 4 2 12 3 13 4 14 5 15 6 17 7 18 8 20 9 2 10 1 11 5 12
REMARK SMILES IDX 6 13 11 14 7 15 10 16 8 17 9 18 19 20 16 22
REMARK H PARENT 9 19 19 21 16 23
REMARK Flexibility Score: inf
ROOT
ATOM      1  C   UNL     1     -10.740 -43.017  -8.122  1.00  0.00     0.131 C 
ATOM      2  C   UNL     1     -11.260 -42.386  -6.820  1.00  0.00     0.211 C 
ATOM      3  O   UNL     1     -12.684 -42.488  -6.744  1.00  0.00    -0.484 OA
ATOM      4  C   UNL     1     -13.505 -42.237  -7.850  1.00  0.00     0.138 A 
ATOM      5  C   UNL     1     -14.875 -42.037  -7.657  1.00  0.00     0.093 A 
ATOM      6  C   UNL     1     -15.708 -41.761  -8.743  1.00  0.00     0.123 A 
ATOM      7  C   UNL     1     -15.168 -41.693 -10.034  1.00  0.00     0.093 A 
ATOM      8  C   UNL     1     -13.798 -41.911 -10.245  1.00  0.00     0.133 A 
ATOM      9  C   UNL     1     -12.957 -42.193  -9.147  1.00  0.00     0.102 A 
ATOM     10  C   UNL     1     -11.511 -42.484  -9.296  1.00  0.00     0.174 C 
ATOM     11  O   UNL     1     -10.928 -42.343 -10.405  1.00  0.00    -0.294 OA
ENDROOT
BRANCH   2  12
ATOM     12  C   UNL     1     -10.628 -43.046  -5.619  1.00  0.00    -0.007 A 
ATOM     13  C   UNL     1     -11.106 -42.782  -4.323  1.00  0.00     0.011 A 
ATOM     14  C   UNL     1      -9.588 -43.976  -5.788  1.00  0.00     0.011 A 
ATOM     15  C   UNL     1     -10.538 -43.419  -3.216  1.00  0.00     0.046 A 
ATOM     16  C   UNL     1      -9.021 -44.612  -4.679  1.00  0.00     0.046 A 
ATOM     17  C   UNL     1      -9.494 -44.333  -3.391  1.00  0.00     0.115 A 
BRANCH  17  18
ATOM     18  O   UNL     1      -8.936 -44.960  -2.277  1.00  0.00    -0.508 OA
ATOM     19  H   UNL     1      -8.852 -44.481  -1.389  1.00  0.00     0.293 HD
ENDBRANCH  17  18
ENDBRANCH   2  12
BRANCH   8  20
ATOM     20  O   UNL     1     -13.283 -41.856 -11.540  1.00  0.00    -0.507 OA
ATOM     21  H   UNL     1     -12.653 -42.567 -11.893  1.00  0.00     0.293 HD
ENDBRANCH   8  20
BRANCH   6  22
ATOM     22  O   UNL     1     -17.069 -41.555  -8.531  1.00  0.00    -0.508 OA
ATOM     23  H   UNL     1     -17.770 -42.084  -9.037  1.00  0.00     0.293 HD
ENDBRANCH   6  22
TORSDOF 4
ENDMDL
MODEL 6
REMARK VINA RESULT:    -6.941      7.735      9.650
REMARK INTER + INTRA:          -8.266
REMARK INTER:                  -7.948
REMARK INTRA:                  -0.318
REMARK UNBOUND:                -0.310
REMARK SMILES O=C1C[C@H](c2ccc(O)cc2)Oc2cc(O)cc(O)c21
REMARK SMILES IDX 3 1 4 2 12 3 13 4 14 5 15 6 17 7 18 8 20 9 2 10 1 11 5 12
REMARK SMILES IDX 6 13 11 14 7 15 10 16 8 17 9 18 19 20 16 22
REMARK H PARENT 9 19 19 21 16 23
REMARK Flexibility Score: inf
ROOT
ATOM      1  C   UNL     1      -9.535 -43.286  -6.282  1.00  0.00     0.131 C 
ATOM      2  C   UNL     1     -11.049 -43.105  -6.474  1.00  0.00     0.211 C 
ATOM      3  O   UNL     1     -11.650 -42.588  -5.284  1.00  0.00    -0.484 OA
ATOM      4  C   UNL     1     -11.303 -43.061  -4.013  1.00  0.00     0.138 A 
ATOM      5  C   UNL     1     -12.126 -42.764  -2.923  1.00  0.00     0.093 A 
ATOM      6  C   UNL     1     -11.812 -43.247  -1.650  1.00  0.00     0.123 A 
ATOM      7  C   UNL     1     -10.661 -44.025  -1.465  1.00  0.00     0.093 A 
ATOM      8  C   UNL     1      -9.816 -44.313  -2.548  1.00  0.00     0.133 A 
ATOM      9  C   UNL     1     -10.133 -43.823  -3.833  1.00  0.00     0.102 A 
ATOM     10  C   UNL     1      -9.264 -44.044  -5.014  1.00  0.00     0.174 C 
ATOM     11  O   UNL     1      -8.268 -44.816  -4.956  1.00  0.00    -0.294 OA
ENDROOT
BRANCH   2  12
ATOM     12  C   UNL     1     -11.333 -42.189  -7.639  1.00  0.00    -0.007 A 
ATOM     13  C   UNL     1     -12.393 -41.266  -7.582  1.00  0.00     0.011 A 
ATOM     14  C   UNL     1     -10.505 -42.209  -8.774  1.00  0.00     0.011 A 
ATOM     15  C   UNL     1     -12.633 -40.398  -8.651  1.00  0.00     0.046 A 
ATOM     16  C   UNL     1     -10.747 -41.340  -9.842  1.00  0.00     0.046 A 
ATOM     17  C   UNL     1     -11.813 -40.434  -9.783  1.00  0.00     0.115 A 
BRANCH  17  18
ATOM     18  O   UNL     1     -12.065 -39.563 -10.842  1.00  0.00    -0.508 OA
ATOM     19  H   UNL     1     -11.847 -39.816 -11.798  1.00  0.00     0.293 HD
ENDBRANCH  17  18
ENDBRANCH   2  12
BRANCH   8  20
ATOM     20  O   UNL     1      -8.666 -45.075  -2.340  1.00  0.00    -0.507 OA
ATOM     21  H   UNL     1      -8.084 -45.381  -3.111  1.00  0.00     0.293 HD
ENDBRANCH   8  20
BRANCH   6  22
ATOM     22  O   UNL     1     -12.648 -42.950  -0.577  1.00  0.00    -0.508 OA
ATOM     23  H   UNL     1     -12.365 -42.306   0.153  1.00  0.00     0.293 HD
ENDBRANCH   6  22
TORSDOF 4
ENDMDL
MODEL 7
REMARK VINA RESULT:    -6.858      1.874      7.313
REMARK INTER + INTRA:          -8.170
REMARK INTER:                  -7.860
REMARK INTRA:                  -0.310
REMARK UNBOUND:                -0.310
REMARK SMILES O=C1C[C@H](c2ccc(O)cc2)Oc2cc(O)cc(O)c21
REMARK SMILES IDX 3 1 4 2 12 3 13 4 14 5 15 6 17 7 18 8 20 9 2 10 1 11 5 12
REMARK SMILES IDX 6 13 11 14 7 15 10 16 8 17 9 18 19 20 16 22
REMARK H PARENT 9 19 19 21 16 23
REMARK Flexibility Score: inf
ROOT
ATOM      1  C   UNL     1     -18.014 -43.434  -0.837  1.00  0.00     0.131 C 
ATOM      2  C   UNL     1     -17.938 -44.856  -0.260  1.00  0.00     0.211 C 
ATOM      3  O   UNL     1     -16.798 -45.548  -0.775  1.00  0.00    -0.484 OA
ATOM      4  C   UNL     1     -16.433 -45.475  -2.125  1.00  0.00     0.138 A 
ATOM      5  C   UNL     1     -15.523 -46.402  -2.641  1.00  0.00     0.093 A 
ATOM      6  C   UNL     1     -15.165 -46.363  -3.990  1.00  0.00     0.123 A 
ATOM      7  C   UNL     1     -15.716 -45.383  -4.828  1.00  0.00     0.093 A 
ATOM      8  C   UNL     1     -16.615 -44.435  -4.318  1.00  0.00     0.133 A 
ATOM      9  C   UNL     1     -16.974 -44.474  -2.954  1.00  0.00     0.102 A 
ATOM     10  C   UNL     1     -17.879 -43.477  -2.332  1.00  0.00     0.174 C 
ATOM     11  O   UNL     1     -18.495 -42.629  -3.033  1.00  0.00    -0.294 OA
ENDROOT
BRANCH   2  12
ATOM     12  C   UNL     1     -17.884 -44.818   1.248  1.00  0.00    -0.007 A 
ATOM     13  C   UNL     1     -18.886 -44.161   1.984  1.00  0.00     0.011 A 
ATOM     14  C   UNL     1     -16.857 -45.486   1.936  1.00  0.00     0.011 A 
ATOM     15  C   UNL     1     -18.848 -44.154   3.381  1.00  0.00     0.046 A 
ATOM     16  C   UNL     1     -16.820 -45.477   3.334  1.00  0.00     0.046 A 
ATOM     17  C   UNL     1     -17.815 -44.809   4.059  1.00  0.00     0.115 A 
BRANCH  17  18
ATOM     18  O   UNL     1     -17.789 -44.792   5.453  1.00  0.00    -0.508 OA
ATOM     19  H   UNL     1     -17.165 -45.395   5.977  1.00  0.00     0.293 HD
ENDBRANCH  17  18
ENDBRANCH   2  12
BRANCH   8  20
ATOM     20  O   UNL     1     -17.139 -43.457  -5.164  1.00  0.00    -0.507 OA
ATOM     21  H   UNL     1     -17.411 -42.544  -4.819  1.00  0.00     0.293 HD
ENDBRANCH   8  20
BRANCH   6  22
ATOM     22  O   UNL     1     -14.264 -47.299  -4.490  1.00  0.00    -0.508 OA
ATOM     23  H   UNL     1     -14.566 -48.219  -4.788  1.00  0.00     0.293 HD
ENDBRANCH   6  22
TORSDOF 4
ENDMDL
MODEL 8
REMARK VINA RESULT:    -6.810      7.355     11.362
REMARK INTER + INTRA:          -8.116
REMARK INTER:                  -7.806
REMARK INTRA:                  -0.310
REMARK UNBOUND:                -0.310
REMARK SMILES O=C1C[C@H](c2ccc(O)cc2)Oc2cc(O)cc(O)c21
REMARK SMILES IDX 3 1 4 2 12 3 13 4 14 5 15 6 17 7 18 8 20 9 2 10 1 11 5 12
REMARK SMILES IDX 6 13 11 14 7 15 10 16 8 17 9 18 19 20 16 22
REMARK H PARENT 9 19 19 21 16 23
REMARK Flexibility Score: inf
ROOT
ATOM      1  C   UNL     1     -10.614 -43.080  -6.632  1.00  0.00     0.131 C 
ATOM      2  C   UNL     1     -11.417 -42.235  -5.629  1.00  0.00     0.211 C 
ATOM      3  O   UNL     1     -12.819 -42.350  -5.883  1.00  0.00    -0.484 OA
ATOM      4  C   UNL     1     -13.343 -42.320  -7.181  1.00  0.00     0.138 A 
ATOM      5  C   UNL     1     -14.714 -42.116  -7.363  1.00  0.00     0.093 A 
ATOM      6  C   UNL     1     -15.253 -42.057  -8.650  1.00  0.00     0.123 A 
ATOM      7  C   UNL     1     -14.416 -42.212  -9.763  1.00  0.00     0.093 A 
ATOM      8  C   UNL     1     -13.042 -42.437  -9.594  1.00  0.00     0.133 A 
ATOM      9  C   UNL     1     -12.498 -42.499  -8.292  1.00  0.00     0.102 A 
ATOM     10  C   UNL     1     -11.066 -42.782  -8.033  1.00  0.00     0.174 C 
ATOM     11  O   UNL     1     -10.229 -42.832  -8.975  1.00  0.00    -0.294 OA
ENDROOT
BRANCH   2  12
ATOM     12  C   UNL     1     -11.110 -42.655  -4.213  1.00  0.00    -0.007 A 
ATOM     13  C   UNL     1      -9.784 -42.671  -3.742  1.00  0.00     0.011 A 
ATOM     14  C   UNL     1     -12.153 -42.982  -3.330  1.00  0.00     0.011 A 
ATOM     15  C   UNL     1      -9.508 -43.032  -2.420  1.00  0.00     0.046 A 
ATOM     16  C   UNL     1     -11.873 -43.343  -2.008  1.00  0.00     0.046 A 
ATOM     17  C   UNL     1     -10.550 -43.370  -1.551  1.00  0.00     0.115 A 
BRANCH  17  18
ATOM     18  O   UNL     1     -10.258 -43.729  -0.236  1.00  0.00    -0.508 OA
ATOM     19  H   UNL     1      -9.437 -44.276  -0.007  1.00  0.00     0.293 HD
ENDBRANCH  17  18
ENDBRANCH   2  12
BRANCH   8  20
ATOM     20  O   UNL     1     -12.228 -42.606 -10.714  1.00  0.00    -0.507 OA
ATOM     21  H   UNL     1     -12.528 -42.317 -11.638  1.00  0.00     0.293 HD
ENDBRANCH   8  20
BRANCH   6  22
ATOM     22  O   UNL     1     -16.619 -41.844  -8.813  1.00  0.00    -0.508 OA
ATOM     23  H   UNL     1     -17.147 -42.317  -9.538  1.00  0.00     0.293 HD
ENDBRANCH   6  22
TORSDOF 4
ENDMDL
MODEL 9
REMARK VINA RESULT:    -6.736      4.228      7.178
REMARK INTER + INTRA:          -8.031
REMARK INTER:                  -7.719
REMARK INTRA:                  -0.312
REMARK UNBOUND:                -0.310
REMARK SMILES O=C1C[C@H](c2ccc(O)cc2)Oc2cc(O)cc(O)c21
REMARK SMILES IDX 3 1 4 2 12 3 13 4 14 5 15 6 17 7 18 8 20 9 2 10 1 11 5 12
REMARK SMILES IDX 6 13 11 14 7 15 10 16 8 17 9 18 19 20 16 22
REMARK H PARENT 9 19 19 21 16 23
REMARK Flexibility Score: inf
ROOT
ATOM      1  C   UNL     1     -15.743 -45.759  -3.190  1.00  0.00     0.131 C 
ATOM      2  C   UNL     1     -15.419 -45.931  -1.697  1.00  0.00     0.211 C 
ATOM      3  O   UNL     1     -14.176 -45.301  -1.376  1.00  0.00    -0.484 OA
ATOM      4  C   UNL     1     -13.053 -45.409  -2.206  1.00  0.00     0.138 A 
ATOM      5  C   UNL     1     -11.796 -45.055  -1.708  1.00  0.00     0.093 A 
ATOM      6  C   UNL     1     -10.660 -45.180  -2.511  1.00  0.00     0.123 A 
ATOM      7  C   UNL     1     -10.784 -45.653  -3.824  1.00  0.00     0.093 A 
ATOM      8  C   UNL     1     -12.042 -45.993  -4.342  1.00  0.00     0.133 A 
ATOM      9  C   UNL     1     -13.191 -45.864  -3.531  1.00  0.00     0.102 A 
ATOM     10  C   UNL     1     -14.559 -46.156  -4.023  1.00  0.00     0.174 C 
ATOM     11  O   UNL     1     -14.747 -46.682  -5.153  1.00  0.00    -0.294 OA
ENDROOT
BRANCH   2  12
ATOM     12  C   UNL     1     -16.524 -45.363  -0.842  1.00  0.00    -0.007 A 
ATOM     13  C   UNL     1     -16.280 -44.997   0.494  1.00  0.00     0.011 A 
ATOM     14  C   UNL     1     -17.799 -45.141  -1.389  1.00  0.00     0.011 A 
ATOM     15  C   UNL     1     -17.300 -44.443   1.273  1.00  0.00     0.046 A 
ATOM     16  C   UNL     1     -18.818 -44.587  -0.608  1.00  0.00     0.046 A 
ATOM     17  C   UNL     1     -18.571 -44.238   0.726  1.00  0.00     0.115 A 
BRANCH  17  18
ATOM     18  O   UNL     1     -19.578 -43.685   1.515  1.00  0.00    -0.508 OA
ATOM     19  H   UNL     1     -20.527 -43.596   1.174  1.00  0.00     0.293 HD
ENDBRANCH  17  18
ENDBRANCH   2  12
BRANCH   8  20
ATOM     20  O   UNL     1     -12.147 -46.446  -5.657  1.00  0.00    -0.507 OA
ATOM     21  H   UNL     1     -11.941 -45.843  -6.446  1.00  0.00     0.293 HD
ENDBRANCH   8  20
BRANCH   6  22
ATOM     22  O   UNL     1      -9.413 -44.832  -1.997  1.00  0.00    -0.508 OA
ATOM     23  H   UNL     1      -8.590 -44.786  -2.587  1.00  0.00     0.293 HD
ENDBRANCH   6  22
TORSDOF 4
ENDMDL
