MODEL 1
REMARK VINA RESULT:    -4.139      0.000      0.000
REMARK INTER + INTRA:          -5.247
REMARK INTER:                  -5.107
REMARK INTRA:                  -0.140
REMARK UNBOUND:                -0.140
REMARK SMILES CCCCCC(=O)[O-]
REMARK SMILES IDX 4 1 5 2 6 3 7 4 8 5 3 6 2 7 1 8
REMARK H PARENT
REMARK Flexibility Score: inf
ROOT
ATOM      1  C   UNL     1      77.799  56.727   9.522  1.00  0.00     0.006 C 
ENDROOT
BRANCH   1   2
ATOM      2  C   UNL     1      78.640  56.939  10.784  1.00  0.00     0.053 C 
BRANCH   2   3
ATOM      3  C   UNL     1      79.778  57.869  10.506  1.00  0.00     0.041 C 
ATOM      4  O   UNL     1      79.553  59.046  10.118  1.00  0.00    -0.550 OA
ATOM      5  O   UNL     1      81.087  57.423  10.626  1.00  0.00    -0.550 OA
ENDBRANCH   2   3
ENDBRANCH   1   2
BRANCH   1   6
ATOM      6  C   UNL     1      78.180  55.417   8.822  1.00  0.00     0.000 C 
BRANCH   6   7
ATOM      7  C   UNL     1      77.882  55.490   7.319  1.00  0.00    -0.003 C 
ATOM      8  C   UNL     1      77.753  56.937   6.852  1.00  0.00     0.004 C 
ENDBRANCH   6   7
ENDBRANCH   1   6
TORSDOF 4
ENDMDL
MODEL 2
REMARK VINA RESULT:    -4.036      1.333      1.708
REMARK INTER + INTRA:          -5.120
REMARK INTER:                  -5.000
REMARK INTRA:                  -0.120
REMARK UNBOUND:                -0.140
REMARK SMILES CCCCCC(=O)[O-]
REMARK SMILES IDX 4 1 5 2 6 3 7 4 8 5 3 6 2 7 1 8
REMARK H PARENT
REMARK Flexibility Score: inf
ROOT
ATOM      1  C   UNL     1      77.691  56.807   9.395  1.00  0.00     0.006 C 
ENDROOT
BRANCH   1   2
ATOM      2  C   UNL     1      78.868  57.454  10.130  1.00  0.00     0.053 C 
BRANCH   2   3
ATOM      3  C   UNL     1      79.526  56.465  11.039  1.00  0.00     0.041 C 
ATOM      4  O   UNL     1      80.733  56.151  10.867  1.00  0.00    -0.550 OA
ATOM      5  O   UNL     1      78.792  55.851  12.046  1.00  0.00    -0.550 OA
ENDBRANCH   2   3
ENDBRANCH   1   2
BRANCH   1   6
ATOM      6  C   UNL     1      78.135  55.539   8.655  1.00  0.00     0.000 C 
BRANCH   6   7
ATOM      7  C   UNL     1      77.734  55.596   7.177  1.00  0.00    -0.003 C 
ATOM      8  C   UNL     1      77.798  57.023   6.642  1.00  0.00     0.004 C 
ENDBRANCH   6   7
ENDBRANCH   1   6
TORSDOF 4
ENDMDL
MODEL 3
REMARK VINA RESULT:    -4.031      0.516      1.194
REMARK INTER + INTRA:          -5.114
REMARK INTER:                  -4.991
REMARK INTRA:                  -0.123
REMARK UNBOUND:                -0.140
REMARK SMILES CCCCCC(=O)[O-]
REMARK SMILES IDX 4 1 5 2 6 3 7 4 8 5 3 6 2 7 1 8
REMARK H PARENT
REMARK Flexibility Score: inf
ROOT
ATOM      1  C   UNL     1      78.026  56.824   9.481  1.00  0.00     0.006 C 
ENDROOT
BRANCH   1   2
ATOM      2  C   UNL     1      78.756  56.909  10.824  1.00  0.00     0.053 C 
BRANCH   2   3
ATOM      3  C   UNL     1      80.151  57.413  10.630  1.00  0.00     0.041 C 
ATOM      4  O   UNL     1      81.115  56.604  10.567  1.00  0.00    -0.550 OA
ATOM      5  O   UNL     1      80.395  58.779  10.571  1.00  0.00    -0.550 OA
ENDBRANCH   2   3
ENDBRANCH   1   2
BRANCH   1   6
ATOM      6  C   UNL     1      78.199  55.438   8.847  1.00  0.00     0.000 C 
BRANCH   6   7
ATOM      7  C   UNL     1      77.772  55.449   7.375  1.00  0.00    -0.003 C 
ATOM      8  C   UNL     1      77.819  56.861   6.797  1.00  0.00     0.004 C 
ENDBRANCH   6   7
ENDBRANCH   1   6
TORSDOF 4
ENDMDL
MODEL 4
REMARK VINA RESULT:    -3.935      2.646      4.122
REMARK INTER + INTRA:          -4.996
REMARK INTER:                  -4.887
REMARK INTRA:                  -0.109
REMARK UNBOUND:                -0.140
REMARK SMILES CCCCCC(=O)[O-]
REMARK SMILES IDX 4 1 5 2 6 3 7 4 8 5 3 6 2 7 1 8
REMARK H PARENT
REMARK Flexibility Score: inf
ROOT
ATOM      1  C   UNL     1      78.907  56.331   9.708  1.00  0.00     0.006 C 
ENDROOT
BRANCH   1   2
ATOM      2  C   UNL     1      77.722  56.857   8.893  1.00  0.00     0.053 C 
BRANCH   2   3
ATOM      3  C   UNL     1      77.712  56.245   7.528  1.00  0.00     0.041 C 
ATOM      4  O   UNL     1      77.747  54.993   7.394  1.00  0.00    -0.550 OA
ATOM      5  O   UNL     1      77.716  57.057   6.401  1.00  0.00    -0.550 OA
ENDBRANCH   2   3
ENDBRANCH   1   2
BRANCH   1   6
ATOM      6  C   UNL     1      79.405  57.389  10.700  1.00  0.00     0.000 C 
BRANCH   6   7
ATOM      7  C   UNL     1      79.364  58.790  10.077  1.00  0.00    -0.003 C 
ATOM      8  C   UNL     1      80.598  59.601  10.463  1.00  0.00     0.004 C 
ENDBRANCH   6   7
ENDBRANCH   1   6
TORSDOF 4
ENDMDL
MODEL 5
REMARK VINA RESULT:    -3.835      1.133      1.651
REMARK INTER + INTRA:          -4.872
REMARK INTER:                  -4.684
REMARK INTRA:                  -0.188
REMARK UNBOUND:                -0.140
REMARK SMILES CCCCCC(=O)[O-]
REMARK SMILES IDX 4 1 5 2 6 3 7 4 8 5 3 6 2 7 1 8
REMARK H PARENT
REMARK Flexibility Score: inf
ROOT
ATOM      1  C   UNL     1      77.564  56.846   8.543  1.00  0.00     0.006 C 
ENDROOT
BRANCH   1   2
ATOM      2  C   UNL     1      78.066  56.503   9.948  1.00  0.00     0.053 C 
BRANCH   2   3
ATOM      3  C   UNL     1      79.272  57.320  10.288  1.00  0.00     0.041 C 
ATOM      4  O   UNL     1      79.240  58.574  10.174  1.00  0.00    -0.550 OA
ATOM      5  O   UNL     1      80.448  56.695  10.681  1.00  0.00    -0.550 OA
ENDBRANCH   2   3
ENDBRANCH   1   2
BRANCH   1   6
ATOM      6  C   UNL     1      78.111  55.857   7.507  1.00  0.00     0.000 C 
BRANCH   6   7
ATOM      7  C   UNL     1      78.209  54.443   8.092  1.00  0.00    -0.003 C 
ATOM      8  C   UNL     1      79.597  53.849   7.871  1.00  0.00     0.004 C 
ENDBRANCH   6   7
ENDBRANCH   1   6
TORSDOF 4
ENDMDL
MODEL 6
REMARK VINA RESULT:    -3.817     12.388     13.066
REMARK INTER + INTRA:          -4.850
REMARK INTER:                  -4.743
REMARK INTRA:                  -0.107
REMARK UNBOUND:                -0.140
REMARK SMILES CCCCCC(=O)[O-]
REMARK SMILES IDX 4 1 5 2 6 3 7 4 8 5 3 6 2 7 1 8
REMARK H PARENT
REMARK Flexibility Score: inf
ROOT
ATOM      1  C   UNL     1      84.820  64.612  17.067  1.00  0.00     0.006 C 
ENDROOT
BRANCH   1   2
ATOM      2  C   UNL     1      83.888  65.509  17.885  1.00  0.00     0.053 C 
BRANCH   2   3
ATOM      3  C   UNL     1      84.047  65.236  19.347  1.00  0.00     0.041 C 
ATOM      4  O   UNL     1      83.411  64.293  19.889  1.00  0.00    -0.550 OA
ATOM      5  O   UNL     1      84.860  66.052  20.123  1.00  0.00    -0.550 OA
ENDBRANCH   2   3
ENDBRANCH   1   2
BRANCH   1   6
ATOM      6  C   UNL     1      84.771  64.980  15.579  1.00  0.00     0.000 C 
BRANCH   6   7
ATOM      7  C   UNL     1      83.804  66.143  15.331  1.00  0.00    -0.003 C 
ATOM      8  C   UNL     1      84.000  66.736  13.939  1.00  0.00     0.004 C 
ENDBRANCH   6   7
ENDBRANCH   1   6
TORSDOF 4
ENDMDL
MODEL 7
REMARK VINA RESULT:    -3.753     10.341     11.373
REMARK INTER + INTRA:          -4.771
REMARK INTER:                  -4.714
REMARK INTRA:                  -0.057
REMARK UNBOUND:                -0.140
REMARK SMILES CCCCCC(=O)[O-]
REMARK SMILES IDX 4 1 5 2 6 3 7 4 8 5 3 6 2 7 1 8
REMARK H PARENT
REMARK Flexibility Score: inf
ROOT
ATOM      1  C   UNL     1      85.069  64.114  15.496  1.00  0.00     0.006 C 
ENDROOT
BRANCH   1   2
ATOM      2  C   UNL     1      85.812  62.791  15.295  1.00  0.00     0.053 C 
BRANCH   2   3
ATOM      3  C   UNL     1      85.130  61.688  16.041  1.00  0.00     0.041 C 
ATOM      4  O   UNL     1      85.674  61.180  17.057  1.00  0.00    -0.550 OA
ATOM      5  O   UNL     1      83.918  61.186  15.586  1.00  0.00    -0.550 OA
ENDBRANCH   2   3
ENDBRANCH   1   2
BRANCH   1   6
ATOM      6  C   UNL     1      85.821  65.274  14.833  1.00  0.00     0.000 C 
BRANCH   6   7
ATOM      7  C   UNL     1      85.098  65.749  13.568  1.00  0.00    -0.003 C 
ATOM      8  C   UNL     1      84.054  66.813  13.895  1.00  0.00     0.004 C 
ENDBRANCH   6   7
ENDBRANCH   1   6
TORSDOF 4
ENDMDL
MODEL 8
REMARK VINA RESULT:    -3.726     10.962     11.729
REMARK INTER + INTRA:          -4.738
REMARK INTER:                  -4.659
REMARK INTRA:                  -0.079
REMARK UNBOUND:                -0.140
REMARK SMILES CCCCCC(=O)[O-]
REMARK SMILES IDX 4 1 5 2 6 3 7 4 8 5 3 6 2 7 1 8
REMARK H PARENT
REMARK Flexibility Score: inf
ROOT
ATOM      1  C   UNL     1      85.160  64.131  16.068  1.00  0.00     0.006 C 
ENDROOT
BRANCH   1   2
ATOM      2  C   UNL     1      85.229  65.129  14.909  1.00  0.00     0.053 C 
BRANCH   2   3
ATOM      3  C   UNL     1      84.054  66.054  14.942  1.00  0.00     0.041 C 
ATOM      4  O   UNL     1      83.339  66.133  15.976  1.00  0.00    -0.550 OA
ATOM      5  O   UNL     1      83.718  66.793  13.815  1.00  0.00    -0.550 OA
ENDBRANCH   2   3
ENDBRANCH   1   2
BRANCH   1   6
ATOM      6  C   UNL     1      84.889  62.712  15.556  1.00  0.00     0.000 C 
BRANCH   6   7
ATOM      7  C   UNL     1      85.868  61.707  16.175  1.00  0.00    -0.003 C 
ATOM      8  C   UNL     1      85.323  61.140  17.483  1.00  0.00     0.004 C 
ENDBRANCH   6   7
ENDBRANCH   1   6
TORSDOF 4
ENDMDL
MODEL 9
REMARK VINA RESULT:    -3.718      2.777      4.014
REMARK INTER + INTRA:          -4.728
REMARK INTER:                  -4.571
REMARK INTRA:                  -0.157
REMARK UNBOUND:                -0.140
REMARK SMILES CCCCCC(=O)[O-]
REMARK SMILES IDX 4 1 5 2 6 3 7 4 8 5 3 6 2 7 1 8
REMARK H PARENT
REMARK Flexibility Score: inf
ROOT
ATOM      1  C   UNL     1      78.102  55.713   7.340  1.00  0.00     0.006 C 
ENDROOT
BRANCH   1   2
ATOM      2  C   UNL     1      78.121  54.431   8.176  1.00  0.00     0.053 C 
BRANCH   2   3
ATOM      3  C   UNL     1      79.427  53.720   8.015  1.00  0.00     0.041 C 
ATOM      4  O   UNL     1      80.389  54.286   7.432  1.00  0.00    -0.550 OA
ATOM      5  O   UNL     1      79.567  52.413   8.465  1.00  0.00    -0.550 OA
ENDBRANCH   2   3
ENDBRANCH   1   2
BRANCH   1   6
ATOM      6  C   UNL     1      77.688  56.919   8.193  1.00  0.00     0.000 C 
BRANCH   6   7
ATOM      7  C   UNL     1      77.872  56.626   9.687  1.00  0.00    -0.003 C 
ATOM      8  C   UNL     1      78.913  57.554  10.307  1.00  0.00     0.004 C 
ENDBRANCH   6   7
ENDBRANCH   1   6
TORSDOF 4
ENDMDL
