MODEL 1
REMARK VINA RESULT:    -4.927      0.000      0.000
REMARK INTER + INTRA:          -6.463
REMARK INTER:                  -6.079
REMARK INTRA:                  -0.384
REMARK UNBOUND:                -0.384
REMARK SMILES CCCCC(=O)c1ccccc1
REMARK SMILES IDX 4 1 3 2 2 3 1 4 5 5 6 6 7 7 8 8 12 9 9 10 11 11 10 12
REMARK H PARENT
REMARK Flexibility Score: inf
ROOT
ATOM      1  C   UNL     1      50.152  77.599  27.429  1.00  0.00     0.081 C 
ENDROOT
BRANCH   1   2
ATOM      2  C   UNL     1      50.693  79.037  27.531  1.00  0.00     0.008 C 
BRANCH   2   3
ATOM      3  C   UNL     1      52.226  79.084  27.627  1.00  0.00    -0.003 C 
ATOM      4  C   UNL     1      52.731  79.021  29.068  1.00  0.00     0.004 C 
ENDBRANCH   2   3
ENDBRANCH   1   2
BRANCH   1   5
ATOM      5  C   UNL     1      49.468  77.324  26.110  1.00  0.00     0.162 C 
ATOM      6  O   UNL     1      48.217  77.466  26.017  1.00  0.00    -0.294 OA
BRANCH   5   7
ATOM      7  C   UNL     1      50.245  76.931  24.903  1.00  0.00     0.017 A 
ATOM      8  C   UNL     1      49.621  76.912  23.641  1.00  0.00     0.012 A 
ATOM      9  C   UNL     1      51.608  76.581  24.988  1.00  0.00     0.012 A 
ATOM     10  C   UNL     1      50.338  76.547  22.498  1.00  0.00     0.001 A 
ATOM     11  C   UNL     1      52.320  76.217  23.841  1.00  0.00     0.001 A 
ATOM     12  C   UNL     1      51.686  76.198  22.598  1.00  0.00     0.000 A 
ENDBRANCH   5   7
ENDBRANCH   1   5
TORSDOF 4
ENDMDL
MODEL 2
REMARK VINA RESULT:    -4.745      1.739      5.329
REMARK INTER + INTRA:          -6.239
REMARK INTER:                  -6.000
REMARK INTRA:                  -0.238
REMARK UNBOUND:                -0.384
REMARK SMILES CCCCC(=O)c1ccccc1
REMARK SMILES IDX 4 1 3 2 2 3 1 4 5 5 6 6 7 7 8 8 12 9 9 10 11 11 10 12
REMARK H PARENT
REMARK Flexibility Score: inf
ROOT
ATOM      1  C   UNL     1      49.279  76.703  24.289  1.00  0.00     0.081 C 
ENDROOT
BRANCH   1   2
ATOM      2  C   UNL     1      49.518  76.890  22.780  1.00  0.00     0.008 C 
BRANCH   2   3
ATOM      3  C   UNL     1      48.412  77.716  22.105  1.00  0.00    -0.003 C 
ATOM      4  C   UNL     1      48.768  78.126  20.676  1.00  0.00     0.004 C 
ENDBRANCH   2   3
ENDBRANCH   1   2
BRANCH   1   5
ATOM      5  C   UNL     1      50.521  76.951  25.113  1.00  0.00     0.162 C 
ATOM      6  O   UNL     1      51.600  76.373  24.800  1.00  0.00    -0.294 OA
BRANCH   5   7
ATOM      7  C   UNL     1      50.513  77.897  26.262  1.00  0.00     0.017 A 
ATOM      8  C   UNL     1      51.710  78.514  26.674  1.00  0.00     0.012 A 
ATOM      9  C   UNL     1      49.322  78.204  26.952  1.00  0.00     0.012 A 
ATOM     10  C   UNL     1      51.717  79.406  27.749  1.00  0.00     0.001 A 
ATOM     11  C   UNL     1      49.336  79.097  28.028  1.00  0.00     0.001 A 
ATOM     12  C   UNL     1      50.531  79.696  28.427  1.00  0.00     0.000 A 
ENDBRANCH   5   7
ENDBRANCH   1   5
TORSDOF 4
ENDMDL
MODEL 3
REMARK VINA RESULT:    -4.733      1.755      5.178
REMARK INTER + INTRA:          -6.223
REMARK INTER:                  -5.982
REMARK INTRA:                  -0.241
REMARK UNBOUND:                -0.384
REMARK SMILES CCCCC(=O)c1ccccc1
REMARK SMILES IDX 4 1 3 2 2 3 1 4 5 5 6 6 7 7 8 8 12 9 9 10 11 11 10 12
REMARK H PARENT
REMARK Flexibility Score: inf
ROOT
ATOM      1  C   UNL     1      49.294  76.701  24.234  1.00  0.00     0.081 C 
ENDROOT
BRANCH   1   2
ATOM      2  C   UNL     1      49.514  76.940  22.729  1.00  0.00     0.008 C 
BRANCH   2   3
ATOM      3  C   UNL     1      48.363  77.726  22.082  1.00  0.00    -0.003 C 
ATOM      4  C   UNL     1      48.717  78.259  20.694  1.00  0.00     0.004 C 
ENDBRANCH   2   3
ENDBRANCH   1   2
BRANCH   1   5
ATOM      5  C   UNL     1      50.550  76.912  25.049  1.00  0.00     0.162 C 
ATOM      6  O   UNL     1      51.610  76.308  24.722  1.00  0.00    -0.294 OA
BRANCH   5   7
ATOM      7  C   UNL     1      50.576  77.851  26.202  1.00  0.00     0.017 A 
ATOM      8  C   UNL     1      49.391  78.130  26.910  1.00  0.00     0.012 A 
ATOM      9  C   UNL     1      51.773  78.471  26.618  1.00  0.00     0.012 A 
ATOM     10  C   UNL     1      49.401  79.008  27.997  1.00  0.00     0.001 A 
ATOM     11  C   UNL     1      51.777  79.349  27.706  1.00  0.00     0.001 A 
ATOM     12  C   UNL     1      50.592  79.619  28.394  1.00  0.00     0.000 A 
ENDBRANCH   5   7
ENDBRANCH   1   5
TORSDOF 4
ENDMDL
MODEL 4
REMARK VINA RESULT:    -4.613      1.957      3.255
REMARK INTER + INTRA:          -6.075
REMARK INTER:                  -5.668
REMARK INTRA:                  -0.408
REMARK UNBOUND:                -0.384
REMARK SMILES CCCCC(=O)c1ccccc1
REMARK SMILES IDX 4 1 3 2 2 3 1 4 5 5 6 6 7 7 8 8 12 9 9 10 11 11 10 12
REMARK H PARENT
REMARK Flexibility Score: inf
ROOT
ATOM      1  C   UNL     1      48.155  77.294  26.408  1.00  0.00     0.081 C 
ENDROOT
BRANCH   1   2
ATOM      2  C   UNL     1      47.559  78.698  26.614  1.00  0.00     0.008 C 
BRANCH   2   3
ATOM      3  C   UNL     1      46.135  78.824  26.050  1.00  0.00    -0.003 C 
ATOM      4  C   UNL     1      46.060  78.509  24.556  1.00  0.00     0.004 C 
ENDBRANCH   2   3
ENDBRANCH   1   2
BRANCH   1   5
ATOM      5  C   UNL     1      49.656  77.316  26.234  1.00  0.00     0.162 C 
ATOM      6  O   UNL     1      50.390  77.629  27.213  1.00  0.00    -0.294 OA
BRANCH   5   7
ATOM      7  C   UNL     1      50.292  76.933  24.945  1.00  0.00     0.017 A 
ATOM      8  C   UNL     1      49.548  76.986  23.751  1.00  0.00     0.012 A 
ATOM      9  C   UNL     1      51.639  76.522  24.884  1.00  0.00     0.012 A 
ATOM     10  C   UNL     1      50.133  76.632  22.532  1.00  0.00     0.001 A 
ATOM     11  C   UNL     1      52.219  76.168  23.662  1.00  0.00     0.001 A 
ATOM     12  C   UNL     1      51.467  76.221  22.487  1.00  0.00     0.000 A 
ENDBRANCH   5   7
ENDBRANCH   1   5
TORSDOF 4
ENDMDL
MODEL 5
REMARK VINA RESULT:    -4.600      0.480      1.540
REMARK INTER + INTRA:          -6.060
REMARK INTER:                  -5.491
REMARK INTRA:                  -0.569
REMARK UNBOUND:                -0.384
REMARK SMILES CCCCC(=O)c1ccccc1
REMARK SMILES IDX 4 1 3 2 2 3 1 4 5 5 6 6 7 7 8 8 12 9 9 10 11 11 10 12
REMARK H PARENT
REMARK Flexibility Score: inf
ROOT
ATOM      1  C   UNL     1      49.959  77.249  27.637  1.00  0.00     0.081 C 
ENDROOT
BRANCH   1   2
ATOM      2  C   UNL     1      50.058  78.617  28.337  1.00  0.00     0.008 C 
BRANCH   2   3
ATOM      3  C   UNL     1      51.068  79.555  27.659  1.00  0.00    -0.003 C 
ATOM      4  C   UNL     1      52.514  79.089  27.825  1.00  0.00     0.004 C 
ENDBRANCH   2   3
ENDBRANCH   1   2
BRANCH   1   5
ATOM      5  C   UNL     1      49.329  77.338  26.267  1.00  0.00     0.162 C 
ATOM      6  O   UNL     1      48.145  77.763  26.154  1.00  0.00    -0.294 OA
BRANCH   5   7
ATOM      7  C   UNL     1      50.090  76.978  25.040  1.00  0.00     0.017 A 
ATOM      8  C   UNL     1      51.451  76.631  25.133  1.00  0.00     0.012 A 
ATOM      9  C   UNL     1      49.474  76.966  23.771  1.00  0.00     0.012 A 
ATOM     10  C   UNL     1      52.178  76.288  23.989  1.00  0.00     0.001 A 
ATOM     11  C   UNL     1      50.206  76.622  22.630  1.00  0.00     0.001 A 
ATOM     12  C   UNL     1      51.556  76.285  22.738  1.00  0.00     0.000 A 
ENDBRANCH   5   7
ENDBRANCH   1   5
TORSDOF 4
ENDMDL
MODEL 6
REMARK VINA RESULT:    -4.520      1.930      3.419
REMARK INTER + INTRA:          -5.960
REMARK INTER:                  -5.598
REMARK INTRA:                  -0.362
REMARK UNBOUND:                -0.384
REMARK SMILES CCCCC(=O)c1ccccc1
REMARK SMILES IDX 4 1 3 2 2 3 1 4 5 5 6 6 7 7 8 8 12 9 9 10 11 11 10 12
REMARK H PARENT
REMARK Flexibility Score: inf
ROOT
ATOM      1  C   UNL     1      48.053  77.450  26.571  1.00  0.00     0.081 C 
ENDROOT
BRANCH   1   2
ATOM      2  C   UNL     1      47.562  78.716  27.296  1.00  0.00     0.008 C 
BRANCH   2   3
ATOM      3  C   UNL     1      46.463  79.455  26.516  1.00  0.00    -0.003 C 
ATOM      4  C   UNL     1      45.935  78.648  25.330  1.00  0.00     0.004 C 
ENDBRANCH   2   3
ENDBRANCH   1   2
BRANCH   1   5
ATOM      5  C   UNL     1      49.558  77.399  26.439  1.00  0.00     0.162 C 
ATOM      6  O   UNL     1      50.278  77.656  27.444  1.00  0.00    -0.294 OA
BRANCH   5   7
ATOM      7  C   UNL     1      50.210  77.010  25.159  1.00  0.00     0.017 A 
ATOM      8  C   UNL     1      51.577  76.671  25.141  1.00  0.00     0.012 A 
ATOM      9  C   UNL     1      49.486  76.960  23.951  1.00  0.00     0.012 A 
ATOM     10  C   UNL     1      52.202  76.301  23.947  1.00  0.00     0.001 A 
ATOM     11  C   UNL     1      50.117  76.589  22.759  1.00  0.00     0.001 A 
ATOM     12  C   UNL     1      51.473  76.262  22.757  1.00  0.00     0.000 A 
ENDBRANCH   5   7
ENDBRANCH   1   5
TORSDOF 4
ENDMDL
MODEL 7
REMARK VINA RESULT:    -4.360      1.456      4.996
REMARK INTER + INTRA:          -5.764
REMARK INTER:                  -5.526
REMARK INTRA:                  -0.238
REMARK UNBOUND:                -0.384
REMARK SMILES CCCCC(=O)c1ccccc1
REMARK SMILES IDX 4 1 3 2 2 3 1 4 5 5 6 6 7 7 8 8 12 9 9 10 11 11 10 12
REMARK H PARENT
REMARK Flexibility Score: inf
ROOT
ATOM      1  C   UNL     1      49.446  76.605  24.935  1.00  0.00     0.081 C 
ENDROOT
BRANCH   1   2
ATOM      2  C   UNL     1      48.635  76.985  23.683  1.00  0.00     0.008 C 
BRANCH   2   3
ATOM      3  C   UNL     1      49.498  77.028  22.412  1.00  0.00    -0.003 C 
ATOM      4  C   UNL     1      48.860  77.849  21.292  1.00  0.00     0.004 C 
ENDBRANCH   2   3
ENDBRANCH   1   2
BRANCH   1   5
ATOM      5  C   UNL     1      49.094  77.450  26.138  1.00  0.00     0.162 C 
ATOM      6  O   UNL     1      47.880  77.656  26.418  1.00  0.00    -0.294 OA
BRANCH   5   7
ATOM      7  C   UNL     1      50.149  78.008  27.027  1.00  0.00     0.017 A 
ATOM      8  C   UNL     1      49.935  78.072  28.417  1.00  0.00     0.012 A 
ATOM      9  C   UNL     1      51.375  78.473  26.510  1.00  0.00     0.012 A 
ATOM     10  C   UNL     1      50.917  78.592  29.265  1.00  0.00     0.001 A 
ATOM     11  C   UNL     1      52.355  78.992  27.363  1.00  0.00     0.001 A 
ATOM     12  C   UNL     1      52.125  79.052  28.738  1.00  0.00     0.000 A 
ENDBRANCH   5   7
ENDBRANCH   1   5
TORSDOF 4
ENDMDL
MODEL 8
REMARK VINA RESULT:    -4.025      1.856      2.795
REMARK INTER + INTRA:          -5.350
REMARK INTER:                  -5.061
REMARK INTRA:                  -0.289
REMARK UNBOUND:                -0.384
REMARK SMILES CCCCC(=O)c1ccccc1
REMARK SMILES IDX 4 1 3 2 2 3 1 4 5 5 6 6 7 7 8 8 12 9 9 10 11 11 10 12
REMARK H PARENT
REMARK Flexibility Score: inf
ROOT
ATOM      1  C   UNL     1      50.916  78.470  29.521  1.00  0.00     0.081 C 
ENDROOT
BRANCH   1   2
ATOM      2  C   UNL     1      51.625  79.526  30.388  1.00  0.00     0.008 C 
BRANCH   2   3
ATOM      3  C   UNL     1      53.155  79.394  30.345  1.00  0.00    -0.003 C 
ATOM      4  C   UNL     1      53.634  77.968  30.618  1.00  0.00     0.004 C 
ENDBRANCH   2   3
ENDBRANCH   1   2
BRANCH   1   5
ATOM      5  C   UNL     1      50.347  79.048  28.245  1.00  0.00     0.162 C 
ATOM      6  O   UNL     1      50.011  80.265  28.211  1.00  0.00    -0.294 OA
BRANCH   5   7
ATOM      7  C   UNL     1      50.215  78.225  27.013  1.00  0.00     0.017 A 
ATOM      8  C   UNL     1      48.947  77.768  26.605  1.00  0.00     0.012 A 
ATOM      9  C   UNL     1      51.338  77.893  26.228  1.00  0.00     0.012 A 
ATOM     10  C   UNL     1      48.807  76.995  25.449  1.00  0.00     0.001 A 
ATOM     11  C   UNL     1      51.192  77.120  25.072  1.00  0.00     0.001 A 
ATOM     12  C   UNL     1      49.929  76.670  24.683  1.00  0.00     0.000 A 
ENDBRANCH   5   7
ENDBRANCH   1   5
TORSDOF 4
ENDMDL
MODEL 9
REMARK VINA RESULT:    -3.936      9.521     12.545
REMARK INTER + INTRA:          -5.241
REMARK INTER:                  -5.040
REMARK INTRA:                  -0.200
REMARK UNBOUND:                -0.384
REMARK SMILES CCCCC(=O)c1ccccc1
REMARK SMILES IDX 4 1 3 2 2 3 1 4 5 5 6 6 7 7 8 8 12 9 9 10 11 11 10 12
REMARK H PARENT
REMARK Flexibility Score: inf
ROOT
ATOM      1  C   UNL     1      53.230  67.753  17.653  1.00  0.00     0.081 C 
ENDROOT
BRANCH   1   2
ATOM      2  C   UNL     1      54.074  66.713  16.894  1.00  0.00     0.008 C 
BRANCH   2   3
ATOM      3  C   UNL     1      53.431  65.317  16.892  1.00  0.00    -0.003 C 
ATOM      4  C   UNL     1      53.528  64.622  15.535  1.00  0.00     0.004 C 
ENDBRANCH   2   3
ENDBRANCH   1   2
BRANCH   1   5
ATOM      5  C   UNL     1      53.618  69.175  17.324  1.00  0.00     0.162 C 
ATOM      6  O   UNL     1      53.889  69.484  16.129  1.00  0.00    -0.294 OA
BRANCH   5   7
ATOM      7  C   UNL     1      53.646  70.233  18.370  1.00  0.00     0.017 A 
ATOM      8  C   UNL     1      53.974  71.558  18.023  1.00  0.00     0.012 A 
ATOM      9  C   UNL     1      53.340  69.943  19.715  1.00  0.00     0.012 A 
ATOM     10  C   UNL     1      54.001  72.562  18.995  1.00  0.00     0.001 A 
ATOM     11  C   UNL     1      53.369  70.952  20.683  1.00  0.00     0.001 A 
ATOM     12  C   UNL     1      53.700  72.259  20.324  1.00  0.00     0.000 A 
ENDBRANCH   5   7
ENDBRANCH   1   5
TORSDOF 4
ENDMDL
