MODEL 1
REMARK VINA RESULT:    -4.062      0.000      0.000
REMARK INTER + INTRA:          -4.181
REMARK INTER:                  -4.181
REMARK INTRA:                   0.000
REMARK UNBOUND:                 0.000
REMARK SMILES Oc1ccc2[nH]ccc2c1
REMARK SMILES IDX 3 1 4 2 5 3 9 4 8 5 7 6 6 7 10 8 2 9 1 11
REMARK H PARENT 6 10 1 12
REMARK Flexibility Score: inf
ROOT
ATOM      1  C   UNL     1      29.823  31.981  25.462  1.00  0.00     0.048 A 
ATOM      2  C   UNL     1      29.470  31.038  26.444  1.00  0.00     0.030 A 
ATOM      3  C   UNL     1      30.497  30.322  27.058  1.00  0.00     0.046 A 
ATOM      4  C   UNL     1      31.810  30.519  26.725  1.00  0.00     0.003 A 
ATOM      5  C   UNL     1      32.564  29.668  27.503  1.00  0.00     0.028 A 
ATOM      6  C   UNL     1      31.643  28.980  28.287  1.00  0.00     0.083 A 
ATOM      7  N   UNL     1      30.381  29.384  28.012  1.00  0.00    -0.361 N 
ATOM      8  C   UNL     1      32.194  31.443  25.757  1.00  0.00     0.056 A 
ATOM      9  C   UNL     1      31.180  32.186  25.115  1.00  0.00     0.116 A 
ATOM     10  H   UNL     1      29.502  29.035  28.453  1.00  0.00     0.166 HD
ENDROOT
BRANCH   9  11
ATOM     11  O   UNL     1      31.502  33.125  24.139  1.00  0.00    -0.508 OA
ATOM     12  H   UNL     1      32.275  32.979  23.500  1.00  0.00     0.293 HD
ENDBRANCH   9  11
TORSDOF 1
ENDMDL
MODEL 2
REMARK VINA RESULT:    -4.033     13.893     15.362
REMARK INTER + INTRA:          -4.151
REMARK INTER:                  -4.151
REMARK INTRA:                   0.000
REMARK UNBOUND:                 0.000
REMARK SMILES Oc1ccc2[nH]ccc2c1
REMARK SMILES IDX 3 1 4 2 5 3 9 4 8 5 7 6 6 7 10 8 2 9 1 11
REMARK H PARENT 6 10 1 12
REMARK Flexibility Score: inf
ROOT
ATOM      1  C   UNL     1      47.518  28.176  29.061  1.00  0.00     0.048 A 
ATOM      2  C   UNL     1      46.903  29.405  28.760  1.00  0.00     0.030 A 
ATOM      3  C   UNL     1      45.514  29.475  28.848  1.00  0.00     0.046 A 
ATOM      4  C   UNL     1      44.760  28.393  29.213  1.00  0.00     0.003 A 
ATOM      5  C   UNL     1      43.440  28.787  29.204  1.00  0.00     0.028 A 
ATOM      6  C   UNL     1      43.463  30.125  28.822  1.00  0.00     0.083 A 
ATOM      7  N   UNL     1      44.733  30.541  28.606  1.00  0.00    -0.361 N 
ATOM      8  C   UNL     1      45.337  27.162  29.517  1.00  0.00     0.056 A 
ATOM      9  C   UNL     1      46.742  27.056  29.438  1.00  0.00     0.116 A 
ATOM     10  H   UNL     1      45.038  31.495  28.312  1.00  0.00     0.166 HD
ENDROOT
BRANCH   9  11
ATOM     11  O   UNL     1      47.376  25.850  29.731  1.00  0.00    -0.508 OA
ATOM     12  H   UNL     1      47.907  25.726  30.585  1.00  0.00     0.293 HD
ENDBRANCH   9  11
TORSDOF 1
ENDMDL
MODEL 3
REMARK VINA RESULT:    -3.946     12.824     14.032
REMARK INTER + INTRA:          -4.062
REMARK INTER:                  -4.062
REMARK INTRA:                   0.000
REMARK UNBOUND:                 0.000
REMARK SMILES Oc1ccc2[nH]ccc2c1
REMARK SMILES IDX 3 1 4 2 5 3 9 4 8 5 7 6 6 7 10 8 2 9 1 11
REMARK H PARENT 6 10 1 12
REMARK Flexibility Score: inf
ROOT
ATOM      1  C   UNL     1      43.519  30.113  26.255  1.00  0.00     0.048 A 
ATOM      2  C   UNL     1      44.915  30.256  26.169  1.00  0.00     0.030 A 
ATOM      3  C   UNL     1      45.670  29.966  27.304  1.00  0.00     0.046 A 
ATOM      4  C   UNL     1      45.085  29.554  28.471  1.00  0.00     0.003 A 
ATOM      5  C   UNL     1      46.093  29.352  29.388  1.00  0.00     0.028 A 
ATOM      6  C   UNL     1      47.269  29.661  28.711  1.00  0.00     0.083 A 
ATOM      7  N   UNL     1      47.004  30.035  27.437  1.00  0.00    -0.361 N 
ATOM      8  C   UNL     1      43.706  29.402  28.590  1.00  0.00     0.056 A 
ATOM      9  C   UNL     1      42.911  29.689  27.460  1.00  0.00     0.116 A 
ATOM     10  H   UNL     1      47.699  30.318  26.711  1.00  0.00     0.166 HD
ENDROOT
BRANCH   9  11
ATOM     11  O   UNL     1      41.526  29.555  27.518  1.00  0.00    -0.508 OA
ATOM     12  H   UNL     1      41.082  28.645  27.519  1.00  0.00     0.293 HD
ENDBRANCH   9  11
TORSDOF 1
ENDMDL
MODEL 4
REMARK VINA RESULT:    -3.927     13.789     15.127
REMARK INTER + INTRA:          -4.042
REMARK INTER:                  -4.042
REMARK INTRA:                   0.000
REMARK UNBOUND:                 0.000
REMARK SMILES Oc1ccc2[nH]ccc2c1
REMARK SMILES IDX 3 1 4 2 5 3 9 4 8 5 7 6 6 7 10 8 2 9 1 11
REMARK H PARENT 6 10 1 12
REMARK Flexibility Score: inf
ROOT
ATOM      1  C   UNL     1      47.568  29.184  28.119  1.00  0.00     0.048 A 
ATOM      2  C   UNL     1      47.261  28.218  29.094  1.00  0.00     0.030 A 
ATOM      3  C   UNL     1      45.924  27.859  29.257  1.00  0.00     0.046 A 
ATOM      4  C   UNL     1      44.932  28.421  28.500  1.00  0.00     0.003 A 
ATOM      5  C   UNL     1      43.740  27.859  28.901  1.00  0.00     0.028 A 
ATOM      6  C   UNL     1      44.081  26.961  29.909  1.00  0.00     0.083 A 
ATOM      7  N   UNL     1      45.418  26.966  30.122  1.00  0.00    -0.361 N 
ATOM      8  C   UNL     1      45.200  29.380  27.526  1.00  0.00     0.056 A 
ATOM      9  C   UNL     1      46.544  29.766  27.336  1.00  0.00     0.116 A 
ATOM     10  H   UNL     1      45.943  26.390  30.817  1.00  0.00     0.166 HD
ENDROOT
BRANCH   9  11
ATOM     11  O   UNL     1      46.875  30.721  26.377  1.00  0.00    -0.508 OA
ATOM     12  H   UNL     1      46.689  30.568  25.392  1.00  0.00     0.293 HD
ENDBRANCH   9  11
TORSDOF 1
ENDMDL
MODEL 5
REMARK VINA RESULT:    -3.914     13.565     14.899
REMARK INTER + INTRA:          -4.028
REMARK INTER:                  -4.028
REMARK INTRA:                   0.000
REMARK UNBOUND:                 0.000
REMARK SMILES Oc1ccc2[nH]ccc2c1
REMARK SMILES IDX 3 1 4 2 5 3 9 4 8 5 7 6 6 7 10 8 2 9 1 11
REMARK H PARENT 6 10 1 12
REMARK Flexibility Score: inf
ROOT
ATOM      1  C   UNL     1      43.619  27.906  29.375  1.00  0.00     0.048 A 
ATOM      2  C   UNL     1      44.827  27.281  29.735  1.00  0.00     0.030 A 
ATOM      3  C   UNL     1      46.018  27.904  29.366  1.00  0.00     0.046 A 
ATOM      4  C   UNL     1      46.028  29.085  28.676  1.00  0.00     0.003 A 
ATOM      5  C   UNL     1      47.345  29.431  28.469  1.00  0.00     0.028 A 
ATOM      6  C   UNL     1      48.085  28.412  29.061  1.00  0.00     0.083 A 
ATOM      7  N   UNL     1      47.269  27.481  29.608  1.00  0.00    -0.361 N 
ATOM      8  C   UNL     1      44.851  29.731  28.303  1.00  0.00     0.056 A 
ATOM      9  C   UNL     1      43.627  29.128  28.661  1.00  0.00     0.116 A 
ATOM     10  H   UNL     1      47.558  26.614  30.114  1.00  0.00     0.166 HD
ENDROOT
BRANCH   9  11
ATOM     11  O   UNL     1      42.417  29.726  28.316  1.00  0.00    -0.508 OA
ATOM     12  H   UNL     1      41.723  29.236  27.765  1.00  0.00     0.293 HD
ENDBRANCH   9  11
TORSDOF 1
ENDMDL
MODEL 6
REMARK VINA RESULT:    -3.867      2.682      3.701
REMARK INTER + INTRA:          -3.980
REMARK INTER:                  -3.980
REMARK INTRA:                   0.000
REMARK UNBOUND:                 0.000
REMARK SMILES Oc1ccc2[nH]ccc2c1
REMARK SMILES IDX 3 1 4 2 5 3 9 4 8 5 7 6 6 7 10 8 2 9 1 11
REMARK H PARENT 6 10 1 12
REMARK Flexibility Score: inf
ROOT
ATOM      1  C   UNL     1      29.335  31.258  26.081  1.00  0.00     0.048 A 
ATOM      2  C   UNL     1      29.612  32.094  24.985  1.00  0.00     0.030 A 
ATOM      3  C   UNL     1      30.947  32.301  24.645  1.00  0.00     0.046 A 
ATOM      4  C   UNL     1      31.967  31.717  25.347  1.00  0.00     0.003 A 
ATOM      5  C   UNL     1      33.150  32.118  24.765  1.00  0.00     0.028 A 
ATOM      6  C   UNL     1      32.775  32.947  23.712  1.00  0.00     0.083 A 
ATOM      7  N   UNL     1      31.428  33.055  23.643  1.00  0.00    -0.361 N 
ATOM      8  C   UNL     1      31.729  30.885  26.438  1.00  0.00     0.056 A 
ATOM      9  C   UNL     1      30.387  30.653  26.809  1.00  0.00     0.116 A 
ATOM     10  H   UNL     1      30.879  33.612  22.951  1.00  0.00     0.166 HD
ENDROOT
BRANCH   9  11
ATOM     11  O   UNL     1      30.086  29.830  27.891  1.00  0.00    -0.508 OA
ATOM     12  H   UNL     1      30.800  29.535  28.547  1.00  0.00     0.293 HD
ENDBRANCH   9  11
TORSDOF 1
ENDMDL
MODEL 7
REMARK VINA RESULT:    -3.852     14.063     15.293
REMARK INTER + INTRA:          -3.964
REMARK INTER:                  -3.964
REMARK INTRA:                   0.000
REMARK UNBOUND:                 0.000
REMARK SMILES Oc1ccc2[nH]ccc2c1
REMARK SMILES IDX 3 1 4 2 5 3 9 4 8 5 7 6 6 7 10 8 2 9 1 11
REMARK H PARENT 6 10 1 12
REMARK Flexibility Score: inf
ROOT
ATOM      1  C   UNL     1      46.733  28.458  29.039  1.00  0.00     0.048 A 
ATOM      2  C   UNL     1      47.326  29.248  28.038  1.00  0.00     0.030 A 
ATOM      3  C   UNL     1      46.484  29.903  27.142  1.00  0.00     0.046 A 
ATOM      4  C   UNL     1      45.122  29.791  27.221  1.00  0.00     0.003 A 
ATOM      5  C   UNL     1      44.586  30.551  26.205  1.00  0.00     0.028 A 
ATOM      6  C   UNL     1      45.681  31.099  25.544  1.00  0.00     0.083 A 
ATOM      7  N   UNL     1      46.838  30.700  26.121  1.00  0.00    -0.361 N 
ATOM      8  C   UNL     1      44.501  29.017  28.200  1.00  0.00     0.056 A 
ATOM      9  C   UNL     1      45.325  28.339  29.123  1.00  0.00     0.116 A 
ATOM     10  H   UNL     1      47.806  30.961  25.829  1.00  0.00     0.166 HD
ENDROOT
BRANCH   9  11
ATOM     11  O   UNL     1      44.763  27.550  30.124  1.00  0.00    -0.508 OA
ATOM     12  H   UNL     1      44.443  26.607  29.937  1.00  0.00     0.293 HD
ENDBRANCH   9  11
TORSDOF 1
ENDMDL
MODEL 8
REMARK VINA RESULT:    -3.815     14.111     15.235
REMARK INTER + INTRA:          -3.926
REMARK INTER:                  -3.926
REMARK INTRA:                   0.000
REMARK UNBOUND:                 0.000
REMARK SMILES Oc1ccc2[nH]ccc2c1
REMARK SMILES IDX 3 1 4 2 5 3 9 4 8 5 7 6 6 7 10 8 2 9 1 11
REMARK H PARENT 6 10 1 12
REMARK Flexibility Score: inf
ROOT
ATOM      1  C   UNL     1      46.408  29.766  29.213  1.00  0.00     0.048 A 
ATOM      2  C   UNL     1      47.132  28.564  29.307  1.00  0.00     0.030 A 
ATOM      3  C   UNL     1      46.411  27.378  29.428  1.00  0.00     0.046 A 
ATOM      4  C   UNL     1      45.043  27.367  29.456  1.00  0.00     0.003 A 
ATOM      5  C   UNL     1      44.643  26.055  29.582  1.00  0.00     0.028 A 
ATOM      6  C   UNL     1      45.823  25.318  29.626  1.00  0.00     0.083 A 
ATOM      7  N   UNL     1      46.900  26.132  29.531  1.00  0.00    -0.361 N 
ATOM      8  C   UNL     1      44.295  28.539  29.365  1.00  0.00     0.056 A 
ATOM      9  C   UNL     1      44.994  29.759  29.242  1.00  0.00     0.116 A 
ATOM     10  H   UNL     1      47.904  25.844  29.537  1.00  0.00     0.166 HD
ENDROOT
BRANCH   9  11
ATOM     11  O   UNL     1      44.301  30.963  29.146  1.00  0.00    -0.508 OA
ATOM     12  H   UNL     1      44.203  31.581  29.944  1.00  0.00     0.293 HD
ENDBRANCH   9  11
TORSDOF 1
ENDMDL
MODEL 9
REMARK VINA RESULT:    -3.806      2.162      3.129
REMARK INTER + INTRA:          -3.917
REMARK INTER:                  -3.917
REMARK INTRA:                   0.000
REMARK UNBOUND:                 0.000
REMARK SMILES Oc1ccc2[nH]ccc2c1
REMARK SMILES IDX 3 1 4 2 5 3 9 4 8 5 7 6 6 7 10 8 2 9 1 11
REMARK H PARENT 6 10 1 12
REMARK Flexibility Score: inf
ROOT
ATOM      1  C   UNL     1      33.653  32.466  26.573  1.00  0.00     0.048 A 
ATOM      2  C   UNL     1      32.496  32.325  27.361  1.00  0.00     0.030 A 
ATOM      3  C   UNL     1      31.286  32.105  26.706  1.00  0.00     0.046 A 
ATOM      4  C   UNL     1      31.210  32.025  25.342  1.00  0.00     0.003 A 
ATOM      5  C   UNL     1      29.890  31.803  25.015  1.00  0.00     0.028 A 
ATOM      6  C   UNL     1      29.216  31.759  26.231  1.00  0.00     0.083 A 
ATOM      7  N   UNL     1      30.074  31.944  27.262  1.00  0.00    -0.361 N 
ATOM      8  C   UNL     1      32.335  32.160  24.532  1.00  0.00     0.056 A 
ATOM      9  C   UNL     1      33.577  32.385  25.163  1.00  0.00     0.116 A 
ATOM     10  H   UNL     1      29.837  31.957  28.279  1.00  0.00     0.166 HD
ENDROOT
BRANCH   9  11
ATOM     11  O   UNL     1      34.738  32.527  24.406  1.00  0.00    -0.508 OA
ATOM     12  H   UNL     1      35.015  33.426  24.027  1.00  0.00     0.293 HD
ENDBRANCH   9  11
TORSDOF 1
ENDMDL
