MODEL 1
REMARK VINA RESULT:    -1.634      0.000      0.000
REMARK INTER + INTRA:          -5.735
REMARK INTER:                  -4.119
REMARK INTRA:                  -1.617
REMARK UNBOUND:                -1.617
REMARK SMILES CCCCCCCCCCCCCCCCCCCCCCCCCCCC(=O)[O-]
REMARK SMILES IDX 15 1 16 2 17 3 18 4 19 5 20 6 21 7 22 8 23 9 24 10 25 11
REMARK SMILES IDX 26 12 27 13 28 14 29 15 30 16 14 17 13 18 12 19 11 20 10 21
REMARK SMILES IDX 9 22 8 23 7 24 6 25 5 26 4 27 3 28 2 29 1 30
REMARK H PARENT
REMARK Flexibility Score: inf
ROOT
ATOM      1  C   UNL     1     -11.115  -5.277  -3.869  1.00  0.00     0.000 C 
ENDROOT
BRANCH   1   2
ATOM      2  C   UNL     1     -11.089  -5.889  -5.278  1.00  0.00     0.000 C 
BRANCH   2   3
ATOM      3  C   UNL     1     -10.351  -4.999  -6.294  1.00  0.00     0.000 C 
BRANCH   3   4
ATOM      4  C   UNL     1     -10.607  -5.412  -7.754  1.00  0.00     0.000 C 
BRANCH   4   5
ATOM      5  C   UNL     1     -10.177  -6.844  -8.122  1.00  0.00     0.000 C 
BRANCH   5   6
ATOM      6  C   UNL     1      -8.838  -6.894  -8.875  1.00  0.00     0.000 C 
BRANCH   6   7
ATOM      7  C   UNL     1      -8.115  -5.535  -8.910  1.00  0.00     0.000 C 
BRANCH   7   8
ATOM      8  C   UNL     1      -7.009  -5.351  -7.855  1.00  0.00     0.000 C 
BRANCH   8   9
ATOM      9  C   UNL     1      -7.164  -6.291  -6.648  1.00  0.00     0.000 C 
BRANCH   9  10
ATOM     10  C   UNL     1      -6.114  -5.986  -5.573  1.00  0.00     0.000 C 
BRANCH  10  11
ATOM     11  C   UNL     1      -4.950  -5.172  -6.157  1.00  0.00     0.000 C 
BRANCH  11  12
ATOM     12  C   UNL     1      -3.605  -5.480  -5.475  1.00  0.00     0.006 C 
BRANCH  12  13
ATOM     13  C   UNL     1      -2.510  -4.432  -5.733  1.00  0.00     0.053 C 
BRANCH  13  14
ATOM     14  C   UNL     1      -2.905  -3.073  -5.243  1.00  0.00     0.041 C 
ATOM     15  O   UNL     1      -2.901  -2.818  -4.010  1.00  0.00    -0.550 OA
ATOM     16  O   UNL     1      -3.302  -2.095  -6.147  1.00  0.00    -0.550 OA
ENDBRANCH  13  14
ENDBRANCH  12  13
ENDBRANCH  11  12
ENDBRANCH  10  11
ENDBRANCH   9  10
ENDBRANCH   8   9
ENDBRANCH   7   8
ENDBRANCH   6   7
ENDBRANCH   5   6
ENDBRANCH   4   5
ENDBRANCH   3   4
ENDBRANCH   2   3
ENDBRANCH   1   2
BRANCH   1  17
ATOM     17  C   UNL     1     -10.722  -3.788  -3.858  1.00  0.00     0.000 C 
BRANCH  17  18
ATOM     18  C   UNL     1      -9.288  -3.555  -3.356  1.00  0.00     0.000 C 
BRANCH  18  19
ATOM     19  C   UNL     1      -9.109  -3.949  -1.880  1.00  0.00     0.000 C 
BRANCH  19  20
ATOM     20  C   UNL     1      -8.061  -3.087  -1.153  1.00  0.00     0.000 C 
BRANCH  20  21
ATOM     21  C   UNL     1      -7.942  -1.635  -1.660  1.00  0.00     0.000 C 
BRANCH  21  22
ATOM     22  C   UNL     1      -8.469  -0.552  -0.694  1.00  0.00    -0.000 C 
BRANCH  22  23
ATOM     23  C   UNL     1      -7.768   0.815  -0.797  1.00  0.00    -0.000 C 
BRANCH  23  24
ATOM     24  C   UNL     1      -8.685   1.987  -0.410  1.00  0.00    -0.000 C 
BRANCH  24  25
ATOM     25  C   UNL     1      -7.905   3.184   0.159  1.00  0.00    -0.000 C 
BRANCH  25  26
ATOM     26  C   UNL     1      -8.799   4.170   0.927  1.00  0.00    -0.000 C 
BRANCH  26  27
ATOM     27  C   UNL     1      -8.660   5.589   0.362  1.00  0.00    -0.000 C 
BRANCH  27  28
ATOM     28  C   UNL     1      -9.164   5.659  -1.084  1.00  0.00    -0.000 C 
BRANCH  28  29
ATOM     29  C   UNL     1      -9.308   7.114  -1.546  1.00  0.00    -0.003 C 
ATOM     30  C   UNL     1      -8.772   8.081  -0.495  1.00  0.00     0.004 C 
ENDBRANCH  28  29
ENDBRANCH  27  28
ENDBRANCH  26  27
ENDBRANCH  25  26
ENDBRANCH  24  25
ENDBRANCH  23  24
ENDBRANCH  22  23
ENDBRANCH  21  22
ENDBRANCH  20  21
ENDBRANCH  19  20
ENDBRANCH  18  19
ENDBRANCH  17  18
ENDBRANCH   1  17
TORSDOF 26
ENDMDL
MODEL 2
REMARK VINA RESULT:    -0.766      1.081      2.415
REMARK INTER + INTRA:          -3.546
REMARK INTER:                  -1.977
REMARK INTRA:                  -1.569
REMARK UNBOUND:                -1.617
REMARK SMILES CCCCCCCCCCCCCCCCCCCCCCCCCCCC(=O)[O-]
REMARK SMILES IDX 15 1 16 2 17 3 18 4 19 5 20 6 21 7 22 8 23 9 24 10 25 11
REMARK SMILES IDX 26 12 27 13 28 14 29 15 30 16 14 17 13 18 12 19 11 20 10 21
REMARK SMILES IDX 9 22 8 23 7 24 6 25 5 26 4 27 3 28 2 29 1 30
REMARK H PARENT
REMARK Flexibility Score: inf
ROOT
ATOM      1  C   UNL     1     -10.971  -4.755  -6.704  1.00  0.00     0.000 C 
ENDROOT
BRANCH   1   2
ATOM      2  C   UNL     1     -11.092  -4.893  -8.231  1.00  0.00     0.000 C 
BRANCH   2   3
ATOM      3  C   UNL     1     -11.125  -6.362  -8.689  1.00  0.00     0.000 C 
BRANCH   3   4
ATOM      4  C   UNL     1     -10.162  -6.650  -9.854  1.00  0.00     0.000 C 
BRANCH   4   5
ATOM      5  C   UNL     1      -9.207  -7.840  -9.644  1.00  0.00     0.000 C 
BRANCH   5   6
ATOM      6  C   UNL     1      -7.741  -7.411  -9.476  1.00  0.00     0.000 C 
BRANCH   6   7
ATOM      7  C   UNL     1      -7.544  -5.887  -9.575  1.00  0.00     0.000 C 
BRANCH   7   8
ATOM      8  C   UNL     1      -7.103  -5.194  -8.272  1.00  0.00     0.000 C 
BRANCH   8   9
ATOM      9  C   UNL     1      -7.915  -5.642  -7.046  1.00  0.00     0.000 C 
BRANCH   9  10
ATOM     10  C   UNL     1      -7.294  -6.884  -6.397  1.00  0.00     0.000 C 
BRANCH  10  11
ATOM     11  C   UNL     1      -6.113  -6.500  -5.494  1.00  0.00     0.000 C 
BRANCH  11  12
ATOM     12  C   UNL     1      -5.107  -5.567  -6.190  1.00  0.00     0.006 C 
BRANCH  12  13
ATOM     13  C   UNL     1      -3.678  -5.642  -5.627  1.00  0.00     0.053 C 
BRANCH  13  14
ATOM     14  C   UNL     1      -3.052  -4.289  -5.496  1.00  0.00     0.041 C 
ATOM     15  O   UNL     1      -1.815  -4.180  -5.288  1.00  0.00    -0.550 OA
ATOM     16  O   UNL     1      -3.839  -3.146  -5.577  1.00  0.00    -0.550 OA
ENDBRANCH  13  14
ENDBRANCH  12  13
ENDBRANCH  11  12
ENDBRANCH  10  11
ENDBRANCH   9  10
ENDBRANCH   8   9
ENDBRANCH   7   8
ENDBRANCH   6   7
ENDBRANCH   5   6
ENDBRANCH   4   5
ENDBRANCH   3   4
ENDBRANCH   2   3
ENDBRANCH   1   2
BRANCH   1  17
ATOM     17  C   UNL     1     -11.115  -6.101  -5.971  1.00  0.00     0.000 C 
BRANCH  17  18
ATOM     18  C   UNL     1     -10.580  -6.055  -4.531  1.00  0.00     0.000 C 
BRANCH  18  19
ATOM     19  C   UNL     1     -10.452  -4.619  -3.996  1.00  0.00     0.000 C 
BRANCH  19  20
ATOM     20  C   UNL     1      -9.118  -4.369  -3.268  1.00  0.00     0.000 C 
BRANCH  20  21
ATOM     21  C   UNL     1      -9.239  -3.654  -1.907  1.00  0.00     0.000 C 
BRANCH  21  22
ATOM     22  C   UNL     1      -9.478  -2.131  -1.978  1.00  0.00    -0.000 C 
BRANCH  22  23
ATOM     23  C   UNL     1      -8.675  -1.293  -0.964  1.00  0.00    -0.000 C 
BRANCH  23  24
ATOM     24  C   UNL     1      -7.317  -0.830  -1.516  1.00  0.00    -0.000 C 
BRANCH  24  25
ATOM     25  C   UNL     1      -7.044   0.657  -1.240  1.00  0.00    -0.000 C 
BRANCH  25  26
ATOM     26  C   UNL     1      -8.179   1.338  -0.459  1.00  0.00    -0.000 C 
BRANCH  26  27
ATOM     27  C   UNL     1      -7.709   2.668   0.142  1.00  0.00    -0.000 C 
BRANCH  27  28
ATOM     28  C   UNL     1      -8.892   3.479   0.684  1.00  0.00    -0.000 C 
BRANCH  28  29
ATOM     29  C   UNL     1      -8.708   4.975   0.402  1.00  0.00    -0.003 C 
ATOM     30  C   UNL     1      -8.936   5.290  -1.073  1.00  0.00     0.004 C 
ENDBRANCH  28  29
ENDBRANCH  27  28
ENDBRANCH  26  27
ENDBRANCH  25  26
ENDBRANCH  24  25
ENDBRANCH  23  24
ENDBRANCH  22  23
ENDBRANCH  21  22
ENDBRANCH  20  21
ENDBRANCH  19  20
ENDBRANCH  18  19
ENDBRANCH  17  18
ENDBRANCH   1  17
TORSDOF 26
ENDMDL
MODEL 3
REMARK VINA RESULT:    -0.447      5.117      9.114
REMARK INTER + INTRA:          -2.743
REMARK INTER:                  -1.259
REMARK INTRA:                  -1.484
REMARK UNBOUND:                -1.617
REMARK SMILES CCCCCCCCCCCCCCCCCCCCCCCCCCCC(=O)[O-]
REMARK SMILES IDX 15 1 16 2 17 3 18 4 19 5 20 6 21 7 22 8 23 9 24 10 25 11
REMARK SMILES IDX 26 12 27 13 28 14 29 15 30 16 14 17 13 18 12 19 11 20 10 21
REMARK SMILES IDX 9 22 8 23 7 24 6 25 5 26 4 27 3 28 2 29 1 30
REMARK H PARENT
REMARK Flexibility Score: inf
ROOT
ATOM      1  C   UNL     1      -8.853   4.332  -0.455  1.00  0.00     0.000 C 
ENDROOT
BRANCH   1   2
ATOM      2  C   UNL     1      -8.467   3.040   0.283  1.00  0.00     0.000 C 
BRANCH   2   3
ATOM      3  C   UNL     1      -7.726   2.042  -0.624  1.00  0.00     0.000 C 
BRANCH   3   4
ATOM      4  C   UNL     1      -8.417   0.670  -0.700  1.00  0.00     0.000 C 
BRANCH   4   5
ATOM      5  C   UNL     1      -7.518  -0.501  -1.139  1.00  0.00     0.000 C 
BRANCH   5   6
ATOM      6  C   UNL     1      -8.142  -1.877  -0.855  1.00  0.00     0.000 C 
BRANCH   6   7
ATOM      7  C   UNL     1      -8.444  -2.678  -2.136  1.00  0.00     0.000 C 
BRANCH   7   8
ATOM      8  C   UNL     1      -9.052  -4.075  -1.910  1.00  0.00     0.000 C 
BRANCH   8   9
ATOM      9  C   UNL     1     -10.535  -4.158  -2.306  1.00  0.00     0.000 C 
BRANCH   9  10
ATOM     10  C   UNL     1     -10.714  -3.957  -3.815  1.00  0.00     0.000 C 
BRANCH  10  11
ATOM     11  C   UNL     1     -10.955  -5.299  -4.524  1.00  0.00     0.000 C 
BRANCH  11  12
ATOM     12  C   UNL     1      -9.877  -5.622  -5.574  1.00  0.00     0.006 C 
BRANCH  12  13
ATOM     13  C   UNL     1      -8.496  -5.949  -4.983  1.00  0.00     0.053 C 
BRANCH  13  14
ATOM     14  C   UNL     1      -7.674  -6.793  -5.907  1.00  0.00     0.041 C 
ATOM     15  O   UNL     1      -6.971  -7.733  -5.450  1.00  0.00    -0.550 OA
ATOM     16  O   UNL     1      -7.663  -6.526  -7.271  1.00  0.00    -0.550 OA
ENDBRANCH  13  14
ENDBRANCH  12  13
ENDBRANCH  11  12
ENDBRANCH  10  11
ENDBRANCH   9  10
ENDBRANCH   8   9
ENDBRANCH   7   8
ENDBRANCH   6   7
ENDBRANCH   5   6
ENDBRANCH   4   5
ENDBRANCH   3   4
ENDBRANCH   2   3
ENDBRANCH   1   2
BRANCH   1  17
ATOM     17  C   UNL     1      -8.850   5.567   0.464  1.00  0.00     0.000 C 
BRANCH  17  18
ATOM     18  C   UNL     1      -9.214   5.227   1.919  1.00  0.00     0.000 C 
BRANCH  18  19
ATOM     19  C   UNL     1     -10.250   6.197   2.509  1.00  0.00     0.000 C 
BRANCH  19  20
ATOM     20  C   UNL     1      -9.966   6.553   3.980  1.00  0.00     0.000 C 
BRANCH  20  21
ATOM     21  C   UNL     1     -10.750   7.765   4.524  1.00  0.00     0.000 C 
BRANCH  21  22
ATOM     22  C   UNL     1     -10.690   7.960   6.054  1.00  0.00    -0.000 C 
BRANCH  22  23
ATOM     23  C   UNL     1      -9.741   7.002   6.799  1.00  0.00    -0.000 C 
BRANCH  23  24
ATOM     24  C   UNL     1      -9.910   7.064   8.326  1.00  0.00    -0.000 C 
BRANCH  24  25
ATOM     25  C   UNL     1      -9.868   8.503   8.867  1.00  0.00    -0.000 C 
BRANCH  25  26
ATOM     26  C   UNL     1      -8.588   8.807   9.661  1.00  0.00    -0.000 C 
BRANCH  26  27
ATOM     27  C   UNL     1      -7.422   9.126   8.718  1.00  0.00    -0.000 C 
BRANCH  27  28
ATOM     28  C   UNL     1      -6.198   8.260   9.041  1.00  0.00    -0.000 C 
BRANCH  28  29
ATOM     29  C   UNL     1      -5.846   7.345   7.862  1.00  0.00    -0.003 C 
ATOM     30  C   UNL     1      -4.674   7.906   7.061  1.00  0.00     0.004 C 
ENDBRANCH  28  29
ENDBRANCH  27  28
ENDBRANCH  26  27
ENDBRANCH  25  26
ENDBRANCH  24  25
ENDBRANCH  23  24
ENDBRANCH  22  23
ENDBRANCH  21  22
ENDBRANCH  20  21
ENDBRANCH  19  20
ENDBRANCH  18  19
ENDBRANCH  17  18
ENDBRANCH   1  17
TORSDOF 26
ENDMDL
MODEL 4
REMARK VINA RESULT:    -0.203      1.348      2.252
REMARK INTER + INTRA:          -2.128
REMARK INTER:                  -2.342
REMARK INTRA:                   0.213
REMARK UNBOUND:                -1.617
REMARK SMILES CCCCCCCCCCCCCCCCCCCCCCCCCCCC(=O)[O-]
REMARK SMILES IDX 15 1 16 2 17 3 18 4 19 5 20 6 21 7 22 8 23 9 24 10 25 11
REMARK SMILES IDX 26 12 27 13 28 14 29 15 30 16 14 17 13 18 12 19 11 20 10 21
REMARK SMILES IDX 9 22 8 23 7 24 6 25 5 26 4 27 3 28 2 29 1 30
REMARK H PARENT
REMARK Flexibility Score: inf
ROOT
ATOM      1  C   UNL     1      -9.503  -4.644  -4.235  1.00  0.00     0.000 C 
ENDROOT
BRANCH   1   2
ATOM      2  C   UNL     1      -8.949  -6.007  -4.680  1.00  0.00     0.000 C 
BRANCH   2   3
ATOM      3  C   UNL     1     -10.058  -6.976  -5.127  1.00  0.00     0.000 C 
BRANCH   3   4
ATOM      4  C   UNL     1     -10.977  -6.382  -6.207  1.00  0.00     0.000 C 
BRANCH   4   5
ATOM      5  C   UNL     1     -11.117  -7.221  -7.492  1.00  0.00     0.000 C 
BRANCH   5   6
ATOM      6  C   UNL     1     -11.070  -6.371  -8.772  1.00  0.00     0.000 C 
BRANCH   6   7
ATOM      7  C   UNL     1      -9.778  -5.543  -8.899  1.00  0.00     0.000 C 
BRANCH   7   8
ATOM      8  C   UNL     1      -8.874  -5.911 -10.090  1.00  0.00     0.000 C 
BRANCH   8   9
ATOM      9  C   UNL     1      -7.530  -5.166 -10.081  1.00  0.00     0.000 C 
BRANCH   9  10
ATOM     10  C   UNL     1      -6.647  -5.636  -8.920  1.00  0.00     0.000 C 
BRANCH  10  11
ATOM     11  C   UNL     1      -7.478  -5.842  -7.645  1.00  0.00     0.000 C 
BRANCH  11  12
ATOM     12  C   UNL     1      -6.627  -5.802  -6.363  1.00  0.00     0.006 C 
BRANCH  12  13
ATOM     13  C   UNL     1      -5.462  -4.800  -6.408  1.00  0.00     0.053 C 
BRANCH  13  14
ATOM     14  C   UNL     1      -4.197  -5.384  -5.861  1.00  0.00     0.041 C 
ATOM     15  O   UNL     1      -4.152  -6.595  -5.520  1.00  0.00    -0.550 OA
ATOM     16  O   UNL     1      -3.071  -4.583  -5.705  1.00  0.00    -0.550 OA
ENDBRANCH  13  14
ENDBRANCH  12  13
ENDBRANCH  11  12
ENDBRANCH  10  11
ENDBRANCH   9  10
ENDBRANCH   8   9
ENDBRANCH   7   8
ENDBRANCH   6   7
ENDBRANCH   5   6
ENDBRANCH   4   5
ENDBRANCH   3   4
ENDBRANCH   2   3
ENDBRANCH   1   2
BRANCH   1  17
ATOM     17  C   UNL     1      -8.702  -4.025  -3.075  1.00  0.00     0.000 C 
BRANCH  17  18
ATOM     18  C   UNL     1      -9.472  -4.040  -1.744  1.00  0.00     0.000 C 
BRANCH  18  19
ATOM     19  C   UNL     1      -9.860  -2.629  -1.273  1.00  0.00     0.000 C 
BRANCH  19  20
ATOM     20  C   UNL     1      -8.903  -1.541  -1.793  1.00  0.00     0.000 C 
BRANCH  20  21
ATOM     21  C   UNL     1      -8.163  -0.742  -0.700  1.00  0.00     0.000 C 
BRANCH  21  22
ATOM     22  C   UNL     1      -7.855   0.729  -1.050  1.00  0.00    -0.000 C 
BRANCH  22  23
ATOM     23  C   UNL     1      -8.076   1.735   0.095  1.00  0.00    -0.000 C 
BRANCH  23  24
ATOM     24  C   UNL     1      -8.504   3.125  -0.406  1.00  0.00    -0.000 C 
BRANCH  24  25
ATOM     25  C   UNL     1      -8.772   4.109   0.744  1.00  0.00    -0.000 C 
BRANCH  25  26
ATOM     26  C   UNL     1      -8.824   5.573   0.278  1.00  0.00    -0.000 C 
BRANCH  26  27
ATOM     27  C   UNL     1      -8.956   5.658  -1.247  1.00  0.00    -0.000 C 
BRANCH  27  28
ATOM     28  C   UNL     1      -9.720   6.919  -1.666  1.00  0.00    -0.000 C 
BRANCH  28  29
ATOM     29  C   UNL     1      -8.882   8.178  -1.414  1.00  0.00    -0.003 C 
ATOM     30  C   UNL     1      -8.884   8.555   0.065  1.00  0.00     0.004 C 
ENDBRANCH  28  29
ENDBRANCH  27  28
ENDBRANCH  26  27
ENDBRANCH  25  26
ENDBRANCH  24  25
ENDBRANCH  23  24
ENDBRANCH  22  23
ENDBRANCH  21  22
ENDBRANCH  20  21
ENDBRANCH  19  20
ENDBRANCH  18  19
ENDBRANCH  17  18
ENDBRANCH   1  17
TORSDOF 26
ENDMDL
MODEL 5
REMARK VINA RESULT:     0.115      2.221      3.367
REMARK INTER + INTRA:          -1.327
REMARK INTER:                  -0.346
REMARK INTRA:                  -0.981
REMARK UNBOUND:                -1.617
REMARK SMILES CCCCCCCCCCCCCCCCCCCCCCCCCCCC(=O)[O-]
REMARK SMILES IDX 15 1 16 2 17 3 18 4 19 5 20 6 21 7 22 8 23 9 24 10 25 11
REMARK SMILES IDX 26 12 27 13 28 14 29 15 30 16 14 17 13 18 12 19 11 20 10 21
REMARK SMILES IDX 9 22 8 23 7 24 6 25 5 26 4 27 3 28 2 29 1 30
REMARK H PARENT
REMARK Flexibility Score: inf
ROOT
ATOM      1  C   UNL     1      -9.371  -4.402  -3.028  1.00  0.00     0.000 C 
ENDROOT
BRANCH   1   2
ATOM      2  C   UNL     1     -10.811  -4.869  -3.298  1.00  0.00     0.000 C 
BRANCH   2   3
ATOM      3  C   UNL     1     -11.067  -5.157  -4.788  1.00  0.00     0.000 C 
BRANCH   3   4
ATOM      4  C   UNL     1     -11.000  -6.655  -5.132  1.00  0.00     0.000 C 
BRANCH   4   5
ATOM      5  C   UNL     1     -11.125  -6.997  -6.629  1.00  0.00     0.000 C 
BRANCH   5   6
ATOM      6  C   UNL     1     -10.359  -6.018  -7.535  1.00  0.00     0.000 C 
BRANCH   6   7
ATOM      7  C   UNL     1     -11.056  -5.777  -8.886  1.00  0.00     0.000 C 
BRANCH   7   8
ATOM      8  C   UNL     1     -10.561  -4.549  -9.672  1.00  0.00     0.000 C 
BRANCH   8   9
ATOM      9  C   UNL     1      -9.227  -3.995  -9.147  1.00  0.00     0.000 C 
BRANCH   9  10
ATOM     10  C   UNL     1      -8.060  -4.426 -10.043  1.00  0.00     0.000 C 
BRANCH  10  11
ATOM     11  C   UNL     1      -6.869  -4.908  -9.201  1.00  0.00     0.000 C 
BRANCH  11  12
ATOM     12  C   UNL     1      -7.251  -6.022  -8.209  1.00  0.00     0.006 C 
BRANCH  12  13
ATOM     13  C   UNL     1      -6.529  -5.937  -6.854  1.00  0.00     0.053 C 
BRANCH  13  14
ATOM     14  C   UNL     1      -7.288  -6.632  -5.767  1.00  0.00     0.041 C 
ATOM     15  O   UNL     1      -7.932  -7.685  -6.017  1.00  0.00    -0.550 OA
ATOM     16  O   UNL     1      -7.306  -6.104  -4.482  1.00  0.00    -0.550 OA
ENDBRANCH  13  14
ENDBRANCH  12  13
ENDBRANCH  11  12
ENDBRANCH  10  11
ENDBRANCH   9  10
ENDBRANCH   8   9
ENDBRANCH   7   8
ENDBRANCH   6   7
ENDBRANCH   5   6
ENDBRANCH   4   5
ENDBRANCH   3   4
ENDBRANCH   2   3
ENDBRANCH   1   2
BRANCH   1  17
ATOM     17  C   UNL     1      -9.288  -2.909  -2.662  1.00  0.00     0.000 C 
BRANCH  17  18
ATOM     18  C   UNL     1      -8.315  -2.633  -1.504  1.00  0.00     0.000 C 
BRANCH  18  19
ATOM     19  C   UNL     1      -8.497  -1.229  -0.904  1.00  0.00     0.000 C 
BRANCH  19  20
ATOM     20  C   UNL     1      -7.285  -0.312  -1.151  1.00  0.00     0.000 C 
BRANCH  20  21
ATOM     21  C   UNL     1      -7.431   1.126  -0.611  1.00  0.00     0.000 C 
BRANCH  21  22
ATOM     22  C   UNL     1      -8.836   1.747  -0.754  1.00  0.00    -0.000 C 
BRANCH  22  23
ATOM     23  C   UNL     1      -8.883   3.285  -0.680  1.00  0.00    -0.000 C 
BRANCH  23  24
ATOM     24  C   UNL     1      -8.063   3.851   0.492  1.00  0.00    -0.000 C 
BRANCH  24  25
ATOM     25  C   UNL     1      -8.902   4.741   1.423  1.00  0.00    -0.000 C 
BRANCH  25  26
ATOM     26  C   UNL     1      -9.555   5.924   0.692  1.00  0.00    -0.000 C 
BRANCH  26  27
ATOM     27  C   UNL     1      -8.634   6.465  -0.407  1.00  0.00    -0.000 C 
BRANCH  27  28
ATOM     28  C   UNL     1      -9.429   7.246  -1.460  1.00  0.00    -0.000 C 
BRANCH  28  29
ATOM     29  C   UNL     1      -9.062   8.735  -1.432  1.00  0.00    -0.003 C 
ATOM     30  C   UNL     1      -8.822   9.217  -0.004  1.00  0.00     0.004 C 
ENDBRANCH  28  29
ENDBRANCH  27  28
ENDBRANCH  26  27
ENDBRANCH  25  26
ENDBRANCH  24  25
ENDBRANCH  23  24
ENDBRANCH  22  23
ENDBRANCH  21  22
ENDBRANCH  20  21
ENDBRANCH  19  20
ENDBRANCH  18  19
ENDBRANCH  17  18
ENDBRANCH   1  17
TORSDOF 26
ENDMDL
MODEL 6
REMARK VINA RESULT:     0.144      6.240     14.340
REMARK INTER + INTRA:          -1.254
REMARK INTER:                  -0.044
REMARK INTRA:                  -1.210
REMARK UNBOUND:                -1.617
REMARK SMILES CCCCCCCCCCCCCCCCCCCCCCCCCCCC(=O)[O-]
REMARK SMILES IDX 15 1 16 2 17 3 18 4 19 5 20 6 21 7 22 8 23 9 24 10 25 11
REMARK SMILES IDX 26 12 27 13 28 14 29 15 30 16 14 17 13 18 12 19 11 20 10 21
REMARK SMILES IDX 9 22 8 23 7 24 6 25 5 26 4 27 3 28 2 29 1 30
REMARK H PARENT
REMARK Flexibility Score: inf
ROOT
ATOM      1  C   UNL     1      -8.531   2.958  -0.541  1.00  0.00     0.000 C 
ENDROOT
BRANCH   1   2
ATOM      2  C   UNL     1      -8.162   3.647   0.783  1.00  0.00     0.000 C 
BRANCH   2   3
ATOM      3  C   UNL     1      -8.901   4.982   0.978  1.00  0.00     0.000 C 
BRANCH   3   4
ATOM      4  C   UNL     1      -9.675   5.053   2.307  1.00  0.00     0.000 C 
BRANCH   4   5
ATOM      5  C   UNL     1     -10.155   6.458   2.719  1.00  0.00     0.000 C 
BRANCH   5   6
ATOM      6  C   UNL     1     -10.083   6.696   4.236  1.00  0.00     0.000 C 
BRANCH   6   7
ATOM      7  C   UNL     1     -10.811   7.978   4.680  1.00  0.00     0.000 C 
BRANCH   7   8
ATOM      8  C   UNL     1     -10.880   8.202   6.202  1.00  0.00     0.000 C 
BRANCH   8   9
ATOM      9  C   UNL     1      -9.976   7.243   6.994  1.00  0.00     0.000 C 
BRANCH   9  10
ATOM     10  C   UNL     1     -10.013   7.563   8.493  1.00  0.00     0.000 C 
BRANCH  10  11
ATOM     11  C   UNL     1      -8.662   7.252   9.155  1.00  0.00     0.000 C 
BRANCH  11  12
ATOM     12  C   UNL     1      -7.703   8.456   9.151  1.00  0.00     0.006 C 
BRANCH  12  13
ATOM     13  C   UNL     1      -6.404   8.233   9.940  1.00  0.00     0.053 C 
BRANCH  13  14
ATOM     14  C   UNL     1      -5.215   8.095   9.041  1.00  0.00     0.041 C 
ATOM     15  O   UNL     1      -4.158   7.558   9.466  1.00  0.00    -0.550 OA
ATOM     16  O   UNL     1      -5.264   8.582   7.741  1.00  0.00    -0.550 OA
ENDBRANCH  13  14
ENDBRANCH  12  13
ENDBRANCH  11  12
ENDBRANCH  10  11
ENDBRANCH   9  10
ENDBRANCH   8   9
ENDBRANCH   7   8
ENDBRANCH   6   7
ENDBRANCH   5   6
ENDBRANCH   4   5
ENDBRANCH   3   4
ENDBRANCH   2   3
ENDBRANCH   1   2
BRANCH   1  17
ATOM     17  C   UNL     1      -8.251   1.445  -0.523  1.00  0.00     0.000 C 
BRANCH  17  18
ATOM     18  C   UNL     1      -6.873   1.087  -1.103  1.00  0.00     0.000 C 
BRANCH  18  19
ATOM     19  C   UNL     1      -6.822  -0.344  -1.661  1.00  0.00     0.000 C 
BRANCH  19  20
ATOM     20  C   UNL     1      -7.965  -1.232  -1.135  1.00  0.00     0.000 C 
BRANCH  20  21
ATOM     21  C   UNL     1      -8.312  -2.447  -2.021  1.00  0.00     0.000 C 
BRANCH  21  22
ATOM     22  C   UNL     1      -9.382  -3.399  -1.447  1.00  0.00    -0.000 C 
BRANCH  22  23
ATOM     23  C   UNL     1     -10.737  -3.380  -2.180  1.00  0.00    -0.000 C 
BRANCH  23  24
ATOM     24  C   UNL     1     -10.587  -3.373  -3.711  1.00  0.00    -0.000 C 
BRANCH  24  25
ATOM     25  C   UNL     1     -10.897  -4.741  -4.340  1.00  0.00    -0.000 C 
BRANCH  25  26
ATOM     26  C   UNL     1      -9.631  -5.542  -4.684  1.00  0.00    -0.000 C 
BRANCH  26  27
ATOM     27  C   UNL     1      -9.704  -6.097  -6.111  1.00  0.00    -0.000 C 
BRANCH  27  28
ATOM     28  C   UNL     1      -8.403  -6.812  -6.493  1.00  0.00    -0.000 C 
BRANCH  28  29
ATOM     29  C   UNL     1      -7.274  -6.456  -5.519  1.00  0.00    -0.003 C 
ATOM     30  C   UNL     1      -6.135  -5.735  -6.235  1.00  0.00     0.004 C 
ENDBRANCH  28  29
ENDBRANCH  27  28
ENDBRANCH  26  27
ENDBRANCH  25  26
ENDBRANCH  24  25
ENDBRANCH  23  24
ENDBRANCH  22  23
ENDBRANCH  21  22
ENDBRANCH  20  21
ENDBRANCH  19  20
ENDBRANCH  18  19
ENDBRANCH  17  18
ENDBRANCH   1  17
TORSDOF 26
ENDMDL
MODEL 7
REMARK VINA RESULT:     0.491      5.615     13.758
REMARK INTER + INTRA:          -0.379
REMARK INTER:                   0.826
REMARK INTRA:                  -1.205
REMARK UNBOUND:                -1.617
REMARK SMILES CCCCCCCCCCCCCCCCCCCCCCCCCCCC(=O)[O-]
REMARK SMILES IDX 15 1 16 2 17 3 18 4 19 5 20 6 21 7 22 8 23 9 24 10 25 11
REMARK SMILES IDX 26 12 27 13 28 14 29 15 30 16 14 17 13 18 12 19 11 20 10 21
REMARK SMILES IDX 9 22 8 23 7 24 6 25 5 26 4 27 3 28 2 29 1 30
REMARK H PARENT
REMARK Flexibility Score: inf
ROOT
ATOM      1  C   UNL     1      -8.430   1.856  -0.525  1.00  0.00     0.000 C 
ENDROOT
BRANCH   1   2
ATOM      2  C   UNL     1      -8.134   3.090   0.343  1.00  0.00     0.000 C 
BRANCH   2   3
ATOM      3  C   UNL     1      -8.823   4.360  -0.185  1.00  0.00     0.000 C 
BRANCH   3   4
ATOM      4  C   UNL     1      -8.840   5.507   0.842  1.00  0.00     0.000 C 
BRANCH   4   5
ATOM      5  C   UNL     1      -9.542   5.190   2.176  1.00  0.00     0.000 C 
BRANCH   5   6
ATOM      6  C   UNL     1     -10.114   6.440   2.864  1.00  0.00     0.000 C 
BRANCH   6   7
ATOM      7  C   UNL     1      -9.924   6.426   4.392  1.00  0.00     0.000 C 
BRANCH   7   8
ATOM      8  C   UNL     1     -10.376   7.704   5.123  1.00  0.00     0.000 C 
BRANCH   8   9
ATOM      9  C   UNL     1     -10.506   7.515   6.643  1.00  0.00     0.000 C 
BRANCH   9  10
ATOM     10  C   UNL     1      -9.211   6.956   7.242  1.00  0.00     0.000 C 
BRANCH  10  11
ATOM     11  C   UNL     1      -8.568   7.968   8.203  1.00  0.00     0.000 C 
BRANCH  11  12
ATOM     12  C   UNL     1      -7.204   7.498   8.740  1.00  0.00     0.006 C 
BRANCH  12  13
ATOM     13  C   UNL     1      -6.287   6.870   7.678  1.00  0.00     0.053 C 
BRANCH  13  14
ATOM     14  C   UNL     1      -4.939   7.519   7.643  1.00  0.00     0.041 C 
ATOM     15  O   UNL     1      -4.125   7.343   8.588  1.00  0.00    -0.550 OA
ATOM     16  O   UNL     1      -4.588   8.341   6.578  1.00  0.00    -0.550 OA
ENDBRANCH  13  14
ENDBRANCH  12  13
ENDBRANCH  11  12
ENDBRANCH  10  11
ENDBRANCH   9  10
ENDBRANCH   8   9
ENDBRANCH   7   8
ENDBRANCH   6   7
ENDBRANCH   5   6
ENDBRANCH   4   5
ENDBRANCH   3   4
ENDBRANCH   2   3
ENDBRANCH   1   2
BRANCH   1  17
ATOM     17  C   UNL     1      -7.226   0.903  -0.635  1.00  0.00     0.000 C 
BRANCH  17  18
ATOM     18  C   UNL     1      -7.481  -0.271  -1.595  1.00  0.00     0.000 C 
BRANCH  18  19
ATOM     19  C   UNL     1      -8.013  -1.519  -0.871  1.00  0.00     0.000 C 
BRANCH  19  20
ATOM     20  C   UNL     1      -8.765  -2.480  -1.810  1.00  0.00     0.000 C 
BRANCH  20  21
ATOM     21  C   UNL     1      -9.970  -3.205  -1.177  1.00  0.00     0.000 C 
BRANCH  21  22
ATOM     22  C   UNL     1     -10.843  -4.017  -2.157  1.00  0.00    -0.000 C 
BRANCH  22  23
ATOM     23  C   UNL     1     -10.797  -3.544  -3.622  1.00  0.00    -0.000 C 
BRANCH  23  24
ATOM     24  C   UNL     1     -10.730  -4.709  -4.624  1.00  0.00    -0.000 C 
BRANCH  24  25
ATOM     25  C   UNL     1     -10.732  -4.231  -6.085  1.00  0.00    -0.000 C 
BRANCH  25  26
ATOM     26  C   UNL     1     -10.615  -5.387  -7.092  1.00  0.00    -0.000 C 
BRANCH  26  27
ATOM     27  C   UNL     1      -9.839  -4.949  -8.340  1.00  0.00    -0.000 C 
BRANCH  27  28
ATOM     28  C   UNL     1      -8.394  -5.460  -8.298  1.00  0.00    -0.000 C 
BRANCH  28  29
ATOM     29  C   UNL     1      -8.227  -6.549  -7.231  1.00  0.00    -0.003 C 
ATOM     30  C   UNL     1      -7.063  -6.230  -6.297  1.00  0.00     0.004 C 
ENDBRANCH  28  29
ENDBRANCH  27  28
ENDBRANCH  26  27
ENDBRANCH  25  26
ENDBRANCH  24  25
ENDBRANCH  23  24
ENDBRANCH  22  23
ENDBRANCH  21  22
ENDBRANCH  20  21
ENDBRANCH  19  20
ENDBRANCH  18  19
ENDBRANCH  17  18
ENDBRANCH   1  17
TORSDOF 26
ENDMDL
