MODEL 1
REMARK VINA RESULT:    -4.524      0.000      0.000
REMARK INTER + INTRA:          -9.577
REMARK INTER:                  -8.227
REMARK INTRA:                  -1.350
REMARK UNBOUND:                -1.350
REMARK SMILES CCCCCCCCCCCCCC[C@@H](C)C(=O)[O-]
REMARK SMILES IDX 9 1 10 2 11 3 12 4 13 5 14 6 15 7 16 8 17 9 18 10 19 11 8 12
REMARK SMILES IDX 7 13 6 14 5 15 4 16 3 17 2 18 1 19
REMARK H PARENT
REMARK Flexibility Score: inf
ROOT
ATOM      1  C   UNL     1      46.970  -8.691 -56.584  1.00  0.00     0.000 C 
ENDROOT
BRANCH   1   2
ATOM      2  C   UNL     1      47.612  -8.007 -55.366  1.00  0.00     0.000 C 
BRANCH   2   3
ATOM      3  C   UNL     1      48.995  -8.584 -55.015  1.00  0.00     0.000 C 
BRANCH   3   4
ATOM      4  C   UNL     1      49.844  -7.726 -54.055  1.00  0.00     0.000 C 
BRANCH   4   5
ATOM      5  C   UNL     1      50.143  -6.297 -54.541  1.00  0.00     0.001 C 
BRANCH   5   6
ATOM      6  C   UNL     1      51.292  -6.242 -55.565  1.00  0.00     0.009 C 
BRANCH   6   7
ATOM      7  C   UNL     1      50.796  -5.849 -56.972  1.00  0.00     0.032 C 
ATOM      8  C   UNL     1      49.707  -4.775 -56.883  1.00  0.00     0.014 C 
BRANCH   7   9
ATOM      9  C   UNL     1      51.926  -5.362 -57.840  1.00  0.00     0.044 C 
ATOM     10  O   UNL     1      51.922  -4.188 -58.298  1.00  0.00    -0.550 OA
ATOM     11  O   UNL     1      52.983  -6.211 -58.142  1.00  0.00    -0.550 OA
ENDBRANCH   7   9
ENDBRANCH   6   7
ENDBRANCH   5   6
ENDBRANCH   4   5
ENDBRANCH   3   4
ENDBRANCH   2   3
ENDBRANCH   1   2
BRANCH   1  12
ATOM     12  C   UNL     1      48.007  -9.192 -57.605  1.00  0.00     0.000 C 
BRANCH  12  13
ATOM     13  C   UNL     1      47.738 -10.597 -58.180  1.00  0.00    -0.000 C 
BRANCH  13  14
ATOM     14  C   UNL     1      47.295 -11.652 -57.148  1.00  0.00    -0.000 C 
BRANCH  14  15
ATOM     15  C   UNL     1      48.376 -12.053 -56.125  1.00  0.00    -0.000 C 
BRANCH  15  16
ATOM     16  C   UNL     1      48.859 -13.513 -56.224  1.00  0.00    -0.000 C 
BRANCH  16  17
ATOM     17  C   UNL     1      47.876 -14.562 -55.674  1.00  0.00    -0.000 C 
BRANCH  17  18
ATOM     18  C   UNL     1      48.272 -16.000 -56.038  1.00  0.00    -0.003 C 
ATOM     19  C   UNL     1      47.378 -16.553 -57.146  1.00  0.00     0.004 C 
ENDBRANCH  17  18
ENDBRANCH  16  17
ENDBRANCH  15  16
ENDBRANCH  14  15
ENDBRANCH  13  14
ENDBRANCH  12  13
ENDBRANCH   1  12
TORSDOF 14
ENDMDL
MODEL 2
REMARK VINA RESULT:    -4.497      3.780      7.931
REMARK INTER + INTRA:          -9.528
REMARK INTER:                  -7.563
REMARK INTRA:                  -1.966
REMARK UNBOUND:                -1.350
REMARK SMILES CCCCCCCCCCCCCC[C@@H](C)C(=O)[O-]
REMARK SMILES IDX 9 1 10 2 11 3 12 4 13 5 14 6 15 7 16 8 17 9 18 10 19 11 8 12
REMARK SMILES IDX 7 13 6 14 5 15 4 16 3 17 2 18 1 19
REMARK H PARENT
REMARK Flexibility Score: inf
ROOT
ATOM      1  C   UNL     1      48.155  -8.581 -55.705  1.00  0.00     0.000 C 
ENDROOT
BRANCH   1   2
ATOM      2  C   UNL     1      47.394  -8.292 -57.010  1.00  0.00     0.000 C 
BRANCH   2   3
ATOM      3  C   UNL     1      46.682  -9.535 -57.574  1.00  0.00     0.000 C 
BRANCH   3   4
ATOM      4  C   UNL     1      47.500 -10.360 -58.589  1.00  0.00     0.000 C 
BRANCH   4   5
ATOM      5  C   UNL     1      47.333 -11.886 -58.480  1.00  0.00     0.001 C 
BRANCH   5   6
ATOM      6  C   UNL     1      47.133 -12.364 -57.030  1.00  0.00     0.009 C 
BRANCH   6   7
ATOM      7  C   UNL     1      48.364 -13.122 -56.493  1.00  0.00     0.032 C 
ATOM      8  C   UNL     1      49.176 -12.233 -55.544  1.00  0.00     0.014 C 
BRANCH   7   9
ATOM      9  C   UNL     1      47.968 -14.393 -55.790  1.00  0.00     0.044 C 
ATOM     10  O   UNL     1      47.196 -14.361 -54.795  1.00  0.00    -0.550 OA
ATOM     11  O   UNL     1      48.458 -15.613 -56.238  1.00  0.00    -0.550 OA
ENDBRANCH   7   9
ENDBRANCH   6   7
ENDBRANCH   5   6
ENDBRANCH   4   5
ENDBRANCH   3   4
ENDBRANCH   2   3
ENDBRANCH   1   2
BRANCH   1  12
ATOM     12  C   UNL     1      47.776  -7.617 -54.566  1.00  0.00     0.000 C 
BRANCH  12  13
ATOM     13  C   UNL     1      48.947  -7.162 -53.673  1.00  0.00    -0.000 C 
BRANCH  13  14
ATOM     14  C   UNL     1      50.351  -7.413 -54.258  1.00  0.00    -0.000 C 
BRANCH  14  15
ATOM     15  C   UNL     1      51.020  -6.176 -54.890  1.00  0.00    -0.000 C 
BRANCH  15  16
ATOM     16  C   UNL     1      51.155  -6.221 -56.425  1.00  0.00    -0.000 C 
BRANCH  16  17
ATOM     17  C   UNL     1      50.143  -5.351 -57.192  1.00  0.00    -0.000 C 
BRANCH  17  18
ATOM     18  C   UNL     1      49.519  -4.252 -56.320  1.00  0.00    -0.003 C 
ATOM     19  C   UNL     1      47.998  -4.380 -56.280  1.00  0.00     0.004 C 
ENDBRANCH  17  18
ENDBRANCH  16  17
ENDBRANCH  15  16
ENDBRANCH  14  15
ENDBRANCH  13  14
ENDBRANCH  12  13
ENDBRANCH   1  12
TORSDOF 14
ENDMDL
MODEL 3
REMARK VINA RESULT:    -4.491      2.586      3.300
REMARK INTER + INTRA:          -9.518
REMARK INTER:                  -7.892
REMARK INTRA:                  -1.625
REMARK UNBOUND:                -1.350
REMARK SMILES CCCCCCCCCCCCCC[C@@H](C)C(=O)[O-]
REMARK SMILES IDX 9 1 10 2 11 3 12 4 13 5 14 6 15 7 16 8 17 9 18 10 19 11 8 12
REMARK SMILES IDX 7 13 6 14 5 15 4 16 3 17 2 18 1 19
REMARK H PARENT
REMARK Flexibility Score: inf
ROOT
ATOM      1  C   UNL     1      47.566  -7.974 -54.982  1.00  0.00     0.000 C 
ENDROOT
BRANCH   1   2
ATOM      2  C   UNL     1      49.051  -8.372 -54.983  1.00  0.00     0.000 C 
BRANCH   2   3
ATOM      3  C   UNL     1      49.945  -7.353 -54.252  1.00  0.00     0.000 C 
BRANCH   3   4
ATOM      4  C   UNL     1      50.944  -6.591 -55.147  1.00  0.00     0.000 C 
BRANCH   4   5
ATOM      5  C   UNL     1      50.664  -5.087 -55.309  1.00  0.00     0.001 C 
BRANCH   5   6
ATOM      6  C   UNL     1      49.524  -4.589 -54.403  1.00  0.00     0.009 C 
BRANCH   6   7
ATOM      7  C   UNL     1      48.368  -3.967 -55.212  1.00  0.00     0.032 C 
ATOM      8  C   UNL     1      48.230  -4.655 -56.575  1.00  0.00     0.014 C 
BRANCH   7   9
ATOM      9  C   UNL     1      47.063  -4.047 -54.465  1.00  0.00     0.044 C 
ATOM     10  O   UNL     1      46.903  -3.417 -53.386  1.00  0.00    -0.550 OA
ATOM     11  O   UNL     1      46.026  -4.824 -54.964  1.00  0.00    -0.550 OA
ENDBRANCH   7   9
ENDBRANCH   6   7
ENDBRANCH   5   6
ENDBRANCH   4   5
ENDBRANCH   3   4
ENDBRANCH   2   3
ENDBRANCH   1   2
BRANCH   1  12
ATOM     12  C   UNL     1      46.870  -8.259 -56.325  1.00  0.00     0.000 C 
BRANCH  12  13
ATOM     13  C   UNL     1      47.578  -9.289 -57.227  1.00  0.00    -0.000 C 
BRANCH  13  14
ATOM     14  C   UNL     1      46.681 -10.433 -57.741  1.00  0.00    -0.000 C 
BRANCH  14  15
ATOM     15  C   UNL     1      47.099 -11.842 -57.275  1.00  0.00    -0.000 C 
BRANCH  15  16
ATOM     16  C   UNL     1      48.305 -11.881 -56.316  1.00  0.00    -0.000 C 
BRANCH  16  17
ATOM     17  C   UNL     1      48.848 -13.289 -56.010  1.00  0.00    -0.000 C 
BRANCH  17  18
ATOM     18  C   UNL     1      47.746 -14.278 -55.604  1.00  0.00    -0.003 C 
ATOM     19  C   UNL     1      48.050 -15.682 -56.121  1.00  0.00     0.004 C 
ENDBRANCH  17  18
ENDBRANCH  16  17
ENDBRANCH  15  16
ENDBRANCH  14  15
ENDBRANCH  13  14
ENDBRANCH  12  13
ENDBRANCH   1  12
TORSDOF 14
ENDMDL
MODEL 4
REMARK VINA RESULT:    -4.456      1.083      2.045
REMARK INTER + INTRA:          -9.454
REMARK INTER:                  -7.821
REMARK INTRA:                  -1.633
REMARK UNBOUND:                -1.350
REMARK SMILES CCCCCCCCCCCCCC[C@@H](C)C(=O)[O-]
REMARK SMILES IDX 9 1 10 2 11 3 12 4 13 5 14 6 15 7 16 8 17 9 18 10 19 11 8 12
REMARK SMILES IDX 7 13 6 14 5 15 4 16 3 17 2 18 1 19
REMARK H PARENT
REMARK Flexibility Score: inf
ROOT
ATOM      1  C   UNL     1      47.947  -7.700 -55.608  1.00  0.00     0.000 C 
ENDROOT
BRANCH   1   2
ATOM      2  C   UNL     1      49.150  -8.457 -55.021  1.00  0.00     0.000 C 
BRANCH   2   3
ATOM      3  C   UNL     1      49.875  -7.666 -53.917  1.00  0.00     0.000 C 
BRANCH   3   4
ATOM      4  C   UNL     1      50.361  -6.260 -54.324  1.00  0.00     0.000 C 
BRANCH   4   5
ATOM      5  C   UNL     1      51.290  -6.215 -55.550  1.00  0.00     0.001 C 
BRANCH   5   6
ATOM      6  C   UNL     1      50.887  -5.131 -56.566  1.00  0.00     0.009 C 
BRANCH   6   7
ATOM      7  C   UNL     1      51.089  -5.598 -58.023  1.00  0.00     0.032 C 
ATOM      8  C   UNL     1      50.297  -4.712 -58.990  1.00  0.00     0.014 C 
BRANCH   7   9
ATOM      9  C   UNL     1      52.545  -5.599 -58.406  1.00  0.00     0.044 C 
ATOM     10  O   UNL     1      53.291  -4.632 -58.096  1.00  0.00    -0.550 OA
ATOM     11  O   UNL     1      53.074  -6.674 -59.110  1.00  0.00    -0.550 OA
ENDBRANCH   7   9
ENDBRANCH   6   7
ENDBRANCH   5   6
ENDBRANCH   4   5
ENDBRANCH   3   4
ENDBRANCH   2   3
ENDBRANCH   1   2
BRANCH   1  12
ATOM     12  C   UNL     1      48.035  -7.527 -57.135  1.00  0.00     0.000 C 
BRANCH  12  13
ATOM     13  C   UNL     1      47.168  -8.500 -57.957  1.00  0.00    -0.000 C 
BRANCH  13  14
ATOM     14  C   UNL     1      46.286  -9.454 -57.126  1.00  0.00    -0.000 C 
BRANCH  14  15
ATOM     15  C   UNL     1      46.206 -10.896 -57.663  1.00  0.00    -0.000 C 
BRANCH  15  16
ATOM     16  C   UNL     1      47.543 -11.662 -57.679  1.00  0.00    -0.000 C 
BRANCH  16  17
ATOM     17  C   UNL     1      48.242 -11.779 -56.313  1.00  0.00    -0.000 C 
BRANCH  17  18
ATOM     18  C   UNL     1      48.959 -13.123 -56.122  1.00  0.00    -0.003 C 
ATOM     19  C   UNL     1      47.963 -14.241 -55.828  1.00  0.00     0.004 C 
ENDBRANCH  17  18
ENDBRANCH  16  17
ENDBRANCH  15  16
ENDBRANCH  14  15
ENDBRANCH  13  14
ENDBRANCH  12  13
ENDBRANCH   1  12
TORSDOF 14
ENDMDL
MODEL 5
REMARK VINA RESULT:    -4.442      4.852      7.359
REMARK INTER + INTRA:          -9.428
REMARK INTER:                  -6.762
REMARK INTRA:                  -2.666
REMARK UNBOUND:                -1.350
REMARK SMILES CCCCCCCCCCCCCC[C@@H](C)C(=O)[O-]
REMARK SMILES IDX 9 1 10 2 11 3 12 4 13 5 14 6 15 7 16 8 17 9 18 10 19 11 8 12
REMARK SMILES IDX 7 13 6 14 5 15 4 16 3 17 2 18 1 19
REMARK H PARENT
REMARK Flexibility Score: inf
ROOT
ATOM      1  C   UNL     1      50.772  -6.583 -54.707  1.00  0.00     0.000 C 
ENDROOT
BRANCH   1   2
ATOM      2  C   UNL     1      49.805  -7.589 -54.059  1.00  0.00     0.000 C 
BRANCH   2   3
ATOM      3  C   UNL     1      49.066  -8.459 -55.092  1.00  0.00     0.000 C 
BRANCH   3   4
ATOM      4  C   UNL     1      47.721  -7.892 -55.590  1.00  0.00     0.000 C 
BRANCH   4   5
ATOM      5  C   UNL     1      46.809  -7.308 -54.496  1.00  0.00     0.001 C 
BRANCH   5   6
ATOM      6  C   UNL     1      46.436  -5.837 -54.750  1.00  0.00     0.009 C 
BRANCH   6   7
ATOM      7  C   UNL     1      46.614  -4.966 -53.489  1.00  0.00     0.032 C 
ATOM      8  C   UNL     1      46.981  -3.528 -53.871  1.00  0.00     0.014 C 
BRANCH   7   9
ATOM      9  C   UNL     1      45.375  -4.968 -52.635  1.00  0.00     0.044 C 
ATOM     10  O   UNL     1      45.412  -4.547 -51.448  1.00  0.00    -0.550 OA
ATOM     11  O   UNL     1      44.176  -5.441 -53.156  1.00  0.00    -0.550 OA
ENDBRANCH   7   9
ENDBRANCH   6   7
ENDBRANCH   5   6
ENDBRANCH   4   5
ENDBRANCH   3   4
ENDBRANCH   2   3
ENDBRANCH   1   2
BRANCH   1  12
ATOM     12  C   UNL     1      50.273  -5.130 -54.614  1.00  0.00     0.000 C 
BRANCH  12  13
ATOM     13  C   UNL     1      50.277  -4.347 -55.942  1.00  0.00    -0.000 C 
BRANCH  13  14
ATOM     14  C   UNL     1      49.129  -4.696 -56.909  1.00  0.00    -0.000 C 
BRANCH  14  15
ATOM     15  C   UNL     1      49.579  -5.224 -58.286  1.00  0.00    -0.000 C 
BRANCH  15  16
ATOM     16  C   UNL     1      50.290  -6.591 -58.260  1.00  0.00    -0.000 C 
BRANCH  16  17
ATOM     17  C   UNL     1      51.744  -6.578 -58.764  1.00  0.00    -0.000 C 
BRANCH  17  18
ATOM     18  C   UNL     1      52.274  -5.160 -59.021  1.00  0.00    -0.003 C 
ATOM     19  C   UNL     1      53.329  -4.772 -57.988  1.00  0.00     0.004 C 
ENDBRANCH  17  18
ENDBRANCH  16  17
ENDBRANCH  15  16
ENDBRANCH  14  15
ENDBRANCH  13  14
ENDBRANCH  12  13
ENDBRANCH   1  12
TORSDOF 14
ENDMDL
MODEL 6
REMARK VINA RESULT:    -4.414      2.475      4.165
REMARK INTER + INTRA:          -9.377
REMARK INTER:                  -7.603
REMARK INTRA:                  -1.774
REMARK UNBOUND:                -1.350
REMARK SMILES CCCCCCCCCCCCCC[C@@H](C)C(=O)[O-]
REMARK SMILES IDX 9 1 10 2 11 3 12 4 13 5 14 6 15 7 16 8 17 9 18 10 19 11 8 12
REMARK SMILES IDX 7 13 6 14 5 15 4 16 3 17 2 18 1 19
REMARK H PARENT
REMARK Flexibility Score: inf
ROOT
ATOM      1  C   UNL     1      50.167  -7.477 -54.249  1.00  0.00     0.000 C 
ENDROOT
BRANCH   1   2
ATOM      2  C   UNL     1      50.968  -6.262 -54.746  1.00  0.00     0.000 C 
BRANCH   2   3
ATOM      3  C   UNL     1      51.100  -6.219 -56.279  1.00  0.00     0.000 C 
BRANCH   3   4
ATOM      4  C   UNL     1      50.728  -4.874 -56.936  1.00  0.00     0.000 C 
BRANCH   4   5
ATOM      5  C   UNL     1      49.243  -4.714 -57.309  1.00  0.00     0.001 C 
BRANCH   5   6
ATOM      6  C   UNL     1      48.643  -3.384 -56.819  1.00  0.00     0.009 C 
BRANCH   6   7
ATOM      7  C   UNL     1      47.404  -3.599 -55.926  1.00  0.00     0.032 C 
ATOM      8  C   UNL     1      46.686  -4.900 -56.301  1.00  0.00     0.014 C 
BRANCH   7   9
ATOM      9  C   UNL     1      47.771  -3.620 -54.466  1.00  0.00     0.044 C 
ATOM     10  O   UNL     1      48.979  -3.642 -54.109  1.00  0.00    -0.550 OA
ATOM     11  O   UNL     1      46.772  -3.617 -53.501  1.00  0.00    -0.550 OA
ENDBRANCH   7   9
ENDBRANCH   6   7
ENDBRANCH   5   6
ENDBRANCH   4   5
ENDBRANCH   3   4
ENDBRANCH   2   3
ENDBRANCH   1   2
BRANCH   1  12
ATOM     12  C   UNL     1      48.662  -7.365 -54.550  1.00  0.00     0.000 C 
BRANCH  12  13
ATOM     13  C   UNL     1      48.076  -8.505 -55.407  1.00  0.00    -0.000 C 
BRANCH  13  14
ATOM     14  C   UNL     1      48.131  -8.272 -56.930  1.00  0.00    -0.000 C 
BRANCH  14  15
ATOM     15  C   UNL     1      47.566  -9.425 -57.782  1.00  0.00    -0.000 C 
BRANCH  15  16
ATOM     16  C   UNL     1      47.146 -10.678 -56.989  1.00  0.00    -0.000 C 
BRANCH  16  17
ATOM     17  C   UNL     1      47.959 -11.948 -57.300  1.00  0.00    -0.000 C 
BRANCH  17  18
ATOM     18  C   UNL     1      48.542 -12.606 -56.041  1.00  0.00    -0.003 C 
ATOM     19  C   UNL     1      47.959 -14.001 -55.830  1.00  0.00     0.004 C 
ENDBRANCH  17  18
ENDBRANCH  16  17
ENDBRANCH  15  16
ENDBRANCH  14  15
ENDBRANCH  13  14
ENDBRANCH  12  13
ENDBRANCH   1  12
TORSDOF 14
ENDMDL
MODEL 7
REMARK VINA RESULT:    -4.382      3.665      6.299
REMARK INTER + INTRA:          -9.319
REMARK INTER:                  -6.802
REMARK INTRA:                  -2.517
REMARK UNBOUND:                -1.350
REMARK SMILES CCCCCCCCCCCCCC[C@@H](C)C(=O)[O-]
REMARK SMILES IDX 9 1 10 2 11 3 12 4 13 5 14 6 15 7 16 8 17 9 18 10 19 11 8 12
REMARK SMILES IDX 7 13 6 14 5 15 4 16 3 17 2 18 1 19
REMARK H PARENT
REMARK Flexibility Score: inf
ROOT
ATOM      1  C   UNL     1      47.848  -7.091 -56.126  1.00  0.00     0.000 C 
ENDROOT
BRANCH   1   2
ATOM      2  C   UNL     1      48.373  -8.371 -55.454  1.00  0.00     0.000 C 
BRANCH   2   3
ATOM      3  C   UNL     1      49.576  -8.112 -54.530  1.00  0.00     0.000 C 
BRANCH   3   4
ATOM      4  C   UNL     1      49.967  -6.630 -54.356  1.00  0.00     0.000 C 
BRANCH   4   5
ATOM      5  C   UNL     1      51.337  -6.240 -54.940  1.00  0.00     0.001 C 
BRANCH   5   6
ATOM      6  C   UNL     1      51.222  -5.397 -56.223  1.00  0.00     0.009 C 
BRANCH   6   7
ATOM      7  C   UNL     1      51.847  -6.107 -57.442  1.00  0.00     0.032 C 
ATOM      8  C   UNL     1      50.770  -6.464 -58.472  1.00  0.00     0.014 C 
BRANCH   7   9
ATOM      9  C   UNL     1      52.912  -5.261 -58.088  1.00  0.00     0.044 C 
ATOM     10  O   UNL     1      53.828  -5.794 -58.770  1.00  0.00    -0.550 OA
ATOM     11  O   UNL     1      52.891  -3.881 -57.931  1.00  0.00    -0.550 OA
ENDBRANCH   7   9
ENDBRANCH   6   7
ENDBRANCH   5   6
ENDBRANCH   4   5
ENDBRANCH   3   4
ENDBRANCH   2   3
ENDBRANCH   1   2
BRANCH   1  12
ATOM     12  C   UNL     1      46.338  -6.882 -55.918  1.00  0.00     0.000 C 
BRANCH  12  13
ATOM     13  C   UNL     1      45.847  -7.033 -54.464  1.00  0.00    -0.000 C 
BRANCH  13  14
ATOM     14  C   UNL     1      46.428  -6.009 -53.469  1.00  0.00    -0.000 C 
BRANCH  14  15
ATOM     15  C   UNL     1      45.843  -4.587 -53.586  1.00  0.00    -0.000 C 
BRANCH  15  16
ATOM     16  C   UNL     1      46.887  -3.456 -53.658  1.00  0.00    -0.000 C 
BRANCH  16  17
ATOM     17  C   UNL     1      47.930  -3.604 -54.780  1.00  0.00    -0.000 C 
BRANCH  17  18
ATOM     18  C   UNL     1      47.348  -3.341 -56.176  1.00  0.00    -0.003 C 
ATOM     19  C   UNL     1      48.436  -3.391 -57.244  1.00  0.00     0.004 C 
ENDBRANCH  17  18
ENDBRANCH  16  17
ENDBRANCH  15  16
ENDBRANCH  14  15
ENDBRANCH  13  14
ENDBRANCH  12  13
ENDBRANCH   1  12
TORSDOF 14
ENDMDL
MODEL 8
REMARK VINA RESULT:    -4.310      3.463      7.342
REMARK INTER + INTRA:          -9.187
REMARK INTER:                  -7.195
REMARK INTRA:                  -1.992
REMARK UNBOUND:                -1.350
REMARK SMILES CCCCCCCCCCCCCC[C@@H](C)C(=O)[O-]
REMARK SMILES IDX 9 1 10 2 11 3 12 4 13 5 14 6 15 7 16 8 17 9 18 10 19 11 8 12
REMARK SMILES IDX 7 13 6 14 5 15 4 16 3 17 2 18 1 19
REMARK H PARENT
REMARK Flexibility Score: inf
ROOT
ATOM      1  C   UNL     1      50.721  -6.796 -54.711  1.00  0.00     0.000 C 
ENDROOT
BRANCH   1   2
ATOM      2  C   UNL     1      49.524  -7.712 -54.404  1.00  0.00     0.000 C 
BRANCH   2   3
ATOM      3  C   UNL     1      48.218  -6.931 -54.173  1.00  0.00     0.000 C 
BRANCH   3   4
ATOM      4  C   UNL     1      47.180  -7.030 -55.310  1.00  0.00     0.000 C 
BRANCH   4   5
ATOM      5  C   UNL     1      47.674  -7.724 -56.591  1.00  0.00     0.001 C 
BRANCH   5   6
ATOM      6  C   UNL     1      47.139  -9.159 -56.739  1.00  0.00     0.009 C 
BRANCH   6   7
ATOM      7  C   UNL     1      47.209  -9.659 -58.197  1.00  0.00     0.032 C 
ATOM      8  C   UNL     1      48.236  -8.851 -58.997  1.00  0.00     0.014 C 
BRANCH   7   9
ATOM      9  C   UNL     1      47.546 -11.124 -58.264  1.00  0.00     0.044 C 
ATOM     10  O   UNL     1      48.358 -11.557 -59.125  1.00  0.00    -0.550 OA
ATOM     11  O   UNL     1      46.956 -12.012 -57.372  1.00  0.00    -0.550 OA
ENDBRANCH   7   9
ENDBRANCH   6   7
ENDBRANCH   5   6
ENDBRANCH   4   5
ENDBRANCH   3   4
ENDBRANCH   2   3
ENDBRANCH   1   2
BRANCH   1  12
ATOM     12  C   UNL     1      50.354  -5.302 -54.683  1.00  0.00     0.000 C 
BRANCH  12  13
ATOM     13  C   UNL     1      50.574  -4.546 -56.008  1.00  0.00    -0.000 C 
BRANCH  13  14
ATOM     14  C   UNL     1      49.574  -4.890 -57.131  1.00  0.00    -0.000 C 
BRANCH  14  15
ATOM     15  C   UNL     1      50.219  -5.262 -58.481  1.00  0.00    -0.000 C 
BRANCH  15  16
ATOM     16  C   UNL     1      51.154  -6.487 -58.442  1.00  0.00    -0.000 C 
BRANCH  16  17
ATOM     17  C   UNL     1      52.613  -6.205 -58.842  1.00  0.00    -0.000 C 
BRANCH  17  18
ATOM     18  C   UNL     1      52.878  -4.719 -59.123  1.00  0.00    -0.003 C 
ATOM     19  C   UNL     1      54.024  -4.193 -58.263  1.00  0.00     0.004 C 
ENDBRANCH  17  18
ENDBRANCH  16  17
ENDBRANCH  15  16
ENDBRANCH  14  15
ENDBRANCH  13  14
ENDBRANCH  12  13
ENDBRANCH   1  12
TORSDOF 14
ENDMDL
MODEL 9
REMARK VINA RESULT:    -4.278      4.611      6.528
REMARK INTER + INTRA:          -9.130
REMARK INTER:                  -6.170
REMARK INTRA:                  -2.961
REMARK UNBOUND:                -1.350
REMARK SMILES CCCCCCCCCCCCCC[C@@H](C)C(=O)[O-]
REMARK SMILES IDX 9 1 10 2 11 3 12 4 13 5 14 6 15 7 16 8 17 9 18 10 19 11 8 12
REMARK SMILES IDX 7 13 6 14 5 15 4 16 3 17 2 18 1 19
REMARK H PARENT
REMARK Flexibility Score: inf
ROOT
ATOM      1  C   UNL     1      49.540  -7.077 -53.877  1.00  0.00     0.000 C 
ENDROOT
BRANCH   1   2
ATOM      2  C   UNL     1      49.471  -8.249 -54.870  1.00  0.00     0.000 C 
BRANCH   2   3
ATOM      3  C   UNL     1      48.086  -8.401 -55.522  1.00  0.00     0.000 C 
BRANCH   3   4
ATOM      4  C   UNL     1      46.923  -7.727 -54.765  1.00  0.00     0.000 C 
BRANCH   4   5
ATOM      5  C   UNL     1      46.089  -6.733 -55.593  1.00  0.00     0.001 C 
BRANCH   5   6
ATOM      6  C   UNL     1      46.703  -5.322 -55.628  1.00  0.00     0.009 C 
BRANCH   6   7
ATOM      7  C   UNL     1      46.847  -4.716 -54.217  1.00  0.00     0.032 C 
ATOM      8  C   UNL     1      47.607  -3.386 -54.273  1.00  0.00     0.014 C 
BRANCH   7   9
ATOM      9  C   UNL     1      45.507  -4.512 -53.563  1.00  0.00     0.044 C 
ATOM     10  O   UNL     1      45.282  -4.959 -52.407  1.00  0.00    -0.550 OA
ATOM     11  O   UNL     1      44.504  -3.826 -54.238  1.00  0.00    -0.550 OA
ENDBRANCH   7   9
ENDBRANCH   6   7
ENDBRANCH   5   6
ENDBRANCH   4   5
ENDBRANCH   3   4
ENDBRANCH   2   3
ENDBRANCH   1   2
BRANCH   1  12
ATOM     12  C   UNL     1      50.346  -5.882 -54.416  1.00  0.00     0.000 C 
BRANCH  12  13
ATOM     13  C   UNL     1      51.520  -6.247 -55.347  1.00  0.00    -0.000 C 
BRANCH  13  14
ATOM     14  C   UNL     1      51.425  -5.673 -56.774  1.00  0.00    -0.000 C 
BRANCH  14  15
ATOM     15  C   UNL     1      50.070  -5.025 -57.123  1.00  0.00    -0.000 C 
BRANCH  15  16
ATOM     16  C   UNL     1      49.307  -5.693 -58.284  1.00  0.00    -0.000 C 
BRANCH  16  17
ATOM     17  C   UNL     1      49.899  -7.028 -58.769  1.00  0.00    -0.000 C 
BRANCH  17  18
ATOM     18  C   UNL     1      48.823  -8.065 -59.122  1.00  0.00    -0.003 C 
ATOM     19  C   UNL     1      47.429  -7.447 -59.080  1.00  0.00     0.004 C 
ENDBRANCH  17  18
ENDBRANCH  16  17
ENDBRANCH  15  16
ENDBRANCH  14  15
ENDBRANCH  13  14
ENDBRANCH  12  13
ENDBRANCH   1  12
TORSDOF 14
ENDMDL
