MODEL 1
REMARK VINA RESULT:    -8.090      0.000      0.000
REMARK INTER + INTRA:          -9.816
REMARK INTER:                  -9.508
REMARK INTRA:                  -0.308
REMARK UNBOUND:                -0.308
REMARK SMILES O=c1cc(-c2ccc(O)c(O)c2)oc2cc(O)cc(O)c12
REMARK SMILES IDX 4 1 3 2 2 3 1 4 21 5 19 6 18 7 16 8 15 9 14 10 13 11 5 12
REMARK SMILES IDX 6 13 7 14 8 15 12 16 10 17 9 18 11 20 20 22 17 24
REMARK H PARENT 9 19 11 21 20 23 17 25
REMARK Flexibility Score: inf
ROOT
ATOM      1  C   UNL     1      39.219 -12.663   8.811  1.00  0.00     0.138 A 
ATOM      2  C   UNL     1      39.404 -11.323   9.175  1.00  0.00     0.100 A 
ATOM      3  C   UNL     1      40.468 -10.974  10.009  1.00  0.00     0.197 A 
ATOM      4  O   UNL     1      40.574  -9.772  10.364  1.00  0.00    -0.289 OA
ATOM      5  C   UNL     1      41.371 -11.971  10.451  1.00  0.00     0.107 A 
ATOM      6  C   UNL     1      42.511 -11.729  11.276  1.00  0.00     0.134 A 
ATOM      7  C   UNL     1      43.276 -12.810  11.731  1.00  0.00     0.093 A 
ATOM      8  C   UNL     1      42.980 -14.117  11.344  1.00  0.00     0.123 A 
ATOM      9  C   UNL     1      41.898 -14.360  10.497  1.00  0.00     0.094 A 
ATOM     10  C   UNL     1      41.094 -13.308  10.054  1.00  0.00     0.146 A 
ATOM     11  O   UNL     1      40.062 -13.584   9.264  1.00  0.00    -0.456 OA
ENDROOT
BRANCH   1  12
ATOM     12  C   UNL     1      38.107 -13.089   7.923  1.00  0.00     0.021 A 
ATOM     13  C   UNL     1      36.933 -12.319   7.868  1.00  0.00     0.016 A 
ATOM     14  C   UNL     1      35.875 -12.694   7.036  1.00  0.00     0.051 A 
ATOM     15  C   UNL     1      35.977 -13.839   6.237  1.00  0.00     0.157 A 
ATOM     16  C   UNL     1      38.208 -14.233   7.106  1.00  0.00     0.062 A 
ATOM     17  C   UNL     1      37.147 -14.608   6.269  1.00  0.00     0.158 A 
BRANCH  15  18
ATOM     18  O   UNL     1      34.923 -14.216   5.406  1.00  0.00    -0.504 OA
ATOM     19  H   UNL     1      34.679 -13.680   4.583  1.00  0.00     0.293 HD
ENDBRANCH  15  18
BRANCH  17  20
ATOM     20  O   UNL     1      37.249 -15.740   5.463  1.00  0.00    -0.504 OA
ATOM     21  H   UNL     1      38.006 -16.404   5.575  1.00  0.00     0.293 HD
ENDBRANCH  17  20
ENDBRANCH   1  12
BRANCH   6  22
ATOM     22  O   UNL     1      42.945 -10.455  11.657  1.00  0.00    -0.507 OA
ATOM     23  H   UNL     1      43.773 -10.263  12.199  1.00  0.00     0.293 HD
ENDBRANCH   6  22
BRANCH   8  24
ATOM     24  O   UNL     1      43.773 -15.165  11.803  1.00  0.00    -0.508 OA
ATOM     25  H   UNL     1      44.766 -15.203  11.608  1.00  0.00     0.293 HD
ENDBRANCH   8  24
TORSDOF 5
ENDMDL
MODEL 2
REMARK VINA RESULT:    -7.738      0.932      1.509
REMARK INTER + INTRA:          -9.403
REMARK INTER:                  -9.111
REMARK INTRA:                  -0.292
REMARK UNBOUND:                -0.308
REMARK SMILES O=c1cc(-c2ccc(O)c(O)c2)oc2cc(O)cc(O)c12
REMARK SMILES IDX 4 1 3 2 2 3 1 4 21 5 19 6 18 7 16 8 15 9 14 10 13 11 5 12
REMARK SMILES IDX 6 13 7 14 8 15 12 16 10 17 9 18 11 20 20 22 17 24
REMARK H PARENT 9 19 11 21 20 23 17 25
REMARK Flexibility Score: inf
ROOT
ATOM      1  C   UNL     1      39.142 -12.545   8.302  1.00  0.00     0.138 A 
ATOM      2  C   UNL     1      39.157 -11.242   8.817  1.00  0.00     0.100 A 
ATOM      3  C   UNL     1      40.128 -10.880   9.752  1.00  0.00     0.197 A 
ATOM      4  O   UNL     1      40.080  -9.720  10.238  1.00  0.00    -0.289 OA
ATOM      5  C   UNL     1      41.111 -11.819  10.146  1.00  0.00     0.107 A 
ATOM      6  C   UNL     1      42.170 -11.553  11.066  1.00  0.00     0.134 A 
ATOM      7  C   UNL     1      43.024 -12.593  11.454  1.00  0.00     0.093 A 
ATOM      8  C   UNL     1      42.897 -13.872  10.913  1.00  0.00     0.123 A 
ATOM      9  C   UNL     1      41.897 -14.130   9.974  1.00  0.00     0.094 A 
ATOM     10  C   UNL     1      41.006 -13.125   9.593  1.00  0.00     0.146 A 
ATOM     11  O   UNL     1      40.057 -13.418   8.711  1.00  0.00    -0.456 OA
ENDROOT
BRANCH   1  12
ATOM     12  C   UNL     1      38.135 -12.983   7.302  1.00  0.00     0.021 A 
ATOM     13  C   UNL     1      37.849 -14.352   7.165  1.00  0.00     0.016 A 
ATOM     14  C   UNL     1      36.900 -14.790   6.237  1.00  0.00     0.051 A 
ATOM     15  C   UNL     1      36.215 -13.867   5.438  1.00  0.00     0.157 A 
ATOM     16  C   UNL     1      37.432 -12.059   6.505  1.00  0.00     0.062 A 
ATOM     17  C   UNL     1      36.478 -12.499   5.575  1.00  0.00     0.158 A 
BRANCH  15  18
ATOM     18  O   UNL     1      35.269 -14.301   4.512  1.00  0.00    -0.504 OA
ATOM     19  H   UNL     1      34.888 -13.677   3.810  1.00  0.00     0.293 HD
ENDBRANCH  15  18
BRANCH  17  20
ATOM     20  O   UNL     1      35.785 -11.582   4.786  1.00  0.00    -0.504 OA
ATOM     21  H   UNL     1      35.432 -11.831   3.870  1.00  0.00     0.293 HD
ENDBRANCH  17  20
ENDBRANCH   1  12
BRANCH   6  22
ATOM     22  O   UNL     1      42.438 -10.292  11.607  1.00  0.00    -0.507 OA
ATOM     23  H   UNL     1      43.358  -9.924  11.792  1.00  0.00     0.293 HD
ENDBRANCH   6  22
BRANCH   8  24
ATOM     24  O   UNL     1      43.775 -14.876  11.311  1.00  0.00    -0.508 OA
ATOM     25  H   UNL     1      43.591 -15.852  11.109  1.00  0.00     0.293 HD
ENDBRANCH   8  24
TORSDOF 5
ENDMDL
MODEL 3
REMARK VINA RESULT:    -7.666      5.733     11.916
REMARK INTER + INTRA:          -9.318
REMARK INTER:                  -9.008
REMARK INTRA:                  -0.310
REMARK UNBOUND:                -0.308
REMARK SMILES O=c1cc(-c2ccc(O)c(O)c2)oc2cc(O)cc(O)c12
REMARK SMILES IDX 4 1 3 2 2 3 1 4 21 5 19 6 18 7 16 8 15 9 14 10 13 11 5 12
REMARK SMILES IDX 6 13 7 14 8 15 12 16 10 17 9 18 11 20 20 22 17 24
REMARK H PARENT 9 19 11 21 20 23 17 25
REMARK Flexibility Score: inf
ROOT
ATOM      1  C   UNL     1      33.293 -14.947   2.971  1.00  0.00     0.138 A 
ATOM      2  C   UNL     1      33.601 -15.354   1.666  1.00  0.00     0.100 A 
ATOM      3  C   UNL     1      32.574 -15.536   0.739  1.00  0.00     0.197 A 
ATOM      4  O   UNL     1      32.878 -15.957  -0.407  1.00  0.00    -0.289 OA
ATOM      5  C   UNL     1      31.234 -15.273   1.112  1.00  0.00     0.107 A 
ATOM      6  C   UNL     1      30.108 -15.391   0.242  1.00  0.00     0.134 A 
ATOM      7  C   UNL     1      28.818 -15.199   0.753  1.00  0.00     0.093 A 
ATOM      8  C   UNL     1      28.616 -14.837   2.084  1.00  0.00     0.123 A 
ATOM      9  C   UNL     1      29.713 -14.670   2.931  1.00  0.00     0.094 A 
ATOM     10  C   UNL     1      31.010 -14.888   2.462  1.00  0.00     0.146 A 
ATOM     11  O   UNL     1      32.025 -14.737   3.306  1.00  0.00    -0.456 OA
ENDROOT
BRANCH   1  12
ATOM     12  C   UNL     1      34.346 -14.735   3.997  1.00  0.00     0.021 A 
ATOM     13  C   UNL     1      35.586 -15.381   3.858  1.00  0.00     0.016 A 
ATOM     14  C   UNL     1      36.596 -15.193   4.805  1.00  0.00     0.051 A 
ATOM     15  C   UNL     1      36.388 -14.347   5.901  1.00  0.00     0.157 A 
ATOM     16  C   UNL     1      34.148 -13.874   5.094  1.00  0.00     0.062 A 
ATOM     17  C   UNL     1      35.163 -13.683   6.044  1.00  0.00     0.158 A 
BRANCH  15  18
ATOM     18  O   UNL     1      37.392 -14.157   6.847  1.00  0.00    -0.504 OA
ATOM     19  H   UNL     1      37.297 -14.495   7.797  1.00  0.00     0.293 HD
ENDBRANCH  15  18
BRANCH  17  20
ATOM     20  O   UNL     1      34.964 -12.832   7.130  1.00  0.00    -0.504 OA
ATOM     21  H   UNL     1      35.385 -13.017   8.032  1.00  0.00     0.293 HD
ENDBRANCH  17  20
ENDBRANCH   1  12
BRANCH   6  22
ATOM     22  O   UNL     1      30.201 -15.670  -1.125  1.00  0.00    -0.507 OA
ATOM     23  H   UNL     1      30.853 -16.313  -1.543  1.00  0.00     0.293 HD
ENDBRANCH   6  22
BRANCH   8  24
ATOM     24  O   UNL     1      27.320 -14.639   2.553  1.00  0.00    -0.508 OA
ATOM     25  H   UNL     1      26.556 -15.244   2.273  1.00  0.00     0.293 HD
ENDBRANCH   8  24
TORSDOF 5
ENDMDL
MODEL 4
REMARK VINA RESULT:    -7.608      1.736      6.895
REMARK INTER + INTRA:          -9.250
REMARK INTER:                  -8.964
REMARK INTRA:                  -0.286
REMARK UNBOUND:                -0.308
REMARK SMILES O=c1cc(-c2ccc(O)c(O)c2)oc2cc(O)cc(O)c12
REMARK SMILES IDX 4 1 3 2 2 3 1 4 21 5 19 6 18 7 16 8 15 9 14 10 13 11 5 12
REMARK SMILES IDX 6 13 7 14 8 15 12 16 10 17 9 18 11 20 20 22 17 24
REMARK H PARENT 9 19 11 21 20 23 17 25
REMARK Flexibility Score: inf
ROOT
ATOM      1  C   UNL     1      40.441 -12.626   8.863  1.00  0.00     0.138 A 
ATOM      2  C   UNL     1      40.544 -11.340   8.318  1.00  0.00     0.100 A 
ATOM      3  C   UNL     1      39.629 -10.925   7.349  1.00  0.00     0.197 A 
ATOM      4  O   UNL     1      39.782  -9.786   6.838  1.00  0.00    -0.289 OA
ATOM      5  C   UNL     1      38.583 -11.792   6.952  1.00  0.00     0.107 A 
ATOM      6  C   UNL     1      37.572 -11.466   5.999  1.00  0.00     0.134 A 
ATOM      7  C   UNL     1      36.645 -12.443   5.613  1.00  0.00     0.093 A 
ATOM      8  C   UNL     1      36.656 -13.714   6.187  1.00  0.00     0.123 A 
ATOM      9  C   UNL     1      37.609 -14.028   7.157  1.00  0.00     0.094 A 
ATOM     10  C   UNL     1      38.568 -13.088   7.538  1.00  0.00     0.146 A 
ATOM     11  O   UNL     1      39.469 -13.433   8.451  1.00  0.00    -0.456 OA
ENDROOT
BRANCH   1  12
ATOM     12  C   UNL     1      41.385 -13.118   9.899  1.00  0.00     0.021 A 
ATOM     13  C   UNL     1      41.728 -14.481   9.929  1.00  0.00     0.016 A 
ATOM     14  C   UNL     1      42.620 -14.968  10.889  1.00  0.00     0.051 A 
ATOM     15  C   UNL     1      43.191 -14.100  11.827  1.00  0.00     0.157 A 
ATOM     16  C   UNL     1      41.974 -12.248  10.838  1.00  0.00     0.062 A 
ATOM     17  C   UNL     1      42.871 -12.737  11.799  1.00  0.00     0.158 A 
BRANCH  15  18
ATOM     18  O   UNL     1      44.080 -14.583  12.786  1.00  0.00    -0.504 OA
ATOM     19  H   UNL     1      44.411 -13.999  13.544  1.00  0.00     0.293 HD
ENDBRANCH  15  18
BRANCH  17  20
ATOM     20  O   UNL     1      43.450 -11.875  12.728  1.00  0.00    -0.504 OA
ATOM     21  H   UNL     1      44.336 -12.090  13.171  1.00  0.00     0.293 HD
ENDBRANCH  17  20
ENDBRANCH   1  12
BRANCH   6  22
ATOM     22  O   UNL     1      37.419 -10.202   5.421  1.00  0.00    -0.507 OA
ATOM     23  H   UNL     1      37.410  -9.330   5.926  1.00  0.00     0.293 HD
ENDBRANCH   6  22
BRANCH   8  24
ATOM     24  O   UNL     1      35.709 -14.655   5.790  1.00  0.00    -0.508 OA
ATOM     25  H   UNL     1      35.982 -15.548   5.396  1.00  0.00     0.293 HD
ENDBRANCH   8  24
TORSDOF 5
ENDMDL
MODEL 5
REMARK VINA RESULT:    -7.558      6.294      9.723
REMARK INTER + INTRA:          -9.192
REMARK INTER:                  -8.914
REMARK INTRA:                  -0.278
REMARK UNBOUND:                -0.308
REMARK SMILES O=c1cc(-c2ccc(O)c(O)c2)oc2cc(O)cc(O)c12
REMARK SMILES IDX 4 1 3 2 2 3 1 4 21 5 19 6 18 7 16 8 15 9 14 10 13 11 5 12
REMARK SMILES IDX 6 13 7 14 8 15 12 16 10 17 9 18 11 20 20 22 17 24
REMARK H PARENT 9 19 11 21 20 23 17 25
REMARK Flexibility Score: inf
ROOT
ATOM      1  C   UNL     1      32.527 -14.038   2.061  1.00  0.00     0.138 A 
ATOM      2  C   UNL     1      33.198 -13.139   1.222  1.00  0.00     0.100 A 
ATOM      3  C   UNL     1      34.484 -12.710   1.559  1.00  0.00     0.197 A 
ATOM      4  O   UNL     1      35.037 -11.859   0.815  1.00  0.00    -0.289 OA
ATOM      5  C   UNL     1      35.112 -13.213   2.723  1.00  0.00     0.107 A 
ATOM      6  C   UNL     1      36.431 -12.873   3.149  1.00  0.00     0.134 A 
ATOM      7  C   UNL     1      36.909 -13.358   4.372  1.00  0.00     0.093 A 
ATOM      8  C   UNL     1      36.140 -14.216   5.157  1.00  0.00     0.123 A 
ATOM      9  C   UNL     1      34.867 -14.596   4.727  1.00  0.00     0.094 A 
ATOM     10  C   UNL     1      34.348 -14.101   3.529  1.00  0.00     0.146 A 
ATOM     11  O   UNL     1      33.125 -14.472   3.165  1.00  0.00    -0.456 OA
ENDROOT
BRANCH   1  12
ATOM     12  C   UNL     1      31.161 -14.531   1.750  1.00  0.00     0.021 A 
ATOM     13  C   UNL     1      30.188 -14.557   2.765  1.00  0.00     0.016 A 
ATOM     14  C   UNL     1      28.893 -15.009   2.497  1.00  0.00     0.051 A 
ATOM     15  C   UNL     1      28.546 -15.433   1.209  1.00  0.00     0.157 A 
ATOM     16  C   UNL     1      30.800 -14.947   0.453  1.00  0.00     0.062 A 
ATOM     17  C   UNL     1      29.499 -15.398   0.184  1.00  0.00     0.158 A 
BRANCH  15  18
ATOM     18  O   UNL     1      27.256 -15.885   0.939  1.00  0.00    -0.504 OA
ATOM     19  H   UNL     1      26.444 -15.303   1.106  1.00  0.00     0.293 HD
ENDBRANCH  15  18
BRANCH  17  20
ATOM     20  O   UNL     1      29.146 -15.810  -1.099  1.00  0.00    -0.504 OA
ATOM     21  H   UNL     1      29.237 -16.777  -1.390  1.00  0.00     0.293 HD
ENDBRANCH  17  20
ENDBRANCH   1  12
BRANCH   6  22
ATOM     22  O   UNL     1      37.316 -12.087   2.403  1.00  0.00    -0.507 OA
ATOM     23  H   UNL     1      37.426 -12.128   1.402  1.00  0.00     0.293 HD
ENDBRANCH   6  22
BRANCH   8  24
ATOM     24  O   UNL     1      36.654 -14.692   6.361  1.00  0.00    -0.508 OA
ATOM     25  H   UNL     1      36.075 -15.198   7.022  1.00  0.00     0.293 HD
ENDBRANCH   8  24
TORSDOF 5
ENDMDL
MODEL 6
REMARK VINA RESULT:    -7.332      2.385      2.903
REMARK INTER + INTRA:          -8.926
REMARK INTER:                  -8.657
REMARK INTRA:                  -0.269
REMARK UNBOUND:                -0.308
REMARK SMILES O=c1cc(-c2ccc(O)c(O)c2)oc2cc(O)cc(O)c12
REMARK SMILES IDX 4 1 3 2 2 3 1 4 21 5 19 6 18 7 16 8 15 9 14 10 13 11 5 12
REMARK SMILES IDX 6 13 7 14 8 15 12 16 10 17 9 18 11 20 20 22 17 24
REMARK H PARENT 9 19 11 21 20 23 17 25
REMARK Flexibility Score: inf
ROOT
ATOM      1  C   UNL     1      41.024 -11.419   8.637  1.00  0.00     0.138 A 
ATOM      2  C   UNL     1      41.256 -10.400   9.570  1.00  0.00     0.100 A 
ATOM      3  C   UNL     1      41.911 -10.696  10.768  1.00  0.00     0.197 A 
ATOM      4  O   UNL     1      42.053  -9.772  11.610  1.00  0.00    -0.289 OA
ATOM      5  C   UNL     1      42.367 -12.013  11.013  1.00  0.00     0.107 A 
ATOM      6  C   UNL     1      43.075 -12.425  12.182  1.00  0.00     0.134 A 
ATOM      7  C   UNL     1      43.389 -13.779  12.358  1.00  0.00     0.093 A 
ATOM      8  C   UNL     1      43.073 -14.725  11.384  1.00  0.00     0.123 A 
ATOM      9  C   UNL     1      42.425 -14.326  10.214  1.00  0.00     0.094 A 
ATOM     10  C   UNL     1      42.067 -12.989  10.024  1.00  0.00     0.146 A 
ATOM     11  O   UNL     1      41.434 -12.654   8.905  1.00  0.00    -0.456 OA
ENDROOT
BRANCH   1  12
ATOM     12  C   UNL     1      40.337 -11.160   7.347  1.00  0.00     0.021 A 
ATOM     13  C   UNL     1      40.995 -10.419   6.350  1.00  0.00     0.016 A 
ATOM     14  C   UNL     1      40.373 -10.167   5.124  1.00  0.00     0.051 A 
ATOM     15  C   UNL     1      39.088 -10.661   4.870  1.00  0.00     0.157 A 
ATOM     16  C   UNL     1      39.049 -11.665   7.079  1.00  0.00     0.062 A 
ATOM     17  C   UNL     1      38.426 -11.414   5.847  1.00  0.00     0.158 A 
BRANCH  15  18
ATOM     18  O   UNL     1      38.465 -10.411   3.648  1.00  0.00    -0.504 OA
ATOM     19  H   UNL     1      38.234  -9.470   3.353  1.00  0.00     0.293 HD
ENDBRANCH  15  18
BRANCH  17  20
ATOM     20  O   UNL     1      37.151 -11.913   5.585  1.00  0.00    -0.504 OA
ATOM     21  H   UNL     1      36.318 -11.375   5.791  1.00  0.00     0.293 HD
ENDBRANCH  17  20
ENDBRANCH   1  12
BRANCH   6  22
ATOM     22  O   UNL     1      43.511 -11.551  13.183  1.00  0.00    -0.507 OA
ATOM     23  H   UNL     1      44.218 -11.761  13.869  1.00  0.00     0.293 HD
ENDBRANCH   6  22
BRANCH   8  24
ATOM     24  O   UNL     1      43.415 -16.060  11.586  1.00  0.00    -0.508 OA
ATOM     25  H   UNL     1      44.368 -16.386  11.472  1.00  0.00     0.293 HD
ENDBRANCH   8  24
TORSDOF 5
ENDMDL
MODEL 7
REMARK VINA RESULT:    -7.329      1.335      2.821
REMARK INTER + INTRA:          -8.922
REMARK INTER:                  -8.632
REMARK INTRA:                  -0.290
REMARK UNBOUND:                -0.308
REMARK SMILES O=c1cc(-c2ccc(O)c(O)c2)oc2cc(O)cc(O)c12
REMARK SMILES IDX 4 1 3 2 2 3 1 4 21 5 19 6 18 7 16 8 15 9 14 10 13 11 5 12
REMARK SMILES IDX 6 13 7 14 8 15 12 16 10 17 9 18 11 20 20 22 17 24
REMARK H PARENT 9 19 11 21 20 23 17 25
REMARK Flexibility Score: inf
ROOT
ATOM      1  C   UNL     1      38.614 -13.317   8.222  1.00  0.00     0.138 A 
ATOM      2  C   UNL     1      39.556 -14.332   8.439  1.00  0.00     0.100 A 
ATOM      3  C   UNL     1      40.658 -14.087   9.260  1.00  0.00     0.197 A 
ATOM      4  O   UNL     1      41.515 -14.999   9.389  1.00  0.00    -0.289 OA
ATOM      5  C   UNL     1      40.797 -12.830   9.896  1.00  0.00     0.107 A 
ATOM      6  C   UNL     1      41.860 -12.477  10.780  1.00  0.00     0.134 A 
ATOM      7  C   UNL     1      41.945 -11.168  11.271  1.00  0.00     0.093 A 
ATOM      8  C   UNL     1      40.975 -10.216  10.958  1.00  0.00     0.123 A 
ATOM      9  C   UNL     1      39.904 -10.564  10.134  1.00  0.00     0.094 A 
ATOM     10  C   UNL     1      39.809 -11.850   9.600  1.00  0.00     0.146 A 
ATOM     11  O   UNL     1      38.784 -12.135   8.804  1.00  0.00    -0.456 OA
ENDROOT
BRANCH   1  12
ATOM     12  C   UNL     1      37.422 -13.523   7.361  1.00  0.00     0.021 A 
ATOM     13  C   UNL     1      36.282 -12.723   7.557  1.00  0.00     0.016 A 
ATOM     14  C   UNL     1      35.150 -12.892   6.756  1.00  0.00     0.051 A 
ATOM     15  C   UNL     1      35.140 -13.855   5.740  1.00  0.00     0.157 A 
ATOM     16  C   UNL     1      37.410 -14.480   6.328  1.00  0.00     0.062 A 
ATOM     17  C   UNL     1      36.274 -14.648   5.523  1.00  0.00     0.158 A 
BRANCH  15  18
ATOM     18  O   UNL     1      34.012 -14.026   4.940  1.00  0.00    -0.504 OA
ATOM     19  H   UNL     1      33.204 -14.543   5.265  1.00  0.00     0.293 HD
ENDBRANCH  15  18
BRANCH  17  20
ATOM     20  O   UNL     1      36.265 -15.597   4.502  1.00  0.00    -0.504 OA
ATOM     21  H   UNL     1      36.499 -15.352   3.547  1.00  0.00     0.293 HD
ENDBRANCH  17  20
ENDBRANCH   1  12
BRANCH   6  22
ATOM     22  O   UNL     1      42.839 -13.372  11.224  1.00  0.00    -0.507 OA
ATOM     23  H   UNL     1      42.676 -14.149  11.845  1.00  0.00     0.293 HD
ENDBRANCH   6  22
BRANCH   8  24
ATOM     24  O   UNL     1      41.084  -8.929  11.478  1.00  0.00    -0.508 OA
ATOM     25  H   UNL     1      40.746  -8.121  10.967  1.00  0.00     0.293 HD
ENDBRANCH   8  24
TORSDOF 5
ENDMDL
MODEL 8
REMARK VINA RESULT:    -7.254      2.051      7.648
REMARK INTER + INTRA:          -8.834
REMARK INTER:                  -8.539
REMARK INTRA:                  -0.295
REMARK UNBOUND:                -0.308
REMARK SMILES O=c1cc(-c2ccc(O)c(O)c2)oc2cc(O)cc(O)c12
REMARK SMILES IDX 4 1 3 2 2 3 1 4 21 5 19 6 18 7 16 8 15 9 14 10 13 11 5 12
REMARK SMILES IDX 6 13 7 14 8 15 12 16 10 17 9 18 11 20 20 22 17 24
REMARK H PARENT 9 19 11 21 20 23 17 25
REMARK Flexibility Score: inf
ROOT
ATOM      1  C   UNL     1      39.066 -12.187   8.032  1.00  0.00     0.138 A 
ATOM      2  C   UNL     1      38.601 -13.500   7.879  1.00  0.00     0.100 A 
ATOM      3  C   UNL     1      37.657 -13.788   6.891  1.00  0.00     0.197 A 
ATOM      4  O   UNL     1      37.216 -14.964   6.817  1.00  0.00    -0.289 OA
ATOM      5  C   UNL     1      37.205 -12.760   6.029  1.00  0.00     0.107 A 
ATOM      6  C   UNL     1      36.271 -12.941   4.965  1.00  0.00     0.134 A 
ATOM      7  C   UNL     1      35.824 -11.829   4.241  1.00  0.00     0.093 A 
ATOM      8  C   UNL     1      36.320 -10.552   4.502  1.00  0.00     0.123 A 
ATOM      9  C   UNL     1      37.271 -10.370   5.507  1.00  0.00     0.094 A 
ATOM     10  C   UNL     1      37.711 -11.453   6.271  1.00  0.00     0.146 A 
ATOM     11  O   UNL     1      38.603 -11.234   7.230  1.00  0.00    -0.456 OA
ENDROOT
BRANCH   1  12
ATOM     12  C   UNL     1      40.072 -11.826   9.063  1.00  0.00     0.021 A 
ATOM     13  C   UNL     1      41.178 -12.667   9.273  1.00  0.00     0.016 A 
ATOM     14  C   UNL     1      42.143 -12.346  10.232  1.00  0.00     0.051 A 
ATOM     15  C   UNL     1      42.024 -11.174  10.989  1.00  0.00     0.157 A 
ATOM     16  C   UNL     1      39.965 -10.642   9.819  1.00  0.00     0.062 A 
ATOM     17  C   UNL     1      40.935 -10.319  10.779  1.00  0.00     0.158 A 
BRANCH  15  18
ATOM     18  O   UNL     1      42.984 -10.852  11.946  1.00  0.00    -0.504 OA
ATOM     19  H   UNL     1      43.228 -11.494  12.690  1.00  0.00     0.293 HD
ENDBRANCH  15  18
BRANCH  17  20
ATOM     20  O   UNL     1      40.826  -9.147  11.527  1.00  0.00    -0.504 OA
ATOM     21  H   UNL     1      40.171  -9.068  12.296  1.00  0.00     0.293 HD
ENDBRANCH  17  20
ENDBRANCH   1  12
BRANCH   6  22
ATOM     22  O   UNL     1      35.771 -14.185   4.565  1.00  0.00    -0.507 OA
ATOM     23  H   UNL     1      36.305 -14.903   4.102  1.00  0.00     0.293 HD
ENDBRANCH   6  22
BRANCH   8  24
ATOM     24  O   UNL     1      35.864  -9.471   3.751  1.00  0.00    -0.508 OA
ATOM     25  H   UNL     1      35.499  -8.635   4.193  1.00  0.00     0.293 HD
ENDBRANCH   8  24
TORSDOF 5
ENDMDL
MODEL 9
REMARK VINA RESULT:    -7.110      2.620      7.951
REMARK INTER + INTRA:          -8.665
REMARK INTER:                  -8.347
REMARK INTRA:                  -0.318
REMARK UNBOUND:                -0.308
REMARK SMILES O=c1cc(-c2ccc(O)c(O)c2)oc2cc(O)cc(O)c12
REMARK SMILES IDX 4 1 3 2 2 3 1 4 21 5 19 6 18 7 16 8 15 9 14 10 13 11 5 12
REMARK SMILES IDX 6 13 7 14 8 15 12 16 10 17 9 18 11 20 20 22 17 24
REMARK H PARENT 9 19 11 21 20 23 17 25
REMARK Flexibility Score: inf
ROOT
ATOM      1  C   UNL     1      38.099 -11.845   7.263  1.00  0.00     0.138 A 
ATOM      2  C   UNL     1      37.779 -13.208   7.319  1.00  0.00     0.100 A 
ATOM      3  C   UNL     1      37.056 -13.791   6.277  1.00  0.00     0.197 A 
ATOM      4  O   UNL     1      36.735 -15.003   6.384  1.00  0.00    -0.289 OA
ATOM      5  C   UNL     1      36.682 -13.011   5.157  1.00  0.00     0.107 A 
ATOM      6  C   UNL     1      35.973 -13.504   4.020  1.00  0.00     0.134 A 
ATOM      7  C   UNL     1      35.572 -12.614   3.017  1.00  0.00     0.093 A 
ATOM      8  C   UNL     1      35.905 -11.261   3.078  1.00  0.00     0.123 A 
ATOM      9  C   UNL     1      36.641 -10.776   4.159  1.00  0.00     0.094 A 
ATOM     10  C   UNL     1      37.026 -11.631   5.194  1.00  0.00     0.146 A 
ATOM     11  O   UNL     1      37.710 -11.127   6.215  1.00  0.00    -0.456 OA
ENDROOT
BRANCH   1  12
ATOM     12  C   UNL     1      38.869 -11.174   8.341  1.00  0.00     0.021 A 
ATOM     13  C   UNL     1      39.259 -11.910   9.473  1.00  0.00     0.016 A 
ATOM     14  C   UNL     1      39.991 -11.305  10.498  1.00  0.00     0.051 A 
ATOM     15  C   UNL     1      40.355  -9.957  10.404  1.00  0.00     0.157 A 
ATOM     16  C   UNL     1      39.251  -9.821   8.247  1.00  0.00     0.062 A 
ATOM     17  C   UNL     1      39.988  -9.214   9.275  1.00  0.00     0.158 A 
BRANCH  15  18
ATOM     18  O   UNL     1      41.084  -9.350  11.424  1.00  0.00    -0.504 OA
ATOM     19  H   UNL     1      40.659  -9.115  12.313  1.00  0.00     0.293 HD
ENDBRANCH  15  18
BRANCH  17  20
ATOM     20  O   UNL     1      40.362  -7.875   9.180  1.00  0.00    -0.504 OA
ATOM     21  H   UNL     1      40.321  -7.254   9.980  1.00  0.00     0.293 HD
ENDBRANCH  17  20
ENDBRANCH   1  12
BRANCH   6  22
ATOM     22  O   UNL     1      35.658 -14.852   3.818  1.00  0.00    -0.507 OA
ATOM     23  H   UNL     1      34.921 -15.192   3.222  1.00  0.00     0.293 HD
ENDBRANCH   6  22
BRANCH   8  24
ATOM     24  O   UNL     1      35.503 -10.408   2.053  1.00  0.00    -0.508 OA
ATOM     25  H   UNL     1      34.954 -10.742   1.269  1.00  0.00     0.293 HD
ENDBRANCH   8  24
TORSDOF 5
ENDMDL
