MODEL 1
REMARK VINA RESULT:    -4.562      0.000      0.000
REMARK INTER + INTRA:          -7.925
REMARK INTER:                  -6.962
REMARK INTRA:                  -0.963
REMARK UNBOUND:                -0.963
REMARK SMILES CCCCCCCCCCC(=O)[O-]
REMARK SMILES IDX 7 1 8 2 9 3 10 4 11 5 12 6 13 7 6 8 5 9 4 10 3 11 2 12 1 13
REMARK H PARENT
REMARK Flexibility Score: inf
ROOT
ATOM      1  C   UNL     1      42.462  -9.499 -41.660  1.00  0.00     0.000 C 
ENDROOT
BRANCH   1   2
ATOM      2  C   UNL     1      41.851 -10.546 -40.716  1.00  0.00     0.000 C 
BRANCH   2   3
ATOM      3  C   UNL     1      42.888 -11.157 -39.759  1.00  0.00     0.006 C 
BRANCH   3   4
ATOM      4  C   UNL     1      44.137 -11.609 -40.524  1.00  0.00     0.053 C 
BRANCH   4   5
ATOM      5  C   UNL     1      45.180 -12.108 -39.574  1.00  0.00     0.041 C 
ATOM      6  O   UNL     1      44.862 -12.446 -38.404  1.00  0.00    -0.550 OA
ATOM      7  O   UNL     1      46.512 -12.154 -39.965  1.00  0.00    -0.550 OA
ENDBRANCH   4   5
ENDBRANCH   3   4
ENDBRANCH   2   3
ENDBRANCH   1   2
BRANCH   1   8
ATOM      8  C   UNL     1      41.502  -9.083 -42.785  1.00  0.00     0.000 C 
BRANCH   8   9
ATOM      9  C   UNL     1      40.399 -10.131 -42.979  1.00  0.00    -0.000 C 
BRANCH   9  10
ATOM     10  C   UNL     1      40.320 -10.581 -44.443  1.00  0.00    -0.000 C 
BRANCH  10  11
ATOM     11  C   UNL     1      40.944 -11.969 -44.627  1.00  0.00    -0.000 C 
BRANCH  11  12
ATOM     12  C   UNL     1      42.374 -11.862 -45.167  1.00  0.00    -0.003 C 
ATOM     13  C   UNL     1      43.396 -12.254 -44.102  1.00  0.00     0.004 C 
ENDBRANCH  11  12
ENDBRANCH  10  11
ENDBRANCH   9  10
ENDBRANCH   8   9
ENDBRANCH   1   8
TORSDOF 9
ENDMDL
MODEL 2
REMARK VINA RESULT:    -4.487      2.152      3.372
REMARK INTER + INTRA:          -7.810
REMARK INTER:                  -7.118
REMARK INTRA:                  -0.692
REMARK UNBOUND:                -0.963
REMARK SMILES CCCCCCCCCCC(=O)[O-]
REMARK SMILES IDX 7 1 8 2 9 3 10 4 11 5 12 6 13 7 6 8 5 9 4 10 3 11 2 12 1 13
REMARK H PARENT
REMARK Flexibility Score: inf
ROOT
ATOM      1  C   UNL     1      43.893 -12.398 -41.467  1.00  0.00     0.000 C 
ENDROOT
BRANCH   1   2
ATOM      2  C   UNL     1      43.936 -11.597 -40.156  1.00  0.00     0.000 C 
BRANCH   2   3
ATOM      3  C   UNL     1      42.987 -10.388 -40.169  1.00  0.00     0.006 C 
BRANCH   3   4
ATOM      4  C   UNL     1      41.651 -10.734 -39.502  1.00  0.00     0.053 C 
BRANCH   4   5
ATOM      5  C   UNL     1      41.758 -10.599 -38.016  1.00  0.00     0.041 C 
ATOM      6  O   UNL     1      42.433  -9.664 -37.511  1.00  0.00    -0.550 OA
ATOM      7  O   UNL     1      41.152 -11.535 -37.187  1.00  0.00    -0.550 OA
ENDBRANCH   4   5
ENDBRANCH   3   4
ENDBRANCH   2   3
ENDBRANCH   1   2
BRANCH   1   8
ATOM      8  C   UNL     1      43.629 -11.512 -42.694  1.00  0.00     0.000 C 
BRANCH   8   9
ATOM      9  C   UNL     1      43.324 -12.366 -43.931  1.00  0.00    -0.000 C 
BRANCH   9  10
ATOM     10  C   UNL     1      42.209 -11.734 -44.774  1.00  0.00    -0.000 C 
BRANCH  10  11
ATOM     11  C   UNL     1      41.297 -10.855 -43.910  1.00  0.00    -0.000 C 
BRANCH  11  12
ATOM     12  C   UNL     1      39.834 -10.984 -44.348  1.00  0.00    -0.003 C 
ATOM     13  C   UNL     1      39.592 -12.303 -45.078  1.00  0.00     0.004 C 
ENDBRANCH  11  12
ENDBRANCH  10  11
ENDBRANCH   9  10
ENDBRANCH   8   9
ENDBRANCH   1   8
TORSDOF 9
ENDMDL
MODEL 3
REMARK VINA RESULT:    -4.372      2.583      4.234
REMARK INTER + INTRA:          -7.636
REMARK INTER:                  -6.564
REMARK INTRA:                  -1.072
REMARK UNBOUND:                -0.963
REMARK SMILES CCCCCCCCCCC(=O)[O-]
REMARK SMILES IDX 7 1 8 2 9 3 10 4 11 5 12 6 13 7 6 8 5 9 4 10 3 11 2 12 1 13
REMARK H PARENT
REMARK Flexibility Score: inf
ROOT
ATOM      1  C   UNL     1      41.289 -10.226 -40.176  1.00  0.00     0.000 C 
ENDROOT
BRANCH   1   2
ATOM      2  C   UNL     1      41.764  -9.064 -39.289  1.00  0.00     0.000 C 
BRANCH   2   3
ATOM      3  C   UNL     1      42.358  -9.543 -37.955  1.00  0.00     0.006 C 
BRANCH   3   4
ATOM      4  C   UNL     1      41.989 -11.006 -37.685  1.00  0.00     0.053 C 
BRANCH   4   5
ATOM      5  C   UNL     1      42.980 -11.633 -36.757  1.00  0.00     0.041 C 
ATOM      6  O   UNL     1      44.082 -11.068 -36.530  1.00  0.00    -0.550 OA
ATOM      7  O   UNL     1      42.708 -12.867 -36.179  1.00  0.00    -0.550 OA
ENDBRANCH   4   5
ENDBRANCH   3   4
ENDBRANCH   2   3
ENDBRANCH   1   2
BRANCH   1   8
ATOM      8  C   UNL     1      41.871 -10.162 -41.597  1.00  0.00     0.000 C 
BRANCH   8   9
ATOM      9  C   UNL     1      43.403 -10.227 -41.565  1.00  0.00    -0.000 C 
BRANCH   9  10
ATOM     10  C   UNL     1      43.886 -11.597 -41.074  1.00  0.00    -0.000 C 
BRANCH  10  11
ATOM     11  C   UNL     1      44.933 -11.446 -39.964  1.00  0.00    -0.000 C 
BRANCH  11  12
ATOM     12  C   UNL     1      45.402 -12.816 -39.461  1.00  0.00    -0.003 C 
ATOM     13  C   UNL     1      46.875 -12.782 -39.060  1.00  0.00     0.004 C 
ENDBRANCH  11  12
ENDBRANCH  10  11
ENDBRANCH   9  10
ENDBRANCH   8   9
ENDBRANCH   1   8
TORSDOF 9
ENDMDL
MODEL 4
REMARK VINA RESULT:    -4.363      4.169      5.534
REMARK INTER + INTRA:          -7.622
REMARK INTER:                  -6.464
REMARK INTRA:                  -1.158
REMARK UNBOUND:                -0.963
REMARK SMILES CCCCCCCCCCC(=O)[O-]
REMARK SMILES IDX 7 1 8 2 9 3 10 4 11 5 12 6 13 7 6 8 5 9 4 10 3 11 2 12 1 13
REMARK H PARENT
REMARK Flexibility Score: inf
ROOT
ATOM      1  C   UNL     1      41.569 -11.564 -37.163  1.00  0.00     0.000 C 
ENDROOT
BRANCH   1   2
ATOM      2  C   UNL     1      42.821 -12.350 -36.744  1.00  0.00     0.000 C 
BRANCH   2   3
ATOM      3  C   UNL     1      43.855 -11.473 -36.020  1.00  0.00     0.006 C 
BRANCH   3   4
ATOM      4  C   UNL     1      44.651 -12.296 -35.001  1.00  0.00     0.053 C 
BRANCH   4   5
ATOM      5  C   UNL     1      43.811 -12.599 -33.802  1.00  0.00     0.041 C 
ATOM      6  O   UNL     1      43.622 -13.791 -33.445  1.00  0.00    -0.550 OA
ATOM      7  O   UNL     1      43.195 -11.567 -33.105  1.00  0.00    -0.550 OA
ENDBRANCH   4   5
ENDBRANCH   3   4
ENDBRANCH   2   3
ENDBRANCH   1   2
BRANCH   1   8
ATOM      8  C   UNL     1      41.851 -10.548 -38.280  1.00  0.00     0.000 C 
BRANCH   8   9
ATOM      9  C   UNL     1      42.391 -11.249 -39.534  1.00  0.00    -0.000 C 
BRANCH   9  10
ATOM     10  C   UNL     1      43.577 -10.479 -40.127  1.00  0.00    -0.000 C 
BRANCH  10  11
ATOM     11  C   UNL     1      44.901 -10.950 -39.514  1.00  0.00    -0.000 C 
BRANCH  11  12
ATOM     12  C   UNL     1      45.148 -12.432 -39.814  1.00  0.00    -0.003 C 
ATOM     13  C   UNL     1      45.998 -13.081 -38.725  1.00  0.00     0.004 C 
ENDBRANCH  11  12
ENDBRANCH  10  11
ENDBRANCH   9  10
ENDBRANCH   8   9
ENDBRANCH   1   8
TORSDOF 9
ENDMDL
MODEL 5
REMARK VINA RESULT:    -4.343      2.365      4.425
REMARK INTER + INTRA:          -7.590
REMARK INTER:                  -6.510
REMARK INTRA:                  -1.080
REMARK UNBOUND:                -0.963
REMARK SMILES CCCCCCCCCCC(=O)[O-]
REMARK SMILES IDX 7 1 8 2 9 3 10 4 11 5 12 6 13 7 6 8 5 9 4 10 3 11 2 12 1 13
REMARK H PARENT
REMARK Flexibility Score: inf
ROOT
ATOM      1  C   UNL     1      43.516 -10.531 -41.668  1.00  0.00     0.000 C 
ENDROOT
BRANCH   1   2
ATOM      2  C   UNL     1      43.786 -11.702 -40.711  1.00  0.00     0.000 C 
BRANCH   2   3
ATOM      3  C   UNL     1      45.037 -11.484 -39.846  1.00  0.00     0.006 C 
BRANCH   3   4
ATOM      4  C   UNL     1      45.188 -12.603 -38.810  1.00  0.00     0.053 C 
BRANCH   4   5
ATOM      5  C   UNL     1      46.616 -13.041 -38.718  1.00  0.00     0.041 C 
ATOM      6  O   UNL     1      47.482 -12.546 -39.485  1.00  0.00    -0.550 OA
ATOM      7  O   UNL     1      46.982 -14.032 -37.815  1.00  0.00    -0.550 OA
ENDBRANCH   4   5
ENDBRANCH   3   4
ENDBRANCH   2   3
ENDBRANCH   1   2
BRANCH   1   8
ATOM      8  C   UNL     1      42.126  -9.908 -41.466  1.00  0.00     0.000 C 
BRANCH   8   9
ATOM      9  C   UNL     1      41.531 -10.323 -40.115  1.00  0.00    -0.000 C 
BRANCH   9  10
ATOM     10  C   UNL     1      41.808  -9.262 -39.043  1.00  0.00    -0.000 C 
BRANCH  10  11
ATOM     11  C   UNL     1      42.262  -9.911 -37.730  1.00  0.00    -0.000 C 
BRANCH  11  12
ATOM     12  C   UNL     1      41.650 -11.306 -37.567  1.00  0.00    -0.003 C 
ATOM     13  C   UNL     1      42.333 -12.080 -36.443  1.00  0.00     0.004 C 
ENDBRANCH  11  12
ENDBRANCH  10  11
ENDBRANCH   9  10
ENDBRANCH   8   9
ENDBRANCH   1   8
TORSDOF 9
ENDMDL
MODEL 6
REMARK VINA RESULT:    -4.326      2.780      5.428
REMARK INTER + INTRA:          -7.565
REMARK INTER:                  -6.745
REMARK INTRA:                  -0.820
REMARK UNBOUND:                -0.963
REMARK SMILES CCCCCCCCCCC(=O)[O-]
REMARK SMILES IDX 7 1 8 2 9 3 10 4 11 5 12 6 13 7 6 8 5 9 4 10 3 11 2 12 1 13
REMARK H PARENT
REMARK Flexibility Score: inf
ROOT
ATOM      1  C   UNL     1      41.414 -10.154 -41.608  1.00  0.00     0.000 C 
ENDROOT
BRANCH   1   2
ATOM      2  C   UNL     1      40.612  -9.574 -42.783  1.00  0.00     0.000 C 
BRANCH   2   3
ATOM      3  C   UNL     1      41.170 -10.003 -44.149  1.00  0.00     0.006 C 
BRANCH   3   4
ATOM      4  C   UNL     1      41.195 -11.531 -44.274  1.00  0.00     0.053 C 
BRANCH   4   5
ATOM      5  C   UNL     1      42.494 -11.986 -44.859  1.00  0.00     0.041 C 
ATOM      6  O   UNL     1      43.441 -12.337 -44.107  1.00  0.00    -0.550 OA
ATOM      7  O   UNL     1      42.677 -11.978 -46.237  1.00  0.00    -0.550 OA
ENDBRANCH   4   5
ENDBRANCH   3   4
ENDBRANCH   2   3
ENDBRANCH   1   2
BRANCH   1   8
ATOM      8  C   UNL     1      42.894  -9.743 -41.639  1.00  0.00     0.000 C 
BRANCH   8   9
ATOM      9  C   UNL     1      43.783 -10.851 -41.061  1.00  0.00    -0.000 C 
BRANCH   9  10
ATOM     10  C   UNL     1      43.330 -11.238 -39.648  1.00  0.00    -0.000 C 
BRANCH  10  11
ATOM     11  C   UNL     1      43.644 -10.123 -38.644  1.00  0.00    -0.000 C 
BRANCH  11  12
ATOM     12  C   UNL     1      42.486  -9.928 -37.658  1.00  0.00    -0.003 C 
ATOM     13  C   UNL     1      41.553 -11.137 -37.659  1.00  0.00     0.004 C 
ENDBRANCH  11  12
ENDBRANCH  10  11
ENDBRANCH   9  10
ENDBRANCH   8   9
ENDBRANCH   1   8
TORSDOF 9
ENDMDL
MODEL 7
REMARK VINA RESULT:    -4.319      4.795      8.206
REMARK INTER + INTRA:          -7.554
REMARK INTER:                  -6.418
REMARK INTRA:                  -1.135
REMARK UNBOUND:                -0.963
REMARK SMILES CCCCCCCCCCC(=O)[O-]
REMARK SMILES IDX 7 1 8 2 9 3 10 4 11 5 12 6 13 7 6 8 5 9 4 10 3 11 2 12 1 13
REMARK H PARENT
REMARK Flexibility Score: inf
ROOT
ATOM      1  C   UNL     1      42.483 -12.949 -34.816  1.00  0.00     0.000 C 
ENDROOT
BRANCH   1   2
ATOM      2  C   UNL     1      42.558 -12.342 -36.225  1.00  0.00     0.000 C 
BRANCH   2   3
ATOM      3  C   UNL     1      43.887 -11.616 -36.487  1.00  0.00     0.006 C 
BRANCH   3   4
ATOM      4  C   UNL     1      44.697 -12.333 -37.572  1.00  0.00     0.053 C 
BRANCH   4   5
ATOM      5  C   UNL     1      44.817 -11.474 -38.790  1.00  0.00     0.041 C 
ATOM      6  O   UNL     1      44.581 -10.239 -38.721  1.00  0.00    -0.550 OA
ATOM      7  O   UNL     1      45.141 -12.044 -40.015  1.00  0.00    -0.550 OA
ENDBRANCH   4   5
ENDBRANCH   3   4
ENDBRANCH   2   3
ENDBRANCH   1   2
BRANCH   1   8
ATOM      8  C   UNL     1      43.384 -12.221 -33.807  1.00  0.00     0.000 C 
BRANCH   8   9
ATOM      9  C   UNL     1      43.873 -13.181 -32.715  1.00  0.00    -0.000 C 
BRANCH   9  10
ATOM     10  C   UNL     1      44.309 -14.522 -33.318  1.00  0.00    -0.000 C 
BRANCH  10  11
ATOM     11  C   UNL     1      45.838 -14.617 -33.400  1.00  0.00    -0.000 C 
BRANCH  11  12
ATOM     12  C   UNL     1      46.336 -14.249 -34.802  1.00  0.00    -0.003 C 
ATOM     13  C   UNL     1      47.146 -12.955 -34.777  1.00  0.00     0.004 C 
ENDBRANCH  11  12
ENDBRANCH  10  11
ENDBRANCH   9  10
ENDBRANCH   8   9
ENDBRANCH   1   8
TORSDOF 9
ENDMDL
MODEL 8
REMARK VINA RESULT:    -4.299      5.790      8.916
REMARK INTER + INTRA:          -7.524
REMARK INTER:                  -6.355
REMARK INTRA:                  -1.169
REMARK UNBOUND:                -0.963
REMARK SMILES CCCCCCCCCCC(=O)[O-]
REMARK SMILES IDX 7 1 8 2 9 3 10 4 11 5 12 6 13 7 6 8 5 9 4 10 3 11 2 12 1 13
REMARK H PARENT
REMARK Flexibility Score: inf
ROOT
ATOM      1  C   UNL     1      47.186 -13.148 -34.469  1.00  0.00     0.000 C 
ENDROOT
BRANCH   1   2
ATOM      2  C   UNL     1      47.788 -13.455 -35.849  1.00  0.00     0.000 C 
BRANCH   2   3
ATOM      3  C   UNL     1      46.826 -14.242 -36.752  1.00  0.00     0.006 C 
BRANCH   3   4
ATOM      4  C   UNL     1      45.844 -13.300 -37.457  1.00  0.00     0.053 C 
BRANCH   4   5
ATOM      5  C   UNL     1      46.218 -13.134 -38.895  1.00  0.00     0.041 C 
ATOM      6  O   UNL     1      45.457 -13.561 -39.802  1.00  0.00    -0.550 OA
ATOM      7  O   UNL     1      47.433 -12.550 -39.235  1.00  0.00    -0.550 OA
ENDBRANCH   4   5
ENDBRANCH   3   4
ENDBRANCH   2   3
ENDBRANCH   1   2
BRANCH   1   8
ATOM      8  C   UNL     1      47.699 -14.096 -33.374  1.00  0.00     0.000 C 
BRANCH   8   9
ATOM      9  C   UNL     1      46.544 -14.892 -32.753  1.00  0.00    -0.000 C 
BRANCH   9  10
ATOM     10  C   UNL     1      45.188 -14.345 -33.217  1.00  0.00    -0.000 C 
BRANCH  10  11
ATOM     11  C   UNL     1      44.402 -15.408 -33.994  1.00  0.00    -0.000 C 
BRANCH  11  12
ATOM     12  C   UNL     1      43.383 -14.758 -34.937  1.00  0.00    -0.003 C 
ATOM     13  C   UNL     1      43.269 -13.258 -34.676  1.00  0.00     0.004 C 
ENDBRANCH  11  12
ENDBRANCH  10  11
ENDBRANCH   9  10
ENDBRANCH   8   9
ENDBRANCH   1   8
TORSDOF 9
ENDMDL
MODEL 9
REMARK VINA RESULT:    -4.289      3.859      5.351
REMARK INTER + INTRA:          -7.508
REMARK INTER:                  -6.335
REMARK INTRA:                  -1.172
REMARK UNBOUND:                -0.963
REMARK SMILES CCCCCCCCCCC(=O)[O-]
REMARK SMILES IDX 7 1 8 2 9 3 10 4 11 5 12 6 13 7 6 8 5 9 4 10 3 11 2 12 1 13
REMARK H PARENT
REMARK Flexibility Score: inf
ROOT
ATOM      1  C   UNL     1      43.865 -10.825 -37.098  1.00  0.00     0.000 C 
ENDROOT
BRANCH   1   2
ATOM      2  C   UNL     1      44.243 -11.727 -35.913  1.00  0.00     0.000 C 
BRANCH   2   3
ATOM      3  C   UNL     1      43.599 -13.120 -36.002  1.00  0.00     0.006 C 
BRANCH   3   4
ATOM      4  C   UNL     1      44.651 -14.190 -36.311  1.00  0.00     0.053 C 
BRANCH   4   5
ATOM      5  C   UNL     1      45.620 -14.315 -35.178  1.00  0.00     0.041 C 
ATOM      6  O   UNL     1      46.826 -13.995 -35.338  1.00  0.00    -0.550 OA
ATOM      7  O   UNL     1      45.200 -14.832 -33.958  1.00  0.00    -0.550 OA
ENDBRANCH   4   5
ENDBRANCH   3   4
ENDBRANCH   2   3
ENDBRANCH   1   2
BRANCH   1   8
ATOM      8  C   UNL     1      42.489 -11.167 -37.689  1.00  0.00     0.000 C 
BRANCH   8   9
ATOM      9  C   UNL     1      42.558 -11.264 -39.218  1.00  0.00    -0.000 C 
BRANCH   9  10
ATOM     10  C   UNL     1      43.971 -10.951 -39.726  1.00  0.00    -0.000 C 
BRANCH  10  11
ATOM     11  C   UNL     1      44.515 -12.100 -40.584  1.00  0.00    -0.000 C 
BRANCH  11  12
ATOM     12  C   UNL     1      45.376 -13.051 -39.745  1.00  0.00    -0.003 C 
ATOM     13  C   UNL     1      46.711 -12.408 -39.379  1.00  0.00     0.004 C 
ENDBRANCH  11  12
ENDBRANCH  10  11
ENDBRANCH   9  10
ENDBRANCH   8   9
ENDBRANCH   1   8
TORSDOF 9
ENDMDL
