MODEL 1
REMARK VINA RESULT:    -4.097      0.000      0.000
REMARK INTER + INTRA:          -4.883
REMARK INTER:                  -4.576
REMARK INTRA:                  -0.308
REMARK UNBOUND:                -0.308
REMARK SMILES CC(=O)c1ccc(O)cc1O
REMARK SMILES IDX 4 1 10 2 9 3 7 4 6 5 5 6 2 7 1 8 3 9 11 10 8 12
REMARK H PARENT 11 11 8 13
REMARK Flexibility Score: inf
ROOT
ATOM      1  C   UNL     1      25.167  38.327  20.668  1.00  0.00     0.059 A 
ATOM      2  C   UNL     1      25.750  39.616  20.715  1.00  0.00     0.130 A 
ATOM      3  C   UNL     1      26.701  39.993  19.755  1.00  0.00     0.093 A 
ATOM      4  C   UNL     1      27.077  39.109  18.743  1.00  0.00     0.119 A 
ATOM      5  C   UNL     1      26.503  37.835  18.685  1.00  0.00     0.047 A 
ATOM      6  C   UNL     1      25.558  37.447  19.638  1.00  0.00     0.019 A 
ENDROOT
BRANCH   1   7
ATOM      7  C   UNL     1      24.162  37.895  21.682  1.00  0.00     0.163 C 
ATOM      8  C   UNL     1      24.310  36.610  22.441  1.00  0.00     0.093 C 
ATOM      9  O   UNL     1      23.169  38.628  21.943  1.00  0.00    -0.294 OA
ENDBRANCH   1   7
BRANCH   2  10
ATOM     10  O   UNL     1      25.383  40.527  21.706  1.00  0.00    -0.507 OA
ATOM     11  H   UNL     1      24.427  40.598  22.038  1.00  0.00     0.293 HD
ENDBRANCH   2  10
BRANCH   4  12
ATOM     12  O   UNL     1      28.022  39.505  17.798  1.00  0.00    -0.508 OA
ATOM     13  H   UNL     1      28.986  39.199  17.853  1.00  0.00     0.293 HD
ENDBRANCH   4  12
TORSDOF 3
ENDMDL
MODEL 2
REMARK VINA RESULT:    -4.088     15.871     16.917
REMARK INTER + INTRA:          -4.873
REMARK INTER:                  -4.586
REMARK INTRA:                  -0.288
REMARK UNBOUND:                -0.308
REMARK SMILES CC(=O)c1ccc(O)cc1O
REMARK SMILES IDX 4 1 10 2 9 3 7 4 6 5 5 6 2 7 1 8 3 9 11 10 8 12
REMARK H PARENT 11 11 8 13
REMARK Flexibility Score: inf
ROOT
ATOM      1  C   UNL     1      13.877  31.781  29.238  1.00  0.00     0.059 A 
ATOM      2  C   UNL     1      12.555  31.386  29.554  1.00  0.00     0.130 A 
ATOM      3  C   UNL     1      11.468  31.975  28.890  1.00  0.00     0.093 A 
ATOM      4  C   UNL     1      11.677  32.947  27.911  1.00  0.00     0.119 A 
ATOM      5  C   UNL     1      12.979  33.340  27.589  1.00  0.00     0.047 A 
ATOM      6  C   UNL     1      14.069  32.763  28.246  1.00  0.00     0.019 A 
ENDROOT
BRANCH   1   7
ATOM      7  C   UNL     1      15.051  31.180  29.936  1.00  0.00     0.163 C 
ATOM      8  C   UNL     1      16.248  32.001  30.316  1.00  0.00     0.093 C 
ATOM      9  O   UNL     1      15.046  29.958  30.248  1.00  0.00    -0.294 OA
ENDBRANCH   1   7
BRANCH   2  10
ATOM     10  O   UNL     1      12.316  30.406  30.518  1.00  0.00    -0.507 OA
ATOM     11  H   UNL     1      12.479  29.423  30.331  1.00  0.00     0.293 HD
ENDBRANCH   2  10
BRANCH   4  12
ATOM     12  O   UNL     1      10.583  33.517  27.263  1.00  0.00    -0.508 OA
ATOM     13  H   UNL     1      10.698  34.100  26.442  1.00  0.00     0.293 HD
ENDBRANCH   4  12
TORSDOF 3
ENDMDL
MODEL 3
REMARK VINA RESULT:    -3.926     10.209     11.544
REMARK INTER + INTRA:          -4.693
REMARK INTER:                  -4.387
REMARK INTRA:                  -0.306
REMARK UNBOUND:                -0.308
REMARK SMILES CC(=O)c1ccc(O)cc1O
REMARK SMILES IDX 4 1 10 2 9 3 7 4 6 5 5 6 2 7 1 8 3 9 11 10 8 12
REMARK H PARENT 11 11 8 13
REMARK Flexibility Score: inf
ROOT
ATOM      1  C   UNL     1      25.574  28.581  26.669  1.00  0.00     0.059 A 
ATOM      2  C   UNL     1      25.429  29.480  25.585  1.00  0.00     0.130 A 
ATOM      3  C   UNL     1      26.474  29.645  24.664  1.00  0.00     0.093 A 
ATOM      4  C   UNL     1      27.661  28.925  24.801  1.00  0.00     0.119 A 
ATOM      5  C   UNL     1      27.812  28.032  25.866  1.00  0.00     0.047 A 
ATOM      6  C   UNL     1      26.780  27.861  26.791  1.00  0.00     0.019 A 
ENDROOT
BRANCH   1   7
ATOM      7  C   UNL     1      24.483  28.394  27.670  1.00  0.00     0.163 C 
ATOM      8  C   UNL     1      24.048  27.030  28.116  1.00  0.00     0.093 C 
ATOM      9  O   UNL     1      23.918  29.396  28.186  1.00  0.00    -0.294 OA
ENDBRANCH   1   7
BRANCH   2  10
ATOM     10  O   UNL     1      24.248  30.203  25.413  1.00  0.00    -0.507 OA
ATOM     11  H   UNL     1      23.942  30.516  24.498  1.00  0.00     0.293 HD
ENDBRANCH   2  10
BRANCH   4  12
ATOM     12  O   UNL     1      28.686  29.103  23.874  1.00  0.00    -0.508 OA
ATOM     13  H   UNL     1      28.784  29.967  23.352  1.00  0.00     0.293 HD
ENDBRANCH   4  12
TORSDOF 3
ENDMDL
MODEL 4
REMARK VINA RESULT:    -3.924      1.479      2.313
REMARK INTER + INTRA:          -4.691
REMARK INTER:                  -4.384
REMARK INTRA:                  -0.308
REMARK UNBOUND:                -0.308
REMARK SMILES CC(=O)c1ccc(O)cc1O
REMARK SMILES IDX 4 1 10 2 9 3 7 4 6 5 5 6 2 7 1 8 3 9 11 10 8 12
REMARK H PARENT 11 11 8 13
REMARK Flexibility Score: inf
ROOT
ATOM      1  C   UNL     1      25.333  38.370  20.586  1.00  0.00     0.059 A 
ATOM      2  C   UNL     1      25.738  37.558  19.499  1.00  0.00     0.130 A 
ATOM      3  C   UNL     1      26.666  38.044  18.565  1.00  0.00     0.093 A 
ATOM      4  C   UNL     1      27.202  39.326  18.699  1.00  0.00     0.119 A 
ATOM      5  C   UNL     1      26.812  40.133  19.771  1.00  0.00     0.047 A 
ATOM      6  C   UNL     1      25.887  39.661  20.706  1.00  0.00     0.019 A 
ENDROOT
BRANCH   1   7
ATOM      7  C   UNL     1      24.340  37.883  21.587  1.00  0.00     0.163 C 
ATOM      8  C   UNL     1      23.139  38.697  21.967  1.00  0.00     0.093 C 
ATOM      9  O   UNL     1      24.482  36.749  22.120  1.00  0.00    -0.294 OA
ENDBRANCH   1   7
BRANCH   2  10
ATOM     10  O   UNL     1      25.231  36.267  19.347  1.00  0.00    -0.507 OA
ATOM     11  H   UNL     1      25.374  35.734  18.496  1.00  0.00     0.293 HD
ENDBRANCH   2  10
BRANCH   4  12
ATOM     12  O   UNL     1      28.123  39.788  17.761  1.00  0.00    -0.508 OA
ATOM     13  H   UNL     1      28.418  40.757  17.741  1.00  0.00     0.293 HD
ENDBRANCH   4  12
TORSDOF 3
ENDMDL
MODEL 5
REMARK VINA RESULT:    -3.916      7.036      7.971
REMARK INTER + INTRA:          -4.681
REMARK INTER:                  -4.375
REMARK INTRA:                  -0.306
REMARK UNBOUND:                -0.308
REMARK SMILES CC(=O)c1ccc(O)cc1O
REMARK SMILES IDX 4 1 10 2 9 3 7 4 6 5 5 6 2 7 1 8 3 9 11 10 8 12
REMARK H PARENT 11 11 8 13
REMARK Flexibility Score: inf
ROOT
ATOM      1  C   UNL     1      28.291  31.965  23.787  1.00  0.00     0.059 A 
ATOM      2  C   UNL     1      28.793  31.757  22.480  1.00  0.00     0.130 A 
ATOM      3  C   UNL     1      29.011  32.850  21.628  1.00  0.00     0.093 A 
ATOM      4  C   UNL     1      28.743  34.150  22.059  1.00  0.00     0.119 A 
ATOM      5  C   UNL     1      28.250  34.366  23.349  1.00  0.00     0.047 A 
ATOM      6  C   UNL     1      28.026  33.285  24.206  1.00  0.00     0.019 A 
ENDROOT
BRANCH   1   7
ATOM      7  C   UNL     1      28.039  30.821  24.711  1.00  0.00     0.163 C 
ATOM      8  C   UNL     1      28.614  30.784  26.096  1.00  0.00     0.093 C 
ATOM      9  O   UNL     1      27.304  29.863  24.347  1.00  0.00    -0.294 OA
ENDBRANCH   1   7
BRANCH   2  10
ATOM     10  O   UNL     1      29.086  30.470  22.027  1.00  0.00    -0.507 OA
ATOM     11  H   UNL     1      29.924  30.270  21.492  1.00  0.00     0.293 HD
ENDBRANCH   2  10
BRANCH   4  12
ATOM     12  O   UNL     1      28.968  35.221  21.196  1.00  0.00    -0.508 OA
ATOM     13  H   UNL     1      28.965  35.101  20.190  1.00  0.00     0.293 HD
ENDBRANCH   4  12
TORSDOF 3
ENDMDL
MODEL 6
REMARK VINA RESULT:    -3.880      1.982      3.203
REMARK INTER + INTRA:          -4.641
REMARK INTER:                  -4.372
REMARK INTRA:                  -0.269
REMARK UNBOUND:                -0.308
REMARK SMILES CC(=O)c1ccc(O)cc1O
REMARK SMILES IDX 4 1 10 2 9 3 7 4 6 5 5 6 2 7 1 8 3 9 11 10 8 12
REMARK H PARENT 11 11 8 13
REMARK Flexibility Score: inf
ROOT
ATOM      1  C   UNL     1      26.109  37.513  19.657  1.00  0.00     0.059 A 
ATOM      2  C   UNL     1      25.353  37.893  20.792  1.00  0.00     0.130 A 
ATOM      3  C   UNL     1      25.351  39.229  21.220  1.00  0.00     0.093 A 
ATOM      4  C   UNL     1      26.086  40.196  20.533  1.00  0.00     0.119 A 
ATOM      5  C   UNL     1      26.832  39.831  19.408  1.00  0.00     0.047 A 
ATOM      6  C   UNL     1      26.844  38.503  18.974  1.00  0.00     0.019 A 
ENDROOT
BRANCH   1   7
ATOM      7  C   UNL     1      26.138  36.098  19.186  1.00  0.00     0.163 C 
ATOM      8  C   UNL     1      27.363  35.244  19.328  1.00  0.00     0.093 C 
ATOM      9  O   UNL     1      25.109  35.578  18.676  1.00  0.00    -0.294 OA
ENDBRANCH   1   7
BRANCH   2  10
ATOM     10  O   UNL     1      24.596  36.952  21.491  1.00  0.00    -0.507 OA
ATOM     11  H   UNL     1      24.897  35.987  21.583  1.00  0.00     0.293 HD
ENDBRANCH   2  10
BRANCH   4  12
ATOM     12  O   UNL     1      26.068  41.517  20.975  1.00  0.00    -0.508 OA
ATOM     13  H   UNL     1      26.734  41.856  21.660  1.00  0.00     0.293 HD
ENDBRANCH   4  12
TORSDOF 3
ENDMDL
MODEL 7
REMARK VINA RESULT:    -3.874      9.563     11.496
REMARK INTER + INTRA:          -4.635
REMARK INTER:                  -4.334
REMARK INTRA:                  -0.301
REMARK UNBOUND:                -0.308
REMARK SMILES CC(=O)c1ccc(O)cc1O
REMARK SMILES IDX 4 1 10 2 9 3 7 4 6 5 5 6 2 7 1 8 3 9 11 10 8 12
REMARK H PARENT 11 11 8 13
REMARK Flexibility Score: inf
ROOT
ATOM      1  C   UNL     1      28.085  29.603  24.591  1.00  0.00     0.059 A 
ATOM      2  C   UNL     1      26.817  29.334  25.159  1.00  0.00     0.130 A 
ATOM      3  C   UNL     1      26.611  28.159  25.897  1.00  0.00     0.093 A 
ATOM      4  C   UNL     1      27.650  27.248  26.085  1.00  0.00     0.119 A 
ATOM      5  C   UNL     1      28.908  27.506  25.532  1.00  0.00     0.047 A 
ATOM      6  C   UNL     1      29.125  28.672  24.793  1.00  0.00     0.019 A 
ENDROOT
BRANCH   1   7
ATOM      7  C   UNL     1      28.330  30.839  23.793  1.00  0.00     0.163 C 
ATOM      8  C   UNL     1      29.071  30.802  22.489  1.00  0.00     0.093 C 
ATOM      9  O   UNL     1      27.887  31.950  24.192  1.00  0.00    -0.294 OA
ENDBRANCH   1   7
BRANCH   2  10
ATOM     10  O   UNL     1      25.762  30.234  25.000  1.00  0.00    -0.507 OA
ATOM     11  H   UNL     1      25.876  31.106  24.495  1.00  0.00     0.293 HD
ENDBRANCH   2  10
BRANCH   4  12
ATOM     12  O   UNL     1      27.424  26.088  26.823  1.00  0.00    -0.508 OA
ATOM     13  H   UNL     1      27.722  26.006  27.788  1.00  0.00     0.293 HD
ENDBRANCH   4  12
TORSDOF 3
ENDMDL
MODEL 8
REMARK VINA RESULT:    -3.851      1.818      3.701
REMARK INTER + INTRA:          -4.610
REMARK INTER:                  -4.359
REMARK INTRA:                  -0.251
REMARK UNBOUND:                -0.308
REMARK SMILES CC(=O)c1ccc(O)cc1O
REMARK SMILES IDX 4 1 10 2 9 3 7 4 6 5 5 6 2 7 1 8 3 9 11 10 8 12
REMARK H PARENT 11 11 8 13
REMARK Flexibility Score: inf
ROOT
ATOM      1  C   UNL     1      26.608  40.361  19.951  1.00  0.00     0.059 A 
ATOM      2  C   UNL     1      25.749  39.623  20.799  1.00  0.00     0.130 A 
ATOM      3  C   UNL     1      25.552  38.251  20.580  1.00  0.00     0.093 A 
ATOM      4  C   UNL     1      26.203  37.600  19.531  1.00  0.00     0.119 A 
ATOM      5  C   UNL     1      27.056  38.320  18.690  1.00  0.00     0.047 A 
ATOM      6  C   UNL     1      27.258  39.687  18.897  1.00  0.00     0.019 A 
ENDROOT
BRANCH   1   7
ATOM      7  C   UNL     1      26.827  41.823  20.154  1.00  0.00     0.163 C 
ATOM      8  C   UNL     1      27.166  42.736  19.013  1.00  0.00     0.093 C 
ATOM      9  O   UNL     1      26.701  42.329  21.302  1.00  0.00    -0.294 OA
ENDBRANCH   1   7
BRANCH   2  10
ATOM     10  O   UNL     1      25.096  40.243  21.866  1.00  0.00    -0.507 OA
ATOM     11  H   UNL     1      25.596  40.820  22.534  1.00  0.00     0.293 HD
ENDBRANCH   2  10
BRANCH   4  12
ATOM     12  O   UNL     1      25.994  36.237  19.332  1.00  0.00    -0.508 OA
ATOM     13  H   UNL     1      26.749  35.620  19.055  1.00  0.00     0.293 HD
ENDBRANCH   4  12
TORSDOF 3
ENDMDL
MODEL 9
REMARK VINA RESULT:    -3.813      1.974      3.734
REMARK INTER + INTRA:          -4.567
REMARK INTER:                  -4.304
REMARK INTRA:                  -0.263
REMARK UNBOUND:                -0.308
REMARK SMILES CC(=O)c1ccc(O)cc1O
REMARK SMILES IDX 4 1 10 2 9 3 7 4 6 5 5 6 2 7 1 8 3 9 11 10 8 12
REMARK H PARENT 11 11 8 13
REMARK Flexibility Score: inf
ROOT
ATOM      1  C   UNL     1      26.412  40.084  20.136  1.00  0.00     0.059 A 
ATOM      2  C   UNL     1      26.973  39.545  18.954  1.00  0.00     0.130 A 
ATOM      3  C   UNL     1      26.773  38.193  18.634  1.00  0.00     0.093 A 
ATOM      4  C   UNL     1      26.018  37.370  19.470  1.00  0.00     0.119 A 
ATOM      5  C   UNL     1      25.457  37.894  20.637  1.00  0.00     0.047 A 
ATOM      6  C   UNL     1      25.650  39.238  20.969  1.00  0.00     0.019 A 
ENDROOT
BRANCH   1   7
ATOM      7  C   UNL     1      26.616  41.515  20.507  1.00  0.00     0.163 C 
ATOM      8  C   UNL     1      26.649  41.961  21.938  1.00  0.00     0.093 C 
ATOM      9  O   UNL     1      26.796  42.383  19.610  1.00  0.00    -0.294 OA
ENDBRANCH   1   7
BRANCH   2  10
ATOM     10  O   UNL     1      27.720  40.347  18.090  1.00  0.00    -0.507 OA
ATOM     11  H   UNL     1      27.453  41.304  17.887  1.00  0.00     0.293 HD
ENDBRANCH   2  10
BRANCH   4  12
ATOM     12  O   UNL     1      25.832  36.031  19.132  1.00  0.00    -0.508 OA
ATOM     13  H   UNL     1      26.409  35.299  19.529  1.00  0.00     0.293 HD
ENDBRANCH   4  12
TORSDOF 3
ENDMDL
