MODEL 1
REMARK VINA RESULT:    -3.877      0.000      0.000
REMARK INTER + INTRA:          -5.867
REMARK INTER:                  -5.237
REMARK INTRA:                  -0.629
REMARK UNBOUND:                -0.629
REMARK SMILES CCCCCCCC(=O)[O-]
REMARK SMILES IDX 5 1 6 2 7 3 8 4 9 5 10 6 4 7 3 8 2 9 1 10
REMARK H PARENT
REMARK Flexibility Score: inf
ROOT
ATOM      1  C   UNL     1     -39.304  19.145 -28.519  1.00  0.00     0.000 C 
ENDROOT
BRANCH   1   2
ATOM      2  C   UNL     1     -37.922  18.872 -27.912  1.00  0.00     0.006 C 
BRANCH   2   3
ATOM      3  C   UNL     1     -37.369  17.526 -28.388  1.00  0.00     0.053 C 
BRANCH   3   4
ATOM      4  C   UNL     1     -36.954  17.607 -29.822  1.00  0.00     0.041 C 
ATOM      5  O   UNL     1     -37.650  17.058 -30.716  1.00  0.00    -0.550 OA
ATOM      6  O   UNL     1     -35.771  18.248 -30.168  1.00  0.00    -0.550 OA
ENDBRANCH   3   4
ENDBRANCH   2   3
ENDBRANCH   1   2
BRANCH   1   7
ATOM      7  C   UNL     1     -39.360  20.543 -29.153  1.00  0.00     0.000 C 
BRANCH   7   8
ATOM      8  C   UNL     1     -37.978  21.215 -29.244  1.00  0.00    -0.000 C 
BRANCH   8   9
ATOM      9  C   UNL     1     -37.381  21.279 -30.661  1.00  0.00    -0.003 C 
ATOM     10  C   UNL     1     -38.267  20.612 -31.712  1.00  0.00     0.004 C 
ENDBRANCH   8   9
ENDBRANCH   7   8
ENDBRANCH   1   7
TORSDOF 6
ENDMDL
MODEL 2
REMARK VINA RESULT:    -3.822      1.887      2.580
REMARK INTER + INTRA:          -5.792
REMARK INTER:                  -5.239
REMARK INTRA:                  -0.553
REMARK UNBOUND:                -0.629
REMARK SMILES CCCCCCCC(=O)[O-]
REMARK SMILES IDX 5 1 6 2 7 3 8 4 9 5 10 6 4 7 3 8 2 9 1 10
REMARK H PARENT
REMARK Flexibility Score: inf
ROOT
ATOM      1  C   UNL     1     -38.580  18.624 -31.074  1.00  0.00     0.000 C 
ENDROOT
BRANCH   1   2
ATOM      2  C   UNL     1     -37.681  17.687 -30.257  1.00  0.00     0.006 C 
BRANCH   2   3
ATOM      3  C   UNL     1     -36.666  18.481 -29.430  1.00  0.00     0.053 C 
BRANCH   3   4
ATOM      4  C   UNL     1     -37.064  18.501 -27.989  1.00  0.00     0.041 C 
ATOM      5  O   UNL     1     -38.279  18.435 -27.666  1.00  0.00    -0.550 OA
ATOM      6  O   UNL     1     -36.096  18.643 -27.002  1.00  0.00    -0.550 OA
ENDBRANCH   3   4
ENDBRANCH   2   3
ENDBRANCH   1   2
BRANCH   1   7
ATOM      7  C   UNL     1     -37.995  20.044 -31.121  1.00  0.00     0.000 C 
BRANCH   7   8
ATOM      8  C   UNL     1     -38.994  21.119 -30.655  1.00  0.00    -0.000 C 
BRANCH   8   9
ATOM      9  C   UNL     1     -38.766  21.638 -29.224  1.00  0.00    -0.003 C 
ATOM     10  C   UNL     1     -37.346  22.152 -28.995  1.00  0.00     0.004 C 
ENDBRANCH   8   9
ENDBRANCH   7   8
ENDBRANCH   1   7
TORSDOF 6
ENDMDL
MODEL 3
REMARK VINA RESULT:    -3.749      1.158      1.727
REMARK INTER + INTRA:          -5.693
REMARK INTER:                  -5.095
REMARK INTRA:                  -0.598
REMARK UNBOUND:                -0.629
REMARK SMILES CCCCCCCC(=O)[O-]
REMARK SMILES IDX 5 1 6 2 7 3 8 4 9 5 10 6 4 7 3 8 2 9 1 10
REMARK H PARENT
REMARK Flexibility Score: inf
ROOT
ATOM      1  C   UNL     1     -38.995  19.975 -29.636  1.00  0.00     0.000 C 
ENDROOT
BRANCH   1   2
ATOM      2  C   UNL     1     -39.094  18.976 -28.476  1.00  0.00     0.006 C 
BRANCH   2   3
ATOM      3  C   UNL     1     -37.704  18.574 -27.976  1.00  0.00     0.053 C 
BRANCH   3   4
ATOM      4  C   UNL     1     -36.896  17.986 -29.089  1.00  0.00     0.041 C 
ATOM      5  O   UNL     1     -37.199  16.862 -29.568  1.00  0.00    -0.550 OA
ATOM      6  O   UNL     1     -35.777  18.658 -29.564  1.00  0.00    -0.550 OA
ENDBRANCH   3   4
ENDBRANCH   2   3
ENDBRANCH   1   2
BRANCH   1   7
ATOM      7  C   UNL     1     -39.524  21.355 -29.220  1.00  0.00     0.000 C 
BRANCH   7   8
ATOM      8  C   UNL     1     -38.399  22.353 -28.890  1.00  0.00    -0.000 C 
BRANCH   8   9
ATOM      9  C   UNL     1     -37.040  22.035 -29.540  1.00  0.00    -0.003 C 
ATOM     10  C   UNL     1     -35.890  22.006 -28.535  1.00  0.00     0.004 C 
ENDBRANCH   8   9
ENDBRANCH   7   8
ENDBRANCH   1   7
TORSDOF 6
ENDMDL
MODEL 4
REMARK VINA RESULT:    -3.729      1.860      3.436
REMARK INTER + INTRA:          -5.667
REMARK INTER:                  -5.081
REMARK INTRA:                  -0.585
REMARK UNBOUND:                -0.629
REMARK SMILES CCCCCCCC(=O)[O-]
REMARK SMILES IDX 5 1 6 2 7 3 8 4 9 5 10 6 4 7 3 8 2 9 1 10
REMARK H PARENT
REMARK Flexibility Score: inf
ROOT
ATOM      1  C   UNL     1     -38.556  18.655 -27.989  1.00  0.00     0.000 C 
ENDROOT
BRANCH   1   2
ATOM      2  C   UNL     1     -39.154  19.192 -29.296  1.00  0.00     0.006 C 
BRANCH   2   3
ATOM      3  C   UNL     1     -38.790  20.665 -29.504  1.00  0.00     0.053 C 
BRANCH   3   4
ATOM      4  C   UNL     1     -38.053  20.846 -30.793  1.00  0.00     0.041 C 
ATOM      5  O   UNL     1     -38.372  20.171 -31.806  1.00  0.00    -0.550 OA
ATOM      6  O   UNL     1     -36.981  21.726 -30.862  1.00  0.00    -0.550 OA
ENDBRANCH   3   4
ENDBRANCH   2   3
ENDBRANCH   1   2
BRANCH   1   7
ATOM      7  C   UNL     1     -37.233  17.921 -28.250  1.00  0.00     0.000 C 
BRANCH   7   8
ATOM      8  C   UNL     1     -37.152  17.316 -29.663  1.00  0.00    -0.000 C 
BRANCH   8   9
ATOM      9  C   UNL     1     -35.759  17.379 -30.316  1.00  0.00    -0.003 C 
ATOM     10  C   UNL     1     -35.087  18.742 -30.159  1.00  0.00     0.004 C 
ENDBRANCH   8   9
ENDBRANCH   7   8
ENDBRANCH   1   7
TORSDOF 6
ENDMDL
MODEL 5
REMARK VINA RESULT:    -3.716      2.089      3.499
REMARK INTER + INTRA:          -5.649
REMARK INTER:                  -5.005
REMARK INTRA:                  -0.644
REMARK UNBOUND:                -0.629
REMARK SMILES CCCCCCCC(=O)[O-]
REMARK SMILES IDX 5 1 6 2 7 3 8 4 9 5 10 6 4 7 3 8 2 9 1 10
REMARK H PARENT
REMARK Flexibility Score: inf
ROOT
ATOM      1  C   UNL     1     -38.650  18.687 -28.039  1.00  0.00     0.000 C 
ENDROOT
BRANCH   1   2
ATOM      2  C   UNL     1     -39.024  19.077 -29.474  1.00  0.00     0.006 C 
BRANCH   2   3
ATOM      3  C   UNL     1     -39.064  20.598 -29.639  1.00  0.00     0.053 C 
BRANCH   3   4
ATOM      4  C   UNL     1     -37.951  21.059 -30.527  1.00  0.00     0.041 C 
ATOM      5  O   UNL     1     -36.965  21.672 -30.041  1.00  0.00    -0.550 OA
ATOM      6  O   UNL     1     -38.027  20.854 -31.898  1.00  0.00    -0.550 OA
ENDBRANCH   3   4
ENDBRANCH   2   3
ENDBRANCH   1   2
BRANCH   1   7
ATOM      7  C   UNL     1     -37.277  17.999 -27.996  1.00  0.00     0.000 C 
BRANCH   7   8
ATOM      8  C   UNL     1     -36.121  18.984 -27.743  1.00  0.00    -0.000 C 
BRANCH   8   9
ATOM      9  C   UNL     1     -34.987  18.932 -28.782  1.00  0.00    -0.003 C 
ATOM     10  C   UNL     1     -35.423  18.322 -30.113  1.00  0.00     0.004 C 
ENDBRANCH   8   9
ENDBRANCH   7   8
ENDBRANCH   1   7
TORSDOF 6
ENDMDL
MODEL 6
REMARK VINA RESULT:    -3.707      2.564      4.257
REMARK INTER + INTRA:          -5.637
REMARK INTER:                  -5.189
REMARK INTRA:                  -0.447
REMARK UNBOUND:                -0.629
REMARK SMILES CCCCCCCC(=O)[O-]
REMARK SMILES IDX 5 1 6 2 7 3 8 4 9 5 10 6 4 7 3 8 2 9 1 10
REMARK H PARENT
REMARK Flexibility Score: inf
ROOT
ATOM      1  C   UNL     1     -38.354  18.725 -31.035  1.00  0.00     0.000 C 
ENDROOT
BRANCH   1   2
ATOM      2  C   UNL     1     -38.457  20.233 -31.296  1.00  0.00     0.006 C 
BRANCH   2   3
ATOM      3  C   UNL     1     -37.904  21.035 -30.114  1.00  0.00     0.053 C 
BRANCH   3   4
ATOM      4  C   UNL     1     -39.004  21.407 -29.172  1.00  0.00     0.041 C 
ATOM      5  O   UNL     1     -39.824  20.536 -28.779  1.00  0.00    -0.550 OA
ATOM      6  O   UNL     1     -39.154  22.727 -28.765  1.00  0.00    -0.550 OA
ENDBRANCH   3   4
ENDBRANCH   2   3
ENDBRANCH   1   2
BRANCH   1   7
ATOM      7  C   UNL     1     -37.054  18.383 -30.293  1.00  0.00     0.000 C 
BRANCH   7   8
ATOM      8  C   UNL     1     -37.275  17.426 -29.107  1.00  0.00    -0.000 C 
BRANCH   8   9
ATOM      9  C   UNL     1     -37.363  18.109 -27.731  1.00  0.00    -0.003 C 
ATOM     10  C   UNL     1     -36.092  18.870 -27.360  1.00  0.00     0.004 C 
ENDBRANCH   8   9
ENDBRANCH   7   8
ENDBRANCH   1   7
TORSDOF 6
ENDMDL
MODEL 7
REMARK VINA RESULT:    -3.693      2.015      2.985
REMARK INTER + INTRA:          -5.618
REMARK INTER:                  -4.944
REMARK INTRA:                  -0.674
REMARK UNBOUND:                -0.629
REMARK SMILES CCCCCCCC(=O)[O-]
REMARK SMILES IDX 5 1 6 2 7 3 8 4 9 5 10 6 4 7 3 8 2 9 1 10
REMARK H PARENT
REMARK Flexibility Score: inf
ROOT
ATOM      1  C   UNL     1     -35.715  19.377 -28.922  1.00  0.00     0.000 C 
ENDROOT
BRANCH   1   2
ATOM      2  C   UNL     1     -36.737  18.234 -28.879  1.00  0.00     0.006 C 
BRANCH   2   3
ATOM      3  C   UNL     1     -37.879  18.554 -27.910  1.00  0.00     0.053 C 
BRANCH   3   4
ATOM      4  C   UNL     1     -39.130  18.878 -28.663  1.00  0.00     0.041 C 
ATOM      5  O   UNL     1     -39.169  18.747 -29.914  1.00  0.00    -0.550 OA
ATOM      6  O   UNL     1     -40.239  19.373 -27.987  1.00  0.00    -0.550 OA
ENDBRANCH   3   4
ENDBRANCH   2   3
ENDBRANCH   1   2
BRANCH   1   7
ATOM      7  C   UNL     1     -35.700  20.050 -30.303  1.00  0.00     0.000 C 
BRANCH   7   8
ATOM      8  C   UNL     1     -36.714  21.202 -30.418  1.00  0.00    -0.000 C 
BRANCH   8   9
ATOM      9  C   UNL     1     -36.916  22.019 -29.129  1.00  0.00    -0.003 C 
ATOM     10  C   UNL     1     -38.374  22.404 -28.889  1.00  0.00     0.004 C 
ENDBRANCH   8   9
ENDBRANCH   7   8
ENDBRANCH   1   7
TORSDOF 6
ENDMDL
MODEL 8
REMARK VINA RESULT:    -3.679      2.551      4.225
REMARK INTER + INTRA:          -5.598
REMARK INTER:                  -5.066
REMARK INTRA:                  -0.533
REMARK UNBOUND:                -0.629
REMARK SMILES CCCCCCCC(=O)[O-]
REMARK SMILES IDX 5 1 6 2 7 3 8 4 9 5 10 6 4 7 3 8 2 9 1 10
REMARK H PARENT
REMARK Flexibility Score: inf
ROOT
ATOM      1  C   UNL     1     -38.286  19.725 -31.085  1.00  0.00     0.000 C 
ENDROOT
BRANCH   1   2
ATOM      2  C   UNL     1     -36.865  20.191 -30.741  1.00  0.00     0.006 C 
BRANCH   2   3
ATOM      3  C   UNL     1     -36.798  21.717 -30.636  1.00  0.00     0.053 C 
BRANCH   3   4
ATOM      4  C   UNL     1     -36.994  22.155 -29.219  1.00  0.00     0.041 C 
ATOM      5  O   UNL     1     -36.012  22.218 -28.433  1.00  0.00    -0.550 OA
ATOM      6  O   UNL     1     -38.269  22.445 -28.752  1.00  0.00    -0.550 OA
ENDBRANCH   3   4
ENDBRANCH   2   3
ENDBRANCH   1   2
BRANCH   1   7
ATOM      7  C   UNL     1     -38.713  18.554 -30.186  1.00  0.00     0.000 C 
BRANCH   7   8
ATOM      8  C   UNL     1     -38.687  18.909 -28.689  1.00  0.00    -0.000 C 
BRANCH   8   9
ATOM      9  C   UNL     1     -37.776  18.016 -27.827  1.00  0.00    -0.003 C 
ATOM     10  C   UNL     1     -36.445  18.681 -27.481  1.00  0.00     0.004 C 
ENDBRANCH   8   9
ENDBRANCH   7   8
ENDBRANCH   1   7
TORSDOF 6
ENDMDL
MODEL 9
REMARK VINA RESULT:    -3.621      1.870      2.472
REMARK INTER + INTRA:          -5.521
REMARK INTER:                  -4.979
REMARK INTRA:                  -0.542
REMARK UNBOUND:                -0.629
REMARK SMILES CCCCCCCC(=O)[O-]
REMARK SMILES IDX 5 1 6 2 7 3 8 4 9 5 10 6 4 7 3 8 2 9 1 10
REMARK H PARENT
REMARK Flexibility Score: inf
ROOT
ATOM      1  C   UNL     1     -39.139  18.998 -28.526  1.00  0.00     0.000 C 
ENDROOT
BRANCH   1   2
ATOM      2  C   UNL     1     -37.955  18.352 -27.796  1.00  0.00     0.006 C 
BRANCH   2   3
ATOM      3  C   UNL     1     -36.715  18.304 -28.693  1.00  0.00     0.053 C 
BRANCH   3   4
ATOM      4  C   UNL     1     -35.634  19.176 -28.139  1.00  0.00     0.041 C 
ATOM      5  O   UNL     1     -35.092  20.052 -28.863  1.00  0.00    -0.550 OA
ATOM      6  O   UNL     1     -35.188  18.988 -26.837  1.00  0.00    -0.550 OA
ENDBRANCH   3   4
ENDBRANCH   2   3
ENDBRANCH   1   2
BRANCH   1   7
ATOM      7  C   UNL     1     -38.805  19.246 -30.005  1.00  0.00     0.000 C 
BRANCH   7   8
ATOM      8  C   UNL     1     -38.831  20.738 -30.383  1.00  0.00    -0.000 C 
BRANCH   8   9
ATOM      9  C   UNL     1     -38.988  21.705 -29.195  1.00  0.00    -0.003 C 
ATOM     10  C   UNL     1     -37.703  22.464 -28.870  1.00  0.00     0.004 C 
ENDBRANCH   8   9
ENDBRANCH   7   8
ENDBRANCH   1   7
TORSDOF 6
ENDMDL
