MODEL 1
REMARK VINA RESULT:    -3.740      0.000      0.000
REMARK INTER + INTRA:          -5.317
REMARK INTER:                  -4.942
REMARK INTRA:                  -0.375
REMARK UNBOUND:                -0.375
REMARK SMILES CCCCC=CC=CCO
REMARK SMILES IDX 5 1 6 2 4 3 3 4 2 5 1 6 7 7 8 8 9 9 10 10
REMARK H PARENT 10 11
REMARK Flexibility Score: inf
ROOT
ATOM      1  C   UNL     1      -0.373  -0.762  -4.831  1.00  0.00    -0.027 C 
ATOM      2  C   UNL     1      -1.360  -1.366  -4.164  1.00  0.00    -0.005 C 
ENDROOT
BRANCH   1   3
ATOM      3  C   UNL     1       0.796  -0.148  -4.118  1.00  0.00     0.027 C 
BRANCH   3   4
ATOM      4  C   UNL     1       1.971  -1.130  -4.026  1.00  0.00     0.004 C 
BRANCH   4   5
ATOM      5  C   UNL     1       1.961  -2.109  -5.206  1.00  0.00    -0.003 C 
ATOM      6  C   UNL     1       1.927  -3.556  -4.722  1.00  0.00     0.004 C 
ENDBRANCH   4   5
ENDBRANCH   3   4
ENDBRANCH   1   3
BRANCH   2   7
ATOM      7  C   UNL     1      -2.494  -1.976  -4.877  1.00  0.00    -0.002 C 
ATOM      8  C   UNL     1      -2.387  -3.186  -5.431  1.00  0.00     0.001 C 
BRANCH   8   9
ATOM      9  C   UNL     1      -3.533  -3.812  -6.168  1.00  0.00     0.183 C 
BRANCH   9  10
ATOM     10  O   UNL     1      -3.079  -4.427  -7.343  1.00  0.00    -0.392 OA
ATOM     11  H   UNL     1      -2.915  -5.381  -7.124  1.00  0.00     0.210 HD
ENDBRANCH   9  10
ENDBRANCH   8   9
ENDBRANCH   2   7
TORSDOF 6
ENDMDL
MODEL 2
REMARK VINA RESULT:    -3.729      1.021      1.570
REMARK INTER + INTRA:          -5.303
REMARK INTER:                  -5.007
REMARK INTRA:                  -0.295
REMARK UNBOUND:                -0.375
REMARK SMILES CCCCC=CC=CCO
REMARK SMILES IDX 5 1 6 2 4 3 3 4 2 5 1 6 7 7 8 8 9 9 10 10
REMARK H PARENT 10 11
REMARK Flexibility Score: inf
ROOT
ATOM      1  C   UNL     1      -1.444  -1.297  -4.990  1.00  0.00    -0.027 C 
ATOM      2  C   UNL     1      -1.544  -2.561  -5.411  1.00  0.00    -0.005 C 
ENDROOT
BRANCH   1   3
ATOM      3  C   UNL     1      -0.188  -0.500  -5.187  1.00  0.00     0.027 C 
BRANCH   3   4
ATOM      4  C   UNL     1       0.691  -0.526  -3.930  1.00  0.00     0.004 C 
BRANCH   4   5
ATOM      5  C   UNL     1       2.133  -0.914  -4.275  1.00  0.00    -0.003 C 
ATOM      6  C   UNL     1       2.177  -2.203  -5.091  1.00  0.00     0.004 C 
ENDBRANCH   4   5
ENDBRANCH   3   4
ENDBRANCH   1   3
BRANCH   2   7
ATOM      7  C   UNL     1      -2.788  -3.326  -5.223  1.00  0.00    -0.002 C 
ATOM      8  C   UNL     1      -3.273  -4.098  -6.197  1.00  0.00     0.001 C 
BRANCH   8   9
ATOM      9  C   UNL     1      -4.543  -4.875  -6.019  1.00  0.00     0.183 C 
BRANCH   9  10
ATOM     10  O   UNL     1      -5.310  -4.831  -7.193  1.00  0.00    -0.392 OA
ATOM     11  H   UNL     1      -5.528  -5.770  -7.429  1.00  0.00     0.210 HD
ENDBRANCH   9  10
ENDBRANCH   8   9
ENDBRANCH   2   7
TORSDOF 6
ENDMDL
MODEL 3
REMARK VINA RESULT:    -3.721      2.023      3.837
REMARK INTER + INTRA:          -5.293
REMARK INTER:                  -4.879
REMARK INTRA:                  -0.414
REMARK UNBOUND:                -0.375
REMARK SMILES CCCCC=CC=CCO
REMARK SMILES IDX 5 1 6 2 4 3 3 4 2 5 1 6 7 7 8 8 9 9 10 10
REMARK H PARENT 10 11
REMARK Flexibility Score: inf
ROOT
ATOM      1  C   UNL     1       2.122  -2.374  -4.930  1.00  0.00    -0.027 C 
ATOM      2  C   UNL     1       1.796  -3.436  -4.189  1.00  0.00    -0.005 C 
ENDROOT
BRANCH   1   3
ATOM      3  C   UNL     1       2.165  -0.992  -4.346  1.00  0.00     0.027 C 
BRANCH   3   4
ATOM      4  C   UNL     1       0.761  -0.503  -3.969  1.00  0.00     0.004 C 
BRANCH   4   5
ATOM      5  C   UNL     1      -0.157  -0.471  -5.195  1.00  0.00    -0.003 C 
ATOM      6  C   UNL     1      -1.385  -1.354  -4.988  1.00  0.00     0.004 C 
ENDBRANCH   4   5
ENDBRANCH   3   4
ENDBRANCH   1   3
BRANCH   2   7
ATOM      7  C   UNL     1       1.771  -4.788  -4.772  1.00  0.00    -0.002 C 
ATOM      8  C   UNL     1       1.452  -4.976  -6.054  1.00  0.00     0.001 C 
BRANCH   8   9
ATOM      9  C   UNL     1       1.414  -6.349  -6.655  1.00  0.00     0.183 C 
BRANCH   9  10
ATOM     10  O   UNL     1       1.054  -6.279  -8.009  1.00  0.00    -0.392 OA
ATOM     11  H   UNL     1       0.187  -6.752  -8.101  1.00  0.00     0.210 HD
ENDBRANCH   9  10
ENDBRANCH   8   9
ENDBRANCH   2   7
TORSDOF 6
ENDMDL
MODEL 4
REMARK VINA RESULT:    -3.584      2.987      4.710
REMARK INTER + INTRA:          -5.111
REMARK INTER:                  -4.893
REMARK INTRA:                  -0.218
REMARK UNBOUND:                -0.375
REMARK SMILES CCCCC=CC=CCO
REMARK SMILES IDX 5 1 6 2 4 3 3 4 2 5 1 6 7 7 8 8 9 9 10 10
REMARK H PARENT 10 11
REMARK Flexibility Score: inf
ROOT
ATOM      1  C   UNL     1       1.648  -3.868  -5.698  1.00  0.00    -0.027 C 
ATOM      2  C   UNL     1       1.530  -5.194  -5.589  1.00  0.00    -0.005 C 
ENDROOT
BRANCH   1   3
ATOM      3  C   UNL     1       1.710  -2.982  -4.488  1.00  0.00     0.027 C 
BRANCH   3   4
ATOM      4  C   UNL     1       2.040  -1.535  -4.875  1.00  0.00     0.004 C 
BRANCH   4   5
ATOM      5  C   UNL     1       1.032  -0.558  -4.259  1.00  0.00    -0.003 C 
ATOM      6  C   UNL     1      -0.229  -0.455  -5.112  1.00  0.00     0.004 C 
ENDBRANCH   4   5
ENDBRANCH   3   4
ENDBRANCH   1   3
BRANCH   2   7
ATOM      7  C   UNL     1       1.484  -6.052  -6.785  1.00  0.00    -0.002 C 
ATOM      8  C   UNL     1       2.473  -6.032  -7.681  1.00  0.00     0.001 C 
BRANCH   8   9
ATOM      9  C   UNL     1       2.432  -6.895  -8.907  1.00  0.00     0.183 C 
BRANCH   9  10
ATOM     10  O   UNL     1       1.124  -6.969  -9.408  1.00  0.00    -0.392 OA
ATOM     11  H   UNL     1       0.565  -7.373  -8.695  1.00  0.00     0.210 HD
ENDBRANCH   9  10
ENDBRANCH   8   9
ENDBRANCH   2   7
TORSDOF 6
ENDMDL
MODEL 5
REMARK VINA RESULT:    -3.532      1.300      2.476
REMARK INTER + INTRA:          -5.043
REMARK INTER:                  -4.657
REMARK INTRA:                  -0.385
REMARK UNBOUND:                -0.375
REMARK SMILES CCCCC=CC=CCO
REMARK SMILES IDX 5 1 6 2 4 3 3 4 2 5 1 6 7 7 8 8 9 9 10 10
REMARK H PARENT 10 11
REMARK Flexibility Score: inf
ROOT
ATOM      1  C   UNL     1       0.316  -3.993  -4.778  1.00  0.00    -0.027 C 
ATOM      2  C   UNL     1      -0.126  -3.714  -6.008  1.00  0.00    -0.005 C 
ENDROOT
BRANCH   1   3
ATOM      3  C   UNL     1       1.668  -3.539  -4.307  1.00  0.00     0.027 C 
BRANCH   3   4
ATOM      4  C   UNL     1       2.156  -2.323  -5.105  1.00  0.00     0.004 C 
BRANCH   4   5
ATOM      5  C   UNL     1       2.231  -1.077  -4.216  1.00  0.00    -0.003 C 
ATOM      6  C   UNL     1       0.881  -0.369  -4.144  1.00  0.00     0.004 C 
ENDBRANCH   4   5
ENDBRANCH   3   4
ENDBRANCH   1   3
BRANCH   2   7
ATOM      7  C   UNL     1      -1.459  -4.154  -6.451  1.00  0.00    -0.002 C 
ATOM      8  C   UNL     1      -2.504  -4.118  -5.623  1.00  0.00     0.001 C 
BRANCH   8   9
ATOM      9  C   UNL     1      -3.865  -4.572  -6.061  1.00  0.00     0.183 C 
BRANCH   9  10
ATOM     10  O   UNL     1      -4.195  -3.999  -7.298  1.00  0.00    -0.392 OA
ATOM     11  H   UNL     1      -3.372  -4.016  -7.851  1.00  0.00     0.210 HD
ENDBRANCH   9  10
ENDBRANCH   8   9
ENDBRANCH   2   7
TORSDOF 6
ENDMDL
MODEL 6
REMARK VINA RESULT:    -3.512      2.176      3.666
REMARK INTER + INTRA:          -5.016
REMARK INTER:                  -4.735
REMARK INTRA:                  -0.281
REMARK UNBOUND:                -0.375
REMARK SMILES CCCCC=CC=CCO
REMARK SMILES IDX 5 1 6 2 4 3 3 4 2 5 1 6 7 7 8 8 9 9 10 10
REMARK H PARENT 10 11
REMARK Flexibility Score: inf
ROOT
ATOM      1  C   UNL     1      -1.905  -4.525  -6.704  1.00  0.00    -0.027 C 
ATOM      2  C   UNL     1      -2.961  -4.106  -6.001  1.00  0.00    -0.005 C 
ENDROOT
BRANCH   1   3
ATOM      3  C   UNL     1      -0.503  -4.337  -6.203  1.00  0.00     0.027 C 
BRANCH   3   4
ATOM      4  C   UNL     1      -0.399  -3.113  -5.285  1.00  0.00     0.004 C 
BRANCH   4   5
ATOM      5  C   UNL     1       0.143  -1.899  -6.047  1.00  0.00    -0.003 C 
ATOM      6  C   UNL     1      -0.169  -0.600  -5.309  1.00  0.00     0.004 C 
ENDBRANCH   4   5
ENDBRANCH   3   4
ENDBRANCH   1   3
BRANCH   2   7
ATOM      7  C   UNL     1      -4.332  -4.309  -6.499  1.00  0.00    -0.002 C 
ATOM      8  C   UNL     1      -5.080  -5.320  -6.055  1.00  0.00     0.001 C 
BRANCH   8   9
ATOM      9  C   UNL     1      -6.474  -5.542  -6.562  1.00  0.00     0.183 C 
BRANCH   9  10
ATOM     10  O   UNL     1      -6.495  -5.505  -7.964  1.00  0.00    -0.392 OA
ATOM     11  H   UNL     1      -6.143  -4.618  -8.234  1.00  0.00     0.210 HD
ENDBRANCH   9  10
ENDBRANCH   8   9
ENDBRANCH   2   7
TORSDOF 6
ENDMDL
MODEL 7
REMARK VINA RESULT:    -3.485     11.645     12.813
REMARK INTER + INTRA:          -4.981
REMARK INTER:                  -4.598
REMARK INTRA:                  -0.383
REMARK UNBOUND:                -0.375
REMARK SMILES CCCCC=CC=CCO
REMARK SMILES IDX 5 1 6 2 4 3 3 4 2 5 1 6 7 7 8 8 9 9 10 10
REMARK H PARENT 10 11
REMARK Flexibility Score: inf
ROOT
ATOM      1  C   UNL     1      -2.291  10.121  -5.721  1.00  0.00    -0.027 C 
ATOM      2  C   UNL     1      -3.379  10.013  -4.953  1.00  0.00    -0.005 C 
ENDROOT
BRANCH   1   3
ATOM      3  C   UNL     1      -1.018   9.397  -5.388  1.00  0.00     0.027 C 
BRANCH   3   4
ATOM      4  C   UNL     1      -1.164   8.582  -4.096  1.00  0.00     0.004 C 
BRANCH   4   5
ATOM      5  C   UNL     1      -1.088   7.079  -4.384  1.00  0.00    -0.003 C 
ATOM      6  C   UNL     1      -2.467   6.430  -4.296  1.00  0.00     0.004 C 
ENDBRANCH   4   5
ENDBRANCH   3   4
ENDBRANCH   1   3
BRANCH   2   7
ATOM      7  C   UNL     1      -4.623  10.718  -5.300  1.00  0.00    -0.002 C 
ATOM      8  C   UNL     1      -4.860  11.953  -4.854  1.00  0.00     0.001 C 
BRANCH   8   9
ATOM      9  C   UNL     1      -6.128  12.677  -5.193  1.00  0.00     0.183 C 
BRANCH   9  10
ATOM     10  O   UNL     1      -6.661  12.190  -6.396  1.00  0.00    -0.392 OA
ATOM     11  H   UNL     1      -7.447  12.757  -6.612  1.00  0.00     0.210 HD
ENDBRANCH   9  10
ENDBRANCH   8   9
ENDBRANCH   2   7
TORSDOF 6
ENDMDL
MODEL 8
REMARK VINA RESULT:    -3.480      2.594      3.709
REMARK INTER + INTRA:          -4.974
REMARK INTER:                  -4.586
REMARK INTRA:                  -0.388
REMARK UNBOUND:                -0.375
REMARK SMILES CCCCC=CC=CCO
REMARK SMILES IDX 5 1 6 2 4 3 3 4 2 5 1 6 7 7 8 8 9 9 10 10
REMARK H PARENT 10 11
REMARK Flexibility Score: inf
ROOT
ATOM      1  C   UNL     1      -0.624  -2.993  -5.956  1.00  0.00    -0.027 C 
ATOM      2  C   UNL     1      -0.767  -4.237  -5.491  1.00  0.00    -0.005 C 
ENDROOT
BRANCH   1   3
ATOM      3  C   UNL     1      -1.275  -1.821  -5.280  1.00  0.00     0.027 C 
BRANCH   3   4
ATOM      4  C   UNL     1      -0.230  -0.813  -4.784  1.00  0.00     0.004 C 
BRANCH   4   5
ATOM      5  C   UNL     1       1.153  -1.125  -5.366  1.00  0.00    -0.003 C 
ATOM      6  C   UNL     1       2.226  -1.106  -4.281  1.00  0.00     0.004 C 
ENDBRANCH   4   5
ENDBRANCH   3   4
ENDBRANCH   1   3
BRANCH   2   7
ATOM      7  C   UNL     1      -0.111  -5.374  -6.157  1.00  0.00    -0.002 C 
ATOM      8  C   UNL     1       1.138  -5.273  -6.617  1.00  0.00     0.001 C 
BRANCH   8   9
ATOM      9  C   UNL     1       1.812  -6.423  -7.304  1.00  0.00     0.183 C 
BRANCH   9  10
ATOM     10  O   UNL     1       1.281  -6.602  -8.590  1.00  0.00    -0.392 OA
ATOM     11  H   UNL     1       0.924  -5.722  -8.879  1.00  0.00     0.210 HD
ENDBRANCH   9  10
ENDBRANCH   8   9
ENDBRANCH   2   7
TORSDOF 6
ENDMDL
MODEL 9
REMARK VINA RESULT:    -3.402     10.701     12.249
REMARK INTER + INTRA:          -4.871
REMARK INTER:                  -4.531
REMARK INTRA:                  -0.340
REMARK UNBOUND:                -0.375
REMARK SMILES CCCCC=CC=CCO
REMARK SMILES IDX 5 1 6 2 4 3 3 4 2 5 1 6 7 7 8 8 9 9 10 10
REMARK H PARENT 10 11
REMARK Flexibility Score: inf
ROOT
ATOM      1  C   UNL     1      -0.434   9.992  -6.064  1.00  0.00    -0.027 C 
ATOM      2  C   UNL     1      -1.143   9.675  -4.977  1.00  0.00    -0.005 C 
ENDROOT
BRANCH   1   3
ATOM      3  C   UNL     1       0.266  11.314  -6.187  1.00  0.00     0.027 C 
BRANCH   3   4
ATOM      4  C   UNL     1      -0.453  12.402  -5.380  1.00  0.00     0.004 C 
BRANCH   4   5
ATOM      5  C   UNL     1       0.472  12.996  -4.313  1.00  0.00    -0.003 C 
ATOM      6  C   UNL     1       1.931  12.642  -4.587  1.00  0.00     0.004 C 
ENDBRANCH   4   5
ENDBRANCH   3   4
ENDBRANCH   1   3
BRANCH   2   7
ATOM      7  C   UNL     1      -1.813   8.369  -4.865  1.00  0.00    -0.002 C 
ATOM      8  C   UNL     1      -1.190   7.322  -4.321  1.00  0.00     0.001 C 
BRANCH   8   9
ATOM      9  C   UNL     1      -1.860   5.985  -4.210  1.00  0.00     0.183 C 
BRANCH   9  10
ATOM     10  O   UNL     1      -3.181   6.061  -4.675  1.00  0.00    -0.392 OA
ATOM     11  H   UNL     1      -3.380   5.195  -5.117  1.00  0.00     0.210 HD
ENDBRANCH   9  10
ENDBRANCH   8   9
ENDBRANCH   2   7
TORSDOF 6
ENDMDL
