MODEL 1
REMARK VINA RESULT:    -3.473      0.000      0.000
REMARK INTER + INTRA:          -3.473
REMARK INTER:                  -3.473
REMARK INTRA:                   0.000
REMARK UNBOUND:                 0.000
REMARK SMILES CC1=CC(=O)[C@@H]2C[C@H]1C2(C)C
REMARK SMILES IDX 1 1 2 2 3 3 4 4 5 5 6 6 7 7 8 8 9 9 10 10 11 11
REMARK H PARENT
REMARK Flexibility Score: inf
ROOT
ATOM      1  C   UNL     1       5.504  40.059  92.630  1.00  0.00     0.040 C 
ATOM      2  C   UNL     1       4.991  38.725  93.070  1.00  0.00    -0.066 C 
ATOM      3  C   UNL     1       4.138  37.985  92.304  1.00  0.00     0.047 C 
ATOM      4  C   UNL     1       3.710  36.667  92.875  1.00  0.00     0.159 C 
ATOM      5  O   UNL     1       2.960  35.875  92.248  1.00  0.00    -0.295 OA
ATOM      6  C   UNL     1       4.247  36.353  94.273  1.00  0.00     0.067 C 
ATOM      7  C   UNL     1       4.032  37.663  95.062  1.00  0.00     0.021 C 
ATOM      8  C   UNL     1       5.365  38.148  94.450  1.00  0.00     0.022 C 
ATOM      9  C   UNL     1       5.773  36.654  94.295  1.00  0.00    -0.019 C 
ATOM     10  C   UNL     1       6.624  36.250  93.059  1.00  0.00     0.012 C 
ATOM     11  C   UNL     1       6.466  36.098  95.565  1.00  0.00     0.012 C 
ENDROOT
TORSDOF 0
ENDMDL
MODEL 2
REMARK VINA RESULT:    -3.436      1.709      2.350
REMARK INTER + INTRA:          -3.436
REMARK INTER:                  -3.436
REMARK INTRA:                   0.000
REMARK UNBOUND:                 0.000
REMARK SMILES CC1=CC(=O)[C@@H]2C[C@H]1C2(C)C
REMARK SMILES IDX 1 1 2 2 3 3 4 4 5 5 6 6 7 7 8 8 9 9 10 10 11 11
REMARK H PARENT
REMARK Flexibility Score: inf
ROOT
ATOM      1  C   UNL     1       5.130  40.160  92.339  1.00  0.00     0.040 C 
ATOM      2  C   UNL     1       5.352  38.711  92.642  1.00  0.00    -0.066 C 
ATOM      3  C   UNL     1       6.456  38.039  92.209  1.00  0.00     0.047 C 
ATOM      4  C   UNL     1       6.543  36.592  92.590  1.00  0.00     0.159 C 
ATOM      5  O   UNL     1       7.531  35.875  92.287  1.00  0.00    -0.295 OA
ATOM      6  C   UNL     1       5.346  36.048  93.372  1.00  0.00     0.067 C 
ATOM      7  C   UNL     1       4.118  36.592  92.609  1.00  0.00     0.021 C 
ATOM      8  C   UNL     1       4.300  37.895  93.419  1.00  0.00     0.022 C 
ATOM      9  C   UNL     1       5.008  37.047  94.516  1.00  0.00    -0.019 C 
ATOM     10  C   UNL     1       6.182  37.696  95.301  1.00  0.00     0.012 C 
ATOM     11  C   UNL     1       4.006  36.455  95.540  1.00  0.00     0.012 C 
ENDROOT
TORSDOF 0
ENDMDL
MODEL 3
REMARK VINA RESULT:    -3.011     16.767     17.988
REMARK INTER + INTRA:          -3.011
REMARK INTER:                  -3.011
REMARK INTRA:                   0.000
REMARK UNBOUND:                 0.000
REMARK SMILES CC1=CC(=O)[C@@H]2C[C@H]1C2(C)C
REMARK SMILES IDX 1 1 2 2 3 3 4 4 5 5 6 6 7 7 8 8 9 9 10 10 11 11
REMARK H PARENT
REMARK Flexibility Score: inf
ROOT
ATOM      1  C   UNL     1      23.031  40.245  87.715  1.00  0.00     0.040 C 
ATOM      2  C   UNL     1      22.202  40.946  88.745  1.00  0.00    -0.066 C 
ATOM      3  C   UNL     1      21.082  40.385  89.283  1.00  0.00     0.047 C 
ATOM      4  C   UNL     1      20.355  41.205  90.304  1.00  0.00     0.159 C 
ATOM      5  O   UNL     1      19.333  40.782  90.903  1.00  0.00    -0.295 OA
ATOM      6  C   UNL     1      20.941  42.594  90.567  1.00  0.00     0.067 C 
ATOM      7  C   UNL     1      21.223  43.157  89.157  1.00  0.00     0.021 C 
ATOM      8  C   UNL     1      22.555  42.375  89.206  1.00  0.00     0.022 C 
ATOM      9  C   UNL     1      22.478  42.453  90.758  1.00  0.00    -0.019 C 
ATOM     10  C   UNL     1      23.013  41.248  91.581  1.00  0.00     0.012 C 
ATOM     11  C   UNL     1      23.124  43.747  91.316  1.00  0.00     0.012 C 
ENDROOT
TORSDOF 0
ENDMDL
MODEL 4
REMARK VINA RESULT:    -2.983     16.301     17.601
REMARK INTER + INTRA:          -2.983
REMARK INTER:                  -2.983
REMARK INTRA:                   0.000
REMARK UNBOUND:                 0.000
REMARK SMILES CC1=CC(=O)[C@@H]2C[C@H]1C2(C)C
REMARK SMILES IDX 1 1 2 2 3 3 4 4 5 5 6 6 7 7 8 8 9 9 10 10 11 11
REMARK H PARENT
REMARK Flexibility Score: inf
ROOT
ATOM      1  C   UNL     1      21.448  43.272  88.870  1.00  0.00     0.040 C 
ATOM      2  C   UNL     1      21.697  41.920  89.461  1.00  0.00    -0.066 C 
ATOM      3  C   UNL     1      22.309  41.755  90.668  1.00  0.00     0.047 C 
ATOM      4  C   UNL     1      22.489  40.340  91.131  1.00  0.00     0.159 C 
ATOM      5  O   UNL     1      23.000  40.058  92.245  1.00  0.00    -0.295 OA
ATOM      6  C   UNL     1      22.007  39.265  90.155  1.00  0.00     0.067 C 
ATOM      7  C   UNL     1      22.558  39.724  88.787  1.00  0.00     0.021 C 
ATOM      8  C   UNL     1      21.317  40.638  88.691  1.00  0.00     0.022 C 
ATOM      9  C   UNL     1      20.588  39.654  89.652  1.00  0.00    -0.019 C 
ATOM     10  C   UNL     1      19.576  40.241  90.676  1.00  0.00     0.012 C 
ATOM     11  C   UNL     1      19.893  38.496  88.892  1.00  0.00     0.012 C 
ENDROOT
TORSDOF 0
ENDMDL
MODEL 5
REMARK VINA RESULT:    -2.937     16.771     17.984
REMARK INTER + INTRA:          -2.937
REMARK INTER:                  -2.937
REMARK INTRA:                   0.000
REMARK UNBOUND:                 0.000
REMARK SMILES CC1=CC(=O)[C@@H]2C[C@H]1C2(C)C
REMARK SMILES IDX 1 1 2 2 3 3 4 4 5 5 6 6 7 7 8 8 9 9 10 10 11 11
REMARK H PARENT
REMARK Flexibility Score: inf
ROOT
ATOM      1  C   UNL     1      22.829  43.823  89.011  1.00  0.00     0.040 C 
ATOM      2  C   UNL     1      22.274  42.501  89.440  1.00  0.00    -0.066 C 
ATOM      3  C   UNL     1      21.028  42.376  89.979  1.00  0.00     0.047 C 
ATOM      4  C   UNL     1      20.608  40.989  90.360  1.00  0.00     0.159 C 
ATOM      5  O   UNL     1      19.468  40.737  90.827  1.00  0.00    -0.295 OA
ATOM      6  C   UNL     1      21.662  39.902  90.141  1.00  0.00     0.067 C 
ATOM      7  C   UNL     1      22.961  40.517  90.708  1.00  0.00     0.021 C 
ATOM      8  C   UNL     1      23.122  41.217  89.340  1.00  0.00     0.022 C 
ATOM      9  C   UNL     1      22.265  40.077  88.718  1.00  0.00    -0.019 C 
ATOM     10  C   UNL     1      21.306  40.434  87.548  1.00  0.00     0.012 C 
ATOM     11  C   UNL     1      23.125  38.861  88.288  1.00  0.00     0.012 C 
ENDROOT
TORSDOF 0
ENDMDL
MODEL 6
REMARK VINA RESULT:    -2.868     15.979     17.121
REMARK INTER + INTRA:          -2.868
REMARK INTER:                  -2.868
REMARK INTRA:                   0.000
REMARK UNBOUND:                 0.000
REMARK SMILES CC1=CC(=O)[C@@H]2C[C@H]1C2(C)C
REMARK SMILES IDX 1 1 2 2 3 3 4 4 5 5 6 6 7 7 8 8 9 9 10 10 11 11
REMARK H PARENT
REMARK Flexibility Score: inf
ROOT
ATOM      1  C   UNL     1      18.627  40.714  94.203  1.00  0.00     0.040 C 
ATOM      2  C   UNL     1      19.738  41.500  93.581  1.00  0.00    -0.066 C 
ATOM      3  C   UNL     1      20.186  42.672  94.114  1.00  0.00     0.047 C 
ATOM      4  C   UNL     1      21.306  43.347  93.381  1.00  0.00     0.159 C 
ATOM      5  O   UNL     1      21.835  44.411  93.795  1.00  0.00    -0.295 OA
ATOM      6  C   UNL     1      21.761  42.652  92.096  1.00  0.00     0.067 C 
ATOM      7  C   UNL     1      20.443  42.300  91.372  1.00  0.00     0.021 C 
ATOM      8  C   UNL     1      20.393  41.039  92.263  1.00  0.00     0.022 C 
ATOM      9  C   UNL     1      21.941  41.136  92.392  1.00  0.00    -0.019 C 
ATOM     10  C   UNL     1      22.594  40.718  93.739  1.00  0.00     0.012 C 
ATOM     11  C   UNL     1      22.674  40.395  91.245  1.00  0.00     0.012 C 
ENDROOT
TORSDOF 0
ENDMDL
MODEL 7
REMARK VINA RESULT:    -2.867     16.409     17.496
REMARK INTER + INTRA:          -2.867
REMARK INTER:                  -2.867
REMARK INTRA:                   0.000
REMARK UNBOUND:                 0.000
REMARK SMILES CC1=CC(=O)[C@@H]2C[C@H]1C2(C)C
REMARK SMILES IDX 1 1 2 2 3 3 4 4 5 5 6 6 7 7 8 8 9 9 10 10 11 11
REMARK H PARENT
REMARK Flexibility Score: inf
ROOT
ATOM      1  C   UNL     1      21.654  43.343  88.873  1.00  0.00     0.040 C 
ATOM      2  C   UNL     1      21.607  42.352  89.993  1.00  0.00    -0.066 C 
ATOM      3  C   UNL     1      22.507  41.333  90.100  1.00  0.00     0.047 C 
ATOM      4  C   UNL     1      22.335  40.419  91.276  1.00  0.00     0.159 C 
ATOM      5  O   UNL     1      23.125  39.468  91.509  1.00  0.00    -0.295 OA
ATOM      6  C   UNL     1      21.132  40.722  92.171  1.00  0.00     0.067 C 
ATOM      7  C   UNL     1      19.973  40.958  91.178  1.00  0.00     0.021 C 
ATOM      8  C   UNL     1      20.490  42.409  91.054  1.00  0.00     0.022 C 
ATOM      9  C   UNL     1      21.112  42.249  92.471  1.00  0.00    -0.019 C 
ATOM     10  C   UNL     1      22.462  42.961  92.766  1.00  0.00     0.012 C 
ATOM     11  C   UNL     1      20.113  42.615  93.598  1.00  0.00     0.012 C 
ENDROOT
TORSDOF 0
ENDMDL
MODEL 8
REMARK VINA RESULT:    -2.854     15.687     16.686
REMARK INTER + INTRA:          -2.854
REMARK INTER:                  -2.854
REMARK INTRA:                   0.000
REMARK UNBOUND:                 0.000
REMARK SMILES CC1=CC(=O)[C@@H]2C[C@H]1C2(C)C
REMARK SMILES IDX 1 1 2 2 3 3 4 4 5 5 6 6 7 7 8 8 9 9 10 10 11 11
REMARK H PARENT
REMARK Flexibility Score: inf
ROOT
ATOM      1  C   UNL     1      21.244  43.040  89.580  1.00  0.00     0.040 C 
ATOM      2  C   UNL     1      20.873  42.268  90.807  1.00  0.00    -0.066 C 
ATOM      3  C   UNL     1      20.089  41.154  90.756  1.00  0.00     0.047 C 
ATOM      4  C   UNL     1      19.802  40.485  92.066  1.00  0.00     0.159 C 
ATOM      5  O   UNL     1      19.128  39.427  92.147  1.00  0.00    -0.295 OA
ATOM      6  C   UNL     1      20.386  41.181  93.298  1.00  0.00     0.067 C 
ATOM      7  C   UNL     1      20.051  42.673  93.083  1.00  0.00     0.021 C 
ATOM      8  C   UNL     1      21.321  42.741  92.205  1.00  0.00     0.022 C 
ATOM      9  C   UNL     1      21.874  41.529  93.009  1.00  0.00    -0.019 C 
ATOM     10  C   UNL     1      22.746  40.485  92.257  1.00  0.00     0.012 C 
ATOM     11  C   UNL     1      22.636  41.969  94.286  1.00  0.00     0.012 C 
ENDROOT
TORSDOF 0
ENDMDL
MODEL 9
REMARK VINA RESULT:    -2.816     16.070     17.165
REMARK INTER + INTRA:          -2.816
REMARK INTER:                  -2.816
REMARK INTRA:                   0.000
REMARK UNBOUND:                 0.000
REMARK SMILES CC1=CC(=O)[C@@H]2C[C@H]1C2(C)C
REMARK SMILES IDX 1 1 2 2 3 3 4 4 5 5 6 6 7 7 8 8 9 9 10 10 11 11
REMARK H PARENT
REMARK Flexibility Score: inf
ROOT
ATOM      1  C   UNL     1      22.103  44.784  93.357  1.00  0.00     0.040 C 
ATOM      2  C   UNL     1      21.593  43.382  93.247  1.00  0.00    -0.066 C 
ATOM      3  C   UNL     1      20.377  43.010  93.739  1.00  0.00     0.047 C 
ATOM      4  C   UNL     1      19.999  41.571  93.554  1.00  0.00     0.159 C 
ATOM      5  O   UNL     1      18.887  41.115  93.926  1.00  0.00    -0.295 OA
ATOM      6  C   UNL     1      21.060  40.697  92.883  1.00  0.00     0.067 C 
ATOM      7  C   UNL     1      22.374  41.083  93.597  1.00  0.00     0.021 C 
ATOM      8  C   UNL     1      22.457  42.272  92.614  1.00  0.00     0.022 C 
ATOM      9  C   UNL     1      21.590  41.441  91.624  1.00  0.00    -0.019 C 
ATOM     10  C   UNL     1      20.569  42.198  90.729  1.00  0.00     0.012 C 
ATOM     11  C   UNL     1      22.449  40.526  90.715  1.00  0.00     0.012 C 
ENDROOT
TORSDOF 0
ENDMDL
