MODEL 1
REMARK VINA RESULT:    10.068      0.000      0.000
REMARK INTER + INTRA:          16.967
REMARK INTER:                  17.720
REMARK INTRA:                  -0.753
REMARK UNBOUND:                -0.753
REMARK SMILES CCCCCCC=CCCCCCCCC(=O)[O-]
REMARK SMILES IDX 10 1 11 2 12 3 13 4 14 5 15 6 16 7 17 8 18 9 9 10 8 11 7 12
REMARK SMILES IDX 6 13 5 14 4 15 3 16 2 17 1 18
REMARK H PARENT
REMARK Flexibility Score: inf
ROOT
ATOM      1  C   UNL     1      78.265   2.379  61.980  1.00  0.00     0.004 C 
ENDROOT
BRANCH   1   2
ATOM      2  C   UNL     1      77.966   0.874  62.045  1.00  0.00     0.000 C 
BRANCH   2   3
ATOM      3  C   UNL     1      77.698   0.385  63.480  1.00  0.00     0.000 C 
BRANCH   3   4
ATOM      4  C   UNL     1      78.963   0.392  64.352  1.00  0.00     0.000 C 
BRANCH   4   5
ATOM      5  C   UNL     1      78.746  -0.293  65.712  1.00  0.00     0.006 C 
BRANCH   5   6
ATOM      6  C   UNL     1      80.023  -0.972  66.229  1.00  0.00     0.053 C 
BRANCH   6   7
ATOM      7  C   UNL     1      79.760  -1.785  67.459  1.00  0.00     0.041 C 
ATOM      8  O   UNL     1      80.719  -2.258  68.124  1.00  0.00    -0.550 OA
ATOM      9  O   UNL     1      78.454  -2.045  67.854  1.00  0.00    -0.550 OA
ENDBRANCH   6   7
ENDBRANCH   5   6
ENDBRANCH   4   5
ENDBRANCH   3   4
ENDBRANCH   2   3
ENDBRANCH   1   2
BRANCH   1  10
ATOM     10  C   UNL     1      77.089   3.236  62.471  1.00  0.00     0.027 C 
BRANCH  10  11
ATOM     11  C   UNL     1      77.573   4.528  63.071  1.00  0.00    -0.031 C 
ATOM     12  C   UNL     1      78.610   4.563  63.922  1.00  0.00    -0.031 C 
BRANCH  12  13
ATOM     13  C   UNL     1      79.093   5.855  64.523  1.00  0.00     0.027 C 
BRANCH  13  14
ATOM     14  C   UNL     1      77.963   6.895  64.576  1.00  0.00     0.004 C 
BRANCH  14  15
ATOM     15  C   UNL     1      77.871   7.603  65.937  1.00  0.00     0.000 C 
BRANCH  15  16
ATOM     16  C   UNL     1      77.275   9.017  65.827  1.00  0.00    -0.000 C 
BRANCH  16  17
ATOM     17  C   UNL     1      77.927  10.008  66.804  1.00  0.00    -0.003 C 
ATOM     18  C   UNL     1      76.973  11.116  67.251  1.00  0.00     0.004 C 
ENDBRANCH  16  17
ENDBRANCH  15  16
ENDBRANCH  14  15
ENDBRANCH  13  14
ENDBRANCH  12  13
ENDBRANCH  10  11
ENDBRANCH   1  10
TORSDOF 13
ENDMDL
MODEL 2
REMARK VINA RESULT:    12.003      4.293      8.444
REMARK INTER + INTRA:          20.371
REMARK INTER:                  20.525
REMARK INTRA:                  -0.154
REMARK UNBOUND:                -0.753
REMARK SMILES CCCCCCC=CCCCCCCCC(=O)[O-]
REMARK SMILES IDX 10 1 11 2 12 3 13 4 14 5 15 6 16 7 17 8 18 9 9 10 8 11 7 12
REMARK SMILES IDX 6 13 5 14 4 15 3 16 2 17 1 18
REMARK H PARENT
REMARK Flexibility Score: inf
ROOT
ATOM      1  C   UNL     1      76.981   3.916  62.631  1.00  0.00     0.004 C 
ENDROOT
BRANCH   1   2
ATOM      2  C   UNL     1      78.365   4.248  63.210  1.00  0.00     0.000 C 
BRANCH   2   3
ATOM      3  C   UNL     1      78.284   5.142  64.460  1.00  0.00     0.000 C 
BRANCH   3   4
ATOM      4  C   UNL     1      78.801   6.567  64.203  1.00  0.00     0.000 C 
BRANCH   4   5
ATOM      5  C   UNL     1      80.323   6.612  63.991  1.00  0.00     0.006 C 
BRANCH   5   6
ATOM      6  C   UNL     1      80.778   7.924  63.336  1.00  0.00     0.053 C 
BRANCH   6   7
ATOM      7  C   UNL     1      81.815   8.626  64.159  1.00  0.00     0.041 C 
ATOM      8  O   UNL     1      81.617   9.803  64.561  1.00  0.00    -0.550 OA
ATOM      9  O   UNL     1      83.013   7.989  64.457  1.00  0.00    -0.550 OA
ENDBRANCH   6   7
ENDBRANCH   5   6
ENDBRANCH   4   5
ENDBRANCH   3   4
ENDBRANCH   2   3
ENDBRANCH   1   2
BRANCH   1  10
ATOM     10  C   UNL     1      76.925   2.514  62.006  1.00  0.00     0.027 C 
BRANCH  10  11
ATOM     11  C   UNL     1      78.060   1.655  62.494  1.00  0.00    -0.031 C 
ATOM     12  C   UNL     1      78.014   1.043  63.686  1.00  0.00    -0.031 C 
BRANCH  12  13
ATOM     13  C   UNL     1      79.150   0.186  64.175  1.00  0.00     0.027 C 
BRANCH  13  14
ATOM     14  C   UNL     1      78.987  -0.151  65.665  1.00  0.00     0.004 C 
BRANCH  14  15
ATOM     15  C   UNL     1      80.208  -0.882  66.246  1.00  0.00     0.000 C 
BRANCH  15  16
ATOM     16  C   UNL     1      80.019  -1.261  67.725  1.00  0.00    -0.000 C 
BRANCH  16  17
ATOM     17  C   UNL     1      79.252  -2.580  67.900  1.00  0.00    -0.003 C 
ATOM     18  C   UNL     1      77.772  -2.460  67.533  1.00  0.00     0.004 C 
ENDBRANCH  16  17
ENDBRANCH  15  16
ENDBRANCH  14  15
ENDBRANCH  13  14
ENDBRANCH  12  13
ENDBRANCH  10  11
ENDBRANCH   1  10
TORSDOF 13
ENDMDL
MODEL 3
REMARK VINA RESULT:    12.641      4.264      8.740
REMARK INTER + INTRA:          21.495
REMARK INTER:                  21.942
REMARK INTRA:                  -0.447
REMARK UNBOUND:                -0.753
REMARK SMILES CCCCCCC=CCCCCCCCC(=O)[O-]
REMARK SMILES IDX 10 1 11 2 12 3 13 4 14 5 15 6 16 7 17 8 18 9 9 10 8 11 7 12
REMARK SMILES IDX 6 13 5 14 4 15 3 16 2 17 1 18
REMARK H PARENT
REMARK Flexibility Score: inf
ROOT
ATOM      1  C   UNL     1      77.353   3.964  62.964  1.00  0.00     0.004 C 
ENDROOT
BRANCH   1   2
ATOM      2  C   UNL     1      78.755   4.466  63.342  1.00  0.00     0.000 C 
BRANCH   2   3
ATOM      3  C   UNL     1      78.746   5.358  64.596  1.00  0.00     0.000 C 
BRANCH   3   4
ATOM      4  C   UNL     1      77.971   6.669  64.384  1.00  0.00     0.000 C 
BRANCH   4   5
ATOM      5  C   UNL     1      78.396   7.771  65.368  1.00  0.00     0.006 C 
BRANCH   5   6
ATOM      6  C   UNL     1      77.199   8.583  65.881  1.00  0.00     0.053 C 
BRANCH   6   7
ATOM      7  C   UNL     1      77.636   9.814  66.614  1.00  0.00     0.041 C 
ATOM      8  O   UNL     1      78.677   9.796  67.322  1.00  0.00    -0.550 OA
ATOM      9  O   UNL     1      76.875  10.975  66.540  1.00  0.00    -0.550 OA
ENDBRANCH   6   7
ENDBRANCH   5   6
ENDBRANCH   4   5
ENDBRANCH   3   4
ENDBRANCH   2   3
ENDBRANCH   1   2
BRANCH   1  10
ATOM     10  C   UNL     1      77.394   2.706  62.084  1.00  0.00     0.027 C 
BRANCH  10  11
ATOM     11  C   UNL     1      77.313   1.457  62.919  1.00  0.00    -0.031 C 
ATOM     12  C   UNL     1      78.291   1.117  63.771  1.00  0.00    -0.031 C 
BRANCH  12  13
ATOM     13  C   UNL     1      78.210  -0.132  64.605  1.00  0.00     0.027 C 
BRANCH  13  14
ATOM     14  C   UNL     1      79.506  -0.352  65.400  1.00  0.00     0.004 C 
BRANCH  14  15
ATOM     15  C   UNL     1      79.267  -0.426  66.917  1.00  0.00     0.000 C 
BRANCH  15  16
ATOM     16  C   UNL     1      78.710  -1.790  67.359  1.00  0.00    -0.000 C 
BRANCH  16  17
ATOM     17  C   UNL     1      79.651  -2.523  68.328  1.00  0.00    -0.003 C 
ATOM     18  C   UNL     1      81.123  -2.170  68.107  1.00  0.00     0.004 C 
ENDBRANCH  16  17
ENDBRANCH  15  16
ENDBRANCH  14  15
ENDBRANCH  13  14
ENDBRANCH  12  13
ENDBRANCH  10  11
ENDBRANCH   1  10
TORSDOF 13
ENDMDL
MODEL 4
REMARK VINA RESULT:    12.717      4.409      9.060
REMARK INTER + INTRA:          21.629
REMARK INTER:                  22.158
REMARK INTRA:                  -0.529
REMARK UNBOUND:                -0.753
REMARK SMILES CCCCCCC=CCCCCCCCC(=O)[O-]
REMARK SMILES IDX 10 1 11 2 12 3 13 4 14 5 15 6 16 7 17 8 18 9 9 10 8 11 7 12
REMARK SMILES IDX 6 13 5 14 4 15 3 16 2 17 1 18
REMARK H PARENT
REMARK Flexibility Score: inf
ROOT
ATOM      1  C   UNL     1      78.585   5.217  64.047  1.00  0.00     0.004 C 
ENDROOT
BRANCH   1   2
ATOM      2  C   UNL     1      77.874   6.553  64.309  1.00  0.00     0.000 C 
BRANCH   2   3
ATOM      3  C   UNL     1      78.594   7.409  65.366  1.00  0.00     0.000 C 
BRANCH   3   4
ATOM      4  C   UNL     1      77.621   8.240  66.218  1.00  0.00     0.000 C 
BRANCH   4   5
ATOM      5  C   UNL     1      77.982   9.734  66.240  1.00  0.00     0.006 C 
BRANCH   5   6
ATOM      6  C   UNL     1      78.974  10.074  67.361  1.00  0.00     0.053 C 
BRANCH   6   7
ATOM      7  C   UNL     1      80.328  10.418  66.821  1.00  0.00     0.041 C 
ATOM      8  O   UNL     1      80.529  10.441  65.578  1.00  0.00    -0.550 OA
ATOM      9  O   UNL     1      81.377  10.684  67.692  1.00  0.00    -0.550 OA
ENDBRANCH   6   7
ENDBRANCH   5   6
ENDBRANCH   4   5
ENDBRANCH   3   4
ENDBRANCH   2   3
ENDBRANCH   1   2
BRANCH   1  10
ATOM     10  C   UNL     1      77.799   4.309  63.090  1.00  0.00     0.027 C 
BRANCH  10  11
ATOM     11  C   UNL     1      78.277   2.885  63.177  1.00  0.00    -0.031 C 
ATOM     12  C   UNL     1      77.438   1.878  63.466  1.00  0.00    -0.031 C 
BRANCH  12  13
ATOM     13  C   UNL     1      77.917   0.455  63.554  1.00  0.00     0.027 C 
BRANCH  13  14
ATOM     14  C   UNL     1      79.128   0.337  64.493  1.00  0.00     0.004 C 
BRANCH  14  15
ATOM     15  C   UNL     1      78.875  -0.620  65.670  1.00  0.00     0.000 C 
BRANCH  15  16
ATOM     16  C   UNL     1      80.146  -0.883  66.498  1.00  0.00    -0.000 C 
BRANCH  16  17
ATOM     17  C   UNL     1      79.879  -1.785  67.713  1.00  0.00    -0.003 C 
ATOM     18  C   UNL     1      78.464  -2.366  67.722  1.00  0.00     0.004 C 
ENDBRANCH  16  17
ENDBRANCH  15  16
ENDBRANCH  14  15
ENDBRANCH  13  14
ENDBRANCH  12  13
ENDBRANCH  10  11
ENDBRANCH   1  10
TORSDOF 13
ENDMDL
