MODEL 1
REMARK VINA RESULT:    -4.572      0.000      0.000
REMARK INTER + INTRA:          -4.941
REMARK INTER:                  -4.839
REMARK INTRA:                  -0.102
REMARK UNBOUND:                -0.102
REMARK SMILES C=C(C)[C@@H]1CC=C(C)C(=O)C1
REMARK SMILES IDX 8 1 7 2 6 3 5 4 4 5 11 6 9 7 10 8 2 9 1 10 3 11
REMARK H PARENT
REMARK Flexibility Score: inf
ROOT
ATOM      1  C   UNL     1      60.923  65.000  46.558  1.00  0.00     0.048 C 
ATOM      2  C   UNL     1      60.553  65.177  45.112  1.00  0.00    -0.012 C 
ATOM      3  C   UNL     1      60.216  64.111  44.365  1.00  0.00    -0.019 C 
ATOM      4  C   UNL     1      59.761  64.247  42.936  1.00  0.00     0.036 C 
ATOM      5  C   UNL     1      60.415  65.466  42.258  1.00  0.00     0.025 C 
ATOM      6  C   UNL     1      60.150  66.742  43.079  1.00  0.00     0.089 C 
ATOM      7  C   UNL     1      60.538  66.537  44.518  1.00  0.00     0.158 C 
ATOM      8  O   UNL     1      60.807  67.541  45.230  1.00  0.00    -0.295 OA
ENDROOT
BRANCH   5   9
ATOM      9  C   UNL     1      59.960  65.620  40.815  1.00  0.00    -0.077 C 
ATOM     10  C   UNL     1      60.164  66.762  40.132  1.00  0.00     0.008 C 
ATOM     11  C   UNL     1      59.265  64.461  40.151  1.00  0.00     0.039 C 
ENDBRANCH   5   9
TORSDOF 1
ENDMDL
MODEL 2
REMARK VINA RESULT:    -4.521     16.562     17.629
REMARK INTER + INTRA:          -4.887
REMARK INTER:                  -4.789
REMARK INTRA:                  -0.098
REMARK UNBOUND:                -0.102
REMARK SMILES C=C(C)[C@@H]1CC=C(C)C(=O)C1
REMARK SMILES IDX 8 1 7 2 6 3 5 4 4 5 11 6 9 7 10 8 2 9 1 10 3 11
REMARK H PARENT
REMARK Flexibility Score: inf
ROOT
ATOM      1  C   UNL     1      42.289  59.555  40.784  1.00  0.00     0.048 C 
ATOM      2  C   UNL     1      42.805  60.314  41.976  1.00  0.00    -0.012 C 
ATOM      3  C   UNL     1      42.078  61.311  42.509  1.00  0.00    -0.019 C 
ATOM      4  C   UNL     1      42.513  62.045  43.748  1.00  0.00     0.036 C 
ATOM      5  C   UNL     1      44.050  62.093  43.854  1.00  0.00     0.025 C 
ATOM      6  C   UNL     1      44.637  60.671  43.781  1.00  0.00     0.089 C 
ATOM      7  C   UNL     1      44.110  59.942  42.576  1.00  0.00     0.158 C 
ATOM      8  O   UNL     1      44.770  58.976  42.107  1.00  0.00    -0.295 OA
ENDROOT
BRANCH   5   9
ATOM      9  C   UNL     1      44.506  62.827  45.106  1.00  0.00    -0.077 C 
ATOM     10  C   UNL     1      45.251  62.217  46.045  1.00  0.00     0.008 C 
ATOM     11  C   UNL     1      44.104  64.268  45.283  1.00  0.00     0.039 C 
ENDBRANCH   5   9
TORSDOF 1
ENDMDL
MODEL 3
REMARK VINA RESULT:    -4.501     11.907     13.209
REMARK INTER + INTRA:          -4.866
REMARK INTER:                  -4.764
REMARK INTRA:                  -0.102
REMARK UNBOUND:                -0.102
REMARK SMILES C=C(C)[C@@H]1CC=C(C)C(=O)C1
REMARK SMILES IDX 8 1 7 2 6 3 5 4 4 5 11 6 9 7 10 8 2 9 1 10 3 11
REMARK H PARENT
REMARK Flexibility Score: inf
ROOT
ATOM      1  C   UNL     1      54.938  69.130  31.405  1.00  0.00     0.048 C 
ATOM      2  C   UNL     1      56.404  69.462  31.365  1.00  0.00    -0.012 C 
ATOM      3  C   UNL     1      56.832  70.553  30.706  1.00  0.00    -0.019 C 
ATOM      4  C   UNL     1      58.278  70.971  30.705  1.00  0.00     0.036 C 
ATOM      5  C   UNL     1      59.210  69.749  30.824  1.00  0.00     0.025 C 
ATOM      6  C   UNL     1      58.844  68.916  32.067  1.00  0.00     0.089 C 
ATOM      7  C   UNL     1      57.375  68.593  32.074  1.00  0.00     0.158 C 
ATOM      8  O   UNL     1      56.969  67.597  32.732  1.00  0.00    -0.295 OA
ENDROOT
BRANCH   5   9
ATOM      9  C   UNL     1      60.675  70.156  30.831  1.00  0.00    -0.077 C 
ATOM     10  C   UNL     1      61.635  69.316  31.257  1.00  0.00     0.008 C 
ATOM     11  C   UNL     1      61.042  71.534  30.347  1.00  0.00     0.039 C 
ENDBRANCH   5   9
TORSDOF 1
ENDMDL
MODEL 4
REMARK VINA RESULT:    -4.496      3.033      5.042
REMARK INTER + INTRA:          -4.860
REMARK INTER:                  -4.763
REMARK INTRA:                  -0.097
REMARK UNBOUND:                -0.102
REMARK SMILES C=C(C)[C@@H]1CC=C(C)C(=O)C1
REMARK SMILES IDX 8 1 7 2 6 3 5 4 4 5 11 6 9 7 10 8 2 9 1 10 3 11
REMARK H PARENT
REMARK Flexibility Score: inf
ROOT
ATOM      1  C   UNL     1      60.702  66.017  45.229  1.00  0.00     0.048 C 
ATOM      2  C   UNL     1      60.502  64.527  45.269  1.00  0.00    -0.012 C 
ATOM      3  C   UNL     1      60.468  63.881  46.447  1.00  0.00    -0.019 C 
ATOM      4  C   UNL     1      60.190  62.405  46.542  1.00  0.00     0.036 C 
ATOM      5  C   UNL     1      60.695  61.662  45.290  1.00  0.00     0.025 C 
ATOM      6  C   UNL     1      60.094  62.289  44.017  1.00  0.00     0.089 C 
ATOM      7  C   UNL     1      60.318  63.776  44.002  1.00  0.00     0.158 C 
ATOM      8  O   UNL     1      60.301  64.388  42.901  1.00  0.00    -0.295 OA
ENDROOT
BRANCH   5   9
ATOM      9  C   UNL     1      60.415  60.169  45.369  1.00  0.00    -0.077 C 
ATOM     10  C   UNL     1      59.738  59.635  46.401  1.00  0.00     0.008 C 
ATOM     11  C   UNL     1      60.916  59.283  44.259  1.00  0.00     0.039 C 
ENDBRANCH   5   9
TORSDOF 1
ENDMDL
MODEL 5
REMARK VINA RESULT:    -4.491     17.150     17.933
REMARK INTER + INTRA:          -4.856
REMARK INTER:                  -4.755
REMARK INTRA:                  -0.101
REMARK UNBOUND:                -0.102
REMARK SMILES C=C(C)[C@@H]1CC=C(C)C(=O)C1
REMARK SMILES IDX 8 1 7 2 6 3 5 4 4 5 11 6 9 7 10 8 2 9 1 10 3 11
REMARK H PARENT
REMARK Flexibility Score: inf
ROOT
ATOM      1  C   UNL     1      44.151  64.112  45.247  1.00  0.00     0.048 C 
ATOM      2  C   UNL     1      43.798  62.674  44.981  1.00  0.00    -0.012 C 
ATOM      3  C   UNL     1      42.915  62.363  44.016  1.00  0.00    -0.019 C 
ATOM      4  C   UNL     1      42.590  60.938  43.658  1.00  0.00     0.036 C 
ATOM      5  C   UNL     1      42.724  60.013  44.884  1.00  0.00     0.025 C 
ATOM      6  C   UNL     1      44.125  60.153  45.510  1.00  0.00     0.089 C 
ATOM      7  C   UNL     1      44.445  61.599  45.772  1.00  0.00     0.158 C 
ATOM      8  O   UNL     1      45.309  61.888  46.644  1.00  0.00    -0.295 OA
ENDROOT
BRANCH   5   9
ATOM      9  C   UNL     1      42.405  58.567  44.536  1.00  0.00    -0.077 C 
ATOM     10  C   UNL     1      42.581  57.575  45.428  1.00  0.00     0.008 C 
ATOM     11  C   UNL     1      41.883  58.256  43.159  1.00  0.00     0.039 C 
ENDBRANCH   5   9
TORSDOF 1
ENDMDL
MODEL 6
REMARK VINA RESULT:    -4.483      1.790      2.561
REMARK INTER + INTRA:          -4.847
REMARK INTER:                  -4.745
REMARK INTRA:                  -0.101
REMARK UNBOUND:                -0.102
REMARK SMILES C=C(C)[C@@H]1CC=C(C)C(=O)C1
REMARK SMILES IDX 8 1 7 2 6 3 5 4 4 5 11 6 9 7 10 8 2 9 1 10 3 11
REMARK H PARENT
REMARK Flexibility Score: inf
ROOT
ATOM      1  C   UNL     1      60.663  64.202  47.125  1.00  0.00     0.048 C 
ATOM      2  C   UNL     1      60.588  64.536  45.661  1.00  0.00    -0.012 C 
ATOM      3  C   UNL     1      60.609  65.818  45.258  1.00  0.00    -0.019 C 
ATOM      4  C   UNL     1      60.617  66.199  43.802  1.00  0.00     0.036 C 
ATOM      5  C   UNL     1      59.872  65.154  42.949  1.00  0.00     0.025 C 
ATOM      6  C   UNL     1      60.458  63.750  43.189  1.00  0.00     0.089 C 
ATOM      7  C   UNL     1      60.513  63.442  44.660  1.00  0.00     0.158 C 
ATOM      8  O   UNL     1      60.541  62.239  45.035  1.00  0.00    -0.295 OA
ENDROOT
BRANCH   5   9
ATOM      9  C   UNL     1      59.877  65.522  41.474  1.00  0.00    -0.077 C 
ATOM     10  C   UNL     1      59.490  64.645  40.530  1.00  0.00     0.008 C 
ATOM     11  C   UNL     1      60.329  66.903  41.077  1.00  0.00     0.039 C 
ENDBRANCH   5   9
TORSDOF 1
ENDMDL
MODEL 7
REMARK VINA RESULT:    -4.468     18.797     19.672
REMARK INTER + INTRA:          -4.831
REMARK INTER:                  -4.730
REMARK INTRA:                  -0.101
REMARK UNBOUND:                -0.102
REMARK SMILES C=C(C)[C@@H]1CC=C(C)C(=O)C1
REMARK SMILES IDX 8 1 7 2 6 3 5 4 4 5 11 6 9 7 10 8 2 9 1 10 3 11
REMARK H PARENT
REMARK Flexibility Score: inf
ROOT
ATOM      1  C   UNL     1      42.233  55.620  40.767  1.00  0.00     0.048 C 
ATOM      2  C   UNL     1      42.340  56.859  41.613  1.00  0.00    -0.012 C 
ATOM      3  C   UNL     1      42.432  56.758  42.950  1.00  0.00    -0.019 C 
ATOM      4  C   UNL     1      42.621  57.963  43.832  1.00  0.00     0.036 C 
ATOM      5  C   UNL     1      41.964  59.213  43.214  1.00  0.00     0.025 C 
ATOM      6  C   UNL     1      42.493  59.445  41.787  1.00  0.00     0.089 C 
ATOM      7  C   UNL     1      42.365  58.193  40.963  1.00  0.00     0.158 C 
ATOM      8  O   UNL     1      42.327  58.286  39.707  1.00  0.00    -0.295 OA
ENDROOT
BRANCH   5   9
ATOM      9  C   UNL     1      42.153  60.440  44.092  1.00  0.00    -0.077 C 
ATOM     10  C   UNL     1      41.875  61.677  43.639  1.00  0.00     0.008 C 
ATOM     11  C   UNL     1      42.663  60.251  45.496  1.00  0.00     0.039 C 
ENDBRANCH   5   9
TORSDOF 1
ENDMDL
MODEL 8
REMARK VINA RESULT:    -4.449     11.716     12.714
REMARK INTER + INTRA:          -4.810
REMARK INTER:                  -4.714
REMARK INTRA:                  -0.097
REMARK UNBOUND:                -0.102
REMARK SMILES C=C(C)[C@@H]1CC=C(C)C(=O)C1
REMARK SMILES IDX 8 1 7 2 6 3 5 4 4 5 11 6 9 7 10 8 2 9 1 10 3 11
REMARK H PARENT
REMARK Flexibility Score: inf
ROOT
ATOM      1  C   UNL     1      54.697  69.506  32.334  1.00  0.00     0.048 C 
ATOM      2  C   UNL     1      56.109  69.080  32.042  1.00  0.00    -0.012 C 
ATOM      3  C   UNL     1      56.686  68.109  32.770  1.00  0.00    -0.019 C 
ATOM      4  C   UNL     1      58.066  67.593  32.466  1.00  0.00     0.036 C 
ATOM      5  C   UNL     1      58.948  68.696  31.847  1.00  0.00     0.025 C 
ATOM      6  C   UNL     1      58.262  69.297  30.606  1.00  0.00     0.089 C 
ATOM      7  C   UNL     1      56.856  69.721  30.931  1.00  0.00     0.158 C 
ATOM      8  O   UNL     1      56.299  70.597  30.217  1.00  0.00    -0.295 OA
ENDROOT
BRANCH   5   9
ATOM      9  C   UNL     1      60.345  68.187  31.528  1.00  0.00    -0.077 C 
ATOM     10  C   UNL     1      60.648  66.878  31.591  1.00  0.00     0.008 C 
ATOM     11  C   UNL     1      61.403  69.185  31.135  1.00  0.00     0.039 C 
ENDBRANCH   5   9
TORSDOF 1
ENDMDL
MODEL 9
REMARK VINA RESULT:    -4.410      1.287      4.227
REMARK INTER + INTRA:          -4.770
REMARK INTER:                  -4.669
REMARK INTRA:                  -0.101
REMARK UNBOUND:                -0.102
REMARK SMILES C=C(C)[C@@H]1CC=C(C)C(=O)C1
REMARK SMILES IDX 8 1 7 2 6 3 5 4 4 5 11 6 9 7 10 8 2 9 1 10 3 11
REMARK H PARENT
REMARK Flexibility Score: inf
ROOT
ATOM      1  C   UNL     1      59.660  65.987  40.570  1.00  0.00     0.048 C 
ATOM      2  C   UNL     1      60.027  65.441  41.922  1.00  0.00    -0.012 C 
ATOM      3  C   UNL     1      60.196  64.119  42.093  1.00  0.00    -0.019 C 
ATOM      4  C   UNL     1      60.642  63.532  43.406  1.00  0.00     0.036 C 
ATOM      5  C   UNL     1      60.156  64.389  44.591  1.00  0.00     0.025 C 
ATOM      6  C   UNL     1      60.613  65.850  44.418  1.00  0.00     0.089 C 
ATOM      7  C   UNL     1      60.224  66.370  43.062  1.00  0.00     0.158 C 
ATOM      8  O   UNL     1      60.113  67.614  42.890  1.00  0.00    -0.295 OA
ENDROOT
BRANCH   5   9
ATOM      9  C   UNL     1      60.604  63.812  45.925  1.00  0.00    -0.077 C 
ATOM     10  C   UNL     1      60.997  64.607  46.937  1.00  0.00     0.008 C 
ATOM     11  C   UNL     1      60.604  62.317  46.099  1.00  0.00     0.039 C 
ENDBRANCH   5   9
TORSDOF 1
ENDMDL
