MODEL 1
REMARK VINA RESULT:    -4.245      0.000      0.000
REMARK INTER + INTRA:          -4.783
REMARK INTER:                  -4.493
REMARK INTRA:                  -0.290
REMARK UNBOUND:                -0.290
REMARK SMILES c1ccc(-c2ccccc2)cc1
REMARK SMILES IDX 1 1 2 2 3 3 4 4 11 5 12 6 5 7 6 8 10 9 7 10 9 11 8 12
REMARK H PARENT
REMARK Flexibility Score: inf
ROOT
ATOM      1  C   UNL     1       1.931 105.487 179.094  1.00  0.00     0.000 A 
ATOM      2  C   UNL     1       1.099 106.609 179.074  1.00  0.00     0.001 A 
ATOM      3  C   UNL     1       1.379 107.705 179.896  1.00  0.00     0.009 A 
ATOM      4  C   UNL     1       2.500 107.688 180.749  1.00  0.00    -0.018 A 
ATOM      5  C   UNL     1       3.330 106.552 180.759  1.00  0.00     0.009 A 
ATOM      6  C   UNL     1       3.044 105.458 179.935  1.00  0.00     0.001 A 
ENDROOT
BRANCH   4   7
ATOM      7  C   UNL     1       2.800 108.852 181.623  1.00  0.00    -0.018 A 
ATOM      8  C   UNL     1       3.875 109.712 181.324  1.00  0.00     0.009 A 
ATOM      9  C   UNL     1       2.016 109.113 182.762  1.00  0.00     0.009 A 
ATOM     10  C   UNL     1       4.155 110.807 182.148  1.00  0.00     0.001 A 
ATOM     11  C   UNL     1       2.302 110.209 183.582  1.00  0.00     0.001 A 
ATOM     12  C   UNL     1       3.370 111.055 183.275  1.00  0.00     0.000 A 
ENDBRANCH   4   7
TORSDOF 1
ENDMDL
MODEL 2
REMARK VINA RESULT:    -4.224      0.406      4.963
REMARK INTER + INTRA:          -4.761
REMARK INTER:                  -4.473
REMARK INTRA:                  -0.289
REMARK UNBOUND:                -0.290
REMARK SMILES c1ccc(-c2ccccc2)cc1
REMARK SMILES IDX 1 1 2 2 3 3 4 4 11 5 12 6 5 7 6 8 10 9 7 10 9 11 8 12
REMARK H PARENT
REMARK Flexibility Score: inf
ROOT
ATOM      1  C   UNL     1       3.509 110.852 182.908  1.00  0.00     0.000 A 
ATOM      2  C   UNL     1       4.249 110.604 181.748  1.00  0.00     0.001 A 
ATOM      3  C   UNL     1       3.952 109.495 180.950  1.00  0.00     0.009 A 
ATOM      4  C   UNL     1       2.907 108.620 181.305  1.00  0.00    -0.018 A 
ATOM      5  C   UNL     1       2.169 108.882 182.475  1.00  0.00     0.009 A 
ATOM      6  C   UNL     1       2.472 109.992 183.270  1.00  0.00     0.001 A 
ENDROOT
BRANCH   4   7
ATOM      7  C   UNL     1       2.589 107.442 180.458  1.00  0.00    -0.018 A 
ATOM      8  C   UNL     1       3.379 106.279 180.524  1.00  0.00     0.009 A 
ATOM      9  C   UNL     1       1.491 107.470 179.576  1.00  0.00     0.009 A 
ATOM     10  C   UNL     1       3.077 105.171 179.726  1.00  0.00     0.001 A 
ATOM     11  C   UNL     1       1.194 106.359 178.781  1.00  0.00     0.001 A 
ATOM     12  C   UNL     1       1.986 105.211 178.856  1.00  0.00     0.000 A 
ENDBRANCH   4   7
TORSDOF 1
ENDMDL
MODEL 3
REMARK VINA RESULT:    -4.201      2.307      4.754
REMARK INTER + INTRA:          -4.737
REMARK INTER:                  -4.433
REMARK INTRA:                  -0.304
REMARK UNBOUND:                -0.290
REMARK SMILES c1ccc(-c2ccccc2)cc1
REMARK SMILES IDX 1 1 2 2 3 3 4 4 11 5 12 6 5 7 6 8 10 9 7 10 9 11 8 12
REMARK H PARENT
REMARK Flexibility Score: inf
ROOT
ATOM      1  C   UNL     1       7.063 106.337 182.708  1.00  0.00     0.000 A 
ATOM      2  C   UNL     1       5.917 106.842 183.328  1.00  0.00     0.001 A 
ATOM      3  C   UNL     1       4.715 106.926 182.619  1.00  0.00     0.009 A 
ATOM      4  C   UNL     1       4.646 106.503 181.278  1.00  0.00    -0.018 A 
ATOM      5  C   UNL     1       5.807 105.994 180.665  1.00  0.00     0.009 A 
ATOM      6  C   UNL     1       7.008 105.914 181.379  1.00  0.00     0.001 A 
ENDROOT
BRANCH   4   7
ATOM      7  C   UNL     1       3.370 106.589 180.523  1.00  0.00    -0.018 A 
ATOM      8  C   UNL     1       2.915 105.498 179.758  1.00  0.00     0.009 A 
ATOM      9  C   UNL     1       2.595 107.764 180.561  1.00  0.00     0.009 A 
ATOM     10  C   UNL     1       1.713 105.582 179.049  1.00  0.00     0.001 A 
ATOM     11  C   UNL     1       1.393 107.842 179.849  1.00  0.00     0.001 A 
ATOM     12  C   UNL     1       0.952 106.753 179.095  1.00  0.00     0.000 A 
ENDBRANCH   4   7
TORSDOF 1
ENDMDL
MODEL 4
REMARK VINA RESULT:    -4.196      2.317      4.820
REMARK INTER + INTRA:          -4.732
REMARK INTER:                  -4.427
REMARK INTRA:                  -0.305
REMARK UNBOUND:                -0.290
REMARK SMILES c1ccc(-c2ccccc2)cc1
REMARK SMILES IDX 1 1 2 2 3 3 4 4 11 5 12 6 5 7 6 8 10 9 7 10 9 11 8 12
REMARK H PARENT
REMARK Flexibility Score: inf
ROOT
ATOM      1  C   UNL     1       7.038 106.379 182.748  1.00  0.00     0.000 A 
ATOM      2  C   UNL     1       6.991 105.916 181.430  1.00  0.00     0.001 A 
ATOM      3  C   UNL     1       5.796 105.979 180.707  1.00  0.00     0.009 A 
ATOM      4  C   UNL     1       4.632 106.508 181.297  1.00  0.00    -0.018 A 
ATOM      5  C   UNL     1       4.693 106.972 182.625  1.00  0.00     0.009 A 
ATOM      6  C   UNL     1       5.891 106.906 183.344  1.00  0.00     0.001 A 
ENDROOT
BRANCH   4   7
ATOM      7  C   UNL     1       3.362 106.577 180.530  1.00  0.00    -0.018 A 
ATOM      8  C   UNL     1       2.931 105.481 179.757  1.00  0.00     0.009 A 
ATOM      9  C   UNL     1       2.567 107.739 180.564  1.00  0.00     0.009 A 
ATOM     10  C   UNL     1       1.735 105.549 179.037  1.00  0.00     0.001 A 
ATOM     11  C   UNL     1       1.372 107.800 179.840  1.00  0.00     0.001 A 
ATOM     12  C   UNL     1       0.956 106.707 179.079  1.00  0.00     0.000 A 
ENDBRANCH   4   7
TORSDOF 1
ENDMDL
MODEL 5
REMARK VINA RESULT:    -4.193      2.337      3.675
REMARK INTER + INTRA:          -4.728
REMARK INTER:                  -4.422
REMARK INTRA:                  -0.306
REMARK UNBOUND:                -0.290
REMARK SMILES c1ccc(-c2ccccc2)cc1
REMARK SMILES IDX 1 1 2 2 3 3 4 4 11 5 12 6 5 7 6 8 10 9 7 10 9 11 8 12
REMARK H PARENT
REMARK Flexibility Score: inf
ROOT
ATOM      1  C   UNL     1       0.939 106.690 179.061  1.00  0.00     0.000 A 
ATOM      2  C   UNL     1       1.345 107.772 179.846  1.00  0.00     0.001 A 
ATOM      3  C   UNL     1       2.540 107.704 180.570  1.00  0.00     0.009 A 
ATOM      4  C   UNL     1       3.343 106.549 180.514  1.00  0.00    -0.018 A 
ATOM      5  C   UNL     1       2.924 105.466 179.718  1.00  0.00     0.009 A 
ATOM      6  C   UNL     1       1.727 105.539 178.997  1.00  0.00     0.001 A 
ENDROOT
BRANCH   4   7
ATOM      7  C   UNL     1       4.614 106.475 181.280  1.00  0.00    -0.018 A 
ATOM      8  C   UNL     1       4.670 106.916 182.617  1.00  0.00     0.009 A 
ATOM      9  C   UNL     1       5.781 105.962 180.684  1.00  0.00     0.009 A 
ATOM     10  C   UNL     1       5.867 106.845 183.336  1.00  0.00     0.001 A 
ATOM     11  C   UNL     1       6.975 105.894 181.409  1.00  0.00     0.001 A 
ATOM     12  C   UNL     1       7.018 106.334 182.733  1.00  0.00     0.000 A 
ENDBRANCH   4   7
TORSDOF 1
ENDMDL
MODEL 6
REMARK VINA RESULT:    -4.192      2.338      3.655
REMARK INTER + INTRA:          -4.727
REMARK INTER:                  -4.423
REMARK INTRA:                  -0.304
REMARK UNBOUND:                -0.290
REMARK SMILES c1ccc(-c2ccccc2)cc1
REMARK SMILES IDX 1 1 2 2 3 3 4 4 11 5 12 6 5 7 6 8 10 9 7 10 9 11 8 12
REMARK H PARENT
REMARK Flexibility Score: inf
ROOT
ATOM      1  C   UNL     1       0.990 106.676 179.095  1.00  0.00     0.000 A 
ATOM      2  C   UNL     1       1.753 105.507 179.050  1.00  0.00     0.001 A 
ATOM      3  C   UNL     1       2.959 105.428 179.755  1.00  0.00     0.009 A 
ATOM      4  C   UNL     1       3.413 106.523 180.515  1.00  0.00    -0.018 A 
ATOM      5  C   UNL     1       2.635 107.695 180.553  1.00  0.00     0.009 A 
ATOM      6  C   UNL     1       1.430 107.768 179.845  1.00  0.00     0.001 A 
ENDROOT
BRANCH   4   7
ATOM      7  C   UNL     1       4.693 106.441 181.266  1.00  0.00    -0.018 A 
ATOM      8  C   UNL     1       5.855 105.942 180.647  1.00  0.00     0.009 A 
ATOM      9  C   UNL     1       4.763 106.861 182.607  1.00  0.00     0.009 A 
ATOM     10  C   UNL     1       7.058 105.867 181.355  1.00  0.00     0.001 A 
ATOM     11  C   UNL     1       5.970 106.783 183.310  1.00  0.00     0.001 A 
ATOM     12  C   UNL     1       7.116 106.287 182.686  1.00  0.00     0.000 A 
ENDBRANCH   4   7
TORSDOF 1
ENDMDL
MODEL 7
REMARK VINA RESULT:    -4.157      1.366      2.149
REMARK INTER + INTRA:          -4.691
REMARK INTER:                  -4.368
REMARK INTRA:                  -0.323
REMARK UNBOUND:                -0.290
REMARK SMILES c1ccc(-c2ccccc2)cc1
REMARK SMILES IDX 1 1 2 2 3 3 4 4 11 5 12 6 5 7 6 8 10 9 7 10 9 11 8 12
REMARK H PARENT
REMARK Flexibility Score: inf
ROOT
ATOM      1  C   UNL     1       1.946 104.757 177.650  1.00  0.00     0.000 A 
ATOM      2  C   UNL     1       1.198 105.886 177.994  1.00  0.00     0.001 A 
ATOM      3  C   UNL     1       1.594 106.688 179.069  1.00  0.00     0.009 A 
ATOM      4  C   UNL     1       2.747 106.368 179.811  1.00  0.00    -0.018 A 
ATOM      5  C   UNL     1       3.492 105.229 179.454  1.00  0.00     0.009 A 
ATOM      6  C   UNL     1       3.091 104.429 178.378  1.00  0.00     0.001 A 
ENDROOT
BRANCH   4   7
ATOM      7  C   UNL     1       3.170 107.220 180.953  1.00  0.00    -0.018 A 
ATOM      8  C   UNL     1       2.521 108.442 181.213  1.00  0.00     0.009 A 
ATOM      9  C   UNL     1       4.227 106.819 181.792  1.00  0.00     0.009 A 
ATOM     10  C   UNL     1       2.921 109.242 182.288  1.00  0.00     0.001 A 
ATOM     11  C   UNL     1       4.622 107.623 182.865  1.00  0.00     0.001 A 
ATOM     12  C   UNL     1       3.970 108.833 183.114  1.00  0.00     0.000 A 
ENDBRANCH   4   7
TORSDOF 1
ENDMDL
MODEL 8
REMARK VINA RESULT:    -4.128      1.402      5.059
REMARK INTER + INTRA:          -4.659
REMARK INTER:                  -4.337
REMARK INTRA:                  -0.323
REMARK UNBOUND:                -0.290
REMARK SMILES c1ccc(-c2ccccc2)cc1
REMARK SMILES IDX 1 1 2 2 3 3 4 4 11 5 12 6 5 7 6 8 10 9 7 10 9 11 8 12
REMARK H PARENT
REMARK Flexibility Score: inf
ROOT
ATOM      1  C   UNL     1       4.165 108.616 183.186  1.00  0.00     0.000 A 
ATOM      2  C   UNL     1       3.074 109.074 182.444  1.00  0.00     0.001 A 
ATOM      3  C   UNL     1       2.611 108.337 181.350  1.00  0.00     0.009 A 
ATOM      4  C   UNL     1       3.237 107.128 180.988  1.00  0.00    -0.018 A 
ATOM      5  C   UNL     1       4.335 106.677 181.745  1.00  0.00     0.009 A 
ATOM      6  C   UNL     1       4.794 107.420 182.838  1.00  0.00     0.001 A 
ENDROOT
BRANCH   4   7
ATOM      7  C   UNL     1       2.747 106.342 179.826  1.00  0.00    -0.018 A 
ATOM      8  C   UNL     1       3.439 105.194 179.395  1.00  0.00     0.009 A 
ATOM      9  C   UNL     1       1.581 106.732 179.139  1.00  0.00     0.009 A 
ATOM     10  C   UNL     1       2.975 104.456 178.303  1.00  0.00     0.001 A 
ATOM     11  C   UNL     1       1.122 105.989 178.047  1.00  0.00     0.001 A 
ATOM     12  C   UNL     1       1.818 104.852 177.629  1.00  0.00     0.000 A 
ENDBRANCH   4   7
TORSDOF 1
ENDMDL
MODEL 9
REMARK VINA RESULT:    -4.112      2.020      2.769
REMARK INTER + INTRA:          -4.643
REMARK INTER:                  -4.320
REMARK INTRA:                  -0.323
REMARK UNBOUND:                -0.290
REMARK SMILES c1ccc(-c2ccccc2)cc1
REMARK SMILES IDX 1 1 2 2 3 3 4 4 11 5 12 6 5 7 6 8 10 9 7 10 9 11 8 12
REMARK H PARENT
REMARK Flexibility Score: inf
ROOT
ATOM      1  C   UNL     1       1.334 106.468 179.115  1.00  0.00     0.000 A 
ATOM      2  C   UNL     1       2.331 105.562 179.484  1.00  0.00     0.001 A 
ATOM      3  C   UNL     1       3.290 105.923 180.436  1.00  0.00     0.009 A 
ATOM      4  C   UNL     1       3.258 107.199 181.031  1.00  0.00    -0.018 A 
ATOM      5  C   UNL     1       2.247 108.102 180.651  1.00  0.00     0.009 A 
ATOM      6  C   UNL     1       1.292 107.735 179.697  1.00  0.00     0.001 A 
ENDROOT
BRANCH   4   7
ATOM      7  C   UNL     1       4.274 107.586 182.043  1.00  0.00    -0.018 A 
ATOM      8  C   UNL     1       5.202 106.641 182.522  1.00  0.00     0.009 A 
ATOM      9  C   UNL     1       4.326 108.902 182.539  1.00  0.00     0.009 A 
ATOM     10  C   UNL     1       6.158 107.007 183.475  1.00  0.00     0.001 A 
ATOM     11  C   UNL     1       5.284 109.262 183.492  1.00  0.00     0.001 A 
ATOM     12  C   UNL     1       6.199 108.316 183.960  1.00  0.00     0.000 A 
ENDBRANCH   4   7
TORSDOF 1
ENDMDL
