MODEL 1
REMARK VINA RESULT:    -5.960      0.000      0.000
REMARK INTER + INTRA:          -6.549
REMARK INTER:                  -6.308
REMARK INTRA:                  -0.241
REMARK UNBOUND:                -0.241
REMARK SMILES O=c1cc(-c2ccccc2)oc2ccccc12
REMARK SMILES IDX 4 1 3 2 2 3 1 4 17 5 16 6 15 7 14 8 13 9 12 10 11 11 5 12
REMARK SMILES IDX 8 13 7 14 9 15 6 16 10 17
REMARK H PARENT
REMARK Flexibility Score: inf
ROOT
ATOM      1  C   UNL     1     -19.794  21.492  41.860  1.00  0.00     0.138 A 
ATOM      2  C   UNL     1     -20.863  21.146  41.005  1.00  0.00     0.100 A 
ATOM      3  C   UNL     1     -21.709  22.146  40.523  1.00  0.00     0.193 A 
ATOM      4  O   UNL     1     -22.664  21.837  39.759  1.00  0.00    -0.289 OA
ATOM      5  C   UNL     1     -21.486  23.479  40.895  1.00  0.00     0.065 A 
ATOM      6  C   UNL     1     -22.301  24.534  40.444  1.00  0.00     0.016 A 
ATOM      7  C   UNL     1     -22.033  25.846  40.846  1.00  0.00     0.001 A 
ATOM      8  C   UNL     1     -20.957  26.115  41.695  1.00  0.00     0.004 A 
ATOM      9  C   UNL     1     -20.141  25.074  42.147  1.00  0.00     0.048 A 
ATOM     10  C   UNL     1     -20.401  23.756  41.751  1.00  0.00     0.138 A 
ATOM     11  O   UNL     1     -19.620  22.773  42.187  1.00  0.00    -0.456 OA
ENDROOT
BRANCH   1  12
ATOM     12  C   UNL     1     -18.842  20.485  42.421  1.00  0.00     0.017 A 
ATOM     13  C   UNL     1     -17.031  18.549  43.391  1.00  0.00     0.000 A 
ATOM     14  C   UNL     1     -17.339  18.598  42.032  1.00  0.00     0.001 A 
ATOM     15  C   UNL     1     -17.618  19.458  44.271  1.00  0.00     0.001 A 
ATOM     16  C   UNL     1     -18.236  19.556  41.550  1.00  0.00     0.012 A 
ATOM     17  C   UNL     1     -18.516  20.419  43.797  1.00  0.00     0.012 A 
ENDBRANCH   1  12
TORSDOF 1
ENDMDL
MODEL 2
REMARK VINA RESULT:    -5.925      2.200      6.943
REMARK INTER + INTRA:          -6.512
REMARK INTER:                  -6.291
REMARK INTRA:                  -0.221
REMARK UNBOUND:                -0.241
REMARK SMILES O=c1cc(-c2ccccc2)oc2ccccc12
REMARK SMILES IDX 4 1 3 2 2 3 1 4 17 5 16 6 15 7 14 8 13 9 12 10 11 11 5 12
REMARK SMILES IDX 8 13 7 14 9 15 6 16 10 17
REMARK H PARENT
REMARK Flexibility Score: inf
ROOT
ATOM      1  C   UNL     1     -18.552  20.075  42.067  1.00  0.00     0.138 A 
ATOM      2  C   UNL     1     -18.170  20.030  43.425  1.00  0.00     0.100 A 
ATOM      3  C   UNL     1     -17.370  18.982  43.881  1.00  0.00     0.193 A 
ATOM      4  O   UNL     1     -17.029  18.942  45.094  1.00  0.00    -0.289 OA
ATOM      5  C   UNL     1     -16.957  17.987  42.983  1.00  0.00     0.065 A 
ATOM      6  C   UNL     1     -16.150  16.904  43.377  1.00  0.00     0.016 A 
ATOM      7  C   UNL     1     -15.767  15.939  42.441  1.00  0.00     0.001 A 
ATOM      8  C   UNL     1     -16.183  16.046  41.111  1.00  0.00     0.004 A 
ATOM      9  C   UNL     1     -16.984  17.120  40.710  1.00  0.00     0.048 A 
ATOM     10  C   UNL     1     -17.374  18.091  41.640  1.00  0.00     0.138 A 
ATOM     11  O   UNL     1     -18.136  19.107  41.249  1.00  0.00    -0.456 OA
ENDROOT
BRANCH   1  12
ATOM     12  C   UNL     1     -19.407  21.161  41.496  1.00  0.00     0.017 A 
ATOM     13  C   UNL     1     -21.099  23.164  40.452  1.00  0.00     0.000 A 
ATOM     14  C   UNL     1     -21.644  22.068  41.119  1.00  0.00     0.001 A 
ATOM     15  C   UNL     1     -19.717  23.270  40.301  1.00  0.00     0.001 A 
ATOM     16  C   UNL     1     -20.808  21.075  41.637  1.00  0.00     0.012 A 
ATOM     17  C   UNL     1     -18.873  22.281  40.816  1.00  0.00     0.012 A 
ENDBRANCH   1  12
TORSDOF 1
ENDMDL
MODEL 3
REMARK VINA RESULT:    -5.912     15.479     17.382
REMARK INTER + INTRA:          -6.498
REMARK INTER:                  -6.237
REMARK INTRA:                  -0.261
REMARK UNBOUND:                -0.241
REMARK SMILES O=c1cc(-c2ccccc2)oc2ccccc12
REMARK SMILES IDX 4 1 3 2 2 3 1 4 17 5 16 6 15 7 14 8 13 9 12 10 11 11 5 12
REMARK SMILES IDX 8 13 7 14 9 15 6 16 10 17
REMARK H PARENT
REMARK Flexibility Score: inf
ROOT
ATOM      1  C   UNL     1      -6.898  31.277  46.905  1.00  0.00     0.138 A 
ATOM      2  C   UNL     1      -8.090  31.032  46.190  1.00  0.00     0.100 A 
ATOM      3  C   UNL     1      -8.308  29.773  45.628  1.00  0.00     0.193 A 
ATOM      4  O   UNL     1      -9.373  29.553  44.989  1.00  0.00    -0.289 OA
ATOM      5  C   UNL     1      -7.340  28.770  45.782  1.00  0.00     0.065 A 
ATOM      6  C   UNL     1      -7.499  27.481  45.241  1.00  0.00     0.016 A 
ATOM      7  C   UNL     1      -6.502  26.518  45.424  1.00  0.00     0.001 A 
ATOM      8  C   UNL     1      -5.345  26.831  46.143  1.00  0.00     0.004 A 
ATOM      9  C   UNL     1      -5.180  28.109  46.685  1.00  0.00     0.048 A 
ATOM     10  C   UNL     1      -6.172  29.081  46.507  1.00  0.00     0.138 A 
ATOM     11  O   UNL     1      -6.005  30.293  47.026  1.00  0.00    -0.456 OA
ENDROOT
BRANCH   1  12
ATOM     12  C   UNL     1      -6.584  32.595  47.538  1.00  0.00     0.017 A 
ATOM     13  C   UNL     1      -6.057  35.125  48.673  1.00  0.00     0.000 A 
ATOM     14  C   UNL     1      -6.989  35.002  47.643  1.00  0.00     0.001 A 
ATOM     15  C   UNL     1      -5.386  33.997  49.142  1.00  0.00     0.001 A 
ATOM     16  C   UNL     1      -7.251  33.750  47.079  1.00  0.00     0.012 A 
ATOM     17  C   UNL     1      -5.643  32.740  48.584  1.00  0.00     0.012 A 
ENDBRANCH   1  12
TORSDOF 1
ENDMDL
MODEL 4
REMARK VINA RESULT:    -5.760     15.397     17.242
REMARK INTER + INTRA:          -6.337
REMARK INTER:                  -6.077
REMARK INTRA:                  -0.261
REMARK UNBOUND:                -0.241
REMARK SMILES O=c1cc(-c2ccccc2)oc2ccccc12
REMARK SMILES IDX 4 1 3 2 2 3 1 4 17 5 16 6 15 7 14 8 13 9 12 10 11 11 5 12
REMARK SMILES IDX 8 13 7 14 9 15 6 16 10 17
REMARK H PARENT
REMARK Flexibility Score: inf
ROOT
ATOM      1  C   UNL     1      -6.685  31.227  47.028  1.00  0.00     0.138 A 
ATOM      2  C   UNL     1      -5.714  30.218  47.208  1.00  0.00     0.100 A 
ATOM      3  C   UNL     1      -5.899  28.970  46.610  1.00  0.00     0.193 A 
ATOM      4  O   UNL     1      -5.032  28.069  46.771  1.00  0.00    -0.289 OA
ATOM      5  C   UNL     1      -7.047  28.737  45.839  1.00  0.00     0.065 A 
ATOM      6  C   UNL     1      -7.293  27.502  45.210  1.00  0.00     0.016 A 
ATOM      7  C   UNL     1      -8.455  27.323  44.452  1.00  0.00     0.001 A 
ATOM      8  C   UNL     1      -9.374  28.367  44.317  1.00  0.00     0.004 A 
ATOM      9  C   UNL     1      -9.137  29.597  44.938  1.00  0.00     0.048 A 
ATOM     10  C   UNL     1      -7.977  29.787  45.699  1.00  0.00     0.138 A 
ATOM     11  O   UNL     1      -7.761  30.960  46.286  1.00  0.00    -0.456 OA
ENDROOT
BRANCH   1  12
ATOM     12  C   UNL     1      -6.566  32.589  47.632  1.00  0.00     0.017 A 
ATOM     13  C   UNL     1      -6.279  35.125  48.838  1.00  0.00     0.000 A 
ATOM     14  C   UNL     1      -5.583  34.028  49.344  1.00  0.00     0.001 A 
ATOM     15  C   UNL     1      -7.116  34.968  47.734  1.00  0.00     0.001 A 
ATOM     16  C   UNL     1      -5.724  32.771  48.749  1.00  0.00     0.012 A 
ATOM     17  C   UNL     1      -7.263  33.714  47.132  1.00  0.00     0.012 A 
ENDBRANCH   1  12
TORSDOF 1
ENDMDL
MODEL 5
REMARK VINA RESULT:    -5.749      1.646      2.056
REMARK INTER + INTRA:          -6.326
REMARK INTER:                  -6.105
REMARK INTRA:                  -0.220
REMARK UNBOUND:                -0.241
REMARK SMILES O=c1cc(-c2ccccc2)oc2ccccc12
REMARK SMILES IDX 4 1 3 2 2 3 1 4 17 5 16 6 15 7 14 8 13 9 12 10 11 11 5 12
REMARK SMILES IDX 8 13 7 14 9 15 6 16 10 17
REMARK H PARENT
REMARK Flexibility Score: inf
ROOT
ATOM      1  C   UNL     1     -19.118  21.117  41.417  1.00  0.00     0.138 A 
ATOM      2  C   UNL     1     -20.517  21.051  41.241  1.00  0.00     0.100 A 
ATOM      3  C   UNL     1     -21.167  22.054  40.519  1.00  0.00     0.193 A 
ATOM      4  O   UNL     1     -22.417  21.996  40.362  1.00  0.00    -0.289 OA
ATOM      5  C   UNL     1     -20.421  23.112  39.980  1.00  0.00     0.065 A 
ATOM      6  C   UNL     1     -21.014  24.153  39.243  1.00  0.00     0.016 A 
ATOM      7  C   UNL     1     -20.223  25.184  38.728  1.00  0.00     0.001 A 
ATOM      8  C   UNL     1     -18.842  25.185  38.941  1.00  0.00     0.004 A 
ATOM      9  C   UNL     1     -18.244  24.154  39.672  1.00  0.00     0.048 A 
ATOM     10  C   UNL     1     -19.027  23.117  40.193  1.00  0.00     0.138 A 
ATOM     11  O   UNL     1     -18.449  22.141  40.886  1.00  0.00    -0.456 OA
ENDROOT
BRANCH   1  12
ATOM     12  C   UNL     1     -18.343  20.086  42.175  1.00  0.00     0.017 A 
ATOM     13  C   UNL     1     -16.897  18.192  43.687  1.00  0.00     0.000 A 
ATOM     14  C   UNL     1     -17.453  19.307  44.312  1.00  0.00     0.001 A 
ATOM     15  C   UNL     1     -17.057  18.013  42.313  1.00  0.00     0.001 A 
ATOM     16  C   UNL     1     -18.169  20.247  43.565  1.00  0.00     0.012 A 
ATOM     17  C   UNL     1     -17.772  18.948  41.558  1.00  0.00     0.012 A 
ENDBRANCH   1  12
TORSDOF 1
ENDMDL
MODEL 6
REMARK VINA RESULT:    -5.632      2.272      3.853
REMARK INTER + INTRA:          -6.202
REMARK INTER:                  -5.981
REMARK INTRA:                  -0.221
REMARK UNBOUND:                -0.241
REMARK SMILES O=c1cc(-c2ccccc2)oc2ccccc12
REMARK SMILES IDX 4 1 3 2 2 3 1 4 17 5 16 6 15 7 14 8 13 9 12 10 11 11 5 12
REMARK SMILES IDX 8 13 7 14 9 15 6 16 10 17
REMARK H PARENT
REMARK Flexibility Score: inf
ROOT
ATOM      1  C   UNL     1     -17.532  19.169  41.727  1.00  0.00     0.138 A 
ATOM      2  C   UNL     1     -16.697  20.219  41.287  1.00  0.00     0.100 A 
ATOM      3  C   UNL     1     -17.250  21.473  41.021  1.00  0.00     0.193 A 
ATOM      4  O   UNL     1     -16.504  22.411  40.629  1.00  0.00    -0.289 OA
ATOM      5  C   UNL     1     -18.627  21.671  41.194  1.00  0.00     0.065 A 
ATOM      6  C   UNL     1     -19.248  22.909  40.943  1.00  0.00     0.016 A 
ATOM      7  C   UNL     1     -20.626  23.052  41.132  1.00  0.00     0.001 A 
ATOM      8  C   UNL     1     -21.392  21.968  41.568  1.00  0.00     0.004 A 
ATOM      9  C   UNL     1     -20.784  20.734  41.821  1.00  0.00     0.048 A 
ATOM     10  C   UNL     1     -19.405  20.580  41.635  1.00  0.00     0.138 A 
ATOM     11  O   UNL     1     -18.836  19.404  41.877  1.00  0.00    -0.456 OA
ENDROOT
BRANCH   1  12
ATOM     12  C   UNL     1     -17.022  17.797  42.034  1.00  0.00     0.017 A 
ATOM     13  C   UNL     1     -16.067  15.186  42.519  1.00  0.00     0.000 A 
ATOM     14  C   UNL     1     -16.403  15.578  41.224  1.00  0.00     0.001 A 
ATOM     15  C   UNL     1     -16.203  16.087  43.575  1.00  0.00     0.001 A 
ATOM     16  C   UNL     1     -16.876  16.870  40.981  1.00  0.00     0.012 A 
ATOM     17  C   UNL     1     -16.676  17.382  43.341  1.00  0.00     0.012 A 
ENDBRANCH   1  12
TORSDOF 1
ENDMDL
MODEL 7
REMARK VINA RESULT:    -5.616     15.655     16.970
REMARK INTER + INTRA:          -6.185
REMARK INTER:                  -5.927
REMARK INTRA:                  -0.258
REMARK UNBOUND:                -0.241
REMARK SMILES O=c1cc(-c2ccccc2)oc2ccccc12
REMARK SMILES IDX 4 1 3 2 2 3 1 4 17 5 16 6 15 7 14 8 13 9 12 10 11 11 5 12
REMARK SMILES IDX 8 13 7 14 9 15 6 16 10 17
REMARK H PARENT
REMARK Flexibility Score: inf
ROOT
ATOM      1  C   UNL     1      -6.934  30.665  46.481  1.00  0.00     0.138 A 
ATOM      2  C   UNL     1      -7.759  31.512  45.710  1.00  0.00     0.100 A 
ATOM      3  C   UNL     1      -7.885  32.857  46.064  1.00  0.00     0.193 A 
ATOM      4  O   UNL     1      -8.621  33.614  45.375  1.00  0.00    -0.289 OA
ATOM      5  C   UNL     1      -7.191  33.346  47.180  1.00  0.00     0.065 A 
ATOM      6  C   UNL     1      -7.275  34.690  47.589  1.00  0.00     0.016 A 
ATOM      7  C   UNL     1      -6.562  35.125  48.710  1.00  0.00     0.001 A 
ATOM      8  C   UNL     1      -5.764  34.229  49.428  1.00  0.00     0.004 A 
ATOM      9  C   UNL     1      -5.675  32.893  49.027  1.00  0.00     0.048 A 
ATOM     10  C   UNL     1      -6.385  32.446  47.907  1.00  0.00     0.138 A 
ATOM     11  O   UNL     1      -6.293  31.174  47.535  1.00  0.00    -0.456 OA
ENDROOT
BRANCH   1  12
ATOM     12  C   UNL     1      -6.743  29.214  46.173  1.00  0.00     0.017 A 
ATOM     13  C   UNL     1      -6.469  26.476  45.547  1.00  0.00     0.000 A 
ATOM     14  C   UNL     1      -7.612  27.170  45.155  1.00  0.00     0.001 A 
ATOM     15  C   UNL     1      -5.460  27.135  46.249  1.00  0.00     0.001 A 
ATOM     16  C   UNL     1      -7.750  28.526  45.464  1.00  0.00     0.012 A 
ATOM     17  C   UNL     1      -5.590  28.492  46.562  1.00  0.00     0.012 A 
ENDBRANCH   1  12
TORSDOF 1
ENDMDL
MODEL 8
REMARK VINA RESULT:    -5.609      6.766      8.381
REMARK INTER + INTRA:          -6.177
REMARK INTER:                  -5.955
REMARK INTRA:                  -0.222
REMARK UNBOUND:                -0.241
REMARK SMILES O=c1cc(-c2ccccc2)oc2ccccc12
REMARK SMILES IDX 4 1 3 2 2 3 1 4 17 5 16 6 15 7 14 8 13 9 12 10 11 11 5 12
REMARK SMILES IDX 8 13 7 14 9 15 6 16 10 17
REMARK H PARENT
REMARK Flexibility Score: inf
ROOT
ATOM      1  C   UNL     1     -20.633  22.699  34.853  1.00  0.00     0.138 A 
ATOM      2  C   UNL     1     -19.415  22.076  34.506  1.00  0.00     0.100 A 
ATOM      3  C   UNL     1     -18.518  22.739  33.667  1.00  0.00     0.193 A 
ATOM      4  O   UNL     1     -17.429  22.183  33.357  1.00  0.00    -0.289 OA
ATOM      5  C   UNL     1     -18.840  24.014  33.181  1.00  0.00     0.065 A 
ATOM      6  C   UNL     1     -17.980  24.736  32.331  1.00  0.00     0.016 A 
ATOM      7  C   UNL     1     -18.351  26.004  31.875  1.00  0.00     0.001 A 
ATOM      8  C   UNL     1     -19.574  26.560  32.259  1.00  0.00     0.004 A 
ATOM      9  C   UNL     1     -20.434  25.850  33.103  1.00  0.00     0.048 A 
ATOM     10  C   UNL     1     -20.073  24.579  33.566  1.00  0.00     0.138 A 
ATOM     11  O   UNL     1     -20.897  23.913  34.367  1.00  0.00    -0.456 OA
ENDROOT
BRANCH   1  12
ATOM     12  C   UNL     1     -21.649  22.061  35.746  1.00  0.00     0.017 A 
ATOM     13  C   UNL     1     -23.511  20.877  37.506  1.00  0.00     0.000 A 
ATOM     14  C   UNL     1     -22.340  21.445  38.006  1.00  0.00     0.001 A 
ATOM     15  C   UNL     1     -23.762  20.895  36.135  1.00  0.00     0.001 A 
ATOM     16  C   UNL     1     -21.417  22.031  37.136  1.00  0.00     0.012 A 
ATOM     17  C   UNL     1     -22.843  21.480  35.257  1.00  0.00     0.012 A 
ENDBRANCH   1  12
TORSDOF 1
ENDMDL
MODEL 9
REMARK VINA RESULT:    -5.374     12.851     14.463
REMARK INTER + INTRA:          -5.929
REMARK INTER:                  -5.700
REMARK INTRA:                  -0.230
REMARK UNBOUND:                -0.241
REMARK SMILES O=c1cc(-c2ccccc2)oc2ccccc12
REMARK SMILES IDX 4 1 3 2 2 3 1 4 17 5 16 6 15 7 14 8 13 9 12 10 11 11 5 12
REMARK SMILES IDX 8 13 7 14 9 15 6 16 10 17
REMARK H PARENT
REMARK Flexibility Score: inf
ROOT
ATOM      1  C   UNL     1      -8.910  28.568  44.460  1.00  0.00     0.138 A 
ATOM      2  C   UNL     1      -7.955  27.648  44.945  1.00  0.00     0.100 A 
ATOM      3  C   UNL     1      -6.984  28.078  45.850  1.00  0.00     0.193 A 
ATOM      4  O   UNL     1      -6.131  27.256  46.283  1.00  0.00    -0.289 OA
ATOM      5  C   UNL     1      -6.969  29.417  46.264  1.00  0.00     0.065 A 
ATOM      6  C   UNL     1      -6.017  29.915  47.174  1.00  0.00     0.016 A 
ATOM      7  C   UNL     1      -6.049  31.260  47.553  1.00  0.00     0.001 A 
ATOM      8  C   UNL     1      -7.023  32.115  47.032  1.00  0.00     0.004 A 
ATOM      9  C   UNL     1      -7.973  31.629  46.128  1.00  0.00     0.048 A 
ATOM     10  C   UNL     1      -7.951  30.284  45.741  1.00  0.00     0.138 A 
ATOM     11  O   UNL     1      -8.858  29.832  44.882  1.00  0.00    -0.456 OA
ENDROOT
BRANCH   1  12
ATOM     12  C   UNL     1      -9.984  28.192  43.490  1.00  0.00     0.017 A 
ATOM     13  C   UNL     1     -12.049  27.424  41.726  1.00  0.00     0.000 A 
ATOM     14  C   UNL     1     -12.001  26.897  43.016  1.00  0.00     0.001 A 
ATOM     15  C   UNL     1     -11.077  28.332  41.308  1.00  0.00     0.001 A 
ATOM     16  C   UNL     1     -10.979  27.276  43.891  1.00  0.00     0.012 A 
ATOM     17  C   UNL     1     -10.051  28.716  42.177  1.00  0.00     0.012 A 
ENDBRANCH   1  12
TORSDOF 1
ENDMDL
